data_PCOD9007377
_publ_section_title
;
Structure prediction by ZEFSAII (Michael W. Deem and Ramdas Pophale) SiO2 
 PCOD9007377
Probable space group: P -1
;
_chemical_formula_sum "Si O2"
_cell_formula_units_Z 16
_cell_length_a 19.567519
_cell_length_b 5.217602
_cell_length_c 7.504573
_cell_angle_alpha 62.368539
_cell_angle_beta 111.980676
_cell_angle_gamma 95.216060
_cell_volume 626.261865
_symmetry_space_group_name_H-M "P -1"
_symmetry_group_IT_number 2
_symmetry_cell_setting 'triclinic'
loop_
_space_group_symop_operation_xyz
x,y,z
-x,-y,-z
loop_
_atom_site_type_symbol
_atom_site_label
_atom_site_fract_x
_atom_site_fract_y
_atom_site_fract_z
Si Si1 0.677223 0.950641 0.238886
Si Si2 0.835348 0.935055 0.487118
Si Si3 0.637970 0.860921 0.638545
Si Si4 0.982936 0.168666 0.613225
Si Si5 0.557846 0.381328 0.883872
Si Si6 0.133996 0.113518 0.869564
Si Si7 0.795815 0.522366 0.896063
Si Si8 0.602209 0.474021 0.304343
O O1 0.753123 0.082824 0.309153
O O2 0.645055 0.875808 0.426275
O O3 0.676504 0.620624 0.277657
O O4 0.622502 0.125706 0.989928
O O5 0.861300 0.812814 0.359111
O O6 0.819362 0.690294 0.690022
O O7 0.897681 0.114761 0.577610
O O8 0.575082 0.681976 0.714693
O O9 0.714782 0.672646 0.823443
O O10 0.622605 0.206889 0.544208
O O11 0.000000 0.500000 0.500000
O O12 0.049877 0.041271 0.848508
O O13 0.000000 0.000000 0.500000
O O14 0.473916 0.335193 0.771076
O O15 0.572680 0.387773 0.108698
O O16 0.152842 0.377441 0.926479
O O17 0.189861 0.817422 0.030592
#
# Coordination Sequence:
#
# PCOD9007377 Si02
#       8
#     2   2   2   2   2   2   2   2
#     4  10  22  40  61  93 124 168 218 271 339 401
#     4  10  24  44  67  98 138 177 221 289 339 397
#     4  10  23  39  59  90 131 164 221 274 332 400
#     4  10  22  43  69 100 135 180 229 275 341 408
#     4  10  21  39  61  90 125 167 217 266 334 404
#     4  11  24  44  68  99 136 179 225 281 334 411
#     4  11  26  41  69 103 134 177 235 270 343 408
#     4  10  22  38  62  91 124 167 215 272 332 405
#
# _framework density 25.548418000000002
#
# number of rings (size 3 to 8) (size 9 to 14) (size 15 to 20)
#    0.000    1.750    0.000    3.000    5.250    5.500 
#    6.750    0.000    0.000    0.000    0.000    0.000 
#    0.000    0.000    0.000    0.000    0.000    0.000 
#
# Total GULP energy -89190.675706 kJ/mol
# GULP energy per Si atom -5574.417232 kJ/mol
# Density = 2.549027 g / cm^3
# Si number density = 25.548418 Si / 1000 Ang^3
#
#
#
# Elastic Constant Matrix: (Units=GPa)
#
#
# Indices 1 2 3 4 5 6 
#
# 1 89.9754 22.8603 33.3509 -0.3151 26.1183 28.8025
# 2 22.8603 63.9168 4.1968 -7.7067 19.5984 12.3674
# 3 33.3509 4.1968 71.7325 -5.2981 2.1827 -2.5642
# 4 -0.3151 -7.7067 -5.2981 43.4194 0.5878 6.2209
# 5 26.1183 19.5984 2.1827 0.5878 43.1960 6.6238
# 6 28.8025 12.3674 -2.5642 6.2209 6.6238 36.4559
#
#
#
# Elastic Compliance Matrix: (Units=1/GPa)
#
#
# Indices 1 2 3 4 5 6 
#
# 1 0.024792 -0.000974 -0.011683 0.001352 -0.011173 -0.018279
# 2 -0.000974 0.019934 -0.000350 0.004361 -0.007674 -0.005367
# 3 -0.011683 -0.000350 0.019656 0.000792 0.004726 0.009738
# 4 0.001352 0.004361 0.000792 0.024849 -0.002203 -0.006332
# 5 -0.011173 -0.007674 0.004726 -0.002203 0.032215 0.006286
# 6 -0.018279 -0.005367 0.009738 -0.006332 0.006286 0.044316
#
#
# Mechanical properties :
#
#
# Convention : Reuss Voigt Hill
#
# Bulk Modulus (GPa) = 26.06335 38.49343 32.27839
# Shear Modulus (GPa) = 24.44217 35.62871 30.03544
#
# Velocity S-wave (km/s) = 3.09641 3.73843 3.43246
# Velocity P-wave (km/s) = 4.79660 5.80810 5.32642
#
# Compressibility (1/GPa) = 0.03836806
#
# Stress axis : x y z
#
# Youngs Moduli (GPa) = 40.33612 50.16533 50.87549
#
# Poissons Ratio (x) = 0.04886 0.59438
# Poissons Ratio (y) = 0.03929 0.01779
# Poissons Ratio (z) = 0.47125 0.01754
#
# Static dielectric constant tensor:
#      x y z
#    x 2.261700 -0.138260 0.101910 
#    y -0.138260 2.437020 -0.059370 
#    z 0.101910 -0.059370 2.020120 
# 
# From -- ./inp_files/106122.got.cif
#   From: 2010.05.17/outbox.cif.g08.bks.cpg/sg2_54_cif.got.tgz:106122.got - 2010.06.03 11:33:40.
