data_PCOD9007823
_publ_section_title
;
Structure prediction by ZEFSAII (Michael W. Deem and Ramdas Pophale) SiO2 
 PCOD9007823
Probable space group: P -1
;
_chemical_formula_sum "Si O2"
_cell_formula_units_Z 16
_cell_length_a 7.946483
_cell_length_b 9.195814
_cell_length_c 17.859326
_cell_angle_alpha 44.012250
_cell_angle_beta 130.856383
_cell_angle_gamma 134.633121
_cell_volume 615.326488
_symmetry_space_group_name_H-M "P -1"
_symmetry_group_IT_number 2
_symmetry_cell_setting 'triclinic'
loop_
_space_group_symop_operation_xyz
x,y,z
-x,-y,-z
loop_
_atom_site_type_symbol
_atom_site_label
_atom_site_fract_x
_atom_site_fract_y
_atom_site_fract_z
Si Si1 0.358633 0.994248 0.384577
Si Si2 0.901523 0.444203 0.077368
Si Si3 0.958535 0.961628 0.615147
Si Si4 0.386169 0.549898 0.277462
Si Si5 0.713734 0.244014 0.695234
Si Si6 0.132467 0.116104 0.072775
Si Si7 0.164851 0.728272 0.651123
Si Si8 0.297310 0.027884 0.877144
O O1 0.090984 0.973446 0.338828
O O2 0.560357 0.219139 0.315514
O O3 0.500000 0.000000 0.500000
O O4 0.327241 0.793153 0.391062
O O5 0.753157 0.165869 0.130831
O O6 0.136900 0.530467 0.169492
O O7 0.767132 0.604748 0.999892
O O8 0.000000 0.500000 0.000000
O O9 0.703211 0.717504 0.629155
O O10 0.147254 0.874637 0.664099
O O11 0.949854 0.162511 0.485786
O O12 0.449508 0.676547 0.329173
O O13 0.594790 0.713166 0.221180
O O14 0.987095 0.457168 0.708142
O O15 0.694678 0.005594 0.812565
O O16 0.933933 0.031333 0.114059
O O17 0.000000 0.000000 0.000000
O O18 0.500000 0.000000 0.000000
#
# Coordination Sequence:
#
# PCOD9007823 Si02
#       8
#     2   2   2   2   2   2   2   2
#     4  10  23  43  66  97 129 170 226 278 335 396
#     4  10  21  39  63  85 133 167 211 272 317 386
#     4   9  21  40  69  92 128 171 215 277 330 400
#     4  11  22  42  62  96 131 168 226 268 330 401
#     4  11  24  42  65  95 136 169 222 284 324 405
#     4  11  22  43  63  96 134 174 215 273 333 387
#     4   9  21  46  64  94 133 169 219 277 342 388
#     4  11  22  39  65  90 128 178 223 266 328 397
#
# _framework density 26.002455999999999
#
# number of rings (size 3 to 8) (size 9 to 14) (size 15 to 20)
#    0.000    1.750    3.750    0.000    5.250    4.000 
#    0.000   19.375    0.000    0.000    0.000    0.000 
#    0.000    0.000    0.000    0.000    0.000    0.000 
#
# Total GULP energy -89302.504945 kJ/mol
# GULP energy per Si atom -5581.406559 kJ/mol
# Density = 2.594327 g / cm^3
# Si number density = 26.002456 Si / 1000 Ang^3
#
#
#
# Elastic Constant Matrix: (Units=GPa)
#
#
# Indices 1 2 3 4 5 6 
#
# 1 117.4787 7.3740 29.9162 4.5080 -26.4585 -14.8104
# 2 7.3740 110.8688 44.5952 7.4315 -10.4708 -25.4589
# 3 29.9162 44.5952 85.9393 10.2931 -2.0205 -21.8051
# 4 4.5080 7.4315 10.2931 48.0933 -16.1792 -5.1131
# 5 -26.4585 -10.4708 -2.0205 -16.1792 43.3130 2.6503
# 6 -14.8104 -25.4589 -21.8051 -5.1131 2.6503 48.6185
#
#
#
# Elastic Compliance Matrix: (Units=1/GPa)
#
#
# Indices 1 2 3 4 5 6 
#
# 1 0.011650 0.002304 -0.004748 0.002613 0.008278 0.002449
# 2 0.002304 0.012766 -0.006333 0.001096 0.004337 0.004425
# 3 -0.004748 -0.006333 0.017681 -0.003788 -0.005208 0.003053
# 4 0.002613 0.001096 -0.003788 0.025051 0.010938 0.001710
# 5 0.008278 0.004337 -0.005208 0.010938 0.032925 0.001812
# 6 0.002449 0.004425 0.003053 0.001710 0.001812 0.025082
#
#
# Mechanical properties :
#
#
# Convention : Reuss Voigt Hill
#
# Bulk Modulus (GPa) = 40.74496 53.11752 46.93124
# Shear Modulus (GPa) = 33.13701 43.49839 38.31770
#
# Velocity S-wave (km/s) = 3.57372 4.09449 3.84294
# Velocity P-wave (km/s) = 5.72121 6.54411 6.14645
#
# Compressibility (1/GPa) = 0.02454291
#
# Stress axis : x y z
#
# Youngs Moduli (GPa) = 85.84053 78.33244 56.55785
#
# Poissons Ratio (x) = -0.18048 0.26852
# Poissons Ratio (y) = -0.19778 0.35819
# Poissons Ratio (z) = 0.40755 0.49609
#
# Static dielectric constant tensor:
#      x y z
#    x 2.177580 -0.033820 0.057170 
#    y -0.033820 2.102020 0.018220 
#    z 0.057170 0.018220 2.086600 
# 
# From -- ./inp_files/555988.got.cif
#   From: 2010.05.17/outbox.cif.g08.bks.cpg/sg2_278_cif.got.tgz:555988.got - 2010.06.03 11:33:40.
