data_PCOD9007076
_publ_section_title
;
Structure prediction by ZEFSAII (Michael W. Deem and Ramdas Pophale) SiO2 
 PCOD9007076
Probable space group: P -1
;
_chemical_formula_sum "Si O2"
_cell_formula_units_Z 16
_cell_length_a 10.973984
_cell_length_b 5.306021
_cell_length_c 15.504243
_cell_angle_alpha 116.838060
_cell_angle_beta 105.062348
_cell_angle_gamma 76.965409
_cell_volume 771.706764
_symmetry_space_group_name_H-M "P -1"
_symmetry_group_IT_number 2
_symmetry_cell_setting 'triclinic'
loop_
_space_group_symop_operation_xyz
x,y,z
-x,-y,-z
loop_
_atom_site_type_symbol
_atom_site_label
_atom_site_fract_x
_atom_site_fract_y
_atom_site_fract_z
Si Si1 0.817337 0.135411 0.220114
Si Si2 0.154621 0.795034 0.574413
Si Si3 0.968794 0.713326 0.812011
Si Si4 0.641811 0.375810 0.906343
Si Si5 0.888240 0.536504 0.054111
Si Si6 0.601347 0.217571 0.051658
Si Si7 0.850489 0.869838 0.544716
Si Si8 0.804857 0.211270 0.759664
O O1 0.780188 0.145219 0.314195
O O2 0.701339 0.207556 0.144936
O O3 0.928991 0.337777 0.255623
O O4 0.876982 0.816949 0.155010
O O5 0.172331 0.457918 0.507905
O O6 0.003080 0.880521 0.575815
O O7 0.194535 0.971631 0.527620
O O8 0.878748 0.475555 0.784124
O O9 0.065756 0.721159 0.911213
O O10 0.882502 0.000160 0.811687
O O11 0.493622 0.489702 0.907814
O O12 0.676274 0.301902 0.803172
O O13 0.753528 0.562892 0.984378
O O14 0.663369 0.167053 0.960578
O O15 0.000000 0.500000 0.000000
O O16 0.500000 0.000000 0.000000
O O17 0.792805 0.031279 0.643589
#
# Coordination Sequence:
#
# PCOD9007076 Si02
#       8
#     2   2   2   2   2   2   2   2
#     4  12  24  39  65  91 133 169 217 256 313 381
#     4  10  22  36  62  89 129 166 202 257 313 385
#     4  12  23  37  61  98 128 167 202 252 322 381
#     4  11  25  41  62  91 126 173 216 258 316 372
#     4  12  23  38  61  96 132 166 203 263 318 391
#     4  11  25  44  62  88 126 176 220 260 303 373
#     4  10  21  39  59  93 128 162 203 256 325 375
#     4  12  25  40  66  94 134 164 206 261 324 384
#
# _framework density 20.733263999999998
#
# number of rings (size 3 to 8) (size 9 to 14) (size 15 to 20)
#    0.000    0.750    6.250    0.750    8.750    1.000 
#    0.000    0.000    0.000    1.500    0.000    0.000 
#    0.000    0.000    0.000    0.000    0.000    0.000 
#
# Total GULP energy -89203.506189 kJ/mol
# GULP energy per Si atom -5575.219137 kJ/mol
# Density = 2.068607 g / cm^3
# Si number density = 20.733264 Si / 1000 Ang^3
#
#
#
# Elastic Constant Matrix: (Units=GPa)
#
#
# Indices 1 2 3 4 5 6 
#
# 1 66.0016 21.1800 29.2823 -5.4337 -15.6984 9.7602
# 2 21.1800 88.9877 24.7951 -20.8089 -8.0143 12.8723
# 3 29.2823 24.7951 108.3476 -8.6854 -34.2918 13.2118
# 4 -5.4337 -20.8089 -8.6854 34.2353 2.0426 -2.4043
# 5 -15.6984 -8.0143 -34.2918 2.0426 31.5618 -6.9761
# 6 9.7602 12.8723 13.2118 -2.4043 -6.9761 17.9725
#
#
#
# Elastic Compliance Matrix: (Units=1/GPa)
#
#
# Indices 1 2 3 4 5 6 
#
# 1 0.018973 -0.002704 -0.002270 0.000153 0.005249 -0.004641
# 2 -0.002704 0.015172 -0.001637 0.007924 -0.001488 -0.007712
# 3 -0.002270 -0.001637 0.015201 0.001439 0.014201 -0.003065
# 4 0.000153 0.007924 0.001439 0.034225 0.001031 -0.001838
# 5 0.005249 -0.001488 0.014201 0.001031 0.050982 0.007703
# 6 -0.004641 -0.007712 -0.003065 -0.001838 0.007703 0.068682
#
#
# Mechanical properties :
#
#
# Convention : Reuss Voigt Hill
#
# Bulk Modulus (GPa) = 27.68054 45.98353 36.83204
# Shear Modulus (GPa) = 21.88221 29.29255 25.58738
#
# Velocity S-wave (km/s) = 3.25224 3.76284 3.51682
# Velocity P-wave (km/s) = 5.24238 6.41135 5.85610
#
# Compressibility (1/GPa) = 0.03612646
#
# Stress axis : x y z
#
# Youngs Moduli (GPa) = 52.70657 65.91233 65.78461
#
# Poissons Ratio (x) = 0.17820 0.14930
# Poissons Ratio (y) = 0.14249 0.10766
# Poissons Ratio (z) = 0.11962 0.10787
#
# Static dielectric constant tensor:
#      x y z
#    x 1.820940 0.015560 -0.003860 
#    y 0.015560 1.919320 0.035010 
#    z -0.003860 0.035010 1.778460 
# 
# From -- ./inp_files/483919.got.cif
#   From: 2010.05.17/outbox.cif.g08.bks.cpg/sg2_242_cif.got.tgz:483919.got - 2010.06.03 11:33:40.
