data_PCOD9007907
_publ_section_title
;
Structure prediction by ZEFSAII (Michael W. Deem and Ramdas Pophale) SiO2 
 PCOD9007907
Probable space group: P -1
;
_chemical_formula_sum "Si O2"
_cell_formula_units_Z 16
_cell_length_a 21.805113
_cell_length_b 9.063119
_cell_length_c 14.141272
_cell_angle_alpha 145.332614
_cell_angle_beta 32.291652
_cell_angle_gamma 124.874342
_cell_volume 775.939663
_symmetry_space_group_name_H-M "P -1"
_symmetry_group_IT_number 2
_symmetry_cell_setting 'triclinic'
loop_
_space_group_symop_operation_xyz
x,y,z
-x,-y,-z
loop_
_atom_site_type_symbol
_atom_site_label
_atom_site_fract_x
_atom_site_fract_y
_atom_site_fract_z
Si Si1 0.902973 0.588371 0.306725
Si Si2 0.470935 0.559375 0.176495
Si Si3 0.376483 0.140318 0.175510
Si Si4 0.988553 0.954374 0.247221
Si Si5 0.370664 0.152907 0.687154
Si Si6 0.253423 0.488655 0.180400
Si Si7 0.629401 0.371295 0.206882
Si Si8 0.158694 0.144761 0.259132
O O1 0.758749 0.712371 0.523870
O O2 0.895880 0.686294 0.479925
O O3 0.969252 0.757015 0.250726
O O4 0.958276 0.260624 0.025481
O O5 0.403124 0.370911 0.203413
O O6 0.373830 0.881258 0.486055
O O7 0.500000 0.500000 0.000000
O O8 0.611480 0.491157 0.996605
O O9 0.500000 0.000000 0.000000
O O10 0.373202 0.883231 0.985527
O O11 0.064446 0.118281 0.287777
O O12 0.857701 0.204347 0.517856
O O13 0.368433 0.384631 0.736206
O O14 0.500000 0.000000 0.500000
O O15 0.256781 0.301010 0.984949
O O16 0.237806 0.308367 0.194327
O O17 0.500000 0.500000 0.500000
O O18 0.752018 0.188784 0.012639
#
# Coordination Sequence:
#
# PCOD9007907 Si02
#       8
#     2   2   2   2   2   2   2   2
#     4  10  24  44  64  97 131 172 226 280 322 403
#     4  11  22  40  62  97 135 166 208 273 333 390
#     4  11  22  37  65  93 128 169 210 267 333 390
#     4  11  24  45  69  91 135 177 225 275 338 390
#     4  10  21  39  63  90 132 169 213 269 325 394
#     4  11  23  43  64  97 131 173 220 272 331 405
#     4  11  22  39  63  97 129 171 222 274 327 403
#     4  11  24  43  68  95 134 171 229 275 329 403
#
# _framework density 20.620159999999998
#
# number of rings (size 3 to 8) (size 9 to 14) (size 15 to 20)
#    0.000    1.250    0.000    8.250    3.500    0.500 
#    6.750    0.000    0.000    0.000    0.000    0.000 
#    0.000    0.000    0.000    0.000    0.000    0.000 
#
# Total GULP energy -89123.847903 kJ/mol
# GULP energy per Si atom -5570.240494 kJ/mol
# Density = 2.057323 g / cm^3
# Si number density = 20.620160 Si / 1000 Ang^3
#
#
#
# Elastic Constant Matrix: (Units=GPa)
#
#
# Indices 1 2 3 4 5 6 
#
# 1 44.3556 13.6217 34.1659 5.4968 1.5721 2.7416
# 2 13.6217 108.4996 31.0655 16.3369 12.9627 -6.0520
# 3 34.1659 31.0655 187.8902 17.8443 17.8333 -5.0615
# 4 5.4968 16.3369 17.8443 38.8871 -3.2730 -1.8853
# 5 1.5721 12.9627 17.8333 -3.2730 37.1983 -7.3667
# 6 2.7416 -6.0520 -5.0615 -1.8853 -7.3667 37.4522
#
#
#
# Elastic Compliance Matrix: (Units=1/GPa)
#
#
# Indices 1 2 3 4 5 6 
#
# 1 0.027053 -0.002250 -0.004669 -0.000764 0.001264 -0.002765
# 2 -0.002250 0.010781 -0.000614 -0.004184 -0.003554 0.000914
# 3 -0.004669 -0.000614 0.006798 -0.002429 -0.002971 0.000455
# 4 -0.000764 -0.004184 -0.002429 0.029241 0.005548 0.001615
# 5 0.001264 -0.003554 -0.002971 0.005548 0.031033 0.005315
# 6 -0.002765 0.000914 0.000455 0.001615 0.005315 0.028239
#
#
# Mechanical properties :
#
#
# Convention : Reuss Voigt Hill
#
# Bulk Modulus (GPa) = 33.82320 55.38352 44.60336
# Shear Modulus (GPa) = 31.63223 40.16702 35.89962
#
# Velocity S-wave (km/s) = 3.92094 4.41835 4.17705
# Velocity P-wave (km/s) = 6.07757 7.27642 6.70385
#
# Compressibility (1/GPa) = 0.02956551
#
# Stress axis : x y z
#
# Youngs Moduli (GPa) = 36.96398 92.75990 147.10539
#
# Poissons Ratio (x) = 0.20869 0.68689
# Poissons Ratio (y) = 0.08316 0.09032
# Poissons Ratio (z) = 0.17260 0.05695
#
# Static dielectric constant tensor:
#      x y z
#    x 1.498150 0.123630 0.300720 
#    y 0.123630 1.810140 0.095770 
#    z 0.300720 0.095770 1.707260 
# 
# From -- ./inp_files/296247.got.cif
#   From: 2010.05.17/outbox.cif.g08.bks.cpg/sg2_149_cif.got.tgz:296247.got - 2010.06.03 11:33:40.
