data_PCOD9007015
_publ_section_title
;
Structure prediction by ZEFSAII (Michael W. Deem and Ramdas Pophale) SiO2 
 PCOD9007015
Probable space group: P -1
;
_chemical_formula_sum "Si O2"
_cell_formula_units_Z 16
_cell_length_a 8.122364
_cell_length_b 8.775008
_cell_length_c 13.870144
_cell_angle_alpha 89.324239
_cell_angle_beta 78.672672
_cell_angle_gamma 131.447019
_cell_volume 712.920451
_symmetry_space_group_name_H-M "P -1"
_symmetry_group_IT_number 2
_symmetry_cell_setting 'triclinic'
loop_
_space_group_symop_operation_xyz
x,y,z
-x,-y,-z
loop_
_atom_site_type_symbol
_atom_site_label
_atom_site_fract_x
_atom_site_fract_y
_atom_site_fract_z
Si Si1 0.209598 0.382772 0.609331
Si Si2 0.542044 0.850785 0.826845
Si Si3 0.786708 0.311969 0.745742
Si Si4 0.341334 0.499364 0.381553
Si Si5 0.634215 0.740566 0.999745
Si Si6 0.955410 0.932357 0.676032
Si Si7 0.136639 0.987583 0.857672
Si Si8 0.060619 0.591243 0.886349
O O1 0.305115 0.512133 0.498687
O O2 0.425737 0.458217 0.647582
O O3 0.018943 0.375721 0.677279
O O4 0.075770 0.142313 0.603201
O O5 0.532433 0.809110 0.942670
O O6 0.730376 0.862943 0.753611
O O7 0.290597 0.653177 0.821778
O O8 0.621858 0.070830 0.793424
O O9 0.676119 0.359673 0.681772
O O10 0.862140 0.446444 0.833040
O O11 0.131483 0.265514 0.370792
O O12 0.890145 0.887971 0.926746
O O13 0.500000 0.500000 0.000000
O O14 0.671004 0.804061 0.106763
O O15 0.124527 0.995602 0.744314
O O16 0.135791 0.811089 0.885126
O O17 0.000000 0.500000 0.000000
#
# Coordination Sequence:
#
# PCOD9007015 Si02
#       8
#     2   2   2   2   2   2   2   2
#     4  10  24  42  67 101 133 168 226 276 328 412
#     4  10  24  40  60  93 130 172 219 268 331 389
#     4  11  24  43  67  96 139 174 217 281 330 394
#     4  11  22  42  71  98 128 179 218 270 348 394
#     4  10  21  39  59  83 121 170 213 266 320 376
#     4  10  21  42  63  92 132 168 217 276 326 393
#     4  10  22  36  57  88 118 160 218 258 314 386
#     4  12  24  40  62  92 132 173 220 272 325 392
#
# _framework density 22.442896999999999
#
# number of rings (size 3 to 8) (size 9 to 14) (size 15 to 20)
#    0.000    1.500    1.250    3.000    1.750    9.000 
#    0.000    0.000    0.000    8.250    0.000    0.000 
#    0.000    0.000    0.000    0.000    0.000    0.000 
#
# Total GULP energy -89415.041250 kJ/mol
# GULP energy per Si atom -5588.440078 kJ/mol
# Density = 2.239182 g / cm^3
# Si number density = 22.442897 Si / 1000 Ang^3
#
#
#
# Elastic Constant Matrix: (Units=GPa)
#
#
# Indices 1 2 3 4 5 6 
#
# 1 111.2578 39.2410 60.0853 -5.0122 28.0478 14.5985
# 2 39.2410 111.6163 49.9229 8.9089 23.4619 3.6739
# 3 60.0853 49.9229 101.8210 -9.4188 40.0216 1.2617
# 4 -5.0122 8.9089 -9.4188 26.0693 -0.2935 0.5678
# 5 28.0478 23.4619 40.0216 -0.2935 37.7546 -6.7726
# 6 14.5985 3.6739 1.2617 0.5678 -6.7726 39.0994
#
#
#
# Elastic Compliance Matrix: (Units=1/GPa)
#
#
# Indices 1 2 3 4 5 6 
#
# 1 0.014762 -0.001426 -0.005886 0.001275 -0.004918 -0.006058
# 2 -0.001426 0.012736 -0.005579 -0.006642 -0.001096 -0.000578
# 3 -0.005886 -0.005579 0.023780 0.009196 -0.017514 -0.001213
# 4 0.001275 -0.006642 0.009196 0.044165 -0.006571 -0.001928
# 5 -0.004918 -0.001096 -0.017514 -0.006571 0.051399 0.011503
# 6 -0.006058 -0.000578 -0.001213 -0.001928 0.011503 0.029952
#
#
# Mechanical properties :
#
#
# Convention : Reuss Voigt Hill
#
# Bulk Modulus (GPa) = 39.22355 69.24370 54.23363
# Shear Modulus (GPa) = 23.68848 32.28106 27.98477
#
# Velocity S-wave (km/s) = 3.25237 3.79669 3.53502
# Velocity P-wave (km/s) = 5.62307 7.08097 6.39371
#
# Compressibility (1/GPa) = 0.02549489
#
# Stress axis : x y z
#
# Youngs Moduli (GPa) = 67.74178 78.52031 42.05286
#
# Poissons Ratio (x) = 0.11196 0.24752
# Poissons Ratio (y) = 0.09659 0.23463
# Poissons Ratio (z) = 0.39872 0.43809
#
# Static dielectric constant tensor:
#      x y z
#    x 2.030280 0.078390 -0.030640 
#    y 0.078390 1.807100 0.000650 
#    z -0.030640 0.000650 1.835830 
# 
# From -- ./inp_files/106493.got.cif
#   From: 2010.05.17/outbox.cif.g08.bks.cpg/sg2_54_cif.got.tgz:106493.got - 2010.06.03 11:33:40.
