data_PCOD9007791
_publ_section_title
;
Structure prediction by ZEFSAII (Michael W. Deem and Ramdas Pophale) SiO2 
 PCOD9007791
Probable space group: P -1
;
_chemical_formula_sum "Si O2"
_cell_formula_units_Z 14
_cell_length_a 15.279653
_cell_length_b 5.475368
_cell_length_c 21.607542
_cell_angle_alpha 69.714061
_cell_angle_beta 158.495629
_cell_angle_gamma 119.139009
_cell_volume 545.947002
_symmetry_space_group_name_H-M "P -1"
_symmetry_group_IT_number 2
_symmetry_cell_setting 'triclinic'
loop_
_space_group_symop_operation_xyz
x,y,z
-x,-y,-z
loop_
_atom_site_type_symbol
_atom_site_label
_atom_site_fract_x
_atom_site_fract_y
_atom_site_fract_z
Si Si1 0.882801 0.224957 0.029448
Si Si2 0.204323 0.478268 0.816367
Si Si3 0.930633 0.810344 0.664563
Si Si4 0.998769 0.882082 0.442485
Si Si5 0.650762 0.296741 0.238694
Si Si6 0.565935 0.800702 0.606163
Si Si7 0.795110 0.126484 0.841048
O O1 0.127493 0.145486 0.199840
O O2 0.037768 0.573388 0.114883
O O3 0.756125 0.207160 0.878472
O O4 0.639932 0.987313 0.931668
O O5 0.186570 0.624114 0.726015
O O6 0.134751 0.664746 0.804851
O O7 0.500000 0.500000 0.000000
O O8 0.021473 0.120951 0.732292
O O9 0.642961 0.538636 0.516898
O O10 0.901860 0.902404 0.568007
O O11 0.208880 0.756862 0.604103
O O12 0.689832 0.623541 0.249474
O O13 0.000000 0.000000 0.500000
O O14 0.500000 0.000000 0.500000
O O15 0.547543 0.892601 0.657504
O O16 0.000000 0.000000 0.000000
#
# Coordination Sequence:
#
# PCOD9007791 Si02
#       7
#     2   2   2   2   2   2   2
#     4  10  23  42  67  97 135 183 234 294 353 422
#     4  11  25  47  70 101 138 188 229 287 353 418
#     4  11  26  45  72  99 141 181 231 293 347 421
#     4  10  21  39  62  98 131 171 224 285 353 401
#     4  10  23  38  66 100 130 175 233 284 351 423
#     4  11  27  44  66 100 138 190 237 287 360 420
#     4   9  22  42  62  96 131 181 233 285 353 414
#
# _framework density 25.643516999999999
#
# number of rings (size 3 to 8) (size 9 to 14) (size 15 to 20)
#    0.000    1.714    1.429    0.429   12.000    2.857 
#    0.000    0.000    0.000    0.000    0.000    0.000 
#    0.000    0.000    0.000    0.000    0.000    0.000 
#
# Total GULP energy -78122.387855 kJ/mol
# GULP energy per Si atom -5580.170561 kJ/mol
# Density = 2.558515 g / cm^3
# Si number density = 25.643517 Si / 1000 Ang^3
#
#
#
# Elastic Constant Matrix: (Units=GPa)
#
#
# Indices 1 2 3 4 5 6 
#
# 1 40.7423 34.4042 10.1665 3.4319 -2.1369 6.5108
# 2 34.4042 160.4615 54.2661 16.7340 11.9988 18.7453
# 3 10.1665 54.2661 94.3136 -7.9168 11.9179 9.5835
# 4 3.4319 16.7340 -7.9168 54.3275 15.4896 3.1376
# 5 -2.1369 11.9988 11.9179 15.4896 30.8438 -7.7038
# 6 6.5108 18.7453 9.5835 3.1376 -7.7038 33.7423
#
#
#
# Elastic Compliance Matrix: (Units=1/GPa)
#
#
# Indices 1 2 3 4 5 6 
#
# 1 0.030764 -0.006697 -0.000157 -0.001357 0.005268 -0.000842
# 2 -0.006697 0.010052 -0.004695 -0.002586 -0.002057 -0.003188
# 3 -0.000157 -0.004695 0.015329 0.006306 -0.008324 -0.004202
# 4 -0.001357 -0.002586 0.006306 0.024991 -0.015566 -0.005970
# 5 0.005268 -0.002057 -0.008324 -0.015566 0.048362 0.014980
# 6 -0.000842 -0.003188 -0.004202 -0.005970 0.014980 0.036738
#
#
# Mechanical properties :
#
#
# Convention : Reuss Voigt Hill
#
# Bulk Modulus (GPa) = 30.25951 54.79902 42.52927
# Shear Modulus (GPa) = 24.95633 36.89475 30.92554
#
# Velocity S-wave (km/s) = 3.12300 3.79721 3.47649
# Velocity P-wave (km/s) = 4.98296 6.37503 5.72149
#
# Compressibility (1/GPa) = 0.03304746
#
# Stress axis : x y z
#
# Youngs Moduli (GPa) = 32.50540 99.48632 65.23438
#
# Poissons Ratio (x) = 0.66627 0.01024
# Poissons Ratio (y) = 0.21769 0.30626
# Poissons Ratio (z) = 0.00510 0.46707
#
# Static dielectric constant tensor:
#      x y z
#    x 2.149680 0.002650 -0.089830 
#    y 0.002650 2.381730 -0.423030 
#    z -0.089830 -0.423030 2.699750 
# 
# From -- ./inp_files/72479.got.cif
#   From: 2010.05.17/outbox.cif.g08.bks.cpg/sg2_37_cif.got.tgz:72479.got - 2010.06.03 11:33:40.
