data_PCOD9007616
_publ_section_title
;
Structure prediction by ZEFSAII (Michael W. Deem and Ramdas Pophale) SiO2 
 PCOD9007616
Probable space group: P -1
;
_chemical_formula_sum "Si O2"
_cell_formula_units_Z 16
_cell_length_a 19.233903
_cell_length_b 20.065748
_cell_length_c 7.752408
_cell_angle_alpha 131.590972
_cell_angle_beta 46.390390
_cell_angle_gamma 158.816996
_cell_volume 780.364358
_symmetry_space_group_name_H-M "P -1"
_symmetry_group_IT_number 2
_symmetry_cell_setting 'triclinic'
loop_
_space_group_symop_operation_xyz
x,y,z
-x,-y,-z
loop_
_atom_site_type_symbol
_atom_site_label
_atom_site_fract_x
_atom_site_fract_y
_atom_site_fract_z
Si Si1 0.921601 0.809822 0.437058
Si Si2 0.677723 0.768702 0.595923
Si Si3 0.229581 0.819340 0.245136
Si Si4 0.272302 0.512454 0.972446
Si Si5 0.781866 0.326203 0.661993
Si Si6 0.181440 0.462520 0.433897
Si Si7 0.347046 0.792697 0.695897
Si Si8 0.397781 0.485004 0.275514
O O1 0.798550 0.785328 0.501071
O O2 0.815897 0.726560 0.660279
O O3 0.858809 0.662309 0.216120
O O4 0.153553 0.023002 0.391845
O O5 0.549089 0.624473 0.412174
O O6 0.503582 0.669202 0.842016
O O7 0.226617 0.742998 0.274233
O O8 0.036235 0.722623 0.429969
O O9 0.433420 0.036303 0.306477
O O10 0.241863 0.783355 0.974650
O O11 0.262769 0.607963 0.096368
O O12 0.184724 0.438617 0.187393
O O13 0.648838 0.190619 0.489518
O O14 0.000000 0.500000 0.500000
O O15 0.234366 0.609180 0.605305
O O16 0.346562 0.538032 0.372620
O O17 0.500000 0.500000 0.000000
#
# Coordination Sequence:
#
# PCOD9007616 Si02
#       8
#     2   2   2   2   2   2   2   2
#     4  10  22  41  64  90 119 159 198 250 302 362
#     4  10  22  41  63  90 123 153 203 248 299 367
#     4  11  23  43  63  89 128 166 208 259 309 364
#     4  10  21  39  62  90 117 161 202 247 303 360
#     4  11  22  41  64  90 126 167 211 255 309 365
#     4  11  23  40  63  87 123 158 201 253 302 367
#     4  10  24  40  63  92 125 166 208 259 308 363
#     4  11  23  40  64  90 123 158 197 249 306 362
#
# _framework density 20.503243999999999
#
# number of rings (size 3 to 8) (size 9 to 14) (size 15 to 20)
#    0.000    1.500    2.500    3.750    3.500    3.500 
#    4.500    0.000    0.000    0.000    0.000    0.000 
#    0.000    0.000    0.000    0.000    0.000    0.000 
#
# Total GULP energy -89351.604615 kJ/mol
# GULP energy per Si atom -5584.475288 kJ/mol
# Density = 2.045658 g / cm^3
# Si number density = 20.503244 Si / 1000 Ang^3
#
#
#
# Elastic Constant Matrix: (Units=GPa)
#
#
# Indices 1 2 3 4 5 6 
#
# 1 37.3994 -7.5596 2.3227 9.9322 -15.5558 -0.1172
# 2 -7.5596 95.8212 50.2490 -17.7548 4.7862 9.7187
# 3 2.3227 50.2490 115.3240 -8.9144 -1.3829 16.2433
# 4 9.9322 -17.7548 -8.9144 16.4710 12.2920 -1.2723
# 5 -15.5558 4.7862 -1.3829 12.2920 7.7636 -20.8655
# 6 -0.1172 9.7187 16.2433 -1.2723 -20.8655 7.8429
#
#
#
# Elastic Compliance Matrix: (Units=1/GPa)
#
#
# Indices 1 2 3 4 5 6 
#
# 1 0.026378 0.002943 0.001221 -0.008617 -0.007415 -0.026906
# 2 0.002943 0.014817 -0.006956 0.008097 0.003948 0.007905
# 3 0.001221 -0.006956 0.011988 -0.005552 0.004597 -0.004861
# 4 -0.008617 0.008097 -0.005552 0.064324 0.015195 0.052198
# 5 -0.007415 0.003948 0.004597 0.015195 -0.009084 -0.036225
# 6 -0.026906 0.007905 -0.004861 0.052198 -0.036225 0.039466
#
#
# Mechanical properties :
#
#
# Convention : Reuss Voigt Hill
#
# Bulk Modulus (GPa) = 21.00826 37.61877 29.31351
# Shear Modulus (GPa) = 29.52661 19.98433 24.75547
#
# Velocity S-wave (km/s) = 3.79897 3.12539 3.47853
# Velocity P-wave (km/s) = 5.43245 5.60461 5.51920
#
# Compressibility (1/GPa) = 0.04760033
#
# Stress axis : x y z
#
# Youngs Moduli (GPa) = 37.91091 67.48873 83.41762
#
# Poissons Ratio (x) = -0.19864 -0.10185
# Poissons Ratio (y) = -0.11159 0.58022
# Poissons Ratio (z) = -0.04629 0.46942
#
# Static dielectric constant tensor:
#      x y z
#    x 1.777310 -0.009640 0.013040 
#    y -0.009640 1.728580 -0.018730 
#    z 0.013040 -0.018730 1.723160 
# 
# From -- ./inp_files/349716.got.cif
#   From: 2010.05.17/outbox.cif.g08.bks.cpg/sg2_175_cif.got.tgz:349716.got - 2010.06.03 11:33:40.
