data_PCOD9007992
_publ_section_title
;
Structure prediction by ZEFSAII (Michael W. Deem and Ramdas Pophale) SiO2 
 PCOD9007992
Probable space group: P -1
;
_chemical_formula_sum "Si O2"
_cell_formula_units_Z 16
_cell_length_a 15.590417
_cell_length_b 8.175986
_cell_length_c 13.198054
_cell_angle_alpha 88.794451
_cell_angle_beta 147.391481
_cell_angle_gamma 73.233127
_cell_volume 745.783106
_symmetry_space_group_name_H-M "P -1"
_symmetry_group_IT_number 2
_symmetry_cell_setting 'triclinic'
loop_
_space_group_symop_operation_xyz
x,y,z
-x,-y,-z
loop_
_atom_site_type_symbol
_atom_site_label
_atom_site_fract_x
_atom_site_fract_y
_atom_site_fract_z
Si Si1 0.960766 0.223995 0.975192
Si Si2 0.647878 0.176124 0.403008
Si Si3 0.618044 0.127955 0.846281
Si Si4 0.476975 0.070876 0.086712
Si Si5 0.043577 0.731762 0.253463
Si Si6 0.244228 0.600927 0.015049
Si Si7 0.351056 0.128019 0.437303
Si Si8 0.054712 0.469800 0.677082
O O1 0.142738 0.236389 0.178508
O O2 0.835532 0.322560 0.951093
O O3 0.886371 0.334128 0.791740
O O4 0.000000 0.000000 0.000000
O O5 0.828053 0.189404 0.587603
O O6 0.661543 0.015744 0.494497
O O7 0.631871 0.111295 0.276219
O O8 0.441094 0.380110 0.218817
O O9 0.686643 0.261454 0.951236
O O10 0.515260 0.090488 0.833077
O O11 0.456567 0.217831 0.596601
O O12 0.815238 0.914923 0.014900
O O13 0.267686 0.269869 0.888949
O O14 0.500000 0.000000 0.000000
O O15 0.062135 0.581006 0.360169
O O16 0.092770 0.611007 0.782931
O O17 0.500000 0.000000 0.500000
O O18 0.000000 0.500000 0.500000
#
# Coordination Sequence:
#
# PCOD9007992 Si02
#       8
#     2   2   2   2   2   2   2   2
#     4  12  22  40  67  94 131 170 209 251 307 391
#     4  10  23  39  61  95 129 159 208 264 308 374
#     4  10  21  39  63  93 125 166 210 252 307 385
#     4   9  21  41  65  87 120 163 213 259 313 374
#     4  11  22  43  64  92 128 171 213 250 315 382
#     4  11  24  42  62  97 131 162 210 263 318 367
#     4  11  20  38  63  87 125 169 206 244 305 374
#     4  10  25  45  64  90 127 162 213 273 316 362
#
# _framework density 21.453958
#
# number of rings (size 3 to 8) (size 9 to 14) (size 15 to 20)
#    0.000    1.500    3.750    0.750    0.000    7.000 
#    0.000    5.000    0.000    0.000    0.000    0.000 
#    0.000    0.000    0.000    0.000    0.000    0.000 
#
# Total GULP energy -89144.949483 kJ/mol
# GULP energy per Si atom -5571.559343 kJ/mol
# Density = 2.140513 g / cm^3
# Si number density = 21.453958 Si / 1000 Ang^3
#
#
#
# Elastic Constant Matrix: (Units=GPa)
#
#
# Indices 1 2 3 4 5 6 
#
# 1 99.6828 39.0169 59.4934 34.1028 -18.3340 -6.0061
# 2 39.0169 75.9784 46.2221 31.8338 -9.9658 -5.3065
# 3 59.4934 46.2221 131.4738 43.3935 -7.7779 7.7797
# 4 34.1028 31.8338 43.3935 43.8545 -1.6247 0.2829
# 5 -18.3340 -9.9658 -7.7779 -1.6247 42.3893 8.0541
# 6 -6.0061 -5.3065 7.7797 0.2829 8.0541 33.7484
#
#
#
# Elastic Compliance Matrix: (Units=1/GPa)
#
#
# Indices 1 2 3 4 5 6 
#
# 1 0.017124 -0.002234 -0.004451 -0.007109 0.005314 0.002514
# 2 -0.002234 0.021067 -0.002945 -0.010570 0.002453 0.003097
# 3 -0.004451 -0.002945 0.013479 -0.007695 0.000395 -0.004392
# 4 -0.007109 -0.010570 -0.007695 0.043425 -0.005258 -0.000263
# 5 0.005314 0.002453 0.000395 -0.005258 0.027332 -0.005238
# 6 0.002514 0.003097 -0.004392 -0.000263 -0.005238 0.032830
#
#
# Mechanical properties :
#
#
# Convention : Reuss Voigt Hill
#
# Bulk Modulus (GPa) = 30.85566 66.28888 48.57227
# Shear Modulus (GPa) = 26.98012 34.82528 30.90270
#
# Velocity S-wave (km/s) = 3.55009 4.03334 3.79940
# Velocity P-wave (km/s) = 5.58728 7.25642 6.47585
#
# Compressibility (1/GPa) = 0.03240896
#
# Stress axis : x y z
#
# Youngs Moduli (GPa) = 58.39753 47.46652 74.19154
#
# Poissons Ratio (x) = 0.10606 0.33024
# Poissons Ratio (y) = 0.13049 0.21849
# Poissons Ratio (z) = 0.25994 0.13979
#
# Static dielectric constant tensor:
#      x y z
#    x 1.758150 -0.014470 -0.062080 
#    y -0.014470 1.862950 0.037720 
#    z -0.062080 0.037720 1.701310 
# 
# From -- ./inp_files/350064.got.cif
#   From: 2010.05.17/outbox.cif.g08.bks.cpg/sg2_176_cif.got.tgz:350064.got - 2010.06.03 11:33:40.
