data_PCOD9007062
_publ_section_title
;
Structure prediction by ZEFSAII (Michael W. Deem and Ramdas Pophale) SiO2 
 PCOD9007062
Probable space group: P -1
;
_chemical_formula_sum "Si O2"
_cell_formula_units_Z 14
_cell_length_a 22.493667
_cell_length_b 6.625397
_cell_length_c 9.575156
_cell_angle_alpha 59.106189
_cell_angle_beta 35.573060
_cell_angle_gamma 50.337443
_cell_volume 638.998176
_symmetry_space_group_name_H-M "P -1"
_symmetry_group_IT_number 2
_symmetry_cell_setting 'triclinic'
loop_
_space_group_symop_operation_xyz
x,y,z
-x,-y,-z
loop_
_atom_site_type_symbol
_atom_site_label
_atom_site_fract_x
_atom_site_fract_y
_atom_site_fract_z
Si Si1 0.932392 0.607544 0.447406
Si Si2 0.339101 0.701433 0.141358
Si Si3 0.149318 0.776131 0.666920
Si Si4 0.250222 0.839590 0.723387
Si Si5 0.799571 0.285027 0.857367
Si Si6 0.946854 0.765602 0.893228
Si Si7 0.560497 0.182375 0.842802
O O1 0.831877 0.514090 0.669244
O O2 0.000000 0.500000 0.500000
O O3 0.015488 0.457956 0.214016
O O4 0.886803 0.917758 0.409456
O O5 0.266346 0.610712 0.418373
O O6 0.259096 0.800665 0.124300
O O7 0.372113 0.881659 0.115791
O O8 0.458080 0.472851 0.946349
O O9 0.175350 0.759192 0.787514
O O10 0.050017 0.716238 0.817455
O O11 0.353999 0.832378 0.438618
O O12 0.275333 0.662625 0.877054
O O13 0.169476 0.132282 0.831610
O O14 0.915471 0.035566 0.771143
O O15 0.500000 0.000000 0.000000
#
# Coordination Sequence:
#
# PCOD9007062 Si02
#       7
#     2   2   2   2   2   2   2
#     4  12  21  34  63  93 127 170 205 237 299 379
#     4  10  22  40  67  85 122 160 206 253 305 364
#     4  11  21  38  64  94 123 172 202 239 307 369
#     4   9  23  39  62  91 128 158 204 254 313 354
#     4  10  21  39  60  89 129 160 196 257 300 354
#     4  10  21  39  59  90 136 157 199 249 304 361
#     4  10  23  45  66  89 113 162 214 255 308 368
#
# _framework density 21.909295
#
# number of rings (size 3 to 8) (size 9 to 14) (size 15 to 20)
#    0.857    0.857    2.857    1.714    4.000    1.143 
#    0.000    9.286    0.000    0.000    0.000    0.000 
#    0.000    0.000    0.000    0.000    0.000    0.000 
#
# Total GULP energy -78160.364438 kJ/mol
# GULP energy per Si atom -5582.883174 kJ/mol
# Density = 2.185943 g / cm^3
# Si number density = 21.909295 Si / 1000 Ang^3
#
#
#
# Elastic Constant Matrix: (Units=GPa)
#
#
# Indices 1 2 3 4 5 6 
#
# 1 137.0559 -2.3666 49.7957 -4.0238 21.6940 26.2006
# 2 -2.3666 52.1691 48.1539 9.8731 3.8304 6.7842
# 3 49.7957 48.1539 159.7761 30.1343 11.2810 23.7360
# 4 -4.0238 9.8731 30.1343 36.5712 0.6489 -1.0908
# 5 21.6940 3.8304 11.2810 0.6489 39.0999 0.1846
# 6 26.2006 6.7842 23.7360 -1.0908 0.1846 23.0664
#
#
#
# Elastic Compliance Matrix: (Units=1/GPa)
#
#
# Indices 1 2 3 4 5 6 
#
# 1 0.011915 0.005400 -0.003795 0.002758 -0.006039 -0.011039
# 2 0.005400 0.029024 -0.009630 0.000608 -0.003049 -0.004707
# 3 -0.003795 -0.009630 0.013018 -0.008734 -0.000531 -0.006662
# 4 0.002758 0.000608 -0.008734 0.034893 0.000316 0.007323
# 5 -0.006039 -0.003049 -0.000531 0.000316 0.029334 0.008082
# 6 -0.011039 -0.004707 -0.006662 0.007323 0.008082 0.064413
#
#
# Mechanical properties :
#
#
# Convention : Reuss Voigt Hill
#
# Bulk Modulus (GPa) = 26.37999 60.01857 43.19928
# Shear Modulus (GPa) = 23.66486 36.64206 30.15346
#
# Velocity S-wave (km/s) = 3.29010 4.09399 3.71386
# Velocity P-wave (km/s) = 5.14778 7.05700 6.17661
#
# Compressibility (1/GPa) = 0.03790753
#
# Stress axis : x y z
#
# Youngs Moduli (GPa) = 83.92431 34.45469 76.81473
#
# Poissons Ratio (x) = -0.18607 0.29152
# Poissons Ratio (y) = -0.45323 0.73975
# Poissons Ratio (z) = 0.31850 0.33181
#
# Static dielectric constant tensor:
#      x y z
#    x 1.811430 -0.000270 0.003290 
#    y -0.000270 1.844650 -0.011760 
#    z 0.003290 -0.011760 1.840210 
# 
# From -- ./inp_files/340229.got.cif
#   From: 2010.05.17/outbox.cif.g08.bks.cpg/sg2_171_cif.got.tgz:340229.got - 2010.06.03 11:33:40.
