data_PCOD9007732
_publ_section_title
;
Structure prediction by ZEFSAII (Michael W. Deem and Ramdas Pophale) SiO2 
 PCOD9007732
Probable space group: P -1
;
_chemical_formula_sum "Si O2"
_cell_formula_units_Z 16
_cell_length_a 12.009234
_cell_length_b 11.720278
_cell_length_c 14.816411
_cell_angle_alpha 149.462301
_cell_angle_beta 137.302444
_cell_angle_gamma 52.870084
_cell_volume 715.941109
_symmetry_space_group_name_H-M "P -1"
_symmetry_group_IT_number 2
_symmetry_cell_setting 'triclinic'
loop_
_space_group_symop_operation_xyz
x,y,z
-x,-y,-z
loop_
_atom_site_type_symbol
_atom_site_label
_atom_site_fract_x
_atom_site_fract_y
_atom_site_fract_z
Si Si1 0.523806 0.678154 0.055450
Si Si2 0.355943 0.615148 0.313017
Si Si3 0.188356 0.226366 0.831624
Si Si4 0.146657 0.711441 0.418213
Si Si5 0.697510 0.020927 0.614340
Si Si6 0.060959 0.377451 0.303038
Si Si7 0.680065 0.928467 0.733870
Si Si8 0.224003 0.471047 0.658826
O O1 0.708510 0.712267 0.156185
O O2 0.445212 0.907526 0.187468
O O3 0.500000 0.500000 0.000000
O O4 0.411064 0.572666 0.836330
O O5 0.295969 0.641872 0.397995
O O6 0.549899 0.706497 0.488042
O O7 0.272880 0.790100 0.314300
O O8 0.282791 0.372253 0.065966
O O9 0.003539 0.281155 0.737547
O O10 0.186348 0.957508 0.653610
O O11 0.093238 0.545479 0.354236
O O12 0.754462 0.056031 0.774995
O O13 0.767262 0.782914 0.470386
O O14 0.500000 0.000000 0.500000
O O15 0.158953 0.162371 0.187890
O O16 0.146256 0.460320 0.506039
O O17 0.872829 0.379825 0.227076
#
# Coordination Sequence:
#
# PCOD9007732 Si02
#       8
#     2   2   2   2   2   2   2   2
#     4  12  21  38  68 100 124 162 220 272 321 373
#     4  11  21  42  64  95 127 164 214 267 325 374
#     4  11  24  41  64  97 126 165 218 267 326 375
#     4  11  25  42  64  92 131 171 211 266 318 392
#     4   9  18  34  61  92 122 156 204 270 316 362
#     4  10  23  44  60  88 132 174 209 261 319 390
#     4  10  21  39  62  93 131 164 211 264 315 388
#     4  10  22  40  66  91 127 171 213 263 325 380
#
# _framework density 22.348206000000001
#
# number of rings (size 3 to 8) (size 9 to 14) (size 15 to 20)
#    0.000    1.500    1.250    5.625    3.500    1.000 
#    2.250    2.500    0.000    0.000    0.000    0.000 
#    0.000    0.000    0.000    0.000    0.000    0.000 
#
# Total GULP energy -89242.724149 kJ/mol
# GULP energy per Si atom -5577.670259 kJ/mol
# Density = 2.229734 g / cm^3
# Si number density = 22.348206 Si / 1000 Ang^3
#
#
#
# Elastic Constant Matrix: (Units=GPa)
#
#
# Indices 1 2 3 4 5 6 
#
# 1 99.6420 18.7942 6.7810 7.9473 -2.7332 -5.2370
# 2 18.7942 48.2624 9.3784 7.9029 -3.6585 -2.1320
# 3 6.7810 9.3784 82.5945 2.1376 -4.7782 -12.6953
# 4 7.9473 7.9029 2.1376 21.2404 -7.8944 -0.7603
# 5 -2.7332 -3.6585 -4.7782 -7.8944 29.5037 5.6077
# 6 -5.2370 -2.1320 -12.6953 -0.7603 5.6077 34.7969
#
#
#
# Elastic Compliance Matrix: (Units=1/GPa)
#
#
# Indices 1 2 3 4 5 6 
#
# 1 0.011047 -0.003770 -0.000224 -0.002846 -0.000502 0.001369
# 2 -0.003770 0.023801 -0.002208 -0.007089 0.000372 -0.000130
# 3 -0.000224 -0.002208 0.013117 0.000122 0.001016 0.004456
# 4 -0.002846 -0.007089 0.000122 0.055986 0.014216 -0.001886
# 5 -0.000502 0.000372 0.001016 0.014216 0.038935 -0.005646
# 6 0.001369 -0.000130 0.004456 -0.001886 -0.005646 0.031431
#
#
# Mechanical properties :
#
#
# Convention : Reuss Voigt Hill
#
# Bulk Modulus (GPa) = 28.12072 33.37848 30.74960
# Shear Modulus (GPa) = 25.17947 30.14455 27.66201
#
# Velocity S-wave (km/s) = 3.36026 3.67666 3.52202
# Velocity P-wave (km/s) = 5.25979 5.74386 5.50715
#
# Compressibility (1/GPa) = 0.03556097
#
# Stress axis : x y z
#
# Youngs Moduli (GPa) = 90.51890 42.01582 76.23764
#
# Poissons Ratio (x) = 0.15841 0.01707
# Poissons Ratio (y) = 0.34127 0.16832
# Poissons Ratio (z) = 0.02027 0.09277
#
# Static dielectric constant tensor:
#      x y z
#    x 1.793280 -0.025650 -0.061490 
#    y -0.025650 1.839440 -0.005460 
#    z -0.061490 -0.005460 1.934970 
# 
# From -- ./inp_files/519422.got.cif
#   From: 2010.05.17/outbox.cif.g08.bks.cpg/sg2_260_cif.got.tgz:519422.got - 2010.06.03 11:33:40.
