data_PCOD9007896
_publ_section_title
;
Structure prediction by ZEFSAII (Michael W. Deem and Ramdas Pophale) SiO2 
 PCOD9007896
Probable space group: P -1
;
_chemical_formula_sum "Si O2"
_cell_formula_units_Z 16
_cell_length_a 4.995453
_cell_length_b 8.751843
_cell_length_c 19.617347
_cell_angle_alpha 88.634195
_cell_angle_beta 125.118067
_cell_angle_gamma 96.915728
_cell_volume 695.342924
_symmetry_space_group_name_H-M "P -1"
_symmetry_group_IT_number 2
_symmetry_cell_setting 'triclinic'
loop_
_space_group_symop_operation_xyz
x,y,z
-x,-y,-z
loop_
_atom_site_type_symbol
_atom_site_label
_atom_site_fract_x
_atom_site_fract_y
_atom_site_fract_z
Si Si1 0.493251 0.591875 0.188892
Si Si2 0.479510 0.421241 0.331993
Si Si3 0.733088 0.107059 0.367759
Si Si4 0.797266 0.951893 0.089765
Si Si5 0.238905 0.411232 0.913237
Si Si6 0.583888 0.868054 0.463761
Si Si7 0.809175 0.449700 0.585013
Si Si8 0.568585 0.960587 0.201764
O O1 0.465493 0.486125 0.252886
O O2 0.712212 0.541862 0.159552
O O3 0.579703 0.775542 0.216892
O O4 0.117858 0.575490 0.109055
O O5 0.498060 0.239415 0.340811
O O6 0.213677 0.472237 0.344885
O O7 0.847408 0.505772 0.403074
O O8 0.081910 0.177494 0.452602
O O9 0.639302 0.950376 0.398412
O O10 0.718180 0.055895 0.287698
O O11 0.722581 0.767791 0.081441
O O12 0.765730 0.008830 0.161679
O O13 0.187498 0.986550 0.129941
O O14 0.500000 0.000000 0.000000
O O15 0.500000 0.500000 0.000000
O O16 0.285959 0.732321 0.418520
O O17 0.500000 0.000000 0.500000
O O18 0.500000 0.500000 0.500000
#
# Coordination Sequence:
#
# PCOD9007896 Si02
#       8
#     2   2   2   2   2   2   2   2
#     4  10  22  40  60  92 124 167 207 257 319 378
#     4  12  26  43  67  96 130 169 222 268 325 381
#     4  11  26  42  64  99 129 172 221 275 321 386
#     4  10  22  40  64  93 124 163 208 256 320 384
#     4  10  21  39  63  90 124 161 207 255 314 380
#     4  11  26  43  67  93 132 173 226 268 329 383
#     4  12  25  44  67  91 128 172 215 269 325 378
#     4  10  23  40  63  91 130 166 208 261 320 380
#
# _framework density 23.010228999999999
#
# number of rings (size 3 to 8) (size 9 to 14) (size 15 to 20)
#    0.000    1.250    1.250    3.375    7.000    3.000 
#    0.000    0.000    0.000    0.000    0.000    0.000 
#    0.000    0.000    0.000    0.000    0.000    0.000 
#
# Total GULP energy -89459.656853 kJ/mol
# GULP energy per Si atom -5591.228553 kJ/mol
# Density = 2.295786 g / cm^3
# Si number density = 23.010229 Si / 1000 Ang^3
#
#
#
# Elastic Constant Matrix: (Units=GPa)
#
#
# Indices 1 2 3 4 5 6 
#
# 1 77.4875 3.3686 -0.7923 8.1032 -6.1843 -5.5311
# 2 3.3686 49.4500 22.3913 8.0442 6.3811 -5.1770
# 3 -0.7923 22.3913 80.0817 -2.8698 -0.7769 -2.0677
# 4 8.1032 8.0442 -2.8698 38.4056 -2.8807 -0.9326
# 5 -6.1843 6.3811 -0.7769 -2.8807 27.5759 7.4107
# 6 -5.5311 -5.1770 -2.0677 -0.9326 7.4107 23.3082
#
#
#
# Elastic Compliance Matrix: (Units=1/GPa)
#
#
# Indices 1 2 3 4 5 6 
#
# 1 0.013545 -0.000750 0.000337 -0.002444 0.002367 0.002227
# 2 -0.000750 0.026822 -0.007630 -0.006543 -0.009375 0.007822
# 3 0.000337 -0.007630 0.014724 0.002814 0.002846 -0.001101
# 4 -0.002444 -0.006543 0.002814 0.028427 0.004580 -0.002102
# 5 0.002367 -0.009375 0.002846 0.004580 0.043534 -0.014926
# 6 0.002227 0.007822 -0.001101 -0.002102 -0.014926 0.049733
#
#
# Mechanical properties :
#
#
# Convention : Reuss Voigt Hill
#
# Bulk Modulus (GPa) = 25.63880 28.55048 27.09464
# Shear Modulus (GPa) = 24.28691 29.99472 27.14081
#
# Velocity S-wave (km/s) = 3.25234 3.61437 3.43813
# Velocity P-wave (km/s) = 5.02695 5.46378 5.24991
#
# Compressibility (1/GPa) = 0.03900339
#
# Stress axis : x y z
#
# Youngs Moduli (GPa) = 73.82909 37.28332 67.91591
#
# Poissons Ratio (x) = 0.02795 -0.02285
# Poissons Ratio (y) = 0.05535 0.51822
# Poissons Ratio (z) = -0.02484 0.28449
#
# Static dielectric constant tensor:
#      x y z
#    x 1.879930 0.001550 -0.002600 
#    y 0.001550 1.866350 -0.038230 
#    z -0.002600 -0.038230 1.888510 
# 
# From -- ./inp_files/55616.got.cif
#   From: 2010.05.17/outbox.cif.g08.bks.cpg/sg2_28_cif.got.tgz:55616.got - 2010.06.03 11:33:40.
