data_PCOD9007870
_publ_section_title
;
Structure prediction by ZEFSAII (Michael W. Deem and Ramdas Pophale) SiO2 
 PCOD9007870
Probable space group: P -1
;
_chemical_formula_sum "Si O2"
_cell_formula_units_Z 16
_cell_length_a 13.125356
_cell_length_b 15.339453
_cell_length_c 8.868283
_cell_angle_alpha 139.557744
_cell_angle_beta 105.751434
_cell_angle_gamma 51.833376
_cell_volume 838.558936
_symmetry_space_group_name_H-M "P -1"
_symmetry_group_IT_number 2
_symmetry_cell_setting 'triclinic'
loop_
_space_group_symop_operation_xyz
x,y,z
-x,-y,-z
loop_
_atom_site_type_symbol
_atom_site_label
_atom_site_fract_x
_atom_site_fract_y
_atom_site_fract_z
Si Si1 0.791139 0.485181 0.863591
Si Si2 0.871909 0.194736 0.759186
Si Si3 0.528195 0.609768 0.750101
Si Si4 0.614648 0.763219 0.407838
Si Si5 0.877470 0.577909 0.768805
Si Si6 0.583795 0.304244 0.845976
Si Si7 0.880889 0.434732 0.265245
Si Si8 0.544061 0.890093 0.027091
O O1 0.842320 0.334693 0.806829
O O2 0.688771 0.491238 0.716324
O O3 0.901955 0.473865 0.794365
O O4 0.695731 0.672877 0.163863
O O5 0.742945 0.201820 0.736545
O O6 0.887842 0.271243 0.016828
O O7 0.000000 0.000000 0.500000
O O8 0.500000 0.500000 0.500000
O O9 0.440894 0.681817 0.965985
O O10 0.505494 0.764794 0.849909
O O11 0.485342 0.767576 0.352694
O O12 0.731827 0.618173 0.385901
O O13 0.547705 0.960861 0.683587
O O14 0.892950 0.466249 0.484843
O O15 0.990991 0.599419 0.816384
O O16 0.713291 0.761225 0.946899
O O17 0.500000 0.500000 0.000000
O O18 0.500000 0.000000 0.000000
#
# Coordination Sequence:
#
# PCOD9007870 Si02
#       8
#     2   2   2   2   2   2   2   2
#     4   9  21  40  62  87 122 161 205 255 309 369
#     4  11  24  41  59  89 121 165 210 248 307 374
#     4  10  23  38  64  95 124 162 207 250 320 374
#     4  10  21  39  63  89 123 158 209 257 304 366
#     4  10  22  39  61  88 120 160 203 255 317 363
#     4  11  21  40  64  87 122 167 202 254 315 369
#     4  10  21  41  60  84 122 167 199 248 317 371
#     4  11  23  38  64  98 123 162 209 265 302 365
#
# _framework density 19.080351
#
# number of rings (size 3 to 8) (size 9 to 14) (size 15 to 20)
#    0.000    1.750    5.000    0.000    7.000    6.500 
#    2.250    0.625    0.000    0.000    0.000    0.000 
#    0.000    0.000    0.000    0.000    0.000    0.000 
#
# Total GULP energy -89274.563766 kJ/mol
# GULP energy per Si atom -5579.660235 kJ/mol
# Density = 1.903692 g / cm^3
# Si number density = 19.080351 Si / 1000 Ang^3
#
#
#
# Elastic Constant Matrix: (Units=GPa)
#
#
# Indices 1 2 3 4 5 6 
#
# 1 120.3453 31.3399 45.0860 2.6545 -11.3747 3.0753
# 2 31.3399 58.8264 22.4798 -0.4766 2.7854 15.1831
# 3 45.0860 22.4798 96.6009 14.4228 14.1347 -6.7421
# 4 2.6545 -0.4766 14.4228 26.8915 -5.0380 -1.4996
# 5 -11.3747 2.7854 14.1347 -5.0380 36.5783 -1.8837
# 6 3.0753 15.1831 -6.7421 -1.4996 -1.8837 31.2373
#
#
#
# Elastic Compliance Matrix: (Units=1/GPa)
#
#
# Indices 1 2 3 4 5 6 
#
# 1 0.012453 -0.004614 -0.006272 0.003403 0.007129 0.000256
# 2 -0.004614 0.024475 -0.004463 0.002234 -0.001905 -0.012413
# 3 -0.006272 -0.004463 0.017661 -0.010420 -0.009586 0.005520
# 4 0.003403 0.002234 -0.010420 0.044491 0.010998 -0.000871
# 5 0.007129 -0.001905 -0.009586 0.010998 0.034960 0.000791
# 6 0.000256 -0.012413 0.005520 -0.000871 0.000791 0.039219
#
#
# Mechanical properties :
#
#
# Convention : Reuss Voigt Hill
#
# Bulk Modulus (GPa) = 41.85536 52.62044 47.23790
# Shear Modulus (GPa) = 23.59384 30.73254 27.16319
#
# Velocity S-wave (km/s) = 3.52028 4.01769 3.77718
# Velocity P-wave (km/s) = 6.20541 7.01147 6.62072
#
# Compressibility (1/GPa) = 0.02389180
#
# Stress axis : x y z
#
# Youngs Moduli (GPa) = 80.30389 40.85831 56.62087
#
# Poissons Ratio (x) = 0.18851 0.35510
# Poissons Ratio (y) = 0.37050 0.25271
# Poissons Ratio (z) = 0.50363 0.18236
#
# Static dielectric constant tensor:
#      x y z
#    x 1.622150 0.013850 0.012860 
#    y 0.013850 1.684730 -0.026820 
#    z 0.012860 -0.026820 1.664140 
# 
# From -- ./inp_files/274683.got.cif
#   From: 2010.05.17/outbox.cif.g08.bks.cpg/sg2_138_cif.got.tgz:274683.got - 2010.06.03 11:33:40.
