data_PCOD9007700
_publ_section_title
;
Structure prediction by ZEFSAII (Michael W. Deem and Ramdas Pophale) SiO2 
 PCOD9007700
Probable space group: P -1
;
_chemical_formula_sum "Si O2"
_cell_formula_units_Z 16
_cell_length_a 17.575866
_cell_length_b 9.278372
_cell_length_c 8.442551
_cell_angle_alpha 53.822693
_cell_angle_beta 99.812725
_cell_angle_gamma 60.641204
_cell_volume 733.058391
_symmetry_space_group_name_H-M "P -1"
_symmetry_group_IT_number 2
_symmetry_cell_setting 'triclinic'
loop_
_space_group_symop_operation_xyz
x,y,z
-x,-y,-z
loop_
_atom_site_type_symbol
_atom_site_label
_atom_site_fract_x
_atom_site_fract_y
_atom_site_fract_z
Si Si1 0.663202 0.798044 0.334135
Si Si2 0.543839 0.402497 0.346818
Si Si3 0.665255 0.197690 0.188716
Si Si4 0.925862 0.709108 0.981827
Si Si5 0.105001 0.602388 0.706079
Si Si6 0.927299 0.299158 0.737166
Si Si7 0.533547 0.139626 0.764100
Si Si8 0.141527 0.924549 0.532638
O O1 0.791797 0.503561 0.591905
O O2 0.559380 0.850920 0.321344
O O3 0.664849 0.987392 0.296110
O O4 0.629800 0.893399 0.075811
O O5 0.612751 0.321978 0.263307
O O6 0.581545 0.168954 0.614837
O O7 0.534582 0.594464 0.327143
O O8 0.414886 0.585059 0.117448
O O9 0.788557 0.077066 0.317463
O O10 0.851405 0.994552 0.690039
O O11 0.856223 0.662539 0.060390
O O12 0.000000 0.500000 0.000000
O O13 0.014773 0.640638 0.182248
O O14 0.067316 0.668481 0.467614
O O15 0.180372 0.651810 0.724109
O O16 0.991906 0.834022 0.622339
O O17 0.000000 0.000000 0.000000
#
# Coordination Sequence:
#
# PCOD9007700 Si02
#       8
#     2   2   2   2   2   2   2   2
#     4  10  22  39  61  91 127 164 206 268 310 373
#     4   9  20  39  65  92 121 160 204 261 317 390
#     4  10  21  39  62  92 127 162 204 257 324 372
#     4  10  21  40  61  84 124 162 205 261 309 371
#     4  10  22  39  61  88 122 168 215 259 310 376
#     4  12  24  40  62  93 126 173 220 262 316 376
#     4   9  20  41  64  92 124 156 211 259 318 377
#     4  10  21  40  60  89 128 167 205 263 313 376
#
# _framework density 21.826364000000002
#
# number of rings (size 3 to 8) (size 9 to 14) (size 15 to 20)
#    0.000    2.000    1.250    1.875    1.750    2.500 
#    2.250    3.750    0.000    0.000    0.000    0.000 
#    0.000    0.000    0.000    0.000    0.000    0.000 
#
# Total GULP energy -89327.054306 kJ/mol
# GULP energy per Si atom -5582.940894 kJ/mol
# Density = 2.177669 g / cm^3
# Si number density = 21.826364 Si / 1000 Ang^3
#
#
#
# Elastic Constant Matrix: (Units=GPa)
#
#
# Indices 1 2 3 4 5 6 
#
# 1 91.5404 20.9364 49.4942 -11.2923 -5.8011 45.7919
# 2 20.9364 60.2508 16.8665 4.9168 -7.5950 24.5850
# 3 49.4942 16.8665 48.1782 -0.2588 14.2037 2.6969
# 4 -11.2923 4.9168 -0.2588 21.5062 -9.8674 5.5097
# 5 -5.8011 -7.5950 14.2037 -9.8674 25.0753 7.0370
# 6 45.7919 24.5850 2.6969 5.5097 7.0370 32.6819
#
#
#
# Elastic Compliance Matrix: (Units=1/GPa)
#
#
# Indices 1 2 3 4 5 6 
#
# 1 -0.002287 -0.009480 0.009933 -0.010830 -0.017531 0.015117
# 2 -0.009480 0.018063 0.004572 -0.011733 -0.004568 0.002280
# 3 0.009933 0.004572 0.006545 0.016163 0.012903 -0.023399
# 4 -0.010830 -0.011733 0.016163 0.036439 -0.005867 0.017787
# 5 -0.017531 -0.004568 0.012903 -0.005867 0.018079 0.024032
# 6 0.015117 0.002280 -0.023399 0.017787 0.024032 0.001460
#
#
# Mechanical properties :
#
#
# Convention : Reuss Voigt Hill
#
# Bulk Modulus (GPa) = 30.89392 41.61819 36.25606
# Shear Modulus (GPa) = 63.25942 23.36417 43.31179
#
# Velocity S-wave (km/s) = 5.38943 3.27533 4.45947
# Velocity P-wave (km/s) = 7.27414 5.78040 6.56986
#
# Compressibility (1/GPa) = 0.03236883
#
# Stress axis : x y z
#
# Youngs Moduli (GPa) = -437.22472 55.36132 152.79859
#
# Poissons Ratio (x) = 0.52484 -1.51769
# Poissons Ratio (y) = -4.14503 -0.69857
# Poissons Ratio (z) = 4.34278 -0.25310
#
# Static dielectric constant tensor:
#      x y z
#    x 1.867990 -0.006810 -0.042330 
#    y -0.006810 1.799350 -0.030140 
#    z -0.042330 -0.030140 1.833190 
# 
# From -- ./inp_files/328447.got.cif
#   From: 2010.05.17/outbox.cif.g08.bks.cpg/sg2_165_cif.got.tgz:328447.got - 2010.06.03 11:33:40.
