data_PCOD9007281
_publ_section_title
;
Structure prediction by ZEFSAII (Michael W. Deem and Ramdas Pophale) SiO2 
 PCOD9007281
Probable space group: P -1
;
_chemical_formula_sum "Si O2"
_cell_formula_units_Z 10
_cell_length_a 5.047614
_cell_length_b 9.002079
_cell_length_c 14.204096
_cell_angle_alpha 39.340229
_cell_angle_beta 109.349317
_cell_angle_gamma 108.222825
_cell_volume 384.312968
_symmetry_space_group_name_H-M "P -1"
_symmetry_group_IT_number 2
_symmetry_cell_setting 'triclinic'
loop_
_space_group_symop_operation_xyz
x,y,z
-x,-y,-z
loop_
_atom_site_type_symbol
_atom_site_label
_atom_site_fract_x
_atom_site_fract_y
_atom_site_fract_z
Si Si1 0.839055 0.778241 0.203242
Si Si2 0.969089 0.742635 0.669389
Si Si3 0.531907 0.377612 0.463440
Si Si4 0.417744 0.185939 0.241401
Si Si5 0.410565 0.082898 0.085945
O O1 0.790608 0.525908 0.369407
O O2 0.709487 0.307240 0.257799
O O3 0.153869 0.879875 0.168161
O O4 0.659143 0.790545 0.080575
O O5 0.741241 0.600730 0.645587
O O6 0.833152 0.748663 0.753989
O O7 0.426022 0.899297 0.389514
O O8 0.500000 0.500000 0.500000
O O9 0.699628 0.962308 0.165933
O O10 0.404674 0.232509 0.106370
O O11 0.000000 0.000000 0.500000
#
# Coordination Sequence:
#
# PCOD9007281 Si02
#       5
#     2   2   2   2   2
#     4  10  22  38  58  92 121 149 203 248 292 344
#     4  10  23  40  57  89 125 158 189 246 303 359
#     4  11  22  39  63  94 117 154 206 252 287 348
#     4  11  22  41  62  86 122 161 195 236 312 352
#     4  10  21  39  61  85 122 161 189 245 304 353
#
# _framework density 26.020458999999999
#
# number of rings (size 3 to 8) (size 9 to 14) (size 15 to 20)
#    0.000    1.600    2.000    3.600    2.800    5.600 
#    0.000    2.000    0.000    0.000    0.000    0.000 
#    0.000    0.000    0.000    0.000    0.000    0.000 
#
# Total GULP energy -56088.861880 kJ/mol
# GULP energy per Si atom -5608.886188 kJ/mol
# Density = 2.596123 g / cm^3
# Si number density = 26.020459 Si / 1000 Ang^3
#
#
#
# Elastic Constant Matrix: (Units=GPa)
#
#
# Indices 1 2 3 4 5 6 
#
# 1 99.6493 24.5737 19.3429 -12.4384 -24.1028 -18.0791
# 2 24.5737 138.6121 33.9183 6.2271 -18.0625 -4.6603
# 3 19.3429 33.9183 80.5420 13.3473 -17.2174 6.5782
# 4 -12.4384 6.2271 13.3473 47.4871 -6.0270 -4.3330
# 5 -24.1028 -18.0625 -17.2174 -6.0270 26.1679 15.2549
# 6 -18.0791 -4.6603 6.5782 -4.3330 15.2549 37.6138
#
#
#
# Elastic Compliance Matrix: (Units=1/GPa)
#
#
# Indices 1 2 3 4 5 6 
#
# 1 0.014755 -0.000815 -0.002229 0.006314 0.010856 0.003705
# 2 -0.000815 0.008441 -0.002529 -0.000189 0.003591 -0.000382
# 3 -0.002229 -0.002529 0.018568 -0.004725 0.013552 -0.010672
# 4 0.006314 -0.000189 -0.004725 0.025204 0.005830 0.004377
# 5 0.010856 0.003591 0.013552 0.005830 0.076798 -0.027182
# 6 0.003705 -0.000382 -0.010672 0.004377 -0.027182 0.041714
#
#
# Mechanical properties :
#
#
# Convention : Reuss Voigt Hill
#
# Bulk Modulus (GPa) = 32.65989 52.71923 42.68956
# Shear Modulus (GPa) = 24.17419 38.31834 31.24626
#
# Velocity S-wave (km/s) = 3.05133 3.84164 3.46907
# Velocity P-wave (km/s) = 4.99930 6.32315 5.69979
#
# Compressibility (1/GPa) = 0.03061860
#
# Stress axis : x y z
#
# Youngs Moduli (GPa) = 67.77417 118.46515 53.85692
#
# Poissons Ratio (x) = 0.09654 0.12003
# Poissons Ratio (y) = 0.05523 0.13621
# Poissons Ratio (z) = 0.15105 0.29960
#
# Static dielectric constant tensor:
#      x y z
#    x 1.981160 -0.005920 0.037590 
#    y -0.005920 2.069700 -0.000860 
#    z 0.037590 -0.000860 2.048240 
# 
# From -- ./inp_files/359286.got.cif
#   From: 2010.05.17/outbox.cif.g08.bks.cpg/sg2_180_cif.got.tgz:359286.got - 2010.06.03 11:33:40.
