data_PCOD9007769
_publ_section_title
;
Structure prediction by ZEFSAII (Michael W. Deem and Ramdas Pophale) SiO2 
 PCOD9007769
Probable space group: P -1
;
_chemical_formula_sum "Si O2"
_cell_formula_units_Z 16
_cell_length_a 12.532194
_cell_length_b 14.564252
_cell_length_c 15.464788
_cell_angle_alpha 127.581413
_cell_angle_beta 152.173809
_cell_angle_gamma 73.479257
_cell_volume 756.446606
_symmetry_space_group_name_H-M "P -1"
_symmetry_group_IT_number 2
_symmetry_cell_setting 'triclinic'
loop_
_space_group_symop_operation_xyz
x,y,z
-x,-y,-z
loop_
_atom_site_type_symbol
_atom_site_label
_atom_site_fract_x
_atom_site_fract_y
_atom_site_fract_z
Si Si1 0.882809 0.712451 0.402019
Si Si2 0.266563 0.051235 0.288194
Si Si3 0.737177 0.386081 0.380390
Si Si4 0.824987 0.080948 0.667196
Si Si5 0.531576 0.553403 0.649097
Si Si6 0.293366 0.578627 0.190956
Si Si7 0.094650 0.023531 0.681373
Si Si8 0.487369 0.498165 0.838335
O O1 0.710111 0.665498 0.343200
O O2 0.006853 0.624159 0.445445
O O3 0.655660 0.632425 0.109973
O O4 0.117305 0.898968 0.657910
O O5 0.484883 0.023740 0.391921
O O6 0.525097 0.242041 0.599884
O O7 0.130407 0.964652 0.233683
O O8 0.000000 0.000000 0.000000
O O9 0.705256 0.431584 0.478453
O O10 0.727872 0.490386 0.366682
O O11 0.417530 0.204785 0.028424
O O12 0.855746 0.004584 0.564961
O O13 0.116132 0.274459 0.980442
O O14 0.500000 0.500000 0.500000
O O15 0.469604 0.416476 0.580250
O O16 0.259507 0.481372 0.028377
O O17 0.000000 0.500000 0.000000
O O18 0.000000 0.000000 0.500000
#
# Coordination Sequence:
#
# PCOD9007769 Si02
#       8
#     2   2   2   2   2   2   2   2
#     4  11  22  40  66  87 123 170 206 257 318 374
#     4  11  23  43  66  96 128 170 213 259 331 386
#     4  10  22  40  63  92 125 159 214 264 305 381
#     4  10  23  43  63  91 137 165 209 276 311 381
#     4  10  21  39  62  96 125 163 210 263 319 378
#     4  11  22  39  65  89 126 163 207 261 313 378
#     4  11  22  43  62  91 129 169 215 260 315 369
#     4  10  23  41  60  93 125 158 210 259 318 372
#
# _framework density 21.151524999999999
#
# number of rings (size 3 to 8) (size 9 to 14) (size 15 to 20)
#    0.000    1.500    2.500    2.250    1.750    0.000 
#    9.000    2.500    0.000    0.000    0.000    0.000 
#    0.000    0.000    0.000    0.000    0.000    0.000 
#
# Total GULP energy -89220.821729 kJ/mol
# GULP energy per Si atom -5576.301358 kJ/mol
# Density = 2.110338 g / cm^3
# Si number density = 21.151525 Si / 1000 Ang^3
#
#
#
# Elastic Constant Matrix: (Units=GPa)
#
#
# Indices 1 2 3 4 5 6 
#
# 1 152.8223 45.5916 24.3877 -16.4277 -10.3291 -9.3534
# 2 45.5916 98.2656 14.0726 -3.2871 -4.8485 6.4026
# 3 24.3877 14.0726 28.5623 -10.1832 -6.1879 -3.5753
# 4 -16.4277 -3.2871 -10.1832 35.3844 2.8071 6.5579
# 5 -10.3291 -4.8485 -6.1879 2.8071 25.4401 1.1126
# 6 -9.3534 6.4026 -3.5753 6.5579 1.1126 35.3411
#
#
#
# Elastic Compliance Matrix: (Units=1/GPa)
#
#
# Indices 1 2 3 4 5 6 
#
# 1 0.008707 -0.003392 -0.004493 0.001935 0.001493 0.002059
# 2 -0.003392 0.012524 -0.003974 -0.000948 0.000296 -0.003402
# 3 -0.004493 -0.003974 0.046205 0.009852 0.007477 0.002142
# 4 0.001935 -0.000948 0.009852 0.032752 -0.000421 -0.004384
# 5 0.001493 0.000296 0.007477 -0.000421 0.041842 -0.000141
# 6 0.002059 -0.003402 0.002142 -0.004384 -0.000141 0.030491
#
#
# Mechanical properties :
#
#
# Convention : Reuss Voigt Hill
#
# Bulk Modulus (GPa) = 22.87303 49.75046 36.31175
# Shear Modulus (GPa) = 23.71773 32.27301 27.99537
#
# Velocity S-wave (km/s) = 3.35225 3.91039 3.64203
# Velocity P-wave (km/s) = 5.08142 6.63025 5.90682
#
# Compressibility (1/GPa) = 0.04371960
#
# Stress axis : x y z
#
# Youngs Moduli (GPa) = 114.84578 79.84634 21.64249
#
# Poissons Ratio (x) = 0.27086 0.09723
# Poissons Ratio (y) = 0.38959 0.08600
# Poissons Ratio (z) = 0.51595 0.31729
#
# Static dielectric constant tensor:
#      x y z
#    x 1.701050 -0.110730 -0.038070 
#    y -0.110730 1.686880 -0.062640 
#    z -0.038070 -0.062640 1.736590 
# 
# From -- ./inp_files/521572.got.cif
#   From: 2010.05.17/outbox.cif.g08.bks.cpg/sg2_261_cif.got.tgz:521572.got - 2010.06.03 11:33:40.
