data_PCOD9007817
_publ_section_title
;
Structure prediction by ZEFSAII (Michael W. Deem and Ramdas Pophale) SiO2 
 PCOD9007817
Probable space group: P -1
;
_chemical_formula_sum "Si O2"
_cell_formula_units_Z 14
_cell_length_a 23.153983
_cell_length_b 8.870851
_cell_length_c 14.172386
_cell_angle_alpha 136.676958
_cell_angle_beta 19.316865
_cell_angle_gamma 138.097429
_cell_volume 638.930746
_symmetry_space_group_name_H-M "P -1"
_symmetry_group_IT_number 2
_symmetry_cell_setting 'triclinic'
loop_
_space_group_symop_operation_xyz
x,y,z
-x,-y,-z
loop_
_atom_site_type_symbol
_atom_site_label
_atom_site_fract_x
_atom_site_fract_y
_atom_site_fract_z
Si Si1 0.204889 0.559293 0.092547
Si Si2 0.813042 0.230883 0.593008
Si Si3 0.026831 0.111250 0.904450
Si Si4 0.636340 0.840339 0.320966
Si Si5 0.306663 0.461731 0.234733
Si Si6 0.314638 0.041532 0.910024
Si Si7 0.943945 0.395758 0.860583
O O1 0.251434 0.739810 0.187996
O O2 0.145456 0.643706 0.124065
O O3 0.022429 0.377497 0.327177
O O4 0.345525 0.407089 0.788953
O O5 0.707437 0.347730 0.733717
O O6 0.830967 0.988097 0.419172
O O7 0.092711 0.380882 0.935395
O O8 0.824696 0.021859 0.135063
O O9 0.000000 0.000000 0.000000
O O10 0.613308 0.828631 0.238186
O O11 0.472143 0.931505 0.655006
O O12 0.156253 0.453024 0.541684
O O13 0.500000 0.500000 0.000000
O O14 0.262003 0.219742 0.141127
O O15 0.142965 0.835292 0.057529
#
# Coordination Sequence:
#
# PCOD9007817 Si02
#       7
#     2   2   2   2   2   2   2
#     4   9  17  36  61  86 110 158 203 240 288 353
#     4   9  18  33  62  85 111 155 207 233 289 361
#     4  11  19  37  63  89 113 157 208 244 290 355
#     4  10  21  39  63  84 120 165 198 237 307 361
#     4  11  21  37  62  87 121 160 199 239 299 367
#     4  11  24  38  59  92 125 155 198 249 303 358
#     4  11  23  38  63  94 118 153 205 255 292 341
#
# _framework density 21.911608000000001
#
# number of rings (size 3 to 8) (size 9 to 14) (size 15 to 20)
#    0.000    1.714    5.714    1.286    2.000    1.143 
#    0.000    0.000    0.000    1.714    0.000    0.000 
#    0.000    0.000    0.000    0.000    0.000    0.000 
#
# Total GULP energy -78208.541862 kJ/mol
# GULP energy per Si atom -5586.324419 kJ/mol
# Density = 2.186174 g / cm^3
# Si number density = 21.911608 Si / 1000 Ang^3
#
#
#
# Elastic Constant Matrix: (Units=GPa)
#
#
# Indices 1 2 3 4 5 6 
#
# 1 36.7604 15.2482 44.6379 7.1021 -6.3398 18.7540
# 2 15.2482 77.6666 35.9192 20.4800 13.1923 21.0063
# 3 44.6379 35.9192 92.5920 30.2737 -14.9966 1.5286
# 4 7.1021 20.4800 30.2737 27.6059 8.9750 12.2266
# 5 -6.3398 13.1923 -14.9966 8.9750 30.6412 3.0829
# 6 18.7540 21.0063 1.5286 12.2266 3.0829 18.0017
#
#
#
# Elastic Compliance Matrix: (Units=1/GPa)
#
#
# Indices 1 2 3 4 5 6 
#
# 1 -0.001938 -0.014311 0.022118 -0.037955 0.023825 0.038539
# 2 -0.014311 0.016077 0.005354 -0.016314 -0.003221 0.007326
# 3 0.022118 0.005354 -0.006371 0.014852 -0.001312 -0.038612
# 4 -0.037955 -0.016314 0.014852 0.025299 -0.005096 0.041006
# 5 0.023825 -0.003221 -0.001312 -0.005096 0.042291 -0.024732
# 6 0.038539 0.007326 -0.038612 0.041006 -0.024732 -0.013485
#
#
# Mechanical properties :
#
#
# Convention : Reuss Voigt Hill
#
# Bulk Modulus (GPa) = 29.33425 44.29218 36.81321
# Shear Modulus (GPa) = 106.57973 22.66403 64.62188
#
# Velocity S-wave (km/s) = 6.98186 3.21960 5.43655
# Velocity P-wave (km/s) = 8.85504 5.83772 7.49969
#
# Compressibility (1/GPa) = 0.03408985
#
# Stress axis : x y z
#
# Youngs Moduli (GPa) = -515.92483 62.20218 -156.96083
#
# Poissons Ratio (x) = 0.89016 3.47171
# Poissons Ratio (y) = -7.38327 0.84032
# Poissons Ratio (z) = 11.41139 -0.33301
#
# Static dielectric constant tensor:
#      x y z
#    x 1.855290 -0.023460 -0.002540 
#    y -0.023460 1.837830 0.019010 
#    z -0.002540 0.019010 1.798860 
# 
# From -- ./inp_files/182765.got.cif
#   From: 2010.05.17/outbox.cif.g08.bks.cpg/sg2_92_cif.got.tgz:182765.got - 2010.06.03 11:33:40.
