data_PCOD9007968
_publ_section_title
;
Structure prediction by ZEFSAII (Michael W. Deem and Ramdas Pophale) SiO2 
 PCOD9007968
Probable space group: P -1
;
_chemical_formula_sum "Si O2"
_cell_formula_units_Z 16
_cell_length_a 8.381590
_cell_length_b 19.980726
_cell_length_c 19.311458
_cell_angle_alpha 159.446332
_cell_angle_beta 136.594164
_cell_angle_gamma 52.579718
_cell_volume 744.063375
_symmetry_space_group_name_H-M "P -1"
_symmetry_group_IT_number 2
_symmetry_cell_setting 'triclinic'
loop_
_space_group_symop_operation_xyz
x,y,z
-x,-y,-z
loop_
_atom_site_type_symbol
_atom_site_label
_atom_site_fract_x
_atom_site_fract_y
_atom_site_fract_z
Si Si1 0.361885 0.528044 0.891720
Si Si2 0.886028 0.592210 0.451910
Si Si3 0.677046 0.035375 0.021854
Si Si4 0.459302 0.250617 0.043351
Si Si5 0.433576 0.122758 0.535235
Si Si6 0.248122 0.354819 0.307762
Si Si7 0.999408 0.763336 0.031490
Si Si8 0.708600 0.931406 0.334689
O O1 0.223297 0.434955 0.686417
O O2 0.444743 0.347578 0.773845
O O3 0.168032 0.619375 0.955685
O O4 0.588950 0.720287 0.131531
O O5 0.051393 0.817036 0.735437
O O6 0.084014 0.471740 0.405136
O O7 0.656999 0.465440 0.301339
O O8 0.558230 0.130237 0.015763
O O9 0.500000 0.000000 0.000000
O O10 0.701231 0.820178 0.802044
O O11 0.392382 0.122288 0.827129
O O12 0.214810 0.283284 0.026693
O O13 0.500000 0.000000 0.500000
O O14 0.597464 0.091653 0.492216
O O15 0.157259 0.993368 0.308525
O O16 0.500000 0.500000 0.500000
O O17 0.103057 0.265144 0.105763
O O18 0.000000 0.000000 0.500000
#
# Coordination Sequence:
#
# PCOD9007968 Si02
#       8
#     2   2   2   2   2   2   2   2
#     4   9  22  41  69  93 125 174 217 266 325 382
#     4  10  22  41  61  92 134 167 219 271 317 386
#     4  12  22  38  66  94 128 178 217 265 323 382
#     4  11  23  41  65 100 134 172 216 273 334 381
#     4  11  23  43  69  96 125 166 222 271 321 395
#     4  11  21  38  61  90 126 172 219 262 310 385
#     4  10  21  39  63  92 127 169 220 263 315 387
#     4  10  23  45  65  95 136 168 211 275 329 390
#
# _framework density 21.503544000000002
#
# number of rings (size 3 to 8) (size 9 to 14) (size 15 to 20)
#    0.000    1.500    2.500    2.625    0.000    3.000 
#    0.000   12.500    0.000    0.000    0.000    0.000 
#    0.000    0.000    0.000    0.000    0.000    0.000 
#
# Total GULP energy -89442.241956 kJ/mol
# GULP energy per Si atom -5590.140122 kJ/mol
# Density = 2.145460 g / cm^3
# Si number density = 21.503544 Si / 1000 Ang^3
#
#
#
# Elastic Constant Matrix: (Units=GPa)
#
#
# Indices 1 2 3 4 5 6 
#
# 1 118.9780 31.0930 43.9256 8.3614 23.7756 -14.1090
# 2 31.0930 104.3196 42.3714 15.0868 5.2454 -0.7049
# 3 43.9256 42.3714 134.1702 5.9619 20.2728 -16.9739
# 4 8.3614 15.0868 5.9619 45.7333 -7.2993 -8.6379
# 5 23.7756 5.2454 20.2728 -7.2993 37.5414 -12.2075
# 6 -14.1090 -0.7049 -16.9739 -8.6379 -12.2075 31.7487
#
#
#
# Elastic Compliance Matrix: (Units=1/GPa)
#
#
# Indices 1 2 3 4 5 6 
#
# 1 0.011013 -0.001956 -0.001907 -0.001798 -0.005639 0.001173
# 2 -0.001956 0.012133 -0.003393 -0.004009 -0.000621 -0.003743
# 3 -0.001907 -0.003393 0.009950 0.000459 -0.002436 0.003585
# 4 -0.001798 -0.004009 0.000459 0.027092 0.010179 0.010642
# 5 -0.005639 -0.000621 -0.002436 0.010179 0.037999 0.013558
# 6 0.001173 -0.003743 0.003585 0.010642 0.013558 0.041961
#
#
# Mechanical properties :
#
#
# Convention : Reuss Voigt Hill
#
# Bulk Modulus (GPa) = 53.81164 65.80531 59.80847
# Shear Modulus (GPa) = 31.08412 39.00986 35.04699
#
# Velocity S-wave (km/s) = 3.80614 4.26386 4.04149
# Velocity P-wave (km/s) = 6.66292 7.41007 7.04641
#
# Compressibility (1/GPa) = 0.01858334
#
# Stress axis : x y z
#
# Youngs Moduli (GPa) = 90.80440 82.42228 100.49936
#
# Poissons Ratio (x) = 0.16124 0.19167
# Poissons Ratio (y) = 0.17764 0.34096
# Poissons Ratio (z) = 0.17318 0.27963
#
# Static dielectric constant tensor:
#      x y z
#    x 1.796180 0.023910 -0.028030 
#    y 0.023910 1.813180 0.028620 
#    z -0.028030 0.028620 1.849630 
# 
# From -- ./inp_files/591745.got.cif
#   From: 2010.05.17/outbox.cif.g08.bks.cpg/sg2_296_cif.got.tgz:591745.got - 2010.06.03 11:33:40.
