data_PCOD9007675
_publ_section_title
;
Structure prediction by ZEFSAII (Michael W. Deem and Ramdas Pophale) SiO2 
 PCOD9007675
Probable space group: P -1
;
_chemical_formula_sum "Si O2"
_cell_formula_units_Z 16
_cell_length_a 6.243493
_cell_length_b 23.388521
_cell_length_c 5.395612
_cell_angle_alpha 78.692846
_cell_angle_beta 77.084336
_cell_angle_gamma 62.383848
_cell_volume 676.563495
_symmetry_space_group_name_H-M "P -1"
_symmetry_group_IT_number 2
_symmetry_cell_setting 'triclinic'
loop_
_space_group_symop_operation_xyz
x,y,z
-x,-y,-z
loop_
_atom_site_type_symbol
_atom_site_label
_atom_site_fract_x
_atom_site_fract_y
_atom_site_fract_z
Si Si1 0.827726 0.645700 0.472322
Si Si2 0.926712 0.287871 0.360031
Si Si3 0.469909 0.400333 0.116331
Si Si4 0.598809 0.227461 0.627735
Si Si5 0.717388 0.924461 0.724196
Si Si6 0.688891 0.463722 0.696303
Si Si7 0.165569 0.036261 0.841498
Si Si8 0.423089 0.192476 0.181635
O O1 0.973973 0.686475 0.461893
O O2 0.021018 0.577646 0.374494
O O3 0.725080 0.627709 0.767362
O O4 0.593373 0.696319 0.344104
O O5 0.704750 0.349856 0.249210
O O6 0.846353 0.233310 0.511066
O O7 0.159972 0.253553 0.152463
O O8 0.348500 0.475298 0.173550
O O9 0.591532 0.410148 0.831518
O O10 0.526471 0.204412 0.406994
O O11 0.587407 0.188410 0.904231
O O12 0.879578 0.932297 0.449527
O O13 0.637351 0.868277 0.733858
O O14 0.453007 0.986385 0.776758
O O15 0.848662 0.917564 0.962010
O O16 0.500000 0.500000 0.500000
O O17 0.000000 0.000000 0.000000
#
# Coordination Sequence:
#
# PCOD9007675 Si02
#       8
#     2   2   2   2   2   2   2   2
#     4  10  21  40  59  82 112 151 191 244 300 356
#     4  10  22  41  60  85 115 155 197 245 302 361
#     4  10  22  39  56  83 110 147 191 239 298 361
#     4  10  24  40  62  87 119 159 201 248 304 354
#     4  10  22  38  61  93 125 160 209 245 289 357
#     4  11  21  37  58  81 111 143 190 242 296 360
#     4  10  21  39  62  91 129 166 198 247 299 342
#     4  11  23  41  63  91 122 160 203 251 294 348
#
# _framework density 23.648927
#
# number of rings (size 3 to 8) (size 9 to 14) (size 15 to 20)
#    0.000    1.750    1.250    2.250    0.000    7.500 
#    2.250    0.000    0.000    0.000    0.000    0.000 
#    0.000    0.000    0.000    0.000    0.000    0.000 
#
# Total GULP energy -89214.041191 kJ/mol
# GULP energy per Si atom -5575.877574 kJ/mol
# Density = 2.359510 g / cm^3
# Si number density = 23.648927 Si / 1000 Ang^3
#
#
#
# Elastic Constant Matrix: (Units=GPa)
#
#
# Indices 1 2 3 4 5 6 
#
# 1 65.8516 14.4292 39.3041 5.7942 -15.7389 21.8436
# 2 14.4292 55.1116 23.7162 1.9866 2.8110 20.2887
# 3 39.3041 23.7162 162.2389 -4.9946 -24.7768 17.3097
# 4 5.7942 1.9866 -4.9946 26.0026 7.6579 -3.7937
# 5 -15.7389 2.8110 -24.7768 7.6579 28.6533 -12.3046
# 6 21.8436 20.2887 17.3097 -3.7937 -12.3046 35.4016
#
#
#
# Elastic Compliance Matrix: (Units=1/GPa)
#
#
# Indices 1 2 3 4 5 6 
#
# 1 0.023886 -0.000808 -0.003584 -0.009913 0.008129 -0.010760
# 2 -0.000808 0.027700 -0.004107 -0.001202 -0.014325 -0.018476
# 3 -0.003584 -0.004107 0.008367 0.001201 0.006591 0.002894
# 4 -0.009913 -0.001202 0.001201 0.045996 -0.013864 0.006328
# 5 0.008129 -0.014325 0.006591 -0.013864 0.058214 0.018719
# 6 -0.010760 -0.018476 0.002894 0.006328 0.018719 0.051245
#
#
# Mechanical properties :
#
#
# Convention : Reuss Voigt Hill
#
# Bulk Modulus (GPa) = 23.28003 48.67789 35.97896
# Shear Modulus (GPa) = 20.26558 31.72833 25.99695
#
# Velocity S-wave (km/s) = 2.93052 3.66681 3.31915
# Velocity P-wave (km/s) = 4.61692 6.20932 5.47136
#
# Compressibility (1/GPa) = 0.04295528
#
# Stress axis : x y z
#
# Youngs Moduli (GPa) = 41.86501 36.10165 119.51329
#
# Poissons Ratio (x) = 0.02915 0.42838
# Poissons Ratio (y) = 0.03381 0.49084
# Poissons Ratio (z) = 0.15006 0.14827
#
# Static dielectric constant tensor:
#      x y z
#    x 1.506570 0.213740 0.074900 
#    y 0.213740 1.800580 -0.034610 
#    z 0.074900 -0.034610 1.937950 
# 
# From -- ./inp_files/12901.got.cif
#   From: 2010.05.17/outbox.cif.g08.bks.cpg/sg2_7_cif.got.tgz:12901.got - 2010.06.03 11:33:40.
