data_PCOD9007005
_publ_section_title
;
Structure prediction by ZEFSAII (Michael W. Deem and Ramdas Pophale) SiO2 
 PCOD9007005
Probable space group: P -1
;
_chemical_formula_sum "Si O2"
_cell_formula_units_Z 16
_cell_length_a 25.547429
_cell_length_b 5.342491
_cell_length_c 6.525289
_cell_angle_alpha 67.179887
_cell_angle_beta 118.947674
_cell_angle_gamma 81.221268
_cell_volume 651.261253
_symmetry_space_group_name_H-M "P -1"
_symmetry_group_IT_number 2
_symmetry_cell_setting 'triclinic'
loop_
_space_group_symop_operation_xyz
x,y,z
-x,-y,-z
loop_
_atom_site_type_symbol
_atom_site_label
_atom_site_fract_x
_atom_site_fract_y
_atom_site_fract_z
Si Si1 0.201913 0.766008 0.308389
Si Si2 0.216326 0.276869 0.897496
Si Si3 0.724211 0.114732 0.229848
Si Si4 0.491909 0.693271 0.622358
Si Si5 0.687411 0.591795 0.680310
Si Si6 0.925284 0.288177 0.401101
Si Si7 0.939811 0.896136 0.161584
Si Si8 0.397217 0.821053 0.744666
O O1 0.228709 0.785365 0.577326
O O2 0.257698 0.505621 0.363133
O O3 0.201351 0.036510 0.077429
O O4 0.124556 0.842145 0.144026
O O5 0.149597 0.570942 0.711550
O O6 0.230379 0.181775 0.717278
O O7 0.281427 0.271145 0.130644
O O8 0.670661 0.143896 0.291879
O O9 0.686031 0.323758 0.898338
O O10 0.500000 0.500000 0.500000
O O11 0.422286 0.764380 0.577494
O O12 0.500000 0.000000 0.500000
O O13 0.548845 0.460446 0.948345
O O14 0.617848 0.823982 0.381880
O O15 0.935388 0.575773 0.233749
O O16 0.984503 0.164167 0.717216
O O17 0.932755 0.023899 0.341653
#
# Coordination Sequence:
#
# PCOD9007005 Si02
#       8
#     2   2   2   2   2   2   2   2
#     4  10  21  39  62  94 136 179 237 292 357 409
#     4  10  21  39  58  94 134 178 228 292 350 414
#     4  11  25  39  64 101 139 180 230 293 354 415
#     4  11  28  53  79 109 146 184 230 281 336 410
#     4  11  23  40  65  97 137 180 230 289 347 418
#     4   9  17  33  59  88 127 177 234 290 350 415
#     4   9  17  32  60  89 122 182 236 284 353 419
#     4  11  26  46  75 106 139 185 231 277 344 416
#
# _framework density 24.567715
#
# number of rings (size 3 to 8) (size 9 to 14) (size 15 to 20)
#    0.000    1.750    2.500    0.750    3.500    4.000 
#    0.000    0.625    0.000    0.750    0.000    0.000 
#    0.000    0.000    0.000    0.000    0.000    0.000 
#
# Total GULP energy -89138.256479 kJ/mol
# GULP energy per Si atom -5571.141030 kJ/mol
# Density = 2.451180 g / cm^3
# Si number density = 24.567715 Si / 1000 Ang^3
#
#
#
# Elastic Constant Matrix: (Units=GPa)
#
#
# Indices 1 2 3 4 5 6 
#
# 1 110.3947 41.9676 30.7400 -0.8028 -6.1314 -27.2738
# 2 41.9676 133.3699 45.9275 2.4268 10.1953 -22.4880
# 3 30.7400 45.9275 103.6757 -7.0834 -12.8630 -17.9277
# 4 -0.8028 2.4268 -7.0834 37.1353 -5.3644 16.1309
# 5 -6.1314 10.1953 -12.8630 -5.3644 37.3568 -8.1773
# 6 -27.2738 -22.4880 -17.9277 16.1309 -8.1773 32.3260
#
#
#
# Elastic Compliance Matrix: (Units=1/GPa)
#
#
# Indices 1 2 3 4 5 6 
#
# 1 0.013506 -0.002139 -0.000494 -0.004698 0.004846 0.013204
# 2 -0.002139 0.010743 -0.004212 -0.004023 -0.004385 0.004232
# 3 -0.000494 -0.004212 0.013538 0.001640 0.007090 0.005136
# 4 -0.004698 -0.004023 0.001640 0.038276 0.000980 -0.024705
# 5 0.004846 -0.004385 0.007090 0.000980 0.034219 0.013137
# 6 0.013204 0.004232 0.005136 -0.024705 0.013137 0.063519
#
#
# Mechanical properties :
#
#
# Convention : Reuss Voigt Hill
#
# Bulk Modulus (GPa) = 41.49733 64.96783 53.23258
# Shear Modulus (GPa) = 25.57258 36.61728 31.09493
#
# Velocity S-wave (km/s) = 3.22980 3.86484 3.56150
# Velocity P-wave (km/s) = 5.55306 6.81306 6.21507
#
# Compressibility (1/GPa) = 0.02409794
#
# Stress axis : x y z
#
# Youngs Moduli (GPa) = 74.04154 93.08041 73.86798
#
# Poissons Ratio (x) = 0.19906 0.03647
# Poissons Ratio (y) = 0.15834 0.31115
# Poissons Ratio (z) = 0.03655 0.39208
#
# Static dielectric constant tensor:
#      x y z
#    x 1.962290 0.049810 -0.020360 
#    y 0.049810 1.998090 -0.109930 
#    z -0.020360 -0.109930 2.026910 
# 
# From -- ./inp_files/125746.got.cif
#   From: 2010.05.17/outbox.cif.g08.bks.cpg/sg2_63_cif.got.tgz:125746.got - 2010.06.03 11:33:40.
