data_PCOD9007046
_publ_section_title
;
Structure prediction by ZEFSAII (Michael W. Deem and Ramdas Pophale) SiO2 
 PCOD9007046
Probable space group: P -1
;
_chemical_formula_sum "Si O2"
_cell_formula_units_Z 16
_cell_length_a 12.613296
_cell_length_b 11.151543
_cell_length_c 6.219962
_cell_angle_alpha 71.342354
_cell_angle_beta 101.659200
_cell_angle_gamma 110.033953
_cell_volume 774.534490
_symmetry_space_group_name_H-M "P -1"
_symmetry_group_IT_number 2
_symmetry_cell_setting 'triclinic'
loop_
_space_group_symop_operation_xyz
x,y,z
-x,-y,-z
loop_
_atom_site_type_symbol
_atom_site_label
_atom_site_fract_x
_atom_site_fract_y
_atom_site_fract_z
Si Si1 0.670809 0.658755 0.511160
Si Si2 0.348920 0.068457 0.538831
Si Si3 0.525001 0.415344 0.863132
Si Si4 0.404087 0.896954 0.282339
Si Si5 0.670883 0.321730 0.271970
Si Si6 0.958606 0.392728 0.853232
Si Si7 0.162763 0.445784 0.580654
Si Si8 0.215539 0.835442 0.872900
O O1 0.665584 0.786591 0.568810
O O2 0.616298 0.520592 0.692918
O O3 0.585285 0.652637 0.281329
O O4 0.793704 0.657902 0.478908
O O5 0.461280 0.065959 0.723063
O O6 0.372449 0.005639 0.359074
O O7 0.240304 0.972498 0.674022
O O8 0.500000 0.500000 0.000000
O O9 0.579668 0.313236 0.054834
O O10 0.383111 0.766639 0.498062
O O11 0.315458 0.861910 0.074412
O O12 0.729191 0.470639 0.285057
O O13 0.765976 0.265888 0.241499
O O14 0.871092 0.448873 0.648344
O O15 0.059421 0.391216 0.733175
O O16 0.898641 0.247060 0.007769
O O17 0.000000 0.500000 0.000000
#
# Coordination Sequence:
#
# PCOD9007046 Si02
#       8
#     2   2   2   2   2   2   2   2
#     4  11  24  39  55  92 130 166 198 249 303 374
#     4  10  23  37  58  88 125 165 206 236 299 374
#     4  11  22  35  60  88 129 164 198 239 309 370
#     4  10  21  39  59  88 124 163 203 252 294 363
#     4  11  20  35  61  94 118 156 198 252 308 365
#     4  11  23  41  65  93 115 154 210 268 310 352
#     4  11  23  38  62  91 124 151 199 262 315 357
#     4  11  21  38  64  84 120 159 206 257 301 354
#
# _framework density 20.657568000000001
#
# number of rings (size 3 to 8) (size 9 to 14) (size 15 to 20)
#    0.000    1.250    3.750    2.625    1.750    3.000 
#    0.000    0.625    0.000    1.500    0.000    0.000 
#    0.000    0.000    0.000    0.000    0.000    0.000 
#
# Total GULP energy -89379.032303 kJ/mol
# GULP energy per Si atom -5586.189519 kJ/mol
# Density = 2.061055 g / cm^3
# Si number density = 20.657568 Si / 1000 Ang^3
#
#
#
# Elastic Constant Matrix: (Units=GPa)
#
#
# Indices 1 2 3 4 5 6 
#
# 1 92.4279 28.7121 13.8731 -10.6851 -20.6902 -4.0273
# 2 28.7121 68.1452 -2.4593 -2.0331 -10.3390 -3.3131
# 3 13.8731 -2.4593 50.4916 -5.3612 -2.9616 10.2848
# 4 -10.6851 -2.0331 -5.3612 30.9707 5.6499 -3.5283
# 5 -20.6902 -10.3390 -2.9616 5.6499 24.6111 -2.7906
# 6 -4.0273 -3.3131 10.2848 -3.5283 -2.7906 29.3385
#
#
#
# Elastic Compliance Matrix: (Units=1/GPa)
#
#
# Indices 1 2 3 4 5 6 
#
# 1 0.015987 -0.004976 -0.004638 0.002973 0.010633 0.004628
# 2 -0.004976 0.017421 0.002191 -0.000774 0.003664 0.000771
# 3 -0.004638 0.002191 0.022997 0.001860 -0.001588 -0.008378
# 4 0.002973 -0.000774 0.001860 0.034925 -0.005237 0.003371
# 5 0.010633 0.003664 -0.001588 -0.005237 0.052896 0.006832
# 6 0.004628 0.000771 -0.008378 0.003371 0.006832 0.038799
#
#
# Mechanical properties :
#
#
# Convention : Reuss Voigt Hill
#
# Bulk Modulus (GPa) = 24.06229 32.36848 28.21539
# Shear Modulus (GPa) = 23.61559 28.38000 25.99779
#
# Velocity S-wave (km/s) = 3.38478 3.71054 3.55140
# Velocity P-wave (km/s) = 5.19125 5.83615 5.52312
#
# Compressibility (1/GPa) = 0.04155880
#
# Stress axis : x y z
#
# Youngs Moduli (GPa) = 62.55097 57.40337 43.48330
#
# Poissons Ratio (x) = 0.28565 0.20168
# Poissons Ratio (y) = 0.31127 -0.09529
# Poissons Ratio (z) = 0.29012 -0.12579
#
# Static dielectric constant tensor:
#      x y z
#    x 1.771480 -0.004250 -0.007410 
#    y -0.004250 1.795400 -0.014470 
#    z -0.007410 -0.014470 1.764430 
# 
# From -- ./inp_files/69273.got.cif
#   From: 2010.05.17/outbox.cif.g08.bks.cpg/sg2_35_cif.got.tgz:69273.got - 2010.06.03 11:33:40.
