data_PCOD9007336
_publ_section_title
;
Structure prediction by ZEFSAII (Michael W. Deem and Ramdas Pophale) SiO2 
 PCOD9007336
Probable space group: P -1
;
_chemical_formula_sum "Si O2"
_cell_formula_units_Z 14
_cell_length_a 14.448248
_cell_length_b 11.029384
_cell_length_c 10.201707
_cell_angle_alpha 127.925099
_cell_angle_beta 46.254996
_cell_angle_gamma 151.220024
_cell_volume 565.259525
_symmetry_space_group_name_H-M "P -1"
_symmetry_group_IT_number 2
_symmetry_cell_setting 'triclinic'
loop_
_space_group_symop_operation_xyz
x,y,z
-x,-y,-z
loop_
_atom_site_type_symbol
_atom_site_label
_atom_site_fract_x
_atom_site_fract_y
_atom_site_fract_z
Si Si1 0.114476 0.447617 0.323127
Si Si2 0.309668 0.447343 0.371207
Si Si3 0.615716 0.095697 0.810223
Si Si4 0.221409 0.145677 0.771695
Si Si5 0.167940 0.077340 0.063328
Si Si6 0.047658 0.732457 0.271706
Si Si7 0.225650 0.807646 0.865247
O O1 0.256183 0.520350 0.355154
O O2 0.262785 0.635931 0.180214
O O3 0.000000 0.500000 0.500000
O O4 0.929271 0.147314 0.285468
O O5 0.535921 0.662350 0.360833
O O6 0.277811 0.257054 0.199071
O O7 0.121535 0.298517 0.558432
O O8 0.769421 0.098670 0.687285
O O9 0.432077 0.907121 0.759377
O O10 0.500000 0.000000 0.000000
O O11 0.222805 0.214567 0.964720
O O12 0.084107 0.140280 0.821297
O O13 0.253630 0.991384 0.885563
O O14 0.934178 0.459979 0.220185
O O15 0.134895 0.793631 0.080775
#
# Coordination Sequence:
#
# PCOD9007336 Si02
#       7
#     2   2   2   2   2   2   2
#     4  11  22  36  61  96 121 152 207 252 305 364
#     4  11  23  38  62  91 125 157 204 256 311 355
#     4  10  21  39  61  88 124 159 197 251 307 364
#     4  10  23  40  61  84 126 159 198 257 309 361
#     4  10  22  40  59  87 119 164 210 246 302 376
#     4  10  22  39  59  93 120 158 209 256 299 373
#     4  10  22  39  63  84 123 165 206 247 312 364
#
# _framework density 24.767384
#
# number of rings (size 3 to 8) (size 9 to 14) (size 15 to 20)
#    0.000    1.714    1.429    2.143    2.000    4.571 
#    0.000    0.714    0.000    0.000    0.000    0.000 
#    0.000    0.000    0.000    0.000    0.000    0.000 
#
# Total GULP energy -78124.914905 kJ/mol
# GULP energy per Si atom -5580.351065 kJ/mol
# Density = 2.471101 g / cm^3
# Si number density = 24.767384 Si / 1000 Ang^3
#
#
#
# Elastic Constant Matrix: (Units=GPa)
#
#
# Indices 1 2 3 4 5 6 
#
# 1 69.7212 21.5688 6.9030 -15.5320 -11.7381 32.2135
# 2 21.5688 59.2073 21.0100 -17.4307 -7.4381 18.2986
# 3 6.9030 21.0100 77.5588 -11.7844 -12.4906 9.5808
# 4 -15.5320 -17.4307 -11.7844 36.5616 5.7351 -19.0687
# 5 -11.7381 -7.4381 -12.4906 5.7351 42.6118 -9.8123
# 6 32.2135 18.2986 9.5808 -19.0687 -9.8123 35.7350
#
#
#
# Elastic Compliance Matrix: (Units=1/GPa)
#
#
# Indices 1 2 3 4 5 6 
#
# 1 0.025277 -0.003255 0.001347 -0.002231 0.001996 -0.022123
# 2 -0.003255 0.022706 -0.004451 0.005677 -0.000033 -0.004480
# 3 0.001347 -0.004451 0.014991 0.002347 0.003502 -0.000741
# 4 -0.002231 0.005677 0.002347 0.040277 0.000258 0.020038
# 5 0.001996 -0.000033 0.003502 0.000258 0.026056 0.004571
# 6 -0.022123 -0.004480 -0.000741 0.020038 0.004571 0.062366
#
#
# Mechanical properties :
#
#
# Convention : Reuss Voigt Hill
#
# Bulk Modulus (GPa) = 19.89742 33.93898 26.91820
# Shear Modulus (GPa) = 22.60978 33.44871 28.02925
#
# Velocity S-wave (km/s) = 3.02468 3.67892 3.36772
# Velocity P-wave (km/s) = 4.49993 5.63727 5.10040
#
# Compressibility (1/GPa) = 0.05025778
#
# Stress axis : x y z
#
# Youngs Moduli (GPa) = 39.56179 44.04032 66.70544
#
# Poissons Ratio (x) = 0.14335 -0.08987
# Poissons Ratio (y) = 0.12877 0.29689
# Poissons Ratio (z) = -0.05330 0.19601
#
# Static dielectric constant tensor:
#      x y z
#    x 2.101590 -0.050910 -0.017960 
#    y -0.050910 1.992470 -0.071890 
#    z -0.017960 -0.071890 2.006260 
# 
# From -- ./inp_files/451753.got.cif
#   From: 2010.05.17/outbox.cif.g08.bks.cpg/sg2_226_cif.got.tgz:451753.got - 2010.06.03 11:33:40.
