data_PCOD9007374
_publ_section_title
;
Structure prediction by ZEFSAII (Michael W. Deem and Ramdas Pophale) SiO2 
 PCOD9007374
Probable space group: P -1
;
_chemical_formula_sum "Si O2"
_cell_formula_units_Z 16
_cell_length_a 9.414145
_cell_length_b 9.108144
_cell_length_c 19.050855
_cell_angle_alpha 37.670898
_cell_angle_beta 60.332951
_cell_angle_gamma 45.920426
_cell_volume 711.353078
_symmetry_space_group_name_H-M "P -1"
_symmetry_group_IT_number 2
_symmetry_cell_setting 'triclinic'
loop_
_space_group_symop_operation_xyz
x,y,z
-x,-y,-z
loop_
_atom_site_type_symbol
_atom_site_label
_atom_site_fract_x
_atom_site_fract_y
_atom_site_fract_z
Si Si1 0.500243 0.776894 0.728202
Si Si2 0.867199 0.953961 0.698944
Si Si3 0.029299 0.214743 0.662163
Si Si4 0.826524 0.816503 0.552442
Si Si5 0.147322 0.829099 0.133881
Si Si6 0.483436 0.038425 0.777613
Si Si7 0.103897 0.281684 0.871261
Si Si8 0.227618 0.686115 0.555456
O O1 0.644191 0.835707 0.627265
O O2 0.617403 0.429300 0.818027
O O3 0.512058 0.821117 0.791549
O O4 0.269919 0.011890 0.675678
O O5 0.033035 0.611967 0.775747
O O6 0.942829 0.119987 0.659008
O O7 0.695849 0.954189 0.782749
O O8 0.781112 0.136911 0.577879
O O9 0.911832 0.569100 0.564936
O O10 0.968268 0.134603 0.780414
O O11 0.027057 0.695189 0.594711
O O12 0.757089 0.153480 0.440786
O O13 0.052197 0.722921 0.140361
O O14 0.112024 0.120641 0.001123
O O15 0.320305 0.096090 0.851738
O O16 0.393911 0.348358 0.643866
#
# Coordination Sequence:
#
# PCOD9007374 Si02
#       8
#     2   2   2   2   2   2   2   2
#     4  11  20  40  68  90 123 167 208 252 310 371
#     4  12  26  41  62  96 131 163 207 260 312 370
#     4  11  24  43  62  92 135 163 199 262 321 363
#     4  10  21  39  61  90 123 162 208 254 297 366
#     4  10  22  42  68  94 125 161 208 264 308 368
#     4  12  22  40  68  94 121 167 217 253 302 373
#     4  11  23  41  67  98 121 160 218 259 302 372
#     4  11  21  41  67  90 126 166 211 260 302 361
#
# _framework density 22.492346999999999
#
# number of rings (size 3 to 8) (size 9 to 14) (size 15 to 20)
#    0.000    1.000    5.000    3.375    0.000    4.500 
#    0.000    2.500    0.000    0.000    0.000    0.000 
#    0.000    0.000    0.000    0.000    0.000    0.000 
#
# Total GULP energy -89334.504473 kJ/mol
# GULP energy per Si atom -5583.406530 kJ/mol
# Density = 2.244115 g / cm^3
# Si number density = 22.492347 Si / 1000 Ang^3
#
#
#
# Elastic Constant Matrix: (Units=GPa)
#
#
# Indices 1 2 3 4 5 6 
#
# 1 66.4981 28.5566 0.2004 11.1384 -14.4537 -11.2604
# 2 28.5566 99.6209 16.7840 18.8370 -3.3514 -25.3648
# 3 0.2004 16.7840 92.4810 -4.1188 -0.1893 0.7983
# 4 11.1384 18.8370 -4.1188 16.8288 -0.8714 -10.2640
# 5 -14.4537 -3.3514 -0.1893 -0.8714 18.1098 -0.7043
# 6 -11.2604 -25.3648 0.7983 -10.2640 -0.7043 45.4762
#
#
#
# Elastic Compliance Matrix: (Units=1/GPa)
#
#
# Indices 1 2 3 4 5 6 
#
# 1 0.021916 -0.003770 0.000285 -0.008331 0.016462 0.001694
# 2 -0.003770 0.015249 -0.003359 -0.012501 -0.000637 0.004799
# 3 0.000285 -0.003359 0.011697 0.006040 -0.000007 -0.000645
# 4 -0.008331 -0.012501 0.006040 0.086469 -0.004338 0.010307
# 5 0.016462 -0.000637 -0.000007 -0.004338 0.068178 0.003798
# 6 0.001694 0.004799 -0.000645 0.010307 0.003798 0.027482
#
#
# Mechanical properties :
#
#
# Convention : Reuss Voigt Hill
#
# Bulk Modulus (GPa) = 28.43031 38.85355 33.64193
# Shear Modulus (GPa) = 19.50045 30.28691 24.89368
#
# Velocity S-wave (km/s) = 2.94765 3.67351 3.33041
# Velocity P-wave (km/s) = 4.92466 5.94176 5.45696
#
# Compressibility (1/GPa) = 0.03517373
#
# Stress axis : x y z
#
# Youngs Moduli (GPa) = 45.62773 65.57800 85.49531
#
# Poissons Ratio (x) = 0.24724 -0.02435
# Poissons Ratio (y) = 0.17202 0.28716
# Poissons Ratio (z) = -0.01299 0.22026
#
# Static dielectric constant tensor:
#      x y z
#    x 1.823120 -0.011190 0.008710 
#    y -0.011190 1.916100 0.038520 
#    z 0.008710 0.038520 1.859700 
# 
# From -- ./inp_files/587140.got.cif
#   From: 2010.05.17/outbox.cif.g08.bks.cpg/sg2_294_cif.got.tgz:587140.got - 2010.06.03 11:33:40.
