data_PCOD9007371
_publ_section_title
;
Structure prediction by ZEFSAII (Michael W. Deem and Ramdas Pophale) SiO2 
 PCOD9007371
Probable space group: P -1
;
_chemical_formula_sum "Si O2"
_cell_formula_units_Z 16
_cell_length_a 10.898043
_cell_length_b 18.474155
_cell_length_c 10.935778
_cell_angle_alpha 137.170267
_cell_angle_beta 64.372738
_cell_angle_gamma 149.276059
_cell_volume 628.393399
_symmetry_space_group_name_H-M "P -1"
_symmetry_group_IT_number 2
_symmetry_cell_setting 'triclinic'
loop_
_space_group_symop_operation_xyz
x,y,z
-x,-y,-z
loop_
_atom_site_type_symbol
_atom_site_label
_atom_site_fract_x
_atom_site_fract_y
_atom_site_fract_z
Si Si1 0.569079 0.626351 0.956176
Si Si2 0.753814 0.583986 0.646813
Si Si3 0.091869 0.833355 0.380519
Si Si4 0.876675 0.027877 0.202769
Si Si5 0.520956 0.741650 0.324045
Si Si6 0.951847 0.365752 0.268155
Si Si7 0.197892 0.695887 0.254300
Si Si8 0.652580 0.320922 0.191673
O O1 0.584219 0.522713 0.755537
O O2 0.235629 0.429985 0.833048
O O3 0.816429 0.867461 0.079044
O O4 0.603641 0.687758 0.158397
O O5 0.045523 0.734303 0.768916
O O6 0.600603 0.379999 0.386864
O O7 0.848280 0.742222 0.709384
O O8 0.287413 0.862326 0.343882
O O9 0.082259 0.878271 0.574338
O O10 0.196107 0.992590 0.432674
O O11 0.591584 0.850453 0.020527
O O12 0.249679 0.552481 0.295908
O O13 0.408170 0.749707 0.280743
O O14 0.000000 0.500000 0.500000
O O15 0.703553 0.239111 0.128721
O O16 0.972601 0.570475 0.305113
O O17 0.000000 0.500000 0.000000
#
# Coordination Sequence:
#
# PCOD9007371 Si02
#       8
#     2   2   2   2   2   2   2   2
#     4  11  23  39  59  96 125 154 202 248 300 364
#     4  11  23  41  63  82 126 170 199 247 298 347
#     4  11  21  38  59  93 125 160 189 248 317 350
#     4  11  21  38  63  95 121 158 200 247 305 365
#     4  10  22  37  62  88 119 156 204 247 296 364
#     4   9  22  45  63  86 118 161 206 250 293 353
#     4  11  17  36  57  89 124 150 193 251 305 357
#     4  10  21  39  61  90 122 151 206 252 291 359
#
# _framework density 25.461756999999999
#
# number of rings (size 3 to 8) (size 9 to 14) (size 15 to 20)
#    0.000    1.500    3.750    1.500    0.000    5.000 
#    0.000    3.125    0.000    0.000    0.000    0.000 
#    0.000    0.000    0.000    0.000    0.000    0.000 
#
# Total GULP energy -89204.463048 kJ/mol
# GULP energy per Si atom -5575.278941 kJ/mol
# Density = 2.540380 g / cm^3
# Si number density = 25.461757 Si / 1000 Ang^3
#
#
#
# Elastic Constant Matrix: (Units=GPa)
#
#
# Indices 1 2 3 4 5 6 
#
# 1 39.6695 0.9218 13.0549 -0.7543 -1.3344 12.4126
# 2 0.9218 74.7843 19.7527 -16.8382 -8.3667 1.3898
# 3 13.0549 19.7527 67.8117 -3.3886 -15.1134 -0.2926
# 4 -0.7543 -16.8382 -3.3886 34.1985 9.7528 -2.4246
# 5 -1.3344 -8.3667 -15.1134 9.7528 33.0038 -6.1706
# 6 12.4126 1.3898 -0.2926 -2.4246 -6.1706 25.9776
#
#
#
# Elastic Compliance Matrix: (Units=1/GPa)
#
#
# Indices 1 2 3 4 5 6 
#
# 1 0.033040 0.001684 -0.008091 0.001101 -0.005477 -0.017167
# 2 0.001684 0.016309 -0.004802 0.007644 -0.000466 -0.001129
# 3 -0.008091 -0.004802 0.019707 -0.002852 0.009508 0.006337
# 4 0.001101 0.007644 -0.002852 0.035550 -0.009826 0.000017
# 5 -0.005477 -0.000466 0.009508 -0.009826 0.039305 0.011169
# 6 -0.017167 -0.001129 0.006337 0.000017 0.011169 0.049483
#
#
# Mechanical properties :
#
#
# Convention : Reuss Voigt Hill
#
# Bulk Modulus (GPa) = 21.44147 27.74715 24.59431
# Shear Modulus (GPa) = 21.61145 28.53837 25.07491
#
# Velocity S-wave (km/s) = 2.91655 3.35152 3.14157
# Velocity P-wave (km/s) = 4.44758 5.08902 4.77907
#
# Compressibility (1/GPa) = 0.04663860
#
# Stress axis : x y z
#
# Youngs Moduli (GPa) = 30.26637 61.31467 50.74364
#
# Poissons Ratio (x) = -0.10325 0.41057
# Poissons Ratio (y) = -0.05097 0.24365
# Poissons Ratio (z) = 0.24489 0.29441
#
# Static dielectric constant tensor:
#      x y z
#    x 2.135900 -0.032380 -0.013640 
#    y -0.032380 2.162700 0.107320 
#    z -0.013640 0.107320 2.078170 
# 
# From -- ./inp_files/438681.got.cif
#   From: 2010.05.17/outbox.cif.g08.bks.cpg/sg2_220_cif.got.tgz:438681.got - 2010.06.03 11:33:40.
