data_PCOD9007853
_publ_section_title
;
Structure prediction by ZEFSAII (Michael W. Deem and Ramdas Pophale) SiO2 
 PCOD9007853
Probable space group: P -1
;
_chemical_formula_sum "Si O2"
_cell_formula_units_Z 14
_cell_length_a 9.989763
_cell_length_b 9.024406
_cell_length_c 14.183918
_cell_angle_alpha 57.086994
_cell_angle_beta 78.103779
_cell_angle_gamma 42.424776
_cell_volume 679.925917
_symmetry_space_group_name_H-M "P -1"
_symmetry_group_IT_number 2
_symmetry_cell_setting 'triclinic'
loop_
_space_group_symop_operation_xyz
x,y,z
-x,-y,-z
loop_
_atom_site_type_symbol
_atom_site_label
_atom_site_fract_x
_atom_site_fract_y
_atom_site_fract_z
Si Si1 0.733264 0.857584 0.517031
Si Si2 0.012222 0.906209 0.778221
Si Si3 0.367451 0.062836 0.871165
Si Si4 0.099209 0.206021 0.692886
Si Si5 0.276389 0.793437 0.468635
Si Si6 0.275963 0.045977 0.098057
Si Si7 0.688665 0.485454 0.272173
O O1 0.805644 0.865700 0.401894
O O2 0.914596 0.532702 0.621956
O O3 0.500000 0.000000 0.500000
O O4 0.718957 0.026271 0.538583
O O5 0.874096 0.042786 0.655521
O O6 0.999572 0.110683 0.754484
O O7 0.946386 0.803536 0.885661
O O8 0.244880 0.656853 0.788067
O O9 0.287619 0.048878 0.794237
O O10 0.251217 0.368126 0.785132
O O11 0.613361 0.883616 0.903386
O O12 0.304149 0.028022 0.988332
O O13 0.500000 0.500000 0.500000
O O14 0.217783 0.706086 0.586135
O O15 0.435105 0.740505 0.222282
#
# Coordination Sequence:
#
# PCOD9007853 Si02
#       7
#     2   2   2   2   2   2   2
#     4  11  26  40  62  96 133 168 202 255 321 380
#     4  12  23  37  66  93 123 168 203 258 316 377
#     4   9  21  45  62  87 125 166 210 269 297 366
#     4  11  25  41  61  96 134 159 208 263 313 370
#     4  12  22  39  64  93 125 165 204 251 315 379
#     4   9  22  42  66  84 123 168 219 252 307 370
#     4  10  21  39  63  88 124 159 213 254 303 379
#
# _framework density 20.590479999999999
#
# number of rings (size 3 to 8) (size 9 to 14) (size 15 to 20)
#    0.857    0.571    2.857    2.143    8.000    1.143 
#    0.000    0.714    0.000    0.000    0.000    0.000 
#    0.000    0.000    0.000    0.000    0.000    0.000 
#
# Total GULP energy -78036.643115 kJ/mol
# GULP energy per Si atom -5574.045937 kJ/mol
# Density = 2.054361 g / cm^3
# Si number density = 20.590480 Si / 1000 Ang^3
#
#
#
# Elastic Constant Matrix: (Units=GPa)
#
#
# Indices 1 2 3 4 5 6 
#
# 1 82.3013 35.8005 37.6793 9.3767 0.4380 17.4248
# 2 35.8005 92.8124 14.2802 1.9876 -3.3088 5.0031
# 3 37.6793 14.2802 74.3299 16.0053 -17.6952 4.6085
# 4 9.3767 1.9876 16.0053 21.5757 -5.3623 -2.7384
# 5 0.4380 -3.3088 -17.6952 -5.3623 29.6987 7.5371
# 6 17.4248 5.0031 4.6085 -2.7384 7.5371 42.7633
#
#
#
# Elastic Compliance Matrix: (Units=1/GPa)
#
#
# Indices 1 2 3 4 5 6 
#
# 1 0.021134 -0.006466 -0.009746 -0.003603 -0.005971 -0.005983
# 2 -0.006466 0.013137 0.000893 0.001573 0.002193 0.000716
# 3 -0.009746 0.000893 0.023615 -0.010375 0.012848 -0.001607
# 4 -0.003603 0.001573 -0.010375 0.056893 0.002915 0.005532
# 5 -0.005971 0.002193 0.012848 0.002915 0.043901 -0.006759
# 6 -0.005983 0.000716 -0.001607 0.005532 -0.006759 0.027457
#
#
# Mechanical properties :
#
#
# Convention : Reuss Voigt Hill
#
# Bulk Modulus (GPa) = 36.69964 47.21816 41.95890
# Shear Modulus (GPa) = 22.13802 29.58646 25.86224
#
# Velocity S-wave (km/s) = 3.28252 3.79476 3.54789
# Velocity P-wave (km/s) = 5.67705 6.49477 6.09963
#
# Compressibility (1/GPa) = 0.02724823
#
# Stress axis : x y z
#
# Youngs Moduli (GPa) = 47.31782 76.12105 42.34656
#
# Poissons Ratio (x) = 0.49217 0.41269
# Poissons Ratio (y) = 0.30594 -0.03780
# Poissons Ratio (z) = 0.46114 -0.06795
#
# Static dielectric constant tensor:
#      x y z
#    x 1.751890 -0.026460 -0.010760 
#    y -0.026460 1.778490 -0.027580 
#    z -0.010760 -0.027580 1.731300 
# 
# From -- ./inp_files/515048.got.cif
#   From: 2010.05.17/outbox.cif.g08.bks.cpg/sg2_258_cif.got.tgz:515048.got - 2010.06.03 11:33:40.
