data_PCOD9007717
_publ_section_title
;
Structure prediction by ZEFSAII (Michael W. Deem and Ramdas Pophale) SiO2 
 PCOD9007717
Probable space group: P -1
;
_chemical_formula_sum "Si O2"
_cell_formula_units_Z 14
_cell_length_a 8.132621
_cell_length_b 9.135218
_cell_length_c 12.300316
_cell_angle_alpha 95.110799
_cell_angle_beta 65.959084
_cell_angle_gamma 48.784338
_cell_volume 536.078268
_symmetry_space_group_name_H-M "P -1"
_symmetry_group_IT_number 2
_symmetry_cell_setting 'triclinic'
loop_
_space_group_symop_operation_xyz
x,y,z
-x,-y,-z
loop_
_atom_site_type_symbol
_atom_site_label
_atom_site_fract_x
_atom_site_fract_y
_atom_site_fract_z
Si Si1 0.265306 0.897188 0.079236
Si Si2 0.947300 0.232668 0.985719
Si Si3 0.862277 0.858526 0.422908
Si Si4 0.926335 0.478722 0.853568
Si Si5 0.391040 0.264478 0.432885
Si Si6 0.542982 0.513593 0.703432
Si Si7 0.911086 0.344225 0.304079
O O1 0.106687 0.840758 0.108101
O O2 0.594550 0.678259 0.972650
O O3 0.158047 0.038806 0.005188
O O4 0.149963 0.071706 0.218248
O O5 0.644869 0.414130 0.138349
O O6 0.047950 0.323030 0.916229
O O7 0.699566 0.849537 0.548217
O O8 0.974587 0.679238 0.286318
O O9 0.146437 0.742312 0.388778
O O10 0.646519 0.102156 0.439618
O O11 0.016393 0.585488 0.806651
O O12 0.450480 0.313547 0.308533
O O13 0.151088 0.517248 0.566553
O O14 0.369685 0.560899 0.651993
#
# Coordination Sequence:
#
# PCOD9007717 Si02
#       7
#     2   2   2   2   2   2   2
#     4  10  21  39  62  93 123 160 202 252 305 360
#     4  10  23  37  65  97 119 161 208 249 303 360
#     4  10  23  39  67  88 118 164 209 249 299 358
#     4  11  22  41  63  93 126 160 203 252 304 366
#     4  10  23  44  60  90 122 162 206 251 299 364
#     4  11  22  40  64  90 123 160 204 254 298 366
#     4  10  24  41  62  92 129 161 198 253 313 355
#
# _framework density 26.115589
#
# number of rings (size 3 to 8) (size 9 to 14) (size 15 to 20)
#    0.000    1.714    1.429    1.714    6.000    2.857 
#    0.000    4.286    0.000    0.000    0.000    0.000 
#    0.000    0.000    0.000    0.000    0.000    0.000 
#
# Total GULP energy -78372.420645 kJ/mol
# GULP energy per Si atom -5598.030046 kJ/mol
# Density = 2.605615 g / cm^3
# Si number density = 26.115589 Si / 1000 Ang^3
#
#
#
# Elastic Constant Matrix: (Units=GPa)
#
#
# Indices 1 2 3 4 5 6 
#
# 1 21.6457 17.4545 6.4644 -1.6706 -5.4213 2.9293
# 2 17.4545 95.2390 19.1402 -3.5321 -14.3906 -3.9108
# 3 6.4644 19.1402 90.8489 0.7182 -3.7096 12.9715
# 4 -1.6706 -3.5321 0.7182 50.4922 7.9677 -9.3286
# 5 -5.4213 -14.3906 -3.7096 7.9677 24.3891 14.6661
# 6 2.9293 -3.9108 12.9715 -9.3286 14.6661 46.8897
#
#
#
# Elastic Compliance Matrix: (Units=1/GPa)
#
#
# Indices 1 2 3 4 5 6 
#
# 1 0.058029 -0.008933 -0.000354 -0.002584 0.013914 -0.009139
# 2 -0.008933 0.013365 -0.002049 -0.000052 0.005253 0.000586
# 3 -0.000354 -0.002049 0.012438 -0.002047 0.004528 -0.005413
# 4 -0.002584 -0.000052 -0.002047 0.023957 -0.014834 0.010129
# 5 0.013914 0.005253 0.004528 -0.014834 0.068378 -0.026022
# 6 -0.009139 0.000586 -0.005413 0.010129 -0.026022 0.033598
#
#
# Mechanical properties :
#
#
# Convention : Reuss Voigt Hill
#
# Bulk Modulus (GPa) = 16.35015 32.65020 24.50017
# Shear Modulus (GPa) = 19.77669 35.33248 27.55459
#
# Velocity S-wave (km/s) = 2.75485 3.68221 3.25176
# Velocity P-wave (km/s) = 4.04885 5.53241 4.84772
#
# Compressibility (1/GPa) = 0.06116152
#
# Stress axis : x y z
#
# Youngs Moduli (GPa) = 17.23266 74.82449 80.39834
#
# Poissons Ratio (x) = 0.66838 0.02845
# Poissons Ratio (y) = 0.15393 0.16472
# Poissons Ratio (z) = 0.00610 0.15330
#
# Static dielectric constant tensor:
#      x y z
#    x 2.088760 0.007070 0.038750 
#    y 0.007070 2.014800 -0.000940 
#    z 0.038750 -0.000940 2.092890 
# 
# From -- ./inp_files/257709.got.cif
#   From: 2010.05.17/outbox.cif.g08.bks.cpg/sg2_129_cif.got.tgz:257709.got - 2010.06.03 11:33:40.
