data_PCOD9007702
_publ_section_title
;
Structure prediction by ZEFSAII (Michael W. Deem and Ramdas Pophale) SiO2 
 PCOD9007702
Probable space group: P -1
;
_chemical_formula_sum "Si O2"
_cell_formula_units_Z 16
_cell_length_a 9.329067
_cell_length_b 20.161066
_cell_length_c 7.208640
_cell_angle_alpha 85.744846
_cell_angle_beta 45.236327
_cell_angle_gamma 59.129978
_cell_volume 728.842402
_symmetry_space_group_name_H-M "P -1"
_symmetry_group_IT_number 2
_symmetry_cell_setting 'triclinic'
loop_
_space_group_symop_operation_xyz
x,y,z
-x,-y,-z
loop_
_atom_site_type_symbol
_atom_site_label
_atom_site_fract_x
_atom_site_fract_y
_atom_site_fract_z
Si Si1 0.693859 0.586188 0.227016
Si Si2 0.545634 0.920888 0.084686
Si Si3 0.151999 0.356375 0.604693
Si Si4 0.665210 0.535117 0.864740
Si Si5 0.053489 0.029181 0.755975
Si Si6 0.160278 0.148729 0.790722
Si Si7 0.297474 0.649977 0.853983
Si Si8 0.448849 0.173150 0.221649
O O1 0.694603 0.650897 0.347927
O O2 0.460343 0.594528 0.535466
O O3 0.634023 0.587652 0.065877
O O4 0.000000 0.500000 0.000000
O O5 0.747510 0.884151 0.078180
O O6 0.662454 0.842922 0.849058
O O7 0.271030 0.956189 0.427474
O O8 0.500000 0.000000 0.000000
O O9 0.337595 0.270569 0.327408
O O10 0.971221 0.445004 0.626362
O O11 0.919647 0.358504 0.896942
O O12 0.527655 0.604582 0.808536
O O13 0.500000 0.500000 0.000000
O O14 0.158933 0.078926 0.705169
O O15 0.762434 0.101599 0.923552
O O16 0.000000 0.000000 0.000000
O O17 0.361450 0.152906 0.492373
O O18 0.875823 0.246079 0.026433
#
# Coordination Sequence:
#
# PCOD9007702 Si02
#       8
#     2   2   2   2   2   2   2   2
#     4  10  21  39  62  92 127 171 223 264 324 390
#     4  12  24  44  71  98 131 179 224 276 347 410
#     4   9  21  40  63  95 133 173 217 278 327 392
#     4   9  20  39  65  94 128 175 219 262 324 390
#     4  12  23  43  72  95 137 175 220 279 345 408
#     4  11  24  43  64  99 133 177 217 291 331 406
#     4  10  22  41  65  90 134 175 216 271 336 381
#     4  11  23  43  65  97 139 169 231 276 338 403
#
# _framework density 21.952618000000001
#
# number of rings (size 3 to 8) (size 9 to 14) (size 15 to 20)
#    0.000    1.500    2.500    2.250    0.000    9.500 
#    0.000    8.750    0.000    0.000    0.000    0.000 
#    0.000    0.000    0.000    0.000    0.000    0.000 
#
# Total GULP energy -89232.138549 kJ/mol
# GULP energy per Si atom -5577.008659 kJ/mol
# Density = 2.190265 g / cm^3
# Si number density = 21.952618 Si / 1000 Ang^3
#
#
#
# Elastic Constant Matrix: (Units=GPa)
#
#
# Indices 1 2 3 4 5 6 
#
# 1 97.6213 25.1588 7.0634 -0.1811 18.6619 -12.8584
# 2 25.1588 104.4327 32.5925 -1.7611 12.9796 -5.7715
# 3 7.0634 32.5925 99.5120 4.7606 8.7584 -8.1619
# 4 -0.1811 -1.7611 4.7606 26.1516 -7.9594 6.2093
# 5 18.6619 12.9796 8.7584 -7.9594 47.8818 4.1956
# 6 -12.8584 -5.7715 -8.1619 6.2093 4.1956 36.0555
#
#
#
# Elastic Compliance Matrix: (Units=1/GPa)
#
#
# Indices 1 2 3 4 5 6 
#
# 1 0.012549 -0.002404 0.000980 -0.003213 -0.005435 0.005498
# 2 -0.002404 0.011440 -0.003482 0.000919 -0.001391 0.000189
# 3 0.000980 -0.003482 0.011819 -0.003979 -0.002563 0.003451
# 4 -0.003213 0.000919 -0.003979 0.044629 0.010092 -0.010760
# 5 -0.005435 -0.001391 -0.002563 0.010092 0.026186 -0.007526
# 6 0.005498 0.000189 0.003451 -0.010760 -0.007526 0.033236
#
#
# Mechanical properties :
#
#
# Convention : Reuss Voigt Hill
#
# Bulk Modulus (GPa) = 38.46835 47.91062 43.18948
# Shear Modulus (GPa) = 31.57794 37.80119 34.68956
#
# Velocity S-wave (km/s) = 3.79682 4.15413 3.97949
# Velocity P-wave (km/s) = 6.06486 6.69933 6.38997
#
# Compressibility (1/GPa) = 0.02599540
#
# Stress axis : x y z
#
# Youngs Moduli (GPa) = 79.68479 87.41010 84.60889
#
# Poissons Ratio (x) = 0.21012 -0.08288
# Poissons Ratio (y) = 0.19155 0.29464
# Poissons Ratio (z) = -0.07805 0.30440
#
# Static dielectric constant tensor:
#      x y z
#    x 1.866760 0.059550 -0.065320 
#    y 0.059550 1.882890 -0.054420 
#    z -0.065320 -0.054420 1.834660 
# 
# From -- ./inp_files/55481.got.cif
#   From: 2010.05.17/outbox.cif.g08.bks.cpg/sg2_28_cif.got.tgz:55481.got - 2010.06.03 11:33:40.
