data_PCOD9007288
_publ_section_title
;
Structure prediction by ZEFSAII (Michael W. Deem and Ramdas Pophale) SiO2 
 PCOD9007288
Probable space group: P -1
;
_chemical_formula_sum "Si O2"
_cell_formula_units_Z 16
_cell_length_a 8.833751
_cell_length_b 16.594109
_cell_length_c 8.941712
_cell_angle_alpha 117.845210
_cell_angle_beta 129.489112
_cell_angle_gamma 88.001328
_cell_volume 825.799002
_symmetry_space_group_name_H-M "P -1"
_symmetry_group_IT_number 2
_symmetry_cell_setting 'triclinic'
loop_
_space_group_symop_operation_xyz
x,y,z
-x,-y,-z
loop_
_atom_site_type_symbol
_atom_site_label
_atom_site_fract_x
_atom_site_fract_y
_atom_site_fract_z
Si Si1 0.524986 0.576111 0.450184
Si Si2 0.345822 0.822030 0.511367
Si Si3 0.418355 0.235317 0.154142
Si Si4 0.035536 0.933709 0.334475
Si Si5 0.043981 0.416180 0.364226
Si Si6 0.395874 0.729833 0.017502
Si Si7 0.229081 0.618463 0.097324
Si Si8 0.619231 0.925393 0.512509
O O1 0.500000 0.500000 0.500000
O O2 0.580174 0.681472 0.656295
O O3 0.315225 0.555655 0.202862
O O4 0.721019 0.579376 0.473834
O O5 0.418603 0.809706 0.712759
O O6 0.197536 0.883492 0.449354
O O7 0.230661 0.713954 0.270903
O O8 0.559983 0.873123 0.590501
O O9 0.499062 0.280210 0.080138
O O10 0.185609 0.151916 0.920994
O O11 0.143858 0.007867 0.329869
O O12 0.000000 0.000000 0.500000
O O13 0.000000 0.500000 0.500000
O O14 0.860270 0.310292 0.199588
O O15 0.991314 0.431285 0.170950
O O16 0.395107 0.660453 0.098278
O O17 0.510925 0.840351 0.246985
O O18 0.500000 0.000000 0.500000
#
# Coordination Sequence:
#
# PCOD9007288 Si02
#       8
#     2   2   2   2   2   2   2   2
#     4  11  23  40  64  92 116 154 201 248 298 359
#     4   9  20  39  58  84 122 159 192 245 300 348
#     4  11  22  39  59  89 119 152 203 248 292 357
#     4  11  21  36  60  90 119 154 201 244 294 343
#     4  10  21  39  61  86 115 155 198 235 302 356
#     4   9  19  40  57  82 124 154 189 247 290 349
#     4   8  20  40  63  83 122 156 197 239 297 355
#     4   9  18  36  60  80 115 160 189 237 296 342
#
# _framework density 19.375176
#
# number of rings (size 3 to 8) (size 9 to 14) (size 15 to 20)
#    0.750    1.500    1.250    1.500    1.750    2.000 
#    2.250    0.000    0.000    0.000    0.000    0.000 
#    0.000    0.000    0.000    0.000    0.000    0.000 
#
# Total GULP energy -89105.992654 kJ/mol
# GULP energy per Si atom -5569.124541 kJ/mol
# Density = 1.933108 g / cm^3
# Si number density = 19.375176 Si / 1000 Ang^3
#
#
#
# Elastic Constant Matrix: (Units=GPa)
#
#
# Indices 1 2 3 4 5 6 
#
# 1 64.7451 3.3970 4.9651 -2.9394 -4.5300 -6.1017
# 2 3.3970 61.3441 16.5082 -12.2626 -2.2838 -9.3679
# 3 4.9651 16.5082 49.7687 -5.0017 2.8331 -6.4416
# 4 -2.9394 -12.2626 -5.0017 18.1955 2.5418 1.3803
# 5 -4.5300 -2.2838 2.8331 2.5418 26.1234 1.3402
# 6 -6.1017 -9.3679 -6.4416 1.3803 1.3402 26.8030
#
#
#
# Elastic Compliance Matrix: (Units=1/GPa)
#
#
# Indices 1 2 3 4 5 6 
#
# 1 0.016100 0.000437 -0.001282 0.001929 0.002613 0.003280
# 2 0.000437 0.020982 -0.005114 0.012248 0.000990 0.005524
# 3 -0.001282 -0.005114 0.022857 0.002872 -0.003604 0.003447
# 4 0.001929 0.012248 0.002872 0.064883 -0.005339 0.002336
# 5 0.002613 0.000990 -0.003604 -0.005339 0.039814 -0.001641
# 6 0.003280 0.005524 0.003447 0.002336 -0.001641 0.040777
#
#
# Mechanical properties :
#
#
# Convention : Reuss Voigt Hill
#
# Bulk Modulus (GPa) = 20.82346 25.06651 22.94498
# Shear Modulus (GPa) = 21.42824 24.29023 22.85923
#
# Velocity S-wave (km/s) = 3.32921 3.54457 3.43858
# Velocity P-wave (km/s) = 5.05460 5.45138 5.25674
#
# Compressibility (1/GPa) = 0.04802276
#
# Stress axis : x y z
#
# Youngs Moduli (GPa) = 62.11163 47.65935 43.75044
#
# Poissons Ratio (x) = -0.02083 0.05607
# Poissons Ratio (y) = -0.02715 0.22373
# Poissons Ratio (z) = 0.07960 0.24372
#
# Static dielectric constant tensor:
#      x y z
#    x 1.714940 0.025130 0.009450 
#    y 0.025130 1.700370 -0.012080 
#    z 0.009450 -0.012080 1.679720 
# 
# From -- ./inp_files/213403.got.cif
#   From: 2010.05.17/outbox.cif.g08.bks.cpg/sg2_107_cif.got.tgz:213403.got - 2010.06.03 11:33:40.
