data_PCOD9007355
_publ_section_title
;
Structure prediction by ZEFSAII (Michael W. Deem and Ramdas Pophale) SiO2 
 PCOD9007355
Probable space group: P -1
;
_chemical_formula_sum "Si O2"
_cell_formula_units_Z 13
_cell_length_a 14.444261
_cell_length_b 9.059380
_cell_length_c 13.738478
_cell_angle_alpha 83.969575
_cell_angle_beta 159.971097
_cell_angle_gamma 88.226202
_cell_volume 566.214841
_symmetry_space_group_name_H-M "P -1"
_symmetry_group_IT_number 2
_symmetry_cell_setting 'triclinic'
loop_
_space_group_symop_operation_xyz
x,y,z
-x,-y,-z
loop_
_atom_site_type_symbol
_atom_site_label
_atom_site_fract_x
_atom_site_fract_y
_atom_site_fract_z
Si Si1 0.731360 0.248508 0.392174
Si Si2 0.796598 0.625763 0.868964
Si Si3 0.580920 0.843098 0.369153
Si Si4 0.335958 0.522696 0.534187
Si Si5 0.345923 0.080811 0.940772
Si Si6 0.500000 0.000000 0.500000
Si Si7 0.978051 0.993242 0.825953
O O1 0.636087 0.424089 0.331468
O O2 0.998927 0.175606 0.586735
O O3 0.855929 0.136899 0.618300
O O4 0.467619 0.210884 0.091250
O O5 0.536934 0.574436 0.654679
O O6 0.707314 0.802119 0.726160
O O7 0.000000 0.500000 0.000000
O O8 0.000881 0.610532 0.165115
O O9 0.594617 0.665362 0.392680
O O10 0.890999 0.854874 0.696677
O O11 0.326969 0.944864 0.190947
O O12 0.444999 0.940334 0.130148
O O13 0.500000 0.000000 0.000000
O O14 0.764603 0.035563 0.701364
#
# Coordination Sequence:
#
# PCOD9007355 Si02
#       7
#     2   2   2   2   2   1   2
#     4  10  21  39  61  89 124 160 204 254 314 381
#     4  12  27  41  61  93 130 169 222 272 311 364
#     4  10  22  40  63  85 126 162 204 254 321 373
#     4  12  23  43  60  90 125 170 208 259 322 372
#     4  10  21  40  66  94 121 157 207 257 312 389
#     4  12  24  40  64  88 126 166 222 260 316 356
#     4  10  22  38  58  87 117 167 208 254 308 374
#
# _framework density 22.959485000000001
#
# number of rings (size 3 to 8) (size 9 to 14) (size 15 to 20)
#    0.000    1.231    1.538    4.615    4.308    2.462 
#    0.000    1.538    0.000    0.000    0.000    0.000 
#    0.000    0.000    0.000    0.000    0.000    0.000 
#
# Total GULP energy -72566.018637 kJ/mol
# GULP energy per Si atom -5582.001434 kJ/mol
# Density = 2.290723 g / cm^3
# Si number density = 22.959485 Si / 1000 Ang^3
#
#
#
# Elastic Constant Matrix: (Units=GPa)
#
#
# Indices 1 2 3 4 5 6 
#
# 1 84.9939 -0.1273 -11.9879 -14.9926 20.9243 -9.4070
# 2 -0.1273 132.7704 10.1803 -11.2773 9.5109 -12.9850
# 3 -11.9879 10.1803 75.5087 7.2608 12.5549 16.1379
# 4 -14.9926 -11.2773 7.2608 35.9992 -3.2660 13.3522
# 5 20.9243 9.5109 12.5549 -3.2660 30.1502 3.8949
# 6 -9.4070 -12.9850 16.1379 13.3522 3.8949 23.5464
#
#
#
# Elastic Compliance Matrix: (Units=1/GPa)
#
#
# Indices 1 2 3 4 5 6 
#
# 1 0.016915 0.001632 0.003215 0.003497 -0.013961 0.005781
# 2 0.001632 0.008695 -0.001808 0.000878 -0.003910 0.006835
# 3 0.003215 -0.001808 0.017494 0.000564 -0.007491 -0.010783
# 4 0.003497 0.000878 0.000564 0.037238 0.003709 -0.020235
# 5 -0.013961 -0.003910 -0.007491 0.003709 0.049271 -0.012853
# 6 0.005781 0.006835 -0.010783 -0.020235 -0.012853 0.069539
#
#
# Mechanical properties :
#
#
# Convention : Reuss Voigt Hill
#
# Bulk Modulus (GPa) = 20.33291 32.15591 26.24441
# Shear Modulus (GPa) = 23.87004 37.61969 30.74486
#
# Velocity S-wave (km/s) = 3.22787 4.05226 3.66333
# Velocity P-wave (km/s) = 4.77152 5.99419 5.41746
#
# Compressibility (1/GPa) = 0.04918135
#
# Stress axis : x y z
#
# Youngs Moduli (GPa) = 59.11920 115.00545 57.16369
#
# Poissons Ratio (x) = -0.18770 -0.18378
# Poissons Ratio (y) = -0.09649 0.10337
# Poissons Ratio (z) = -0.19006 0.20797
#
# Static dielectric constant tensor:
#      x y z
#    x 1.812540 0.017170 0.009060 
#    y 0.017170 1.857670 -0.007940 
#    z 0.009060 -0.007940 1.830020 
# 
# From -- ./inp_files/31558.got.cif
#   From: 2010.05.17/outbox.cif.g08.bks.cpg/sg2_16_cif.got.tgz:31558.got - 2010.06.03 11:33:40.
