data_PCOD9007411
_publ_section_title
;
Structure prediction by ZEFSAII (Michael W. Deem and Ramdas Pophale) SiO2 
 PCOD9007411
Probable space group: P -1
;
_chemical_formula_sum "Si O2"
_cell_formula_units_Z 12
_cell_length_a 21.074839
_cell_length_b 9.496883
_cell_length_c 13.874136
_cell_angle_alpha 137.074171
_cell_angle_beta 19.804204
_cell_angle_gamma 144.084696
_cell_volume 545.652862
_symmetry_space_group_name_H-M "P -1"
_symmetry_group_IT_number 2
_symmetry_cell_setting 'triclinic'
loop_
_space_group_symop_operation_xyz
x,y,z
-x,-y,-z
loop_
_atom_site_type_symbol
_atom_site_label
_atom_site_fract_x
_atom_site_fract_y
_atom_site_fract_z
Si Si1 0.206820 0.693548 0.523226
Si Si2 0.702019 0.262015 0.814403
Si Si3 0.905414 0.790911 0.786187
Si Si4 0.251568 0.145468 0.623252
Si Si5 0.728146 0.368544 0.102633
Si Si6 0.416960 0.050617 0.745070
O O1 0.284173 0.712470 0.310876
O O2 0.189477 0.933734 0.683849
O O3 0.384777 0.732135 0.367549
O O4 0.967769 0.460143 0.764110
O O5 0.733673 0.517080 0.932640
O O6 0.913374 0.252985 0.543250
O O7 0.500000 0.000000 0.000000
O O8 0.065614 0.999324 0.736385
O O9 0.766875 0.882141 0.975712
O O10 0.509070 0.234483 0.282633
O O11 0.258688 0.386903 0.760575
O O12 0.679224 0.187807 0.170593
O O13 0.500000 0.000000 0.500000
#
# Coordination Sequence:
#
# PCOD9007411 Si02
#       6
#     2   2   2   2   2   2
#     4  10  22  40  62  91 126 168 217 263 316 378
#     4  10  24  45  68  91 122 171 223 270 316 370
#     4  10  23  41  64  96 128 163 218 267 314 379
#     4   9  20  37  63  92 126 168 214 263 312 379
#     4  10  21  39  61  91 131 173 210 256 322 380
#     4  11  25  40  62  99 136 168 205 260 326 390
#
# _framework density 21.992004000000001
#
# number of rings (size 3 to 8) (size 9 to 14) (size 15 to 20)
#    0.000    2.000    0.000    1.500    0.000   26.000 
#    0.000    1.667    0.000    0.000    0.000    0.000 
#    0.000    0.000    0.000    0.000    0.000    0.000 
#
# Total GULP energy -66877.102014 kJ/mol
# GULP energy per Si atom -5573.091834 kJ/mol
# Density = 2.194195 g / cm^3
# Si number density = 21.992004 Si / 1000 Ang^3
#
#
#
# Elastic Constant Matrix: (Units=GPa)
#
#
# Indices 1 2 3 4 5 6 
#
# 1 145.8201 50.9387 90.8337 -15.7507 -24.7138 11.2713
# 2 50.9387 116.6145 47.7086 -26.2728 -7.0392 13.7728
# 3 90.8337 47.7086 126.3187 -39.6387 -28.0733 -12.3789
# 4 -15.7507 -26.2728 -39.6387 53.6661 -13.4278 -5.6131
# 5 -24.7138 -7.0392 -28.0733 -13.4278 50.0459 -5.5349
# 6 11.2713 13.7728 -12.3789 -5.6131 -5.5349 41.7958
#
#
#
# Elastic Compliance Matrix: (Units=1/GPa)
#
#
# Indices 1 2 3 4 5 6 
#
# 1 0.017350 -0.001848 -0.018183 -0.012108 -0.006461 -0.011937
# 2 -0.001848 0.011480 -0.002710 0.002536 -0.000560 -0.003821
# 3 -0.018183 -0.002710 0.039527 0.031113 0.023908 0.024848
# 4 -0.012108 0.002536 0.031113 0.048387 0.027218 0.021747
# 5 -0.006461 -0.000560 0.023908 0.027218 0.039404 0.017881
# 6 -0.011937 -0.003821 0.024848 0.021747 0.017881 0.041052
#
#
# Mechanical properties :
#
#
# Convention : Reuss Voigt Hill
#
# Bulk Modulus (GPa) = 43.71728 85.30171 64.50949
# Shear Modulus (GPa) = 19.97554 42.38639 31.18097
#
# Velocity S-wave (km/s) = 3.01709 4.39493 3.76950
# Velocity P-wave (km/s) = 5.66206 8.03901 6.95286
#
# Compressibility (1/GPa) = 0.02287425
#
# Stress axis : x y z
#
# Youngs Moduli (GPa) = 57.63812 87.10797 25.29925
#
# Poissons Ratio (x) = 0.16094 0.46002
# Poissons Ratio (y) = 0.10649 0.06857
# Poissons Ratio (z) = 1.04805 0.23609
#
# Static dielectric constant tensor:
#      x y z
#    x 1.867490 0.043190 0.047990 
#    y 0.043190 1.835020 -0.015450 
#    z 0.047990 -0.015450 1.920290 
# 
# From -- ./inp_files/540304.got.cif
#   From: 2010.05.17/outbox.cif.g08.bks.cpg/sg2_271_cif.got.tgz:540304.got - 2010.06.03 11:33:40.
