data_PCOD9007384
_publ_section_title
;
Structure prediction by ZEFSAII (Michael W. Deem and Ramdas Pophale) SiO2 
 PCOD9007384
Probable space group: P -1
;
_chemical_formula_sum "Si O2"
_cell_formula_units_Z 14
_cell_length_a 13.779591
_cell_length_b 14.416415
_cell_length_c 9.426560
_cell_angle_alpha 56.069652
_cell_angle_beta 40.825884
_cell_angle_gamma 28.801970
_cell_volume 556.144538
_symmetry_space_group_name_H-M "P -1"
_symmetry_group_IT_number 2
_symmetry_cell_setting 'triclinic'
loop_
_space_group_symop_operation_xyz
x,y,z
-x,-y,-z
loop_
_atom_site_type_symbol
_atom_site_label
_atom_site_fract_x
_atom_site_fract_y
_atom_site_fract_z
Si Si1 0.770044 0.885543 0.859524
Si Si2 0.734761 0.544140 0.368370
Si Si3 0.200145 0.083584 0.765465
Si Si4 0.566586 0.466780 0.125762
Si Si5 0.207362 0.986627 0.532035
Si Si6 0.797731 0.101070 0.771957
Si Si7 0.222548 0.331535 0.516115
O O1 0.007211 0.652860 0.841820
O O2 0.894166 0.863815 0.599945
O O3 0.735529 0.009599 0.899564
O O4 0.500000 0.000000 0.000000
O O5 0.575877 0.541599 0.620459
O O6 0.500081 0.755426 0.361272
O O7 0.828345 0.561399 0.381414
O O8 0.219148 0.203398 0.671246
O O9 0.242042 0.033591 0.594953
O O10 0.464872 0.848952 0.728648
O O11 0.884789 0.255466 0.985100
O O12 0.455155 0.655843 0.146266
O O13 0.500000 0.500000 0.000000
O O14 0.990603 0.023981 0.751293
O O15 0.000000 0.000000 0.500000
O O16 0.000000 0.500000 0.500000
#
# Coordination Sequence:
#
# PCOD9007384 Si02
#       7
#     2   2   2   2   2   2   2
#     4  11  24  44  65  92 128 172 223 270 328 393
#     4  11  24  41  67  93 130 175 216 275 332 383
#     4  10  22  39  62  95 134 166 215 272 326 386
#     4  12  21  41  69  99 134 172 222 276 327 388
#     4  10  21  44  65  93 130 165 221 276 324 389
#     4  10  21  43  67  90 134 175 215 273 328 388
#     4  10  21  39  61  90 130 173 209 260 331 387
#
# _framework density 25.173311999999999
#
# number of rings (size 3 to 8) (size 9 to 14) (size 15 to 20)
#    0.000    1.429    4.286    1.714    2.000    3.429 
#    5.143    2.857    0.000    0.000    0.000    0.000 
#    0.000    0.000    0.000    0.000    0.000    0.000 
#
# Total GULP energy -78272.443334 kJ/mol
# GULP energy per Si atom -5590.888810 kJ/mol
# Density = 2.511602 g / cm^3
# Si number density = 25.173312 Si / 1000 Ang^3
#
#
#
# Elastic Constant Matrix: (Units=GPa)
#
#
# Indices 1 2 3 4 5 6 
#
# 1 101.7013 15.7889 21.2855 11.0233 -19.1976 32.8685
# 2 15.7889 110.2624 22.8754 33.0404 -3.4221 10.2824
# 3 21.2855 22.8754 70.7334 22.8162 -12.7921 3.1874
# 4 11.0233 33.0404 22.8162 38.8695 -0.5708 -8.1323
# 5 -19.1976 -3.4221 -12.7921 -0.5708 48.6676 5.8429
# 6 32.8685 10.2824 3.1874 -8.1323 5.8429 54.5997
#
#
#
# Elastic Compliance Matrix: (Units=1/GPa)
#
#
# Indices 1 2 3 4 5 6 
#
# 1 0.015764 0.001506 -0.000946 -0.007520 0.007383 -0.011628
# 2 0.001506 0.013284 0.000019 -0.012860 0.002048 -0.005544
# 3 -0.000946 0.000019 0.019123 -0.011484 0.004854 -0.002780
# 4 -0.007520 -0.012860 -0.011484 0.048707 -0.008209 0.015752
# 5 0.007383 0.002048 0.004854 -0.008209 0.025877 -0.009106
# 6 -0.011628 -0.005544 -0.002780 0.015752 -0.009106 0.029842
#
#
# Mechanical properties :
#
#
# Convention : Reuss Voigt Hill
#
# Bulk Modulus (GPa) = 20.27211 44.73299 32.50255
# Shear Modulus (GPa) = 29.78298 43.27717 36.53008
#
# Velocity S-wave (km/s) = 3.44338 4.15078 3.81352
# Velocity P-wave (km/s) = 4.88668 6.38597 5.68596
#
# Compressibility (1/GPa) = 0.04932886
#
# Stress axis : x y z
#
# Youngs Moduli (GPa) = 63.43681 75.28081 52.29186
#
# Poissons Ratio (x) = -0.11336 0.04946
# Poissons Ratio (y) = -0.09552 -0.00100
# Poissons Ratio (z) = 0.06000 -0.00144
#
# Static dielectric constant tensor:
#      x y z
#    x 1.983310 -0.014040 -0.017880 
#    y -0.014040 1.965520 -0.053610 
#    z -0.017880 -0.053610 2.150080 
# 
# From -- ./inp_files/455610.got.cif
#   From: 2010.05.17/outbox.cif.g08.bks.cpg/sg2_228_cif.got.tgz:455610.got - 2010.06.03 11:33:40.
