data_PCOD9007364
_publ_section_title
;
Structure prediction by ZEFSAII (Michael W. Deem and Ramdas Pophale) SiO2 
 PCOD9007364
Probable space group: P -1
;
_chemical_formula_sum "Si O2"
_cell_formula_units_Z 16
_cell_length_a 26.558633
_cell_length_b 8.942637
_cell_length_c 11.698092
_cell_angle_alpha 136.143792
_cell_angle_beta 29.543674
_cell_angle_gamma 148.268076
_cell_volume 718.621131
_symmetry_space_group_name_H-M "P -1"
_symmetry_group_IT_number 2
_symmetry_cell_setting 'triclinic'
loop_
_space_group_symop_operation_xyz
x,y,z
-x,-y,-z
loop_
_atom_site_type_symbol
_atom_site_label
_atom_site_fract_x
_atom_site_fract_y
_atom_site_fract_z
Si Si1 0.941467 0.954307 0.896088
Si Si2 0.450282 0.410625 0.421771
Si Si3 0.618638 0.833185 0.924864
Si Si4 0.890134 0.057205 0.634225
Si Si5 0.074256 0.427609 0.084123
Si Si6 0.644499 0.086078 0.776869
Si Si7 0.622459 0.219677 0.297266
Si Si8 0.253054 0.313391 0.063517
O O1 0.933633 0.744413 0.885907
O O2 0.805503 0.818212 0.019125
O O3 0.035026 0.001681 0.632130
O O4 0.996176 0.222663 0.016381
O O5 0.500000 0.500000 0.500000
O O6 0.380453 0.531441 0.584679
O O7 0.349167 0.068070 0.425527
O O8 0.594166 0.566877 0.157928
O O9 0.753582 0.930049 0.767529
O O10 0.641767 0.915843 0.792966
O O11 0.500000 0.500000 0.000000
O O12 0.595733 0.036906 0.137998
O O13 0.965399 0.387777 0.694740
O O14 0.842353 0.899113 0.763352
O O15 0.234034 0.651376 0.863517
O O16 0.741504 0.419162 0.788887
O O17 0.500000 0.000000 0.000000
O O18 0.500000 0.000000 0.500000
#
# Coordination Sequence:
#
# PCOD9007364 Si02
#       8
#     2   2   2   2   2   2   2   2
#     4  11  24  45  71  90 139 179 228 275 333 400
#     4  11  22  39  63  94 131 172 211 264 337 391
#     4  11  22  39  66  96 131 172 220 278 328 404
#     4  11  24  43  67  97 132 174 229 275 341 392
#     4  10  24  45  66 102 130 173 231 279 328 406
#     4  10  21  39  61  89 130 171 216 263 326 393
#     4  11  22  39  64  99 132 161 211 277 334 390
#     4  11  23  45  62  98 134 174 223 277 326 412
#
# _framework density 22.264862000000001
#
# number of rings (size 3 to 8) (size 9 to 14) (size 15 to 20)
#    0.000    1.250    0.000    8.250    3.500    0.500 
#    6.750    0.000    0.000    0.000    0.000    0.000 
#    0.000    0.000    0.000    0.000    0.000    0.000 
#
# Total GULP energy -89418.530391 kJ/mol
# GULP energy per Si atom -5588.658149 kJ/mol
# Density = 2.221419 g / cm^3
# Si number density = 22.264862 Si / 1000 Ang^3
#
#
#
# Elastic Constant Matrix: (Units=GPa)
#
#
# Indices 1 2 3 4 5 6 
#
# 1 114.1696 33.5859 11.1726 7.3281 7.9558 15.8497
# 2 33.5859 96.7287 11.5140 25.4588 2.6042 17.5650
# 3 11.1726 11.5140 82.5981 5.7442 -2.5872 12.7209
# 4 7.3281 25.4588 5.7442 36.0952 -0.1847 9.5558
# 5 7.9558 2.6042 -2.5872 -0.1847 36.4358 2.8689
# 6 15.8497 17.5650 12.7209 9.5558 2.8689 39.6297
#
#
#
# Elastic Compliance Matrix: (Units=1/GPa)
#
#
# Indices 1 2 3 4 5 6 
#
# 1 0.010184 -0.003198 -0.000665 0.000957 -0.001837 -0.002540
# 2 -0.003198 0.014290 -0.000536 -0.008606 -0.000185 -0.002794
# 3 -0.000665 -0.000536 0.012910 -0.000581 0.001381 -0.003600
# 4 0.000957 -0.008606 -0.000581 0.034969 0.000926 -0.004881
# 5 -0.001837 -0.000185 0.001381 0.000926 0.028111 -0.001885
# 6 -0.002540 -0.002794 -0.003600 -0.004881 -0.001885 0.029957
#
#
# Mechanical properties :
#
#
# Convention : Reuss Voigt Hill
#
# Bulk Modulus (GPa) = 34.98331 45.11573 40.04952
# Shear Modulus (GPa) = 33.61404 38.24706 35.93055
#
# Velocity S-wave (km/s) = 3.88975 4.14916 4.02154
# Velocity P-wave (km/s) = 5.99333 6.57732 6.29210
#
# Compressibility (1/GPa) = 0.02858506
#
# Stress axis : x y z
#
# Youngs Moduli (GPa) = 98.19354 69.98001 77.46175
#
# Poissons Ratio (x) = 0.22380 0.05149
# Poissons Ratio (y) = 0.31403 0.04155
# Poissons Ratio (z) = 0.06527 0.03754
#
# Static dielectric constant tensor:
#      x y z
#    x 1.804590 0.007570 -0.000150 
#    y 0.007570 1.835300 -0.021250 
#    z -0.000150 -0.021250 1.860870 
# 
# From -- ./inp_files/206411.got.cif
#   From: 2010.05.17/outbox.cif.g08.bks.cpg/sg2_104_cif.got.tgz:206411.got - 2010.06.03 11:33:40.
