data_PCOD9007971
_publ_section_title
;
Structure prediction by ZEFSAII (Michael W. Deem and Ramdas Pophale) SiO2 
 PCOD9007971
Probable space group: P -1
;
_chemical_formula_sum "Si O2"
_cell_formula_units_Z 16
_cell_length_a 12.082582
_cell_length_b 9.417715
_cell_length_c 20.388298
_cell_angle_alpha 52.955847
_cell_angle_beta 37.562837
_cell_angle_gamma 28.749219
_cell_volume 645.494676
_symmetry_space_group_name_H-M "P -1"
_symmetry_group_IT_number 2
_symmetry_cell_setting 'triclinic'
loop_
_space_group_symop_operation_xyz
x,y,z
-x,-y,-z
loop_
_atom_site_type_symbol
_atom_site_label
_atom_site_fract_x
_atom_site_fract_y
_atom_site_fract_z
Si Si1 0.679482 0.790255 0.909961
Si Si2 0.974540 0.197336 0.915878
Si Si3 0.608200 0.644073 0.331399
Si Si4 0.451434 0.969984 0.446583
Si Si5 0.590469 0.882134 0.777804
Si Si6 0.469429 0.651225 0.615105
Si Si7 0.289832 0.486645 0.333923
Si Si8 0.863740 0.296337 0.788099
O O1 0.520352 0.948887 0.869382
O O2 0.712371 0.549893 0.964500
O O3 0.028403 0.601488 0.792170
O O4 0.500000 0.000000 0.000000
O O5 0.876257 0.230812 0.877241
O O6 0.292865 0.048718 0.829123
O O7 0.000000 0.000000 0.000000
O O8 0.552493 0.481823 0.391511
O O9 0.542313 0.772068 0.398383
O O10 0.364265 0.956694 0.314752
O O11 0.478790 0.150890 0.356142
O O12 0.080889 0.259149 0.560508
O O13 0.593984 0.741241 0.504298
O O14 0.864999 0.512971 0.739836
O O15 0.665513 0.426861 0.647868
O O16 0.130285 0.963856 0.720536
O O17 0.373861 0.505296 0.219468
#
# Coordination Sequence:
#
# PCOD9007971 Si02
#       8
#     2   2   2   2   2   2   2   2
#     4  10  25  44  67  93 129 174 220 272 340 398
#     4  10  23  41  66  96 123 164 220 285 328 391
#     4  11  24  42  64  96 135 177 217 274 331 392
#     4  10  22  40  64  95 137 179 222 267 329 389
#     4  10  22  41  65  90 123 176 216 263 333 401
#     4  11  24  37  65 103 137 171 224 276 318 389
#     4  10  21  40  65  96 133 178 222 268 320 401
#     4  10  21  39  63  92 128 167 216 262 327 390
#
# _framework density 24.787191
#
# number of rings (size 3 to 8) (size 9 to 14) (size 15 to 20)
#    0.000    1.750    1.250    1.500    3.500   10.500 
#    0.000    0.000    0.000    0.000    0.000    0.000 
#    0.000    0.000    0.000    0.000    0.000    0.000 
#
# Total GULP energy -89132.956790 kJ/mol
# GULP energy per Si atom -5570.809799 kJ/mol
# Density = 2.473077 g / cm^3
# Si number density = 24.787191 Si / 1000 Ang^3
#
#
#
# Elastic Constant Matrix: (Units=GPa)
#
#
# Indices 1 2 3 4 5 6 
#
# 1 104.2054 29.2041 34.7632 -14.1931 34.0037 1.0044
# 2 29.2041 80.9296 37.9390 -18.0636 19.2119 2.8334
# 3 34.7632 37.9390 104.5346 -21.4907 39.3918 -2.6658
# 4 -14.1931 -18.0636 -21.4907 45.3502 -4.7022 16.4518
# 5 34.0037 19.2119 39.3918 -4.7022 56.6411 -4.5456
# 6 1.0044 2.8334 -2.6658 16.4518 -4.5456 31.3886
#
#
#
# Elastic Compliance Matrix: (Units=1/GPa)
#
#
# Indices 1 2 3 4 5 6 
#
# 1 0.013023 -0.002006 -0.000389 0.003508 -0.006825 -0.003096
# 2 -0.002006 0.016737 -0.003588 0.006022 -0.001894 -0.005182
# 3 -0.000389 -0.003588 0.015569 0.005877 -0.009109 -0.002741
# 4 0.003508 0.006022 0.005877 0.034618 -0.006911 -0.019302
# 5 -0.006825 -0.001894 -0.009109 -0.006911 0.028750 0.007401
# 6 -0.003096 -0.005182 -0.002741 -0.019302 0.007401 0.043381
#
#
# Mechanical properties :
#
#
# Convention : Reuss Voigt Hill
#
# Bulk Modulus (GPa) = 29.97289 54.83134 42.40211
# Shear Modulus (GPa) = 28.54475 39.19354 33.86914
#
# Velocity S-wave (km/s) = 3.39719 3.98075 3.70049
# Velocity P-wave (km/s) = 5.24464 6.58007 5.94994
#
# Compressibility (1/GPa) = 0.03336349
#
# Stress axis : x y z
#
# Youngs Moduli (GPa) = 76.78815 59.74663 64.23214
#
# Poissons Ratio (x) = 0.11983 0.02498
# Poissons Ratio (y) = 0.15401 0.23047
# Poissons Ratio (z) = 0.02987 0.21437
#
# Static dielectric constant tensor:
#      x y z
#    x 2.008270 -0.086810 -0.060160 
#    y -0.086810 2.069230 0.010070 
#    z -0.060160 0.010070 2.061890 
# 
# From -- ./inp_files/566627.got.cif
#   From: 2010.05.17/outbox.cif.g08.bks.cpg/sg2_284_cif.got.tgz:566627.got - 2010.06.03 11:33:40.
