data_PCOD9007708
_publ_section_title
;
Structure prediction by ZEFSAII (Michael W. Deem and Ramdas Pophale) SiO2 
 PCOD9007708
Probable space group: P -1
;
_chemical_formula_sum "Si O2"
_cell_formula_units_Z 16
_cell_length_a 14.760809
_cell_length_b 12.212830
_cell_length_c 5.581785
_cell_angle_alpha 93.470499
_cell_angle_beta 67.716969
_cell_angle_gamma 131.923535
_cell_volume 665.044835
_symmetry_space_group_name_H-M "P -1"
_symmetry_group_IT_number 2
_symmetry_cell_setting 'triclinic'
loop_
_space_group_symop_operation_xyz
x,y,z
-x,-y,-z
loop_
_atom_site_type_symbol
_atom_site_label
_atom_site_fract_x
_atom_site_fract_y
_atom_site_fract_z
Si Si1 0.460162 0.629297 0.711237
Si Si2 0.757390 0.523992 0.486150
Si Si3 0.018423 0.578478 0.236684
Si Si4 0.292184 0.895109 0.111433
Si Si5 0.554172 0.200255 0.895205
Si Si6 0.670960 0.693560 0.122617
Si Si7 0.832253 0.983249 0.695629
Si Si8 0.894277 0.837317 0.296398
O O1 0.318569 0.539255 0.699584
O O2 0.578371 0.681541 0.417532
O O3 0.416481 0.483737 0.878199
O O4 0.495202 0.773865 0.813240
O O5 0.653099 0.371412 0.723537
O O6 0.793410 0.677905 0.527548
O O7 0.901745 0.578164 0.355299
O O8 0.169578 0.744646 0.075244
O O9 0.000000 0.500000 0.500000
O O10 0.000000 0.500000 0.000000
O O11 0.361128 0.845973 0.168723
O O12 0.215107 0.934237 0.327272
O O13 0.417735 0.054890 0.875744
O O14 0.817902 0.777242 0.109199
O O15 0.707592 0.812676 0.903601
O O16 0.889960 0.956372 0.418038
O O17 0.952177 0.083612 0.791008
#
# Coordination Sequence:
#
# PCOD9007708 Si02
#       8
#     2   2   2   2   2   2   2   2
#     4  10  22  40  65  96 128 179 234 291 354 432
#     4  11  22  42  69  96 135 182 236 291 356 426
#     4  12  26  51  74 106 146 193 245 297 358 433
#     4  11  24  44  65 102 136 179 235 292 357 430
#     4  11  23  43  66  96 138 176 235 286 361 418
#     4  10  21  39  62  92 130 173 231 288 357 419
#     4  11  21  40  59  93 135 174 228 284 364 413
#     4  10  22  38  63  93 131 175 233 286 352 432
#
# _framework density 24.058530000000001
#
# number of rings (size 3 to 8) (size 9 to 14) (size 15 to 20)
#    0.000    1.250    2.500    3.375    0.000    0.000 
#    6.750    8.750    0.000    0.000    0.000    0.000 
#    0.000    0.000    0.000    0.000    0.000    0.000 
#
# Total GULP energy -89240.893289 kJ/mol
# GULP energy per Si atom -5577.555831 kJ/mol
# Density = 2.400377 g / cm^3
# Si number density = 24.058530 Si / 1000 Ang^3
#
#
#
# Elastic Constant Matrix: (Units=GPa)
#
#
# Indices 1 2 3 4 5 6 
#
# 1 135.2840 58.8581 15.3128 11.3902 -10.3239 -1.3695
# 2 58.8581 159.1367 32.2806 -13.2061 -12.0654 -0.3755
# 3 15.3128 32.2806 50.2267 -11.0397 -4.9667 -11.0114
# 4 11.3902 -13.2061 -11.0397 33.6332 5.8212 -10.0295
# 5 -10.3239 -12.0654 -4.9667 5.8212 13.3879 -3.6059
# 6 -1.3695 -0.3755 -11.0114 -10.0295 -3.6059 59.0163
#
#
#
# Elastic Compliance Matrix: (Units=1/GPa)
#
#
# Indices 1 2 3 4 5 6 
#
# 1 0.010195 -0.003435 -0.001939 -0.006883 0.006796 -0.000901
# 2 -0.003435 0.008740 -0.003685 0.002923 0.002573 -0.000058
# 3 -0.001939 -0.003685 0.026696 0.009490 0.002764 0.006694
# 4 -0.006883 0.002923 0.009490 0.041224 -0.014999 0.007719
# 5 0.006796 0.002573 0.002764 -0.014999 0.090795 0.003689
# 6 -0.000901 -0.000058 0.006694 0.007719 0.003689 0.019709
#
#
# Mechanical properties :
#
#
# Convention : Reuss Voigt Hill
#
# Bulk Modulus (GPa) = 36.34794 61.95006 49.14900
# Shear Modulus (GPa) = 22.25698 37.08721 29.67210
#
# Velocity S-wave (km/s) = 3.04488 3.93051 3.51569
# Velocity P-wave (km/s) = 5.24429 6.81206 6.07893
#
# Compressibility (1/GPa) = 0.02751187
#
# Stress axis : x y z
#
# Youngs Moduli (GPa) = 98.08699 114.42117 37.45858
#
# Poissons Ratio (x) = 0.39309 0.07262
# Poissons Ratio (y) = 0.33698 0.13805
# Poissons Ratio (z) = 0.19016 0.42168
#
# Static dielectric constant tensor:
#      x y z
#    x 1.945310 0.036310 0.023620 
#    y 0.036310 2.487260 -0.069590 
#    z 0.023620 -0.069590 2.002180 
# 
# From -- ./inp_files/94960.got.cif
#   From: 2010.05.17/outbox.cif.g08.bks.cpg/sg2_48_cif.got.tgz:94960.got - 2010.06.03 11:33:40.
