data_PCOD9007352
_publ_section_title
;
Structure prediction by ZEFSAII (Michael W. Deem and Ramdas Pophale) SiO2 
 PCOD9007352
Probable space group: P -1
;
_chemical_formula_sum "Si O2"
_cell_formula_units_Z 16
_cell_length_a 8.340713
_cell_length_b 22.693927
_cell_length_c 20.264991
_cell_angle_alpha 159.526323
_cell_angle_beta 135.001164
_cell_angle_gamma 36.710682
_cell_volume 784.144483
_symmetry_space_group_name_H-M "P -1"
_symmetry_group_IT_number 2
_symmetry_cell_setting 'triclinic'
loop_
_space_group_symop_operation_xyz
x,y,z
-x,-y,-z
loop_
_atom_site_type_symbol
_atom_site_label
_atom_site_fract_x
_atom_site_fract_y
_atom_site_fract_z
Si Si1 0.839287 0.372286 0.156415
Si Si2 0.373752 0.083462 0.624107
Si Si3 0.522743 0.323544 0.738848
Si Si4 0.004185 0.890342 0.819332
Si Si5 0.300665 0.958798 0.859152
Si Si6 0.187925 0.449071 0.439129
Si Si7 0.116892 0.511315 0.943269
Si Si8 0.521608 0.180232 0.903116
O O1 0.649424 0.570814 0.266127
O O2 0.033912 0.404739 0.292118
O O3 0.646485 0.317733 0.080887
O O4 0.066534 0.158427 0.960920
O O5 0.152618 0.322344 0.796328
O O6 0.549558 0.091696 0.744127
O O7 0.500000 0.000000 0.500000
O O8 0.315547 0.919995 0.462247
O O9 0.288670 0.420465 0.829879
O O10 0.725652 0.396963 0.881930
O O11 0.146359 0.926747 0.838833
O O12 0.169942 0.650852 0.627171
O O13 0.695153 0.000006 0.817291
O O14 0.000000 0.000000 0.000000
O O15 0.507733 0.744808 0.660146
O O16 0.500000 0.000000 0.000000
O O17 0.000000 0.500000 0.500000
O O18 0.795965 0.682836 0.025611
#
# Coordination Sequence:
#
# PCOD9007352 Si02
#       8
#     2   2   2   2   2   2   2   2
#     4  10  21  39  62  88 125 163 206 256 313 372
#     4  10  21  39  61  89 123 162 206 252 307 366
#     4  10  21  39  63  87 123 165 204 252 315 368
#     4  11  23  41  66  91 128 163 207 263 317 376
#     4   9  20  38  62  87 121 165 200 259 314 364
#     4  11  22  40  61  92 124 164 213 257 310 379
#     4  10  22  40  62  88 126 161 205 260 307 368
#     4  11  22  40  62  91 125 162 203 259 312 362
#
# _framework density 20.404402000000001
#
# number of rings (size 3 to 8) (size 9 to 14) (size 15 to 20)
#    0.000    1.750    1.250    3.750    0.000    3.500 
#    2.250   11.250    0.000    0.000    0.000    0.000 
#    0.000    0.000    0.000    0.000    0.000    0.000 
#
# Total GULP energy -89165.661976 kJ/mol
# GULP energy per Si atom -5572.853874 kJ/mol
# Density = 2.035796 g / cm^3
# Si number density = 20.404402 Si / 1000 Ang^3
#
#
#
# Elastic Constant Matrix: (Units=GPa)
#
#
# Indices 1 2 3 4 5 6 
#
# 1 54.0304 11.9818 25.0852 18.3072 0.5573 -10.1888
# 2 11.9818 62.6821 19.9900 23.8897 -9.8947 -12.8750
# 3 25.0852 19.9900 101.9498 18.4156 6.6360 -5.6265
# 4 18.3072 23.8897 18.4156 36.9336 4.5008 -1.8521
# 5 0.5573 -9.8947 6.6360 4.5008 29.8985 4.9247
# 6 -10.1888 -12.8750 -5.6265 -1.8521 4.9247 32.1427
#
#
#
# Elastic Compliance Matrix: (Units=1/GPa)
#
#
# Indices 1 2 3 4 5 6 
#
# 1 0.025408 0.003105 -0.004362 -0.012312 0.002141 0.007497
# 2 0.003105 0.026678 -0.002939 -0.018219 0.010773 0.008455
# 3 -0.004362 -0.002939 0.011940 -0.001490 -0.003309 -0.000049
# 4 -0.012312 -0.018219 -0.001490 0.046736 -0.011347 -0.007030
# 5 0.002141 0.010773 -0.003309 -0.011347 0.039799 -0.002337
# 6 0.007497 0.008455 -0.000049 -0.007030 -0.002337 0.036819
#
#
# Mechanical properties :
#
#
# Convention : Reuss Voigt Hill
#
# Bulk Modulus (GPa) = 17.97450 36.97515 27.47483
# Shear Modulus (GPa) = 23.32984 30.56863 26.94923
#
# Velocity S-wave (km/s) = 3.38505 3.87478 3.63816
# Velocity P-wave (km/s) = 4.90982 6.17892 5.58056
#
# Compressibility (1/GPa) = 0.05563438
#
# Stress axis : x y z
#
# Youngs Moduli (GPa) = 39.35714 37.48392 83.75167
#
# Poissons Ratio (x) = -0.11637 0.36534
# Poissons Ratio (y) = -0.12219 0.24611
# Poissons Ratio (z) = 0.17168 0.11015
#
# Static dielectric constant tensor:
#      x y z
#    x 1.713930 0.006860 -0.002330 
#    y 0.006860 1.750640 0.032090 
#    z -0.002330 0.032090 1.705190 
# 
# From -- ./inp_files/221644.got.cif
#   From: 2010.05.17/outbox.cif.g08.bks.cpg/sg2_111_cif.got.tgz:221644.got - 2010.06.03 11:33:40.
