data_PCOD9007835
_publ_section_title
;
Structure prediction by ZEFSAII (Michael W. Deem and Ramdas Pophale) SiO2 
 PCOD9007835
Probable space group: P -1
;
_chemical_formula_sum "Si O2"
_cell_formula_units_Z 14
_cell_length_a 17.474969
_cell_length_b 9.155002
_cell_length_c 6.161349
_cell_angle_alpha 94.797082
_cell_angle_beta 92.417146
_cell_angle_gamma 136.850774
_cell_volume 664.024022
_symmetry_space_group_name_H-M "P -1"
_symmetry_group_IT_number 2
_symmetry_cell_setting 'triclinic'
loop_
_space_group_symop_operation_xyz
x,y,z
-x,-y,-z
loop_
_atom_site_type_symbol
_atom_site_label
_atom_site_fract_x
_atom_site_fract_y
_atom_site_fract_z
Si Si1 0.627626 0.837837 0.623612
Si Si2 0.445377 0.515761 0.190543
Si Si3 0.053938 0.705456 0.886632
Si Si4 0.106007 0.338082 0.470122
Si Si5 0.756480 0.192319 0.355033
Si Si6 0.059810 0.990011 0.196603
Si Si7 0.471902 0.126932 0.991712
O O1 0.542939 0.675899 0.399761
O O2 0.649575 0.717663 0.740109
O O3 0.557279 0.841063 0.778741
O O4 0.730454 0.072252 0.562741
O O5 0.500000 0.500000 0.000000
O O6 0.427014 0.645910 0.093255
O O7 0.147470 0.760458 0.755446
O O8 0.965557 0.663762 0.710539
O O9 0.000000 0.500000 0.000000
O O10 0.101118 0.900829 0.071936
O O11 0.207265 0.588449 0.579833
O O12 0.135495 0.221517 0.353224
O O13 0.028655 0.190609 0.652072
O O14 0.642647 0.023130 0.180269
O O15 0.000000 0.000000 0.000000
O O16 0.500000 0.000000 0.000000
#
# Coordination Sequence:
#
# PCOD9007835 Si02
#       7
#     2   2   2   2   2   2   2
#     4   9  19  36  65  83 121 155 204 262 314 363
#     4   8  16  36  63  85 111 158 194 254 320 365
#     4  11  22  37  65  93 127 169 212 264 315 374
#     4  10  21  39  63  87 128 169 209 259 322 377
#     4  11  23  35  65  96 120 162 223 258 309 381
#     4   9  20  38  63  83 127 176 201 256 325 374
#     4  10  22  39  65  87 126 163 209 256 319 380
#
# _framework density 21.083576999999998
#
# number of rings (size 3 to 8) (size 9 to 14) (size 15 to 20)
#    0.000    2.286    1.429    0.429    2.000    2.286 
#    0.000    0.000  103.714    0.000    0.000    0.000 
#    0.000    0.000    0.000    0.000    0.000    0.000 
#
# Total GULP energy -78060.576730 kJ/mol
# GULP energy per Si atom -5575.755481 kJ/mol
# Density = 2.103559 g / cm^3
# Si number density = 21.083577 Si / 1000 Ang^3
#
#
#
# Elastic Constant Matrix: (Units=GPa)
#
#
# Indices 1 2 3 4 5 6 
#
# 1 59.8080 37.8969 28.9449 -12.1308 -5.1587 -30.0647
# 2 37.8969 140.7527 65.5542 -21.0735 -17.1091 -43.1415
# 3 28.9449 65.5542 120.8955 -10.1089 -10.5599 -19.4366
# 4 -12.1308 -21.0735 -10.1089 58.1589 -12.9349 5.7012
# 5 -5.1587 -17.1091 -10.5599 -12.9349 28.4312 5.7307
# 6 -30.0647 -43.1415 -19.4366 5.7012 5.7307 39.8131
#
#
#
# Elastic Compliance Matrix: (Units=1/GPa)
#
#
# Indices 1 2 3 4 5 6 
#
# 1 0.029202 0.001083 -0.003714 0.004378 0.002444 0.020433
# 2 0.001083 0.014586 -0.005169 0.004903 0.006781 0.012422
# 3 -0.003714 -0.005169 0.011581 -0.000120 0.001044 -0.002885
# 4 0.004378 0.004903 -0.000120 0.022468 0.013229 0.003439
# 5 0.002444 0.006781 0.001044 0.013229 0.045860 0.001208
# 6 0.020433 0.012422 -0.002885 0.003439 0.001208 0.051932
#
#
# Mechanical properties :
#
#
# Convention : Reuss Voigt Hill
#
# Bulk Modulus (GPa) = 25.14568 65.13869 45.14219
# Shear Modulus (GPa) = 24.45149 37.88465 31.16807
#
# Velocity S-wave (km/s) = 3.40919 4.24356 3.84905
# Velocity P-wave (km/s) = 5.23921 7.41437 6.41959
#
# Compressibility (1/GPa) = 0.03976826
#
# Stress axis : x y z
#
# Youngs Moduli (GPa) = 34.24453 68.55779 86.34805
#
# Poissons Ratio (x) = -0.07423 0.32070
# Poissons Ratio (y) = -0.03708 0.44634
# Poissons Ratio (z) = 0.12718 0.35438
#
# Static dielectric constant tensor:
#      x y z
#    x 1.719100 -0.029570 0.010710 
#    y -0.029570 1.802630 -0.010500 
#    z 0.010710 -0.010500 1.774030 
# 
# From -- ./inp_files/32513.got.cif
#   From: 2010.05.17/outbox.cif.g08.bks.cpg/sg2_17_cif.got.tgz:32513.got - 2010.06.03 11:33:40.
