data_PCOD9007002
_publ_section_title
;
Structure prediction by ZEFSAII (Michael W. Deem and Ramdas Pophale) SiO2 
 PCOD9007002
Probable space group: P -1
;
_chemical_formula_sum "Si O2"
_cell_formula_units_Z 14
_cell_length_a 12.801932
_cell_length_b 14.669289
_cell_length_c 5.322023
_cell_angle_alpha 79.602832
_cell_angle_beta 84.264711
_cell_angle_gamma 38.582466
_cell_volume 611.682842
_symmetry_space_group_name_H-M "P -1"
_symmetry_group_IT_number 2
_symmetry_cell_setting 'triclinic'
loop_
_space_group_symop_operation_xyz
x,y,z
-x,-y,-z
loop_
_atom_site_type_symbol
_atom_site_label
_atom_site_fract_x
_atom_site_fract_y
_atom_site_fract_z
Si Si1 0.221121 0.858761 0.150039
Si Si2 0.191126 0.378183 0.417890
Si Si3 0.088572 0.605132 0.999214
Si Si4 0.131502 0.223543 0.529259
Si Si5 0.546871 0.664735 0.432842
Si Si6 0.220667 0.950945 0.604711
Si Si7 0.661886 0.420825 0.844347
O O1 0.420799 0.748761 0.187790
O O2 0.232097 0.740712 0.191602
O O3 0.144673 0.958832 0.365985
O O4 0.150283 0.952849 0.870253
O O5 0.172484 0.448415 0.128356
O O6 0.001747 0.326106 0.278581
O O7 0.251523 0.230596 0.469934
O O8 0.000000 0.500000 0.500000
O O9 0.304142 0.364595 0.575519
O O10 0.226928 0.589233 0.002674
O O11 0.958691 0.711729 0.208970
O O12 0.207829 0.069676 0.554679
O O13 0.414952 0.787128 0.617971
O O14 0.610488 0.519930 0.570621
O O15 0.500000 0.500000 0.000000
#
# Coordination Sequence:
#
# PCOD9007002 Si02
#       7
#     2   2   2   2   2   2   2
#     4  10  21  39  58  92 121 155 201 247 297 348
#     4   9  20  41  63  92 120 157 199 255 301 351
#     4  10  24  40  64  94 116 158 205 249 301 359
#     4  11  22  44  61  86 129 160 198 247 300 358
#     4   9  21  37  62  94 117 154 204 246 300 358
#     4  10  22  39  61  86 127 160 199 242 293 364
#     4  11  20  40  67  91 120 157 200 259 303 345
#
# _framework density 22.88768
#
# number of rings (size 3 to 8) (size 9 to 14) (size 15 to 20)
#    0.857    1.143    1.429    1.714    0.000    6.286 
#    5.143    5.000    0.000    0.000    0.000    0.000 
#    0.000    0.000    0.000    0.000    0.000    0.000 
#
# Total GULP energy -78208.714234 kJ/mol
# GULP energy per Si atom -5586.336731 kJ/mol
# Density = 2.283559 g / cm^3
# Si number density = 22.887680 Si / 1000 Ang^3
#
#
#
# Elastic Constant Matrix: (Units=GPa)
#
#
# Indices 1 2 3 4 5 6 
#
# 1 102.4645 12.6465 16.0093 -3.2466 -4.3654 25.6032
# 2 12.6465 139.6270 39.1752 -6.8737 -9.5603 50.9179
# 3 16.0093 39.1752 128.3065 2.3094 9.7434 15.2793
# 4 -3.2466 -6.8737 2.3094 23.9682 -4.7281 -6.1839
# 5 -4.3654 -9.5603 9.7434 -4.7281 19.9774 -7.8794
# 6 25.6032 50.9179 15.2793 -6.1839 -7.8794 44.0831
#
#
#
# Elastic Compliance Matrix: (Units=1/GPa)
#
#
# Indices 1 2 3 4 5 6 
#
# 1 0.012076 0.002881 -0.001305 0.000263 0.000893 -0.009693
# 2 0.002881 0.013753 -0.002868 0.000993 0.002546 -0.015970
# 3 -0.001305 -0.002868 0.009623 -0.003746 -0.007698 -0.001166
# 4 0.000263 0.000993 -0.003746 0.048482 0.017768 0.009976
# 5 0.000893 0.002546 -0.007698 0.017768 0.064659 0.013258
# 6 -0.009693 -0.015970 -0.001166 0.009976 0.013258 0.050933
#
#
# Mechanical properties :
#
#
# Convention : Reuss Voigt Hill
#
# Bulk Modulus (GPa) = 30.42424 56.22888 43.32656
# Shear Modulus (GPa) = 23.46697 37.77687 30.62192
#
# Velocity S-wave (km/s) = 3.20552 4.06708 3.66173
# Velocity P-wave (km/s) = 5.19829 6.83195 6.07033
#
# Compressibility (1/GPa) = 0.03286853
#
# Stress axis : x y z
#
# Youngs Moduli (GPa) = 82.80831 72.71379 103.91617
#
# Poissons Ratio (x) = -0.20949 0.13559
# Poissons Ratio (y) = -0.23858 0.29802
# Poissons Ratio (z) = 0.10805 0.20854
#
# Static dielectric constant tensor:
#      x y z
#    x 1.890960 -0.016070 -0.010380 
#    y -0.016070 1.883100 0.036300 
#    z -0.010380 0.036300 1.863590 
# 
# From -- ./inp_files/70429.got.cif
#   From: 2010.05.17/outbox.cif.g08.bks.cpg/sg2_36_cif.got.tgz:70429.got - 2010.06.03 11:33:40.
