data_PCOD9007438
_publ_section_title
;
Structure prediction by ZEFSAII (Michael W. Deem and Ramdas Pophale) SiO2 
 PCOD9007438
Probable space group: P -1
;
_chemical_formula_sum "Si O2"
_cell_formula_units_Z 14
_cell_length_a 5.525324
_cell_length_b 15.514107
_cell_length_c 21.470051
_cell_angle_alpha 19.914098
_cell_angle_beta 89.319472
_cell_angle_gamma 90.170589
_cell_volume 626.283094
_symmetry_space_group_name_H-M "P -1"
_symmetry_group_IT_number 2
_symmetry_cell_setting 'triclinic'
loop_
_space_group_symop_operation_xyz
x,y,z
-x,-y,-z
loop_
_atom_site_type_symbol
_atom_site_label
_atom_site_fract_x
_atom_site_fract_y
_atom_site_fract_z
Si Si1 0.020033 0.286245 0.197080
Si Si2 0.885492 0.871252 0.203458
Si Si3 0.347560 0.638327 0.140263
Si Si4 0.481520 0.720804 0.720743
Si Si5 0.980537 0.725933 0.525401
Si Si6 0.741554 0.523428 0.543110
Si Si7 0.652308 0.663622 0.229528
O O1 0.782903 0.304167 0.229642
O O2 0.280923 0.301798 0.220401
O O3 0.000096 0.013764 0.349125
O O4 0.000000 0.500000 0.000000
O O5 0.701104 0.712151 0.357985
O O6 0.841261 0.825228 0.161007
O O7 0.130910 0.726099 0.312829
O O8 0.846959 0.164230 0.016565
O O9 0.487499 0.501078 0.179033
O O10 0.524843 0.789897 0.085735
O O11 0.214426 0.422585 0.329306
O O12 0.500000 0.000000 0.500000
O O13 0.224032 0.578577 0.635141
O O14 0.920285 0.680751 0.483565
O O15 0.533106 0.438845 0.648354
#
# Coordination Sequence:
#
# PCOD9007438 Si02
#       7
#     2   2   2   2   2   2   2
#     4  12  28  48  75 105 146 186 241 299 361 424
#     4  10  21  39  61  93 129 170 223 273 341 412
#     4  11  24  38  66  94 132 173 230 276 347 414
#     4  12  26  49  74 107 144 187 239 298 357 423
#     4  10  23  41  64  92 132 175 221 285 348 411
#     4   9  21  39  61  91 131 170 216 279 341 412
#     4  10  21  39  62  93 127 174 216 279 343 409
#
# _framework density 22.354109000000001
#
# number of rings (size 3 to 8) (size 9 to 14) (size 15 to 20)
#    0.000    1.429    1.429    2.571    6.000    7.429 
#    0.000    0.000    0.000    0.000    0.000    0.000 
#    0.000    0.000    0.000    0.000    0.000    0.000 
#
# Total GULP energy -78207.420393 kJ/mol
# GULP energy per Si atom -5586.244314 kJ/mol
# Density = 2.230323 g / cm^3
# Si number density = 22.354109 Si / 1000 Ang^3
#
#
#
# Elastic Constant Matrix: (Units=GPa)
#
#
# Indices 1 2 3 4 5 6 
#
# 1 82.7514 25.8233 8.5731 8.5160 15.0187 -13.0020
# 2 25.8233 93.8073 30.3161 -4.1816 18.5522 -13.0942
# 3 8.5731 30.3161 102.5256 1.1517 17.7154 -6.3103
# 4 8.5160 -4.1816 1.1517 35.1647 -9.8271 12.8080
# 5 15.0187 18.5522 17.7154 -9.8271 34.6131 5.9261
# 6 -13.0020 -13.0942 -6.3103 12.8080 5.9261 46.9208
#
#
#
# Elastic Compliance Matrix: (Units=1/GPa)
#
#
# Indices 1 2 3 4 5 6 
#
# 1 0.017339 -0.002274 0.001982 -0.011179 -0.012035 0.009008
# 2 -0.002274 0.013811 -0.002620 -0.000783 -0.005954 0.003837
# 3 0.001982 -0.002620 0.011931 -0.004594 -0.007487 0.003622
# 4 -0.011179 -0.000783 -0.004594 0.044770 0.023608 -0.019136
# 5 -0.012035 -0.005954 -0.007487 0.023608 0.051074 -0.018898
# 6 0.009008 0.003837 0.003622 -0.019136 -0.018898 0.032977
#
#
# Mechanical properties :
#
#
# Convention : Reuss Voigt Hill
#
# Bulk Modulus (GPa) = 26.84105 45.38992 36.11549
# Shear Modulus (GPa) = 26.29575 37.63116 31.96345
#
# Velocity S-wave (km/s) = 3.43348 4.10739 3.78546
# Velocity P-wave (km/s) = 5.26799 6.54548 5.94117
#
# Compressibility (1/GPa) = 0.03725637
#
# Stress axis : x y z
#
# Youngs Moduli (GPa) = 57.67445 72.40478 83.81700
#
# Poissons Ratio (x) = 0.16468 -0.16614
# Poissons Ratio (y) = 0.13117 0.21959
# Poissons Ratio (z) = -0.11432 0.18969
#
# Static dielectric constant tensor:
#      x y z
#    x 1.878310 0.073850 0.064870 
#    y 0.073850 1.832280 0.012910 
#    z 0.064870 0.012910 1.712650 
# 
# From -- ./inp_files/37496.got.cif
#   From: 2010.05.17/outbox.cif.g08.bks.cpg/sg2_19_cif.got.tgz:37496.got - 2010.06.03 11:33:40.
