data_PCOD9007443
_publ_section_title
;
Structure prediction by ZEFSAII (Michael W. Deem and Ramdas Pophale) SiO2 
 PCOD9007443
Probable space group: P -1
;
_chemical_formula_sum "Si O2"
_cell_formula_units_Z 12
_cell_length_a 5.002015
_cell_length_b 20.589082
_cell_length_c 4.992127
_cell_angle_alpha 112.246457
_cell_angle_beta 89.281198
_cell_angle_gamma 68.902420
_cell_volume 437.314279
_symmetry_space_group_name_H-M "P -1"
_symmetry_group_IT_number 2
_symmetry_cell_setting 'triclinic'
loop_
_space_group_symop_operation_xyz
x,y,z
-x,-y,-z
loop_
_atom_site_type_symbol
_atom_site_label
_atom_site_fract_x
_atom_site_fract_y
_atom_site_fract_z
Si Si1 0.570060 0.247969 0.836620
Si Si2 0.778981 0.084206 0.710265
Si Si3 0.532352 0.916432 0.786686
Si Si4 0.826067 0.752995 0.651523
Si Si5 0.692078 0.367662 0.290464
Si Si6 0.242560 0.501140 0.206822
O O1 0.804211 0.160910 0.725651
O O2 0.360121 0.260482 0.607293
O O3 0.346490 0.257818 0.102691
O O4 0.722915 0.306873 0.960431
O O5 0.503650 0.088323 0.537303
O O6 0.727229 0.089569 0.036276
O O7 0.000000 0.000000 0.500000
O O8 0.792873 0.840274 0.762214
O O9 0.500000 0.000000 0.000000
O O10 0.159633 0.696468 0.586114
O O11 0.378910 0.429899 0.296764
O O12 0.833363 0.426044 0.483509
O O13 0.500000 0.500000 0.000000
O O14 0.000000 0.500000 0.000000
#
# Coordination Sequence:
#
# PCOD9007443 Si02
#       6
#     2   2   2   2   2   2
#     4  10  24  43  66 101 141 186 245 298 365 435
#     4  10  21  39  61  93 134 182 236 301 355 426
#     4  10  21  39  61  93 134 182 236 301 355 426
#     4  10  24  43  66 101 141 186 245 298 365 435
#     4  11  26  42  76 100 144 190 234 312 358 453
#     4  11  28  49  76 112 147 190 245 303 376 450
#
# _framework density 27.440218999999999
#
# number of rings (size 3 to 8) (size 9 to 14) (size 15 to 20)
#    0.000    1.667    0.000    2.000   11.667    1.333 
#    0.000    0.000    0.000    0.000    0.000    0.000 
#    0.000    0.000    0.000    0.000    0.000    0.000 
#
# Total GULP energy -66942.425205 kJ/mol
# GULP energy per Si atom -5578.535434 kJ/mol
# Density = 2.737776 g / cm^3
# Si number density = 27.440219 Si / 1000 Ang^3
#
#
#
# Elastic Constant Matrix: (Units=GPa)
#
#
# Indices 1 2 3 4 5 6 
#
# 1 124.7643 16.0989 71.8557 -4.8311 18.5408 4.4411
# 2 16.0989 128.9690 108.5301 72.0594 24.4993 -29.9952
# 3 71.8557 108.5301 198.8835 -27.3291 37.9324 -3.1573
# 4 -4.8311 72.0594 -27.3291 59.1642 12.9147 -0.8149
# 5 18.5408 24.4993 37.9324 12.9147 49.5009 -30.9666
# 6 4.4411 -29.9952 -3.1573 -0.8149 -30.9666 3.5831
#
#
#
# Elastic Compliance Matrix: (Units=1/GPa)
#
#
# Indices 1 2 3 4 5 6 
#
# 1 -0.066696 -0.164440 0.116193 0.215796 0.171034 0.335700
# 2 -0.164440 -0.353172 0.258495 0.466849 0.362331 0.712669
# 3 0.116193 0.258495 -0.181994 -0.338477 -0.265847 -0.514981
# 4 0.215796 0.466849 -0.338477 -0.598756 -0.478715 -0.931014
# 5 0.171034 0.362331 -0.265847 -0.478715 -0.375729 -0.769139
# 6 0.335700 0.712669 -0.514981 -0.931014 -0.769139 -1.483768
#
#
# Mechanical properties :
#
#
# Convention : Reuss Voigt Hill
#
# Bulk Modulus (GPa) = -5.51370 93.95404 44.22017
# Shear Modulus (GPa) = -1.41200 39.52513 19.05656
#
# Velocity S-wave (km/s) = -0.71812 3.79939 2.63815
# Velocity P-wave (km/s) = 1.64356 7.31854 5.04280
#
# Compressibility (1/GPa) = -0.18136643
#
# Stress axis : x y z
#
# Youngs Moduli (GPa) = -14.99335 -2.83148 -5.49468
#
# Poissons Ratio (x) = -0.46561 0.63844
# Poissons Ratio (y) = -2.46551 1.42035
# Poissons Ratio (z) = 1.74212 0.73192
#
# Static dielectric constant tensor:
#      x y z
#    x 2.253380 0.026960 -0.063370 
#    y 0.026960 2.118310 0.029510 
#    z -0.063370 0.029510 2.110260 
# 
# From -- ./inp_files/6654.got.cif
#   From: 2010.05.17/outbox.cif.g08.bks.cpg/sg2_4_cif.got.tgz:6654.got - 2010.06.03 11:33:40.
