data_PCOD9007117
_publ_section_title
;
Structure prediction by ZEFSAII (Michael W. Deem and Ramdas Pophale) SiO2 
 PCOD9007117
Probable space group: P -1
;
_chemical_formula_sum "Si O2"
_cell_formula_units_Z 16
_cell_length_a 8.574266
_cell_length_b 6.295988
_cell_length_c 17.496349
_cell_angle_alpha 104.927628
_cell_angle_beta 128.689897
_cell_angle_gamma 85.861619
_cell_volume 707.389600
_symmetry_space_group_name_H-M "P -1"
_symmetry_group_IT_number 2
_symmetry_cell_setting 'triclinic'
loop_
_space_group_symop_operation_xyz
x,y,z
-x,-y,-z
loop_
_atom_site_type_symbol
_atom_site_label
_atom_site_fract_x
_atom_site_fract_y
_atom_site_fract_z
Si Si1 0.124263 0.339048 0.572353
Si Si2 0.434757 0.663786 0.238729
Si Si3 0.884537 0.956807 0.039538
Si Si4 0.814741 0.075668 0.556247
Si Si5 0.820516 0.625033 0.112916
Si Si6 0.146877 0.371812 0.223435
Si Si7 0.452803 0.792404 0.078888
Si Si8 0.375879 0.088957 0.366136
O O1 0.350117 0.412488 0.678126
O O2 0.000000 0.500000 0.500000
O O3 0.990184 0.255678 0.596804
O O4 0.152757 0.136187 0.505506
O O5 0.266754 0.465960 0.193649
O O6 0.432757 0.731196 0.156043
O O7 0.396349 0.884995 0.295218
O O8 0.000759 0.147152 0.145229
O O9 0.900405 0.731371 0.067354
O O10 0.653460 0.993216 0.955815
O O11 0.000000 0.000000 0.000000
O O12 0.596394 0.146900 0.475016
O O13 0.786433 0.996086 0.627065
O O14 0.682693 0.792249 0.124570
O O15 0.999642 0.554755 0.212417
O O16 0.677723 0.403242 0.026086
O O17 0.308231 0.306174 0.326424
#
# Coordination Sequence:
#
# PCOD9007117 Si02
#       8
#     2   2   2   2   2   2   2   2
#     4  10  21  39  62  88 118 153 189 237 294 343
#     4  11  23  37  58  86 115 150 197 242 285 343
#     4  11  21  37  61  83 115 156 190 235 291 343
#     4   9  21  40  60  85 118 153 192 234 289 354
#     4  10  22  39  58  84 118 154 193 237 291 346
#     4  11  22  36  57  86 114 148 195 239 285 342
#     4  10  22  39  57  84 118 152 193 239 287 346
#     4  10  21  39  60  85 117 152 193 241 287 342
#
# _framework density 22.618369999999999
#
# number of rings (size 3 to 8) (size 9 to 14) (size 15 to 20)
#    0.000    1.750    0.000    4.125    0.000    6.000 
#    0.000    3.750    0.000    0.000    0.000    0.000 
#    0.000    0.000    0.000    0.000    0.000    0.000 
#
# Total GULP energy -89412.898916 kJ/mol
# GULP energy per Si atom -5588.306182 kJ/mol
# Density = 2.256689 g / cm^3
# Si number density = 22.618370 Si / 1000 Ang^3
#
#
#
# Elastic Constant Matrix: (Units=GPa)
#
#
# Indices 1 2 3 4 5 6 
#
# 1 120.6238 22.3519 26.9603 -22.6056 2.6960 3.5806
# 2 22.3519 55.6922 24.6314 -38.2442 19.1775 -1.5744
# 3 26.9603 24.6314 59.8270 -35.4899 6.9304 -10.6395
# 4 -22.6056 -38.2442 -35.4899 47.3699 -2.6574 7.7779
# 5 2.6960 19.1775 6.9304 -2.6574 41.9363 -6.3352
# 6 3.5806 -1.5744 -10.6395 7.7779 -6.3352 26.5849
#
#
#
# Elastic Compliance Matrix: (Units=1/GPa)
#
#
# Indices 1 2 3 4 5 6 
#
# 1 0.009707 -0.001948 -0.003671 0.000832 0.000469 -0.003023
# 2 -0.001948 0.066724 0.010780 0.062076 -0.030800 -0.016973
# 3 -0.003671 0.010780 0.034196 0.031521 -0.007783 0.003742
# 4 0.000832 0.062076 0.031521 0.096713 -0.030448 -0.019372
# 5 0.000469 -0.030800 -0.007783 -0.030448 0.039260 0.013262
# 6 -0.003023 -0.016973 0.003742 -0.019372 0.013262 0.047343
#
#
# Mechanical properties :
#
#
# Convention : Reuss Voigt Hill
#
# Bulk Modulus (GPa) = 8.26786 42.67002 25.46894
# Shear Modulus (GPa) = 15.43512 33.99149 24.71331
#
# Velocity S-wave (km/s) = 2.61514 3.88084 3.30907
# Velocity P-wave (km/s) = 3.57518 6.24399 5.08770
#
# Compressibility (1/GPa) = 0.12095034
#
# Stress axis : x y z
#
# Youngs Moduli (GPa) = 103.02020 14.98717 29.24311
#
# Poissons Ratio (x) = 0.02920 0.10734
# Poissons Ratio (y) = 0.20069 -0.31526
# Poissons Ratio (z) = 0.37815 -0.16157
#
# Static dielectric constant tensor:
#      x y z
#    x 1.853830 -0.029300 0.027460 
#    y -0.029300 1.832230 0.002970 
#    z 0.027460 0.002970 1.871110 
# 
# From -- ./inp_files/37407.got.cif
#   From: 2010.05.17/outbox.cif.g08.bks.cpg/sg2_19_cif.got.tgz:37407.got - 2010.06.03 11:33:40.
