data_PCOD9007291
_publ_section_title
;
Structure prediction by ZEFSAII (Michael W. Deem and Ramdas Pophale) SiO2 
 PCOD9007291
Probable space group: P -1
;
_chemical_formula_sum "Si O2"
_cell_formula_units_Z 16
_cell_length_a 10.404279
_cell_length_b 19.568247
_cell_length_c 12.162652
_cell_angle_alpha 124.561142
_cell_angle_beta 101.498773
_cell_angle_gamma 32.548307
_cell_volume 852.607706
_symmetry_space_group_name_H-M "P -1"
_symmetry_group_IT_number 2
_symmetry_cell_setting 'triclinic'
loop_
_space_group_symop_operation_xyz
x,y,z
-x,-y,-z
loop_
_atom_site_type_symbol
_atom_site_label
_atom_site_fract_x
_atom_site_fract_y
_atom_site_fract_z
Si Si1 0.706142 0.766482 0.894443
Si Si2 0.596113 0.631529 0.275027
Si Si3 0.624184 0.290546 0.928092
Si Si4 0.769692 0.002667 0.359177
Si Si5 0.660305 0.867066 0.739104
Si Si6 0.647295 0.200272 0.085459
Si Si7 0.280595 0.566970 0.452160
Si Si8 0.742455 0.342817 0.705267
O O1 0.720053 0.779938 0.779935
O O2 0.509903 0.796392 0.908570
O O3 0.048364 0.560978 0.811957
O O4 0.540625 0.938619 0.082140
O O5 0.533562 0.659552 0.159774
O O6 0.468765 0.618441 0.292423
O O7 0.400848 0.818946 0.461257
O O8 0.966825 0.120381 0.794354
O O9 0.630304 0.228198 0.977833
O O10 0.440379 0.478740 0.102148
O O11 0.953994 0.852894 0.352679
O O12 0.530643 0.078699 0.329686
O O13 0.978850 0.714853 0.602685
O O14 0.465529 0.378778 0.276910
O O15 0.000000 0.000000 0.000000
O O16 0.500000 0.500000 0.500000
O O17 0.194826 0.663668 0.413305
#
# Coordination Sequence:
#
# PCOD9007291 Si02
#       8
#     2   2   2   2   2   2   2   2
#     4  11  24  41  61  85 116 155 195 238 290 345
#     4  11  22  37  61  90 118 152 194 239 288 340
#     4  10  21  39  61  86 119 156 193 234 286 346
#     4  11  22  37  61  90 118 152 194 239 288 340
#     4  11  24  41  61  85 116 155 195 238 290 345
#     4  11  24  40  61  88 117 153 194 239 290 343
#     4  11  24  40  61  88 117 153 194 239 290 343
#     4  10  21  39  61  86 119 156 193 234 286 346
#
# _framework density 18.765955999999999
#
# number of rings (size 3 to 8) (size 9 to 14) (size 15 to 20)
#    0.000    1.250    0.000    7.500    0.000   13.000 
#    0.000    0.000    0.000    0.000    0.000    0.000 
#    0.000    0.000    0.000    0.000    0.000    0.000 
#
# Total GULP energy -89511.226323 kJ/mol
# GULP energy per Si atom -5594.451645 kJ/mol
# Density = 1.872324 g / cm^3
# Si number density = 18.765956 Si / 1000 Ang^3
#
#
#
# Elastic Constant Matrix: (Units=GPa)
#
#
# Indices 1 2 3 4 5 6 
#
# 1 163.6497 110.5472 88.1640 -12.5532 -8.6534 -7.8995
# 2 110.5472 121.5590 83.0365 5.7988 -18.5253 -8.7521
# 3 88.1640 83.0365 118.8138 0.1315 -10.3281 9.5175
# 4 -12.5532 5.7988 0.1315 27.9754 -6.6579 -4.2290
# 5 -8.6534 -18.5253 -10.3281 -6.6579 29.0596 -0.8913
# 6 -7.8995 -8.7521 9.5175 -4.2290 -0.8913 39.8922
#
#
#
# Elastic Compliance Matrix: (Units=1/GPa)
#
#
# Indices 1 2 3 4 5 6 
#
# 1 0.020529 -0.016862 -0.003938 0.012367 -0.003124 0.002546
# 2 -0.016862 0.032778 -0.009940 -0.011151 0.009949 0.005264
# 3 -0.003938 -0.009940 0.018778 -0.001268 -0.001359 -0.007606
# 4 0.012367 -0.011151 -0.001268 0.046047 0.006837 0.005339
# 5 -0.003124 0.009949 -0.001359 0.006837 0.041015 0.003529
# 6 0.002546 0.005264 -0.007606 0.005339 0.003529 0.029186
#
#
# Mechanical properties :
#
#
# Convention : Reuss Voigt Hill
#
# Bulk Modulus (GPa) = 94.29734 107.50199 100.89966
# Shear Modulus (GPa) = 19.73558 27.53709 23.63634
#
# Velocity S-wave (km/s) = 3.24646 3.83482 3.55284
# Velocity P-wave (km/s) = 8.02564 8.77598 8.40918
#
# Compressibility (1/GPa) = 0.01060475
#
# Stress axis : x y z
#
# Youngs Moduli (GPa) = 48.71158 30.50792 53.25313
#
# Poissons Ratio (x) = 0.51443 0.20971
# Poissons Ratio (y) = 0.82138 0.52936
# Poissons Ratio (z) = 0.19182 0.30326
#
# Static dielectric constant tensor:
#      x y z
#    x 1.613620 0.011710 0.003040 
#    y 0.011710 1.628330 -0.005450 
#    z 0.003040 -0.005450 1.626660 
# 
# From -- ./inp_files/294746.got.cif
#   From: 2010.05.17/outbox.cif.g08.bks.cpg/sg2_148_cif.got.tgz:294746.got - 2010.06.03 11:33:40.
