data_PCOD9007885
_publ_section_title
;
Structure prediction by ZEFSAII (Michael W. Deem and Ramdas Pophale) SiO2 
 PCOD9007885
Probable space group: P -1
;
_chemical_formula_sum "Si O2"
_cell_formula_units_Z 14
_cell_length_a 9.317165
_cell_length_b 5.930885
_cell_length_c 17.265253
_cell_angle_alpha 131.577816
_cell_angle_beta 124.470960
_cell_angle_gamma 71.478659
_cell_volume 585.772088
_symmetry_space_group_name_H-M "P -1"
_symmetry_group_IT_number 2
_symmetry_cell_setting 'triclinic'
loop_
_space_group_symop_operation_xyz
x,y,z
-x,-y,-z
loop_
_atom_site_type_symbol
_atom_site_label
_atom_site_fract_x
_atom_site_fract_y
_atom_site_fract_z
Si Si1 0.440873 0.717522 0.599276
Si Si2 0.818947 0.158975 0.350581
Si Si3 0.850891 0.569040 0.029926
Si Si4 0.955192 0.354453 0.742790
Si Si5 0.533106 0.605446 0.122139
Si Si6 0.838537 0.278066 0.218671
Si Si7 0.564060 0.234998 0.640233
O O1 0.500000 0.500000 0.500000
O O2 0.233878 0.701290 0.553111
O O3 0.512086 0.557975 0.663469
O O4 0.493777 0.055698 0.655836
O O5 0.838847 0.367350 0.329239
O O6 0.975179 0.946831 0.341322
O O7 0.645020 0.927804 0.229542
O O8 0.914231 0.486909 0.116299
O O9 0.829938 0.923248 0.117429
O O10 0.664222 0.412665 0.911437
O O11 0.000000 0.500000 0.000000
O O12 0.979850 0.587662 0.733638
O O13 0.773235 0.274995 0.710300
O O14 0.663981 0.397408 0.157185
O O15 0.500000 0.500000 0.000000
O O16 0.500000 0.000000 0.500000
#
# Coordination Sequence:
#
# PCOD9007885 Si02
#       7
#     2   2   2   2   2   2   2
#     4  10  24  46  70  99 130 167 221 280 342 397
#     4  10  23  38  69  93 126 178 222 269 328 399
#     4  11  24  36  57  94 131 170 218 271 322 385
#     4  10  23  41  63  93 130 171 221 271 327 397
#     4  11  20  40  58  90 130 176 220 261 319 395
#     4  10  21  39  63  89 132 174 222 265 323 394
#     4  10  24  46  69  95 132 169 215 279 343 396
#
# _framework density 23.900082000000001
#
# number of rings (size 3 to 8) (size 9 to 14) (size 15 to 20)
#    0.000    1.714    4.286    0.429   10.000    0.571 
#    0.000    5.714    0.000    0.000    0.000    0.000 
#    0.000    0.000    0.000    0.000    0.000    0.000 
#
# Total GULP energy -78055.333585 kJ/mol
# GULP energy per Si atom -5575.380970 kJ/mol
# Density = 2.384568 g / cm^3
# Si number density = 23.900082 Si / 1000 Ang^3
#
#
#
# Elastic Constant Matrix: (Units=GPa)
#
#
# Indices 1 2 3 4 5 6 
#
# 1 152.9648 48.9731 8.2412 -5.3188 -9.6350 17.8135
# 2 48.9731 108.1862 9.1615 4.1186 -5.0179 24.3558
# 3 8.2412 9.1615 55.9258 -1.9564 -1.2866 3.6139
# 4 -5.3188 4.1186 -1.9564 5.2087 -1.1317 -9.0758
# 5 -9.6350 -5.0179 -1.2866 -1.1317 41.2013 2.0687
# 6 17.8135 24.3558 3.6139 -9.0758 2.0687 42.2436
#
#
#
# Elastic Compliance Matrix: (Units=1/GPa)
#
#
# Indices 1 2 3 4 5 6 
#
# 1 0.008644 -0.005429 0.000115 0.019941 0.001727 0.003675
# 2 -0.005429 0.018806 -0.002946 -0.057435 0.000389 -0.020660
# 3 0.000115 -0.002946 0.018681 0.015378 0.000507 0.003331
# 4 0.019941 -0.057435 0.015378 0.487449 0.005117 0.127866
# 5 0.001727 0.000389 0.000507 0.005117 0.024935 -0.001117
# 6 0.003675 -0.020660 0.003331 0.127866 -0.001117 0.061275
#
#
# Mechanical properties :
#
#
# Convention : Reuss Voigt Hill
#
# Bulk Modulus (GPa) = 33.77049 49.98094 41.87572
# Shear Modulus (GPa) = 7.73780 34.44412 21.09096
#
# Velocity S-wave (km/s) = 1.80127 3.80040 2.97385
# Velocity P-wave (km/s) = 4.29961 6.34155 5.41765
#
# Compressibility (1/GPa) = 0.02961165
#
# Stress axis : x y z
#
# Youngs Moduli (GPa) = 115.69367 53.17437 53.53094
#
# Poissons Ratio (x) = 0.28868 -0.00618
# Poissons Ratio (y) = 0.62809 0.15770
# Poissons Ratio (z) = -0.01336 0.15665
#
# Static dielectric constant tensor:
#      x y z
#    x 1.998730 0.007300 -0.066150 
#    y 0.007300 1.986240 -0.019500 
#    z -0.066150 -0.019500 1.902340 
# 
# From -- ./inp_files/35460.got.cif
#   From: 2010.05.17/outbox.cif.g08.bks.cpg/sg2_18_cif.got.tgz:35460.got - 2010.06.03 11:33:40.
