data_PCOD9007118
_publ_section_title
;
Structure prediction by ZEFSAII (Michael W. Deem and Ramdas Pophale) SiO2 
 PCOD9007118
Probable space group: P -1
;
_chemical_formula_sum "Si O2"
_cell_formula_units_Z 15
_cell_length_a 11.830456
_cell_length_b 17.027386
_cell_length_c 8.295710
_cell_angle_alpha 51.062281
_cell_angle_beta 97.854296
_cell_angle_gamma 139.469687
_cell_volume 623.489163
_symmetry_space_group_name_H-M "P -1"
_symmetry_group_IT_number 2
_symmetry_cell_setting 'triclinic'
loop_
_space_group_symop_operation_xyz
x,y,z
-x,-y,-z
loop_
_atom_site_type_symbol
_atom_site_label
_atom_site_fract_x
_atom_site_fract_y
_atom_site_fract_z
Si Si1 0.431459 0.560563 0.445473
Si Si2 0.828741 0.378816 0.968389
Si Si3 0.249910 0.891288 0.866292
Si Si4 0.381065 0.195732 0.387959
Si Si5 0.240754 0.392171 0.969571
Si Si6 0.000000 0.000000 0.500000
Si Si7 0.339099 0.104157 0.168779
Si Si8 0.066324 0.738318 0.377264
O O1 0.500000 0.500000 0.500000
O O2 0.403419 0.545920 0.650143
O O3 0.172310 0.386932 0.551095
O O4 0.606388 0.775360 0.117731
O O5 0.731910 0.199054 0.108228
O O6 0.988911 0.566126 0.633087
O O7 0.586751 0.255334 0.093149
O O8 0.000000 0.500000 0.000000
O O9 0.229078 0.861012 0.092274
O O10 0.004395 0.744799 0.940147
O O11 0.425574 0.118897 0.565174
O O12 0.616871 0.438509 0.085051
O O13 0.224752 0.070213 0.347511
O O14 0.167772 0.086479 0.576397
O O15 0.202426 0.247156 0.184897
O O16 0.192003 0.896820 0.340433
#
# Coordination Sequence:
#
# PCOD9007118 Si02
#       8
#     2   2   2   2   2   1   2   2
#     4  10  22  40  62  88 119 157 196 243 298 353
#     4  11  23  40  62  88 120 158 200 247 299 352
#     4  10  22  39  60  86 116 157 199 241 294 351
#     4  11  22  37  59  86 119 154 196 245 294 352
#     4  10  21  39  60  85 117 154 198 243 292 351
#     4  10  22  36  58  88 116 154 196 240 296 350
#     4  11  24  39  60  91 121 156 199 246 300 351
#     4  10  23  41  60  88 122 155 201 248 292 355
#
# _framework density 24.058154999999999
#
# number of rings (size 3 to 8) (size 9 to 14) (size 15 to 20)
#    0.000    1.600    0.000    4.000    0.000    8.533 
#    0.000    0.000    0.000    0.000    0.000    0.000 
#    0.000    0.000    0.000    0.000    0.000    0.000 
#
# Total GULP energy -83652.010428 kJ/mol
# GULP energy per Si atom -5576.800695 kJ/mol
# Density = 2.400340 g / cm^3
# Si number density = 24.058155 Si / 1000 Ang^3
#
#
#
# Elastic Constant Matrix: (Units=GPa)
#
#
# Indices 1 2 3 4 5 6 
#
# 1 73.9732 5.6637 11.6037 3.7384 27.0082 4.5393
# 2 5.6637 72.6029 5.5236 -19.6020 6.8345 10.8347
# 3 11.6037 5.5236 136.5817 -0.3079 22.6895 5.8898
# 4 3.7384 -19.6020 -0.3079 40.8886 -4.5596 3.2929
# 5 27.0082 6.8345 22.6895 -4.5596 34.2789 2.1035
# 6 4.5393 10.8347 5.8898 3.2929 2.1035 16.8447
#
#
#
# Elastic Compliance Matrix: (Units=1/GPa)
#
#
# Indices 1 2 3 4 5 6 
#
# 1 0.019789 -0.000732 0.001203 -0.003803 -0.016597 -0.002467
# 2 -0.000732 0.018659 0.000091 0.009997 -0.001036 -0.013662
# 3 0.001203 0.000091 0.008388 -0.000527 -0.006441 -0.002409
# 4 -0.003803 0.009997 -0.000527 0.031266 0.006254 -0.012114
# 5 -0.016597 -0.001036 -0.006441 0.006254 0.047536 0.000232
# 6 -0.002467 -0.013662 -0.002409 -0.012114 0.000232 0.071999
#
#
# Mechanical properties :
#
#
# Convention : Reuss Voigt Hill
#
# Bulk Modulus (GPa) = 20.84970 36.52667 28.68819
# Shear Modulus (GPa) = 23.52945 35.76022 29.64483
#
# Velocity S-wave (km/s) = 3.13073 3.85958 3.51410
# Velocity P-wave (km/s) = 4.66410 5.92262 5.33063
#
# Compressibility (1/GPa) = 0.04796232
#
# Stress axis : x y z
#
# Youngs Moduli (GPa) = 50.53376 53.59299 119.21259
#
# Poissons Ratio (x) = 0.03921 -0.14344
# Poissons Ratio (y) = 0.03697 -0.01089
# Poissons Ratio (z) = -0.06080 -0.00489
#
# Static dielectric constant tensor:
#      x y z
#    x 4.212570 -3.958750 0.994230 
#    y -3.958750 6.772620 -1.062390 
#    z 0.994230 -1.062390 2.112790 
# 
# From -- ./inp_files/28232.got.cif
#   From: 2010.05.17/outbox.cif.g08.bks.cpg/sg2_15_cif.got.tgz:28232.got - 2010.06.03 11:33:40.
