data_PCOD9007385
_publ_section_title
;
Structure prediction by ZEFSAII (Michael W. Deem and Ramdas Pophale) SiO2 
 PCOD9007385
Probable space group: P -1
;
_chemical_formula_sum "Si O2"
_cell_formula_units_Z 16
_cell_length_a 12.498612
_cell_length_b 15.171904
_cell_length_c 8.174463
_cell_angle_alpha 63.003555
_cell_angle_beta 33.960894
_cell_angle_gamma 50.600787
_cell_volume 659.632575
_symmetry_space_group_name_H-M "P -1"
_symmetry_group_IT_number 2
_symmetry_cell_setting 'triclinic'
loop_
_space_group_symop_operation_xyz
x,y,z
-x,-y,-z
loop_
_atom_site_type_symbol
_atom_site_label
_atom_site_fract_x
_atom_site_fract_y
_atom_site_fract_z
Si Si1 0.762166 0.931121 0.777198
Si Si2 0.433723 0.757533 0.694318
Si Si3 0.802959 0.072992 0.855338
Si Si4 0.791649 0.543723 0.606838
Si Si5 0.114645 0.328742 0.181798
Si Si6 0.618548 0.444256 0.133363
Si Si7 0.192892 0.596794 0.751817
Si Si8 0.602874 0.241380 0.649635
O O1 0.845032 0.798390 0.749191
O O2 0.941912 0.954400 0.437671
O O3 0.786759 0.963243 0.907559
O O4 0.500000 0.000000 0.000000
O O5 0.671460 0.663593 0.558916
O O6 0.318206 0.679521 0.911651
O O7 0.410417 0.791239 0.499806
O O8 0.318390 0.865046 0.875075
O O9 0.690688 0.155192 0.767226
O O10 0.000000 0.500000 0.500000
O O11 0.897084 0.427764 0.462525
O O12 0.596329 0.541033 0.959117
O O13 0.042946 0.366319 0.055553
O O14 0.339474 0.322909 0.951351
O O15 0.398555 0.488361 0.488861
O O16 0.804797 0.425499 0.043038
O O17 0.256122 0.695777 0.574858
#
# Coordination Sequence:
#
# PCOD9007385 Si02
#       8
#     2   2   2   2   2   2   2   2
#     4  11  24  43  74  96 124 179 225 269 334 386
#     4  11  24  43  67 100 132 175 216 267 334 392
#     4  11  23  47  71  95 134 171 220 278 326 389
#     4  12  25  37  62 102 135 171 219 270 324 396
#     4  12  23  41  67  93 134 176 217 269 332 386
#     4  10  21  39  61  90 132 175 217 259 326 395
#     4  10  21  39  61  91 133 176 212 267 325 390
#     4  11  24  42  67  98 138 170 220 270 326 397
#
# _framework density 24.255927
#
# number of rings (size 3 to 8) (size 9 to 14) (size 15 to 20)
#    0.000    1.000    3.750    3.375    1.750    0.500 
#    0.000    3.125    2.750    0.000    0.000    0.000 
#    0.000    0.000    0.000    0.000    0.000    0.000 
#
# Total GULP energy -89215.323758 kJ/mol
# GULP energy per Si atom -5575.957735 kJ/mol
# Density = 2.420072 g / cm^3
# Si number density = 24.255927 Si / 1000 Ang^3
#
#
#
# Elastic Constant Matrix: (Units=GPa)
#
#
# Indices 1 2 3 4 5 6 
#
# 1 117.5679 17.5560 22.7328 8.8900 -21.6838 -1.9772
# 2 17.5560 51.3958 2.9920 16.5267 5.6953 20.2720
# 3 22.7328 2.9920 79.3658 8.6892 -6.6465 4.7037
# 4 8.8900 16.5267 8.6892 38.4697 0.3488 8.4249
# 5 -21.6838 5.6953 -6.6465 0.3488 48.4825 10.1607
# 6 -1.9772 20.2720 4.7037 8.4249 10.1607 45.7788
#
#
#
# Elastic Compliance Matrix: (Units=1/GPa)
#
#
# Indices 1 2 3 4 5 6 
#
# 1 0.010573 -0.004565 -0.002545 -0.000342 0.004543 0.001794
# 2 -0.004565 0.028364 0.001629 -0.009150 -0.002862 -0.010606
# 3 -0.002545 0.001629 0.013773 -0.002805 0.000987 -0.001949
# 4 -0.000342 -0.009150 -0.002805 0.030963 0.000632 -0.001514
# 5 0.004543 -0.002862 0.000987 0.000632 0.023979 -0.004076
# 6 0.001794 -0.010606 -0.001949 -0.001514 -0.004076 0.028002
#
#
# Mechanical properties :
#
#
# Convention : Reuss Voigt Hill
#
# Bulk Modulus (GPa) = 23.95327 37.21015 30.58171
# Shear Modulus (GPa) = 31.14657 40.21610 35.68133
#
# Velocity S-wave (km/s) = 3.58729 4.07626 3.83957
# Velocity P-wave (km/s) = 5.20143 6.12605 5.68258
#
# Compressibility (1/GPa) = 0.04174796
#
# Stress axis : x y z
#
# Youngs Moduli (GPa) = 94.57797 35.25641 72.60747
#
# Poissons Ratio (x) = 0.16094 0.18478
# Poissons Ratio (y) = 0.43172 -0.11826
# Poissons Ratio (z) = 0.24069 -0.05743
#
# Static dielectric constant tensor:
#      x y z
#    x 2.184090 0.007190 0.057050 
#    y 0.007190 2.027250 0.015850 
#    z 0.057050 0.015850 1.920740 
# 
# From -- ./inp_files/270098.got.cif
#   From: 2010.05.17/outbox.cif.g08.bks.cpg/sg2_136_cif.got.tgz:270098.got - 2010.06.03 11:33:40.
