data_PCOD9007997
_publ_section_title
;
Structure prediction by ZEFSAII (Michael W. Deem and Ramdas Pophale) SiO2 
 PCOD9007997
Probable space group: P -1
;
_chemical_formula_sum "Si O2"
_cell_formula_units_Z 16
_cell_length_a 11.814275
_cell_length_b 9.268847
_cell_length_c 12.886415
_cell_angle_alpha 90.864209
_cell_angle_beta 120.779198
_cell_angle_gamma 128.890192
_cell_volume 815.577978
_symmetry_space_group_name_H-M "P -1"
_symmetry_group_IT_number 2
_symmetry_cell_setting 'triclinic'
loop_
_space_group_symop_operation_xyz
x,y,z
-x,-y,-z
loop_
_atom_site_type_symbol
_atom_site_label
_atom_site_fract_x
_atom_site_fract_y
_atom_site_fract_z
Si Si1 0.056344 0.647162 0.878265
Si Si2 0.277679 0.328027 0.105568
Si Si3 0.105122 0.493108 0.699131
Si Si4 0.941377 0.036991 0.368721
Si Si5 0.629677 0.565543 0.159398
Si Si6 0.236649 0.833257 0.612429
Si Si7 0.681123 0.303149 0.833379
Si Si8 0.978535 0.914408 0.821112
O O1 0.095809 0.592438 0.792147
O O2 0.075322 0.834209 0.876129
O O3 0.834380 0.434084 0.810667
O O4 0.211514 0.716323 0.036070
O O5 0.478976 0.409781 0.178813
O O6 0.311932 0.527560 0.117437
O O7 0.199331 0.230935 0.182582
O O8 0.123693 0.149779 0.943559
O O9 0.217197 0.438280 0.781264
O O10 0.222534 0.670385 0.664498
O O11 0.887772 0.282705 0.552580
O O12 0.894883 0.162075 0.380594
O O13 0.067492 0.112146 0.323738
O O14 0.739620 0.800896 0.239394
O O15 0.000000 0.000000 0.500000
O O16 0.500000 0.500000 0.000000
O O17 0.457947 0.071393 0.706841
#
# Coordination Sequence:
#
# PCOD9007997 Si02
#       8
#     2   2   2   2   2   2   2   2
#     4  10  22  40  63  94 127 160 209 255 319 370
#     4  10  21  39  63  93 128 156 210 261 317 369
#     4  11  25  41  62  90 129 169 207 259 309 380
#     4  12  23  41  63  89 125 166 213 260 315 373
#     4  12  23  38  64  97 122 162 215 264 313 369
#     4  11  24  42  62  90 127 169 212 251 317 378
#     4  10  22  39  65  94 124 163 204 265 308 378
#     4  10  22  40  63  92 127 164 202 267 316 377
#
# _framework density 19.617986999999999
#
# number of rings (size 3 to 8) (size 9 to 14) (size 15 to 20)
#    0.000    1.250    5.000    0.750    1.750    1.000 
#    0.000    0.625    5.500    0.000    0.000    0.000 
#    0.000    0.000    0.000    0.000    0.000    0.000 
#
# Total GULP energy -89242.081225 kJ/mol
# GULP energy per Si atom -5577.630077 kJ/mol
# Density = 1.957334 g / cm^3
# Si number density = 19.617987 Si / 1000 Ang^3
#
#
#
# Elastic Constant Matrix: (Units=GPa)
#
#
# Indices 1 2 3 4 5 6 
#
# 1 66.8745 9.6655 0.1022 -10.2734 1.3728 5.6569
# 2 9.6655 73.4449 22.3040 -0.5335 11.0040 -5.5229
# 3 0.1022 22.3040 56.0119 -10.0786 2.9705 -2.8074
# 4 -10.2734 -0.5335 -10.0786 35.5244 5.1501 -3.5580
# 5 1.3728 11.0040 2.9705 5.1501 21.8339 0.7368
# 6 5.6569 -5.5229 -2.8074 -3.5580 0.7368 26.5082
#
#
#
# Elastic Compliance Matrix: (Units=1/GPa)
#
#
# Indices 1 2 3 4 5 6 
#
# 1 0.016420 -0.002790 0.001884 0.005064 -0.000970 -0.003179
# 2 -0.002790 0.017356 -0.006489 -0.000925 -0.007593 0.003611
# 3 0.001884 -0.006489 0.021857 0.007025 -0.001531 0.001546
# 4 0.005064 -0.000925 0.007025 0.033288 -0.008801 0.004183
# 5 -0.000970 -0.007593 -0.001531 -0.008801 0.052113 -0.004167
# 6 -0.003179 0.003611 0.001546 0.004183 -0.004167 0.039996
#
#
# Mechanical properties :
#
#
# Convention : Reuss Voigt Hill
#
# Bulk Modulus (GPa) = 24.48375 28.94164 26.71270
# Shear Modulus (GPa) = 23.87390 27.72393 25.79891
#
# Velocity S-wave (km/s) = 3.49225 3.76332 3.63032
# Velocity P-wave (km/s) = 5.36362 5.80242 5.58733
#
# Compressibility (1/GPa) = 0.04084341
#
# Stress axis : x y z
#
# Youngs Moduli (GPa) = 60.89950 57.61761 45.75294
#
# Poissons Ratio (x) = 0.16077 -0.08621
# Poissons Ratio (y) = 0.16992 0.29688
# Poissons Ratio (z) = -0.11475 0.37387
#
# Static dielectric constant tensor:
#      x y z
#    x 1.694630 0.037020 -0.005020 
#    y 0.037020 1.734410 -0.015390 
#    z -0.005020 -0.015390 1.659750 
# 
# From -- ./inp_files/357396.got.cif
#   From: 2010.05.17/outbox.cif.g08.bks.cpg/sg2_179_cif.got.tgz:357396.got - 2010.06.03 11:33:40.
