data_PCOD9007626
_publ_section_title
;
Structure prediction by ZEFSAII (Michael W. Deem and Ramdas Pophale) SiO2 
 PCOD9007626
Probable space group: P -1
;
_chemical_formula_sum "Si O2"
_cell_formula_units_Z 16
_cell_length_a 8.767012
_cell_length_b 16.062128
_cell_length_c 22.523489
_cell_angle_alpha 163.628505
_cell_angle_beta 95.108498
_cell_angle_gamma 77.542664
_cell_volume 788.752208
_symmetry_space_group_name_H-M "P -1"
_symmetry_group_IT_number 2
_symmetry_cell_setting 'triclinic'
loop_
_space_group_symop_operation_xyz
x,y,z
-x,-y,-z
loop_
_atom_site_type_symbol
_atom_site_label
_atom_site_fract_x
_atom_site_fract_y
_atom_site_fract_z
Si Si1 0.902886 0.312677 0.429820
Si Si2 0.417662 0.069910 0.212009
Si Si3 0.736933 0.655978 0.356671
Si Si4 0.045187 0.305462 0.207964
Si Si5 0.627936 0.198501 0.410888
Si Si6 0.411852 0.281654 0.826334
Si Si7 0.591713 0.193375 0.092090
Si Si8 0.229105 0.675820 0.983128
O O1 0.758597 0.592853 0.575992
O O2 0.993691 0.490574 0.592519
O O3 0.803028 0.192496 0.390680
O O4 0.045742 0.994359 0.184281
O O5 0.531857 0.168163 0.327004
O O6 0.370041 0.805938 0.063101
O O7 0.483037 0.927626 0.049627
O O8 0.689137 0.369971 0.181831
O O9 0.918807 0.564478 0.332202
O O10 0.569732 0.991074 0.597079
O O11 0.754327 0.611639 0.257211
O O12 0.254327 0.124541 0.087206
O O13 0.000000 0.000000 0.000000
O O14 0.523322 0.534284 0.676708
O O15 0.643977 0.898685 0.248572
O O16 0.500000 0.500000 0.000000
O O17 0.255719 0.525296 0.946218
#
# Coordination Sequence:
#
# PCOD9007626 Si02
#       8
#     2   2   2   2   2   2   2   2
#     4  11  24  38  59  95 125 156 198 250 314 357
#     4  10  21  39  62  90 121 160 205 247 304 366
#     4   9  19  35  59  92 112 152 204 259 294 345
#     4   9  18  34  57  86 121 152 196 241 299 358
#     4  11  23  40  62  89 128 163 197 253 307 361
#     4  11  21  39  65  85 115 164 209 245 299 363
#     4   8  19  35  59  87 120 159 199 243 301 363
#     4  11  22  38  62  91 119 157 209 255 292 364
#
# _framework density 20.285204
#
# number of rings (size 3 to 8) (size 9 to 14) (size 15 to 20)
#    0.000    2.000    1.250    2.625    5.250    2.500 
#    2.250    0.000    0.000    1.500    0.000    0.000 
#    0.000    0.000    0.000    0.000    0.000    0.000 
#
# Total GULP energy -89200.576831 kJ/mol
# GULP energy per Si atom -5575.036052 kJ/mol
# Density = 2.023903 g / cm^3
# Si number density = 20.285204 Si / 1000 Ang^3
#
#
#
# Elastic Constant Matrix: (Units=GPa)
#
#
# Indices 1 2 3 4 5 6 
#
# 1 45.3422 31.2124 14.4103 -11.4230 16.6897 3.4204
# 2 31.2124 72.8610 18.2740 -2.8669 16.3083 -2.1943
# 3 14.4103 18.2740 66.0491 -8.3183 12.2227 -4.3486
# 4 -11.4230 -2.8669 -8.3183 37.1477 -0.4040 4.7956
# 5 16.6897 16.3083 12.2227 -0.4040 16.1464 -3.9800
# 6 3.4204 -2.1943 -4.3486 4.7956 -3.9800 29.7004
#
#
#
# Elastic Compliance Matrix: (Units=1/GPa)
#
#
# Indices 1 2 3 4 5 6 
#
# 1 0.052770 -0.012352 0.001691 0.017181 -0.046812 -0.015789
# 2 -0.012352 0.020899 -0.002169 -0.003036 -0.006207 0.002307
# 3 0.001691 -0.002169 0.018389 0.004346 -0.013409 -0.000161
# 4 0.017181 -0.003036 0.004346 0.033977 -0.019515 -0.009668
# 5 -0.046812 -0.006207 -0.013409 -0.019515 0.132124 0.023826
# 6 -0.015789 0.002307 -0.000161 -0.009668 0.023826 0.040389
#
#
# Mechanical properties :
#
#
# Convention : Reuss Voigt Hill
#
# Bulk Modulus (GPa) = 15.06033 34.67175 24.86604
# Shear Modulus (GPa) = 14.43662 24.62260 19.52961
#
# Velocity S-wave (km/s) = 2.67063 3.48777 3.10619
# Velocity P-wave (km/s) = 4.11705 5.77483 5.01492
#
# Compressibility (1/GPa) = 0.06639959
#
# Stress axis : x y z
#
# Youngs Moduli (GPa) = 18.95024 47.84850 54.37894
#
# Poissons Ratio (x) = 0.59100 -0.09198
# Poissons Ratio (y) = 0.23406 0.11797
# Poissons Ratio (z) = -0.03205 0.10380
#
# Static dielectric constant tensor:
#      x y z
#    x 1.734210 -0.012230 0.002800 
#    y -0.012230 1.743490 -0.023160 
#    z 0.002800 -0.023160 1.747870 
# 
# From -- ./inp_files/177868.got.cif
#   From: 2010.05.17/outbox.cif.g08.bks.cpg/sg2_89_cif.got.tgz:177868.got - 2010.06.03 11:33:40.
