data_PCOD9007199
_publ_section_title
;
Structure prediction by ZEFSAII (Michael W. Deem and Ramdas Pophale) SiO2 
 PCOD9007199
Probable space group: P -1
;
_chemical_formula_sum "Si O2"
_cell_formula_units_Z 16
_cell_length_a 12.382936
_cell_length_b 8.280796
_cell_length_c 11.775920
_cell_angle_alpha 49.839831
_cell_angle_beta 86.885358
_cell_angle_gamma 64.418873
_cell_volume 787.141629
_symmetry_space_group_name_H-M "P -1"
_symmetry_group_IT_number 2
_symmetry_cell_setting 'triclinic'
loop_
_space_group_symop_operation_xyz
x,y,z
-x,-y,-z
loop_
_atom_site_type_symbol
_atom_site_label
_atom_site_fract_x
_atom_site_fract_y
_atom_site_fract_z
Si Si1 0.564737 0.493102 0.116208
Si Si2 0.203515 0.274850 0.277369
Si Si3 0.785626 0.609047 0.025511
Si Si4 0.376460 0.979853 0.998400
Si Si5 0.381640 0.705734 0.566954
Si Si6 0.036248 0.715770 0.630543
Si Si7 0.610441 0.735349 0.562116
Si Si8 0.729138 0.625585 0.365233
O O1 0.667567 0.567301 0.047757
O O2 0.633194 0.272824 0.303572
O O3 0.500000 0.500000 0.000000
O O4 0.442129 0.693252 0.103862
O O5 0.286138 0.366489 0.297446
O O6 0.085253 0.310577 0.339719
O O7 0.293077 0.976011 0.395671
O O8 0.164916 0.396967 0.100124
O O9 0.722685 0.884861 0.957074
O O10 0.882015 0.417724 0.199538
O O11 0.311673 0.136880 0.818365
O O12 0.500000 0.000000 0.000000
O O13 0.526412 0.623705 0.574991
O O14 0.342427 0.512909 0.615234
O O15 0.125035 0.570484 0.584066
O O16 0.000000 0.000000 0.500000
O O17 0.686966 0.719326 0.452045
O O18 0.500000 0.000000 0.500000
#
# Coordination Sequence:
#
# PCOD9007199 Si02
#       8
#     2   2   2   2   2   2   2   2
#     4  11  21  34  59  89 128 157 194 252 309 364
#     4  11  23  39  63  90 125 158 202 257 307 354
#     4  10  21  39  60  90 117 161 205 243 306 361
#     4   9  19  33  57  82 123 155 199 241 302 364
#     4  11  21  38  60  94 122 160 204 247 307 372
#     4  11  21  43  67  87 115 163 221 250 288 363
#     4  10  25  36  59  93 130 154 194 254 318 355
#     4  11  21  40  61  90 118 165 208 246 299 371
#
# _framework density 20.326709000000001
#
# number of rings (size 3 to 8) (size 9 to 14) (size 15 to 20)
#    0.000    1.500    5.000    1.500   10.500    1.500 
#    0.000    0.000    0.000    0.750    0.000    0.000 
#    0.000    0.000    0.000    0.000    0.000    0.000 
#
# Total GULP energy -89147.466286 kJ/mol
# GULP energy per Si atom -5571.716643 kJ/mol
# Density = 2.028044 g / cm^3
# Si number density = 20.326709 Si / 1000 Ang^3
#
#
#
# Elastic Constant Matrix: (Units=GPa)
#
#
# Indices 1 2 3 4 5 6 
#
# 1 91.7389 21.3344 3.8934 1.0658 0.4782 -12.2468
# 2 21.3344 78.3815 35.0102 16.5672 2.9938 -23.2344
# 3 3.8934 35.0102 73.9876 9.0890 2.3203 -7.0868
# 4 1.0658 16.5672 9.0890 36.2861 -3.2587 -1.0306
# 5 0.4782 2.9938 2.3203 -3.2587 29.3751 8.5733
# 6 -12.2468 -23.2344 -7.0868 -1.0306 8.5733 27.9526
#
#
#
# Elastic Compliance Matrix: (Units=1/GPa)
#
#
# Indices 1 2 3 4 5 6 
#
# 1 0.011965 -0.002750 0.000954 0.000681 -0.000939 0.003512
# 2 -0.002750 0.025846 -0.008641 -0.009779 -0.008968 0.020478
# 3 0.000954 -0.008641 0.017379 -0.000491 0.000145 -0.002421
# 4 0.000681 -0.009779 -0.000491 0.032523 0.007253 -0.008981
# 5 -0.000939 -0.008968 0.000145 0.007253 0.041705 -0.020353
# 6 0.003512 0.020478 -0.002421 -0.008981 -0.020353 0.059633
#
#
# Mechanical properties :
#
#
# Convention : Reuss Voigt Hill
#
# Bulk Modulus (GPa) = 29.14177 40.50934 34.82556
# Shear Modulus (GPa) = 22.58722 30.98075 26.78398
#
# Velocity S-wave (km/s) = 3.33710 3.90826 3.63392
# Velocity P-wave (km/s) = 5.40519 6.35125 5.89722
#
# Compressibility (1/GPa) = 0.03431500
#
# Stress axis : x y z
#
# Youngs Moduli (GPa) = 83.57502 38.69037 57.54226
#
# Poissons Ratio (x) = 0.10639 -0.05488
# Poissons Ratio (y) = 0.22982 0.49725
# Poissons Ratio (z) = -0.07971 0.33434
#
# Static dielectric constant tensor:
#      x y z
#    x 1.745420 0.009920 -0.036360 
#    y 0.009920 1.718330 -0.063780 
#    z -0.036360 -0.063780 1.721650 
# 
# From -- ./inp_files/226306.got.cif
#   From: 2010.05.17/outbox.cif.g08.bks.cpg/sg2_114_cif.got.tgz:226306.got - 2010.06.03 11:33:40.
