data_PCOD9007902
_publ_section_title
;
Structure prediction by ZEFSAII (Michael W. Deem and Ramdas Pophale) SiO2 
 PCOD9007902
Probable space group: P -1
;
_chemical_formula_sum "Si O2"
_cell_formula_units_Z 16
_cell_length_a 15.417664
_cell_length_b 8.867218
_cell_length_c 11.666003
_cell_angle_alpha 91.876773
_cell_angle_beta 68.901120
_cell_angle_gamma 39.040528
_cell_volume 793.868299
_symmetry_space_group_name_H-M "P -1"
_symmetry_group_IT_number 2
_symmetry_cell_setting 'triclinic'
loop_
_space_group_symop_operation_xyz
x,y,z
-x,-y,-z
loop_
_atom_site_type_symbol
_atom_site_label
_atom_site_fract_x
_atom_site_fract_y
_atom_site_fract_z
Si Si1 0.210624 0.046047 0.405727
Si Si2 0.847041 0.211984 0.238682
Si Si3 0.671112 0.160850 0.394732
Si Si4 0.570599 0.768179 0.539747
Si Si5 0.194596 0.415977 0.376645
Si Si6 0.225032 0.713560 0.981901
Si Si7 0.618371 0.696999 0.908527
Si Si8 0.505441 0.549371 0.867960
O O1 0.234960 0.181544 0.348433
O O2 0.007945 0.286117 0.486920
O O3 0.258416 0.984066 0.516875
O O4 0.338118 0.749123 0.279792
O O5 0.811741 0.081654 0.270972
O O6 0.720437 0.473572 0.390543
O O7 0.805634 0.310798 0.129458
O O8 0.049560 0.974452 0.144894
O O9 0.500000 0.500000 0.500000
O O10 0.591617 0.125590 0.364936
O O11 0.668798 0.698418 0.602280
O O12 0.500000 0.000000 0.500000
O O13 0.219748 0.460410 0.243389
O O14 0.325652 0.731106 0.911065
O O15 0.337146 0.446836 0.998288
O O16 0.529923 0.693084 0.869103
O O17 0.500000 0.000000 0.000000
O O18 0.500000 0.500000 0.000000
#
# Coordination Sequence:
#
# PCOD9007902 Si02
#       8
#     2   2   2   2   2   2   2   2
#     4  11  23  43  62  96 131 169 215 266 326 377
#     4  10  23  40  67  89 127 166 215 266 309 387
#     4  10  21  39  63  90 126 167 211 258 313 382
#     4  11  23  39  64  98 129 168 210 265 330 381
#     4  11  25  39  66  96 134 165 211 278 319 379
#     4  10  22  44  62  92 123 172 216 257 317 377
#     4  11  25  41  63  92 128 169 212 260 320 382
#     4  10  22  38  65  84 124 169 211 254 311 388
#
# _framework density 20.154475999999999
#
# number of rings (size 3 to 8) (size 9 to 14) (size 15 to 20)
#    0.000    1.500    1.250    3.750   10.500    0.500 
#    0.000    0.000    0.000    3.000    0.000    0.000 
#    0.000    0.000    0.000    0.000    0.000    0.000 
#
# Total GULP energy -89286.954526 kJ/mol
# GULP energy per Si atom -5580.434658 kJ/mol
# Density = 2.010860 g / cm^3
# Si number density = 20.154476 Si / 1000 Ang^3
#
#
#
# Elastic Constant Matrix: (Units=GPa)
#
#
# Indices 1 2 3 4 5 6 
#
# 1 115.5372 49.6313 33.6887 19.4914 -12.4026 18.8137
# 2 49.6313 68.8824 12.2544 -0.8256 -9.2991 3.4005
# 3 33.6887 12.2544 70.1303 10.9246 -10.3069 14.0949
# 4 19.4914 -0.8256 10.9246 36.5176 -1.8483 0.3332
# 5 -12.4026 -9.2991 -10.3069 -1.8483 31.6233 -6.7362
# 6 18.8137 3.4005 14.0949 0.3332 -6.7362 32.0774
#
#
#
# Elastic Compliance Matrix: (Units=1/GPa)
#
#
# Indices 1 2 3 4 5 6 
#
# 1 0.017212 -0.011497 -0.003480 -0.008329 0.000211 -0.007216
# 2 -0.011497 0.023149 -0.000042 0.006817 0.003753 0.005025
# 3 -0.003480 -0.000042 0.017955 -0.003307 0.003186 -0.005140
# 4 -0.008329 0.006817 -0.003307 0.032961 0.000743 0.005429
# 5 0.000211 0.003753 0.003186 0.000743 0.035047 0.005430
# 6 -0.007216 0.005025 -0.005140 0.005429 0.005430 0.038217
#
#
# Mechanical properties :
#
#
# Convention : Reuss Voigt Hill
#
# Bulk Modulus (GPa) = 35.36556 49.52208 42.44382
# Shear Modulus (GPa) = 24.50899 30.64203 27.57551
#
# Velocity S-wave (km/s) = 3.49098 3.90341 3.70294
# Velocity P-wave (km/s) = 5.81675 6.70373 6.27593
#
# Compressibility (1/GPa) = 0.02827610
#
# Stress axis : x y z
#
# Youngs Moduli (GPa) = 58.09968 43.19752 55.69521
#
# Poissons Ratio (x) = 0.49666 0.19383
# Poissons Ratio (y) = 0.66800 0.00236
# Poissons Ratio (z) = 0.20220 0.00183
#
# Static dielectric constant tensor:
#      x y z
#    x 1.826170 -0.026250 -0.014830 
#    y -0.026250 1.658670 -0.035460 
#    z -0.014830 -0.035460 1.710660 
# 
# From -- ./inp_files/447498.got.cif
#   From: 2010.05.17/outbox.cif.g08.bks.cpg/sg2_224_cif.got.tgz:447498.got - 2010.06.03 11:33:40.
