data_PCOD9007547
_publ_section_title
;
Structure prediction by ZEFSAII (Michael W. Deem and Ramdas Pophale) SiO2 
 PCOD9007547
Probable space group: P -1
;
_chemical_formula_sum "Si O2"
_cell_formula_units_Z 14
_cell_length_a 7.165035
_cell_length_b 12.714094
_cell_length_c 7.183535
_cell_angle_alpha 81.366071
_cell_angle_beta 108.578927
_cell_angle_gamma 105.644411
_cell_volume 595.835509
_symmetry_space_group_name_H-M "P -1"
_symmetry_group_IT_number 2
_symmetry_cell_setting 'triclinic'
loop_
_space_group_symop_operation_xyz
x,y,z
-x,-y,-z
loop_
_atom_site_type_symbol
_atom_site_label
_atom_site_fract_x
_atom_site_fract_y
_atom_site_fract_z
Si Si1 0.503251 0.811345 0.118592
Si Si2 0.566591 0.390435 0.088495
Si Si3 0.772711 0.707537 0.760650
Si Si4 0.896515 0.315462 0.854212
Si Si5 0.667829 0.148819 0.587553
Si Si6 0.664812 0.916998 0.782055
Si Si7 0.968724 0.546646 0.679208
O O1 0.532767 0.697344 0.078031
O O2 0.630608 0.900779 0.996988
O O3 0.256194 0.776693 0.044258
O O4 0.517494 0.838598 0.333972
O O5 0.464330 0.342718 0.263641
O O6 0.806633 0.409731 0.177774
O O7 0.500000 0.500000 0.000000
O O8 0.795581 0.837079 0.759886
O O9 0.851560 0.643397 0.636624
O O10 0.889932 0.672189 0.985258
O O11 0.847117 0.254600 0.655382
O O12 0.857446 0.436089 0.785293
O O13 0.563880 0.125397 0.362243
O O14 0.735200 0.041170 0.706824
O O15 0.000000 0.500000 0.500000
#
# Coordination Sequence:
#
# PCOD9007547 Si02
#       7
#     2   2   2   2   2   2   2
#     4   9  20  36  66  87 126 163 202 258 309 368
#     4  11  21  37  63  87 123 169 202 249 316 367
#     4  11  23  40  62  94 122 165 216 248 314 383
#     4  10  21  39  62  87 127 165 208 256 305 375
#     4   9  21  39  66  91 129 163 211 263 309 375
#     4  10  21  40  66  94 125 166 209 263 316 367
#     4  12  25  40  61  92 134 163 202 267 309 368
#
# _framework density 23.496418999999999
#
# number of rings (size 3 to 8) (size 9 to 14) (size 15 to 20)
#    0.857    0.857    2.857    1.714    4.000    2.286 
#    0.000    0.000    0.000    2.571    0.000    0.000 
#    0.000    0.000    0.000    0.000    0.000    0.000 
#
# Total GULP energy -77946.310126 kJ/mol
# GULP energy per Si atom -5567.593580 kJ/mol
# Density = 2.344294 g / cm^3
# Si number density = 23.496419 Si / 1000 Ang^3
#
#
#
# Elastic Constant Matrix: (Units=GPa)
#
#
# Indices 1 2 3 4 5 6 
#
# 1 68.4045 25.5546 -5.1423 -2.2141 -16.9095 -12.7527
# 2 25.5546 106.7710 -13.5027 1.2633 -3.2869 -31.6031
# 3 -5.1423 -13.5027 44.1628 15.2576 -17.7509 -3.2806
# 4 -2.2141 1.2633 15.2576 30.1628 -2.5501 -0.9539
# 5 -16.9095 -3.2869 -17.7509 -2.5501 22.4831 12.5501
# 6 -12.7527 -31.6031 -3.2806 -0.9539 12.5501 32.9065
#
#
#
# Elastic Compliance Matrix: (Units=1/GPa)
#
#
# Indices 1 2 3 4 5 6 
#
# 1 0.024323 -0.004662 0.015128 -0.003108 0.032586 -0.006062
# 2 -0.004662 0.015524 0.002975 -0.002686 -0.008422 0.016533
# 3 0.015128 0.002975 0.055851 -0.022623 0.058102 -0.008527
# 4 -0.003108 -0.002686 -0.022623 0.043130 -0.016550 0.001522
# 5 0.032586 -0.008422 0.058102 -0.016550 0.134988 -0.041629
# 6 -0.006062 0.016533 -0.008527 0.001522 -0.041629 0.058989
#
#
# Mechanical properties :
#
#
# Convention : Reuss Voigt Hill
#
# Bulk Modulus (GPa) = 8.15809 25.90638 17.03223
# Shear Modulus (GPa) = 14.41823 31.27240 22.84531
#
# Velocity S-wave (km/s) = 2.47985 3.65217 3.12154
# Velocity P-wave (km/s) = 3.41748 5.36973 4.50073
#
# Compressibility (1/GPa) = 0.12257778
#
# Stress axis : x y z
#
# Youngs Moduli (GPa) = 41.11400 64.41624 17.90489
#
# Poissons Ratio (x) = 0.30034 -0.27087
# Poissons Ratio (y) = 0.19169 -0.05326
# Poissons Ratio (z) = -0.62197 -0.19162
#
# Static dielectric constant tensor:
#      x y z
#    x 1.934030 -0.027820 -0.098060 
#    y -0.027820 1.926500 0.021650 
#    z -0.098060 0.021650 1.991690 
# 
# From -- ./inp_files/170875.got.cif
#   From: 2010.05.17/outbox.cif.g08.bks.cpg/sg2_86_cif.got.tgz:170875.got - 2010.06.03 11:33:40.
