data_PCOD9007586
_publ_section_title
;
Structure prediction by ZEFSAII (Michael W. Deem and Ramdas Pophale) SiO2 
 PCOD9007586
Probable space group: P -1
;
_chemical_formula_sum "Si O2"
_cell_formula_units_Z 15
_cell_length_a 8.688629
_cell_length_b 7.632336
_cell_length_c 11.331667
_cell_angle_alpha 71.163889
_cell_angle_beta 87.194742
_cell_angle_gamma 108.412641
_cell_volume 665.203068
_symmetry_space_group_name_H-M "P -1"
_symmetry_group_IT_number 2
_symmetry_cell_setting 'triclinic'
loop_
_space_group_symop_operation_xyz
x,y,z
-x,-y,-z
loop_
_atom_site_type_symbol
_atom_site_label
_atom_site_fract_x
_atom_site_fract_y
_atom_site_fract_z
Si Si1 0.688734 0.128852 0.972551
Si Si2 0.268989 0.037812 0.489456
Si Si3 0.942539 0.858525 0.683171
Si Si4 0.614204 0.326640 0.478716
Si Si5 0.130103 0.379601 0.738486
Si Si6 0.191608 0.583467 0.311267
Si Si7 0.000000 0.000000 0.000000
Si Si8 0.107862 0.671920 0.874686
O O1 0.733966 0.305988 0.837337
O O2 0.730398 0.209358 0.086753
O O3 0.500000 0.000000 0.000000
O O4 0.822271 0.024396 0.969973
O O5 0.201611 0.058875 0.356469
O O6 0.421352 0.227789 0.481730
O O7 0.318951 0.844640 0.532603
O O8 0.113518 0.998753 0.590144
O O9 0.877278 0.650381 0.660779
O O10 0.995937 0.805565 0.821241
O O11 0.705224 0.532435 0.363049
O O12 0.674580 0.359195 0.603882
O O13 0.139632 0.562133 0.784717
O O14 0.969861 0.358225 0.668810
O O15 0.095347 0.191483 0.863883
O O16 0.000000 0.500000 0.000000
#
# Coordination Sequence:
#
# PCOD9007586 Si02
#       8
#     2   2   2   2   2   2   1   2
#     4  11  25  41  66  97 129 171 218 267 323 382
#     4  10  23  38  60  93 121 161 211 249 310 383
#     4  10  21  40  60  88 121 165 210 246 312 385
#     4  11  22  40  62  91 130 161 201 270 316 371
#     4  10  21  40  64  91 126 170 210 260 332 375
#     4  10  21  39  62  88 128 166 203 255 323 374
#     4  10  22  44  62  96 126 164 224 264 314 392
#     4  11  19  43  67  85 128 174 205 265 326 380
#
# _framework density 22.549506000000001
#
# number of rings (size 3 to 8) (size 9 to 14) (size 15 to 20)
#    0.000    1.600    6.667    0.400    1.867    3.733 
#    2.400    0.667    0.000    0.000    0.000    0.000 
#    0.000    0.000    0.000    0.000    0.000    0.000 
#
# Total GULP energy -83568.186638 kJ/mol
# GULP energy per Si atom -5571.212443 kJ/mol
# Density = 2.249818 g / cm^3
# Si number density = 22.549506 Si / 1000 Ang^3
#
#
#
# Elastic Constant Matrix: (Units=GPa)
#
#
# Indices 1 2 3 4 5 6 
#
# 1 114.8323 59.3380 57.7144 -12.4196 11.9776 40.9524
# 2 59.3380 118.2475 44.9161 -4.6897 10.2281 37.7497
# 3 57.7144 44.9161 126.8379 -28.2642 24.9865 23.6060
# 4 -12.4196 -4.6897 -28.2642 44.0952 3.2141 4.8777
# 5 11.9776 10.2281 24.9865 3.2141 23.7373 4.8877
# 6 40.9524 37.7497 23.6060 4.8777 4.8877 48.9753
#
#
#
# Elastic Compliance Matrix: (Units=1/GPa)
#
#
# Indices 1 2 3 4 5 6 
#
# 1 0.015992 -0.003584 -0.003278 0.003155 -0.001611 -0.009184
# 2 -0.003584 0.012885 -0.001643 0.000035 -0.000769 -0.006070
# 3 -0.003278 -0.001643 0.015876 0.010532 -0.015119 -0.003184
# 4 0.003155 0.000035 0.010532 0.032472 -0.015142 -0.009465
# 5 -0.001611 -0.000769 -0.015119 -0.015142 0.060265 0.004721
# 6 -0.009184 -0.006070 -0.003184 -0.009465 0.004721 0.034782
#
#
# Mechanical properties :
#
#
# Convention : Reuss Voigt Hill
#
# Bulk Modulus (GPa) = 36.04546 75.98385 56.01466
# Shear Modulus (GPa) = 25.18508 36.55819 30.87164
#
# Velocity S-wave (km/s) = 3.34560 4.03083 3.70410
# Velocity P-wave (km/s) = 5.56271 7.44534 6.57179
#
# Compressibility (1/GPa) = 0.02774274
#
# Stress axis : x y z
#
# Youngs Moduli (GPa) = 62.53085 77.61004 62.98928
#
# Poissons Ratio (x) = 0.27812 0.20649
# Poissons Ratio (y) = 0.22408 0.10351
# Poissons Ratio (z) = 0.20499 0.12753
#
# Static dielectric constant tensor:
#      x y z
#    x 1.837700 -0.053710 -0.002290 
#    y -0.053710 1.858470 0.044940 
#    z -0.002290 0.044940 1.860740 
# 
# From -- ./inp_files/325843.got.cif
#   From: 2010.05.17/outbox.cif.g08.bks.cpg/sg2_163_cif.got.tgz:325843.got - 2010.06.03 11:33:40.
