data_PCOD9007246
_publ_section_title
;
Structure prediction by ZEFSAII (Michael W. Deem and Ramdas Pophale) SiO2 
 PCOD9007246
Probable space group: P -1
;
_chemical_formula_sum "Si O2"
_cell_formula_units_Z 16
_cell_length_a 15.734441
_cell_length_b 5.409869
_cell_length_c 12.414998
_cell_angle_alpha 114.159751
_cell_angle_beta 42.839401
_cell_angle_gamma 95.740892
_cell_volume 620.581576
_symmetry_space_group_name_H-M "P -1"
_symmetry_group_IT_number 2
_symmetry_cell_setting 'triclinic'
loop_
_space_group_symop_operation_xyz
x,y,z
-x,-y,-z
loop_
_atom_site_type_symbol
_atom_site_label
_atom_site_fract_x
_atom_site_fract_y
_atom_site_fract_z
Si Si1 0.767557 0.716156 0.178192
Si Si2 0.639893 0.614341 0.579827
Si Si3 0.098287 0.915260 0.790051
Si Si4 0.394900 0.446458 0.167702
Si Si5 0.805980 0.991761 0.590308
Si Si6 0.052385 0.459135 0.225858
Si Si7 0.633332 0.245587 0.243679
Si Si8 0.247552 0.099636 0.140350
O O1 0.684369 0.516876 0.255502
O O2 0.846661 0.815122 0.218424
O O3 0.681683 0.006615 0.248997
O O4 0.868770 0.557905 0.961815
O O5 0.767409 0.355063 0.378884
O O6 0.570010 0.541750 0.738949
O O7 0.698005 0.855974 0.615332
O O8 0.521872 0.691892 0.618672
O O9 0.013572 0.796539 0.764619
O O10 0.000000 0.000000 0.000000
O O11 0.370505 0.170139 0.091441
O O12 0.249837 0.687286 0.342216
O O13 0.500000 0.500000 0.000000
O O14 0.808494 0.003031 0.719915
O O15 0.943502 0.766647 0.388958
O O16 0.145493 0.375517 0.227763
O O17 0.703043 0.106960 0.042552
#
# Coordination Sequence:
#
# PCOD9007246 Si02
#       8
#     2   2   2   2   2   2   2   2
#     4  10  24  45  67 100 130 179 219 288 337 399
#     4  10  23  40  66  99 131 178 220 278 331 407
#     4   9  20  47  69  92 132 170 228 281 345 392
#     4  11  23  38  63  97 138 174 220 269 334 403
#     4  10  21  39  60  95 132 176 223 272 333 399
#     4   9  20  41  64  94 129 172 226 274 336 400
#     4  11  24  42  69  99 136 173 228 273 341 404
#     4  10  22  38  61  93 131 177 218 276 329 398
#
# _framework density 25.782264000000001
#
# number of rings (size 3 to 8) (size 9 to 14) (size 15 to 20)
#    0.000    2.000    0.000    1.875    8.750    3.500 
#   20.250    6.250    0.000    0.000    0.000    0.000 
#    0.000    0.000    0.000    0.000    0.000    0.000 
#
# Total GULP energy -89518.161318 kJ/mol
# GULP energy per Si atom -5594.885082 kJ/mol
# Density = 2.572358 g / cm^3
# Si number density = 25.782264 Si / 1000 Ang^3
#
#
#
# Elastic Constant Matrix: (Units=GPa)
#
#
# Indices 1 2 3 4 5 6 
#
# 1 102.6309 41.5092 45.6153 -8.1130 -5.9728 6.3152
# 2 41.5092 86.1873 47.5294 6.6443 10.0732 8.8157
# 3 45.6153 47.5294 114.3086 -2.0807 -12.7753 -15.7180
# 4 -8.1130 6.6443 -2.0807 23.8202 -3.5458 5.8242
# 5 -5.9728 10.0732 -12.7753 -3.5458 41.4798 -3.7254
# 6 6.3152 8.8157 -15.7180 5.8242 -3.7254 37.0350
#
#
#
# Elastic Compliance Matrix: (Units=1/GPa)
#
#
# Indices 1 2 3 4 5 6 
#
# 1 0.014535 -0.005574 -0.003537 0.007464 0.002676 -0.003557
# 2 -0.005574 0.022225 -0.009464 -0.008522 -0.010569 -0.008079
# 3 -0.003537 -0.009464 0.016435 0.001508 0.007913 0.010390
# 4 0.007464 -0.008522 0.001508 0.049506 0.007333 -0.005652
# 5 0.002676 -0.010569 0.007913 0.007333 0.030785 0.007361
# 6 -0.003557 -0.008079 0.010390 -0.005652 0.007361 0.035570
#
#
# Mechanical properties :
#
#
# Convention : Reuss Voigt Hill
#
# Bulk Modulus (GPa) = 62.32363 63.60383 62.96373
# Shear Modulus (GPa) = 23.63464 31.69853 27.66659
#
# Velocity S-wave (km/s) = 3.03099 3.51018 3.27935
# Velocity P-wave (km/s) = 6.03943 6.41496 6.23003
#
# Compressibility (1/GPa) = 0.01604528
#
# Stress axis : x y z
#
# Youngs Moduli (GPa) = 68.80083 44.99448 60.84530
#
# Poissons Ratio (x) = 0.25081 0.21519
# Poissons Ratio (y) = 0.38351 0.57584
# Poissons Ratio (z) = 0.24332 0.42583
#
# Static dielectric constant tensor:
#      x y z
#    x 2.007660 0.005310 -0.005760 
#    y 0.005310 2.050810 0.000880 
#    z -0.005760 0.000880 2.022640 
# 
# From -- ./inp_files/536443.got.cif
#   From: 2010.05.17/outbox.cif.g08.bks.cpg/sg2_269_cif.got.tgz:536443.got - 2010.06.03 11:33:40.
