data_PCOD9007231
_publ_section_title
;
Structure prediction by ZEFSAII (Michael W. Deem and Ramdas Pophale) SiO2 
 PCOD9007231
Probable space group: P -1
;
_chemical_formula_sum "Si O2"
_cell_formula_units_Z 12
_cell_length_a 7.216446
_cell_length_b 12.416506
_cell_length_c 7.134584
_cell_angle_alpha 83.301352
_cell_angle_beta 103.294406
_cell_angle_gamma 135.056315
_cell_volume 438.503014
_symmetry_space_group_name_H-M "P -1"
_symmetry_group_IT_number 2
_symmetry_cell_setting 'triclinic'
loop_
_space_group_symop_operation_xyz
x,y,z
-x,-y,-z
loop_
_atom_site_type_symbol
_atom_site_label
_atom_site_fract_x
_atom_site_fract_y
_atom_site_fract_z
Si Si1 0.379478 0.849611 0.615752
Si Si2 0.818128 0.318922 0.771172
Si Si3 0.172155 0.271664 0.447347
Si Si4 0.395414 0.516312 0.785994
Si Si5 0.836528 0.076349 0.953957
Si Si6 0.727011 0.848748 0.208995
O O1 0.307961 0.738202 0.455855
O O2 0.094734 0.768736 0.652219
O O3 0.500000 0.000000 0.500000
O O4 0.180550 0.802139 0.112884
O O5 0.593731 0.296677 0.832069
O O6 0.127545 0.475772 0.787897
O O7 0.397254 0.077027 0.191195
O O8 0.296554 0.392885 0.625142
O O9 0.358888 0.332299 0.299001
O O10 0.146244 0.148665 0.574436
O O11 0.500000 0.500000 0.000000
O O12 0.116026 0.149580 0.918356
O O13 0.786815 0.999911 0.157664
#
# Coordination Sequence:
#
# PCOD9007231 Si02
#       6
#     2   2   2   2   2   2
#     4   9  17  38  59  85 123 161 193 246 318 361
#     4  10  21  39  61  89 122 163 207 247 308 372
#     4  10  21  42  64  90 128 159 206 264 302 360
#     4  10  22  42  66  85 122 171 210 251 310 364
#     4  10  21  39  60  92 130 157 195 252 321 367
#     4  11  21  37  62  93 125 156 200 261 304 370
#
# _framework density 27.365832000000001
#
# number of rings (size 3 to 8) (size 9 to 14) (size 15 to 20)
#    0.000    2.000    5.000    0.500    2.333    1.333 
#    3.000    0.833    0.000    0.000    0.000    0.000 
#    0.000    0.000    0.000    0.000    0.000    0.000 
#
# Total GULP energy -67196.398641 kJ/mol
# GULP energy per Si atom -5599.699887 kJ/mol
# Density = 2.730355 g / cm^3
# Si number density = 27.365832 Si / 1000 Ang^3
#
#
#
# Elastic Constant Matrix: (Units=GPa)
#
#
# Indices 1 2 3 4 5 6 
#
# 1 155.1564 38.0557 39.1957 -7.0867 -3.5787 53.1735
# 2 38.0557 79.9357 46.6289 -7.7012 -17.5182 34.0549
# 3 39.1957 46.6289 157.7239 -6.2038 10.6618 10.2463
# 4 -7.0867 -7.7012 -6.2038 58.6230 0.7555 -7.5308
# 5 -3.5787 -17.5182 10.6618 0.7555 33.6506 -15.4720
# 6 53.1735 34.0549 10.2463 -7.5308 -15.4720 58.1894
#
#
#
# Elastic Compliance Matrix: (Units=1/GPa)
#
#
# Indices 1 2 3 4 5 6 
#
# 1 0.010158 -0.000589 -0.001529 -0.000194 -0.003116 -0.009522
# 2 -0.000589 0.022614 -0.006585 0.000943 0.009715 -0.008832
# 3 -0.001529 -0.006585 0.008890 0.000255 -0.005359 0.002293
# 4 -0.000194 0.000943 0.000255 0.017442 0.000961 0.002094
# 5 -0.003116 0.009715 -0.005359 0.000961 0.040223 0.008925
# 6 -0.009522 -0.008832 0.002293 0.002094 0.008925 0.033296
#
#
# Mechanical properties :
#
#
# Convention : Reuss Voigt Hill
#
# Bulk Modulus (GPa) = 41.22534 71.17516 56.20025
# Shear Modulus (GPa) = 31.62258 48.02165 39.82211
#
# Velocity S-wave (km/s) = 3.40303 4.19358 3.81882
# Velocity P-wave (km/s) = 5.52612 7.03658 6.32659
#
# Compressibility (1/GPa) = 0.02425693
#
# Stress axis : x y z
#
# Youngs Moduli (GPa) = 98.43979 44.21986 112.48469
#
# Poissons Ratio (x) = 0.02606 0.17195
# Poissons Ratio (y) = 0.05801 0.74071
# Poissons Ratio (z) = 0.15048 0.29119
#
# Static dielectric constant tensor:
#      x y z
#    x 2.116510 -0.037760 0.013370 
#    y -0.037760 2.221860 0.031600 
#    z 0.013370 0.031600 2.141690 
# 
# From -- ./inp_files/40930.got.cif
#   From: 2010.05.17/outbox.cif.g08.bks.cpg/sg2_21_cif.got.tgz:40930.got - 2010.06.03 11:33:40.
