data_PCOD9007750
_publ_section_title
;
Structure prediction by ZEFSAII (Michael W. Deem and Ramdas Pophale) SiO2 
 PCOD9007750
Probable space group: P -1
;
_chemical_formula_sum "Si O2"
_cell_formula_units_Z 14
_cell_length_a 15.381295
_cell_length_b 27.474660
_cell_length_c 14.792434
_cell_angle_alpha 19.276860
_cell_angle_beta 158.727143
_cell_angle_gamma 162.366841
_cell_volume 591.688772
_symmetry_space_group_name_H-M "P -1"
_symmetry_group_IT_number 2
_symmetry_cell_setting 'triclinic'
loop_
_space_group_symop_operation_xyz
x,y,z
-x,-y,-z
loop_
_atom_site_type_symbol
_atom_site_label
_atom_site_fract_x
_atom_site_fract_y
_atom_site_fract_z
Si Si1 0.317262 0.889624 0.105855
Si Si2 0.549220 0.229997 0.226199
Si Si3 0.237482 0.910808 0.186129
Si Si4 0.707402 0.806604 0.144906
Si Si5 0.611162 0.533160 0.269225
Si Si6 0.806602 0.525608 0.667063
Si Si7 0.621077 0.691376 0.733358
O O1 0.392202 0.985950 0.107737
O O2 0.413269 0.753124 0.449786
O O3 0.976072 0.820171 0.876991
O O4 0.500000 0.000000 0.000000
O O5 0.560436 0.083061 0.549473
O O6 0.867893 0.384587 0.215293
O O7 0.322021 0.144407 0.071495
O O8 0.512207 0.347498 0.055705
O O9 0.955833 0.689789 0.293505
O O10 0.124940 0.021969 0.924312
O O11 0.825153 0.684906 0.461633
O O12 0.372831 0.660140 0.122449
O O13 0.613725 0.484406 0.461174
O O14 0.429254 0.357180 0.336778
O O15 0.500000 0.500000 0.000000
#
# Coordination Sequence:
#
# PCOD9007750 Si02
#       7
#     2   2   2   2   2   2   2
#     4  12  29  49  72 112 147 187 244 306 367 421
#     4  10  21  39  62  97 125 174 229 276 340 432
#     4  11  24  40  64  94 137 173 232 285 355 412
#     4  10  21  39  62  94 133 173 215 287 348 414
#     4  10  23  39  66  95 129 180 230 279 348 424
#     4   9  21  39  61  94 132 170 226 270 351 427
#     4  12  25  48  78 101 145 192 244 298 355 436
#
# _framework density 23.661086999999998
#
# number of rings (size 3 to 8) (size 9 to 14) (size 15 to 20)
#    0.000    1.429    1.429    2.571    6.000    6.286 
#    0.000    0.000    0.000    0.000    0.000    0.000 
#    0.000    0.000    0.000    0.000    0.000    0.000 
#
# Total GULP energy -78228.528129 kJ/mol
# GULP energy per Si atom -5587.752009 kJ/mol
# Density = 2.360723 g / cm^3
# Si number density = 23.661087 Si / 1000 Ang^3
#
#
#
# Elastic Constant Matrix: (Units=GPa)
#
#
# Indices 1 2 3 4 5 6 
#
# 1 133.8473 15.6272 22.3262 -9.9156 2.3283 -3.3904
# 2 15.6272 52.4418 12.4562 12.7996 0.3513 -5.2607
# 3 22.3262 12.4562 77.6706 5.8265 5.8700 -9.8481
# 4 -9.9156 12.7996 5.8265 22.1446 6.2057 5.7351
# 5 2.3283 0.3513 5.8700 6.2057 45.3720 -9.9698
# 6 -3.3904 -5.2607 -9.8481 5.7351 -9.9698 38.0993
#
#
#
# Elastic Compliance Matrix: (Units=1/GPa)
#
#
# Indices 1 2 3 4 5 6 
#
# 1 0.008997 -0.004259 -0.002666 0.008221 -0.001682 -0.002154
# 2 -0.004259 0.026075 -0.000900 -0.019824 0.004411 0.007127
# 3 -0.002666 -0.000900 0.014757 -0.005654 -0.000049 0.004291
# 4 0.008221 -0.019824 -0.005654 0.069901 -0.012914 -0.017369
# 5 -0.001682 0.004411 -0.000049 -0.012914 0.025878 0.009162
# 6 -0.002154 0.007127 0.004291 -0.017369 0.009162 0.033161
#
#
# Mechanical properties :
#
#
# Convention : Reuss Voigt Hill
#
# Bulk Modulus (GPa) = 29.25699 40.53101 34.89400
# Shear Modulus (GPa) = 24.29384 35.35986 29.82685
#
# Velocity S-wave (km/s) = 3.20776 3.86998 3.55433
# Velocity P-wave (km/s) = 5.10994 6.09393 5.62350
#
# Compressibility (1/GPa) = 0.03417987
#
# Stress axis : x y z
#
# Youngs Moduli (GPa) = 111.15050 38.35019 67.76237
#
# Poissons Ratio (x) = 0.16333 0.18064
# Poissons Ratio (y) = 0.47339 0.06099
# Poissons Ratio (z) = 0.29630 0.03452
#
# Static dielectric constant tensor:
#      x y z
#    x 1.920620 0.055040 -0.023990 
#    y 0.055040 2.013190 0.061830 
#    z -0.023990 0.061830 1.941350 
# 
# From -- ./inp_files/41031.got.cif
#   From: 2010.05.17/outbox.cif.g08.bks.cpg/sg2_21_cif.got.tgz:41031.got - 2010.06.03 11:33:40.
