data_PCOD9007844
_publ_section_title
;
Structure prediction by ZEFSAII (Michael W. Deem and Ramdas Pophale) SiO2 
 PCOD9007844
Probable space group: P -1
;
_chemical_formula_sum "Si O2"
_cell_formula_units_Z 16
_cell_length_a 23.797569
_cell_length_b 9.836295
_cell_length_c 8.603223
_cell_angle_alpha 148.732386
_cell_angle_beta 121.999700
_cell_angle_gamma 51.685173
_cell_volume 820.124870
_symmetry_space_group_name_H-M "P -1"
_symmetry_group_IT_number 2
_symmetry_cell_setting 'triclinic'
loop_
_space_group_symop_operation_xyz
x,y,z
-x,-y,-z
loop_
_atom_site_type_symbol
_atom_site_label
_atom_site_fract_x
_atom_site_fract_y
_atom_site_fract_z
Si Si1 0.288833 0.377066 0.377282
Si Si2 0.790696 0.008961 0.261054
Si Si3 0.959345 0.818325 0.691685
Si Si4 0.209300 0.880961 0.260922
Si Si5 0.419015 0.874097 0.644562
Si Si6 0.580989 0.631012 0.644465
Si Si7 0.040657 0.196350 0.691674
Si Si8 0.711168 0.743664 0.377444
O O1 0.363819 0.361639 0.398567
O O2 0.295944 0.305990 0.499871
O O3 0.238799 0.701044 0.593179
O O4 0.252589 0.185694 0.045930
O O5 0.875412 0.882513 0.227774
O O6 0.781298 0.078144 0.500108
O O7 0.965010 0.802494 0.500012
O O8 0.000000 0.500000 0.500000
O O9 0.875415 0.991273 0.772279
O O10 0.000000 0.000000 0.000000
O O11 0.238803 0.082470 0.406723
O O12 0.252583 0.556470 0.953909
O O13 0.500002 0.695767 0.531574
O O14 0.395685 0.656583 0.500138
O O15 0.363823 0.046881 0.601364
O O16 0.422483 0.116401 0.000060
O O17 0.000000 0.000000 0.500000
O O18 0.000000 0.500000 0.000000
#
# Coordination Sequence:
#
# PCOD9007844 Si02
#       8
#     2   2   2   2   2   2   2   2
#     4  12  24  38  61  93 124 155 197 254 306 345
#     4  11  24  42  62  86 120 163 204 241 294 366
#     4  11  24  41  63  89 119 157 200 249 302 357
#     4  11  24  42  62  86 120 163 204 241 294 366
#     4  10  21  39  63  88 118 161 204 240 291 362
#     4  10  21  39  63  88 118 161 204 240 291 362
#     4  11  24  41  63  89 119 157 200 249 302 357
#     4  12  24  38  61  93 124 155 197 254 306 345
#
# _framework density 19.509225000000001
#
# number of rings (size 3 to 8) (size 9 to 14) (size 15 to 20)
#    0.000    1.000    0.000    7.500    0.000   10.500 
#    0.000    0.000    0.000    7.500    0.000    0.000 
#    0.000    0.000    0.000    0.000    0.000    0.000 
#
# Total GULP energy -89398.416004 kJ/mol
# GULP energy per Si atom -5587.401000 kJ/mol
# Density = 1.946482 g / cm^3
# Si number density = 19.509225 Si / 1000 Ang^3
#
#
#
# Elastic Constant Matrix: (Units=GPa)
#
#
# Indices 1 2 3 4 5 6 
#
# 1 171.0882 119.7334 68.1606 7.0054 6.3328 -10.7935
# 2 119.7334 156.6471 60.1519 14.9020 2.1221 -5.8225
# 3 68.1606 60.1519 139.0120 23.9566 15.9994 -8.1803
# 4 7.0054 14.9020 23.9566 36.9969 -2.7337 7.8609
# 5 6.3328 2.1221 15.9994 -2.7337 42.1713 6.2951
# 6 -10.7935 -5.8225 -8.1803 7.8609 6.2951 31.2025
#
#
#
# Elastic Compliance Matrix: (Units=1/GPa)
#
#
# Indices 1 2 3 4 5 6 
#
# 1 0.013687 -0.009543 -0.002899 0.002747 -0.000538 0.001610
# 2 -0.009543 0.014387 -0.001146 -0.003101 0.000993 -0.000336
# 3 -0.002899 -0.001146 0.011278 -0.007653 -0.004979 0.004673
# 4 0.002747 -0.003101 -0.007653 0.035765 0.006758 -0.012009
# 5 -0.000538 0.000993 -0.004979 0.006758 0.027343 -0.008525
# 6 0.001610 -0.000336 0.004673 -0.012009 -0.008525 0.038514
#
#
# Mechanical properties :
#
#
# Convention : Reuss Voigt Hill
#
# Bulk Modulus (GPa) = 82.12156 106.98212 94.55184
# Shear Modulus (GPa) = 29.03471 36.65424 32.84447
#
# Velocity S-wave (km/s) = 3.86198 4.33923 4.10754
# Velocity P-wave (km/s) = 7.87855 8.94768 8.43008
#
# Compressibility (1/GPa) = 0.01217707
#
# Stress axis : x y z
#
# Youngs Moduli (GPa) = 73.06053 69.50657 88.67115
#
# Poissons Ratio (x) = 0.66330 0.25702
# Poissons Ratio (y) = 0.69722 0.10161
# Poissons Ratio (z) = 0.21177 0.07965
#
# Static dielectric constant tensor:
#      x y z
#    x 1.719960 -0.049850 -0.011860 
#    y -0.049850 1.691500 -0.004770 
#    z -0.011860 -0.004770 1.665880 
# 
# From -- ./inp_files/352520.got.cif
#   From: 2010.05.17/outbox.cif.g08.bks.cpg/sg2_177_cif.got.tgz:352520.got - 2010.06.03 11:33:40.
