data_PCOD9007217
_publ_section_title
;
Structure prediction by ZEFSAII (Michael W. Deem and Ramdas Pophale) SiO2 
 PCOD9007217
Probable space group: P -1
;
_chemical_formula_sum "Si O2"
_cell_formula_units_Z 14
_cell_length_a 12.678028
_cell_length_b 7.646048
_cell_length_c 10.658327
_cell_angle_alpha 77.200067
_cell_angle_beta 145.897341
_cell_angle_gamma 101.617588
_cell_volume 564.583831
_symmetry_space_group_name_H-M "P -1"
_symmetry_group_IT_number 2
_symmetry_cell_setting 'triclinic'
loop_
_space_group_symop_operation_xyz
x,y,z
-x,-y,-z
loop_
_atom_site_type_symbol
_atom_site_label
_atom_site_fract_x
_atom_site_fract_y
_atom_site_fract_z
Si Si1 0.296588 0.440499 0.548369
Si Si2 0.056826 0.743647 0.902528
Si Si3 0.110658 0.675897 0.529005
Si Si4 0.745232 0.907849 0.737160
Si Si5 0.229108 0.099345 0.940149
Si Si6 0.616908 0.296797 0.607101
Si Si7 0.513073 0.291447 0.001912
O O1 0.099294 0.360053 0.315132
O O2 0.232244 0.604342 0.545682
O O3 0.419920 0.541801 0.548459
O O4 0.408671 0.299009 0.764054
O O5 0.935408 0.854623 0.865918
O O6 0.182654 0.888642 0.928059
O O7 0.212733 0.633969 0.146666
O O8 0.267224 0.749880 0.768830
O O9 0.000000 0.500000 0.500000
O O10 0.956748 0.809490 0.309619
O O11 0.576811 0.794985 0.520467
O O12 0.702372 0.118369 0.653831
O O13 0.739081 0.856307 0.887455
O O14 0.397877 0.168150 0.006758
O O15 0.500000 0.500000 0.000000
#
# Coordination Sequence:
#
# PCOD9007217 Si02
#       7
#     2   2   2   2   2   2   2
#     4  11  22  40  60  88 128 150 192 252 294 350
#     4  11  24  39  57  92 124 157 191 242 304 345
#     4  11  21  39  63  87 109 155 205 237 287 353
#     4  10  21  39  63  90 114 159 204 239 290 343
#     4  11  21  39  65  84 121 155 199 246 283 355
#     4  10  21  39  63  87 118 160 200 240 285 354
#     4  10  21  39  60  91 113 149 202 245 293 340
#
# _framework density 24.797025999999999
#
# number of rings (size 3 to 8) (size 9 to 14) (size 15 to 20)
#    0.000    1.429    2.857    5.571    0.000    3.429 
#    2.571    0.714    0.000    0.000    0.000    0.000 
#    0.000    0.000    0.000    0.000    0.000    0.000 
#
# Total GULP energy -78354.011004 kJ/mol
# GULP energy per Si atom -5596.715072 kJ/mol
# Density = 2.474059 g / cm^3
# Si number density = 24.797026 Si / 1000 Ang^3
#
#
#
# Elastic Constant Matrix: (Units=GPa)
#
#
# Indices 1 2 3 4 5 6 
#
# 1 75.3474 31.3906 48.3319 -1.9968 1.9513 19.3021
# 2 31.3906 70.7574 40.2495 10.4501 -13.0319 32.8019
# 3 48.3319 40.2495 170.7662 18.8640 -1.3002 17.4542
# 4 -1.9968 10.4501 18.8640 48.5014 4.1524 -0.2854
# 5 1.9513 -13.0319 -1.3002 4.1524 40.7842 -0.9931
# 6 19.3021 32.8019 17.4542 -0.2854 -0.9931 45.7028
#
#
#
# Elastic Compliance Matrix: (Units=1/GPa)
#
#
# Indices 1 2 3 4 5 6 
#
# 1 0.019440 -0.006630 -0.004236 0.004178 -0.003655 -0.001887
# 2 -0.006630 0.029111 -0.002453 -0.006530 0.009792 -0.016985
# 3 -0.004236 -0.002453 0.007878 -0.002703 -0.000042 0.000523
# 4 0.004178 -0.006530 -0.002703 0.023673 -0.004685 0.004000
# 5 -0.003655 0.009792 -0.000042 -0.004685 0.028180 -0.004885
# 6 -0.001887 -0.016985 0.000523 0.004000 -0.004885 0.034587
#
#
# Mechanical properties :
#
#
# Convention : Reuss Voigt Hill
#
# Bulk Modulus (GPa) = 33.56723 61.86835 47.71779
# Shear Modulus (GPa) = 27.86488 40.12429 33.99458
#
# Velocity S-wave (km/s) = 3.35583 4.02694 3.70660
# Velocity P-wave (km/s) = 5.34618 6.82830 6.13218
#
# Compressibility (1/GPa) = 0.02979096
#
# Stress axis : x y z
#
# Youngs Moduli (GPa) = 51.44026 34.35094 126.93834
#
# Poissons Ratio (x) = 0.22775 0.53769
# Poissons Ratio (y) = 0.34106 0.31139
# Poissons Ratio (z) = 0.21789 0.08427
#
# Static dielectric constant tensor:
#      x y z
#    x 2.080590 -0.067500 -0.039660 
#    y -0.067500 1.961010 -0.010560 
#    z -0.039660 -0.010560 2.088920 
# 
# From -- ./inp_files/398066.got.cif
#   From: 2010.05.17/outbox.cif.g08.bks.cpg/sg2_200_cif.got.tgz:398066.got - 2010.06.03 11:33:40.
