data_PCOD9007134
_publ_section_title
;
Structure prediction by ZEFSAII (Michael W. Deem and Ramdas Pophale) SiO2 
 PCOD9007134
Probable space group: P -1
;
_chemical_formula_sum "Si O2"
_cell_formula_units_Z 12
_cell_length_a 5.980099
_cell_length_b 5.921767
_cell_length_c 20.990734
_cell_angle_alpha 133.831955
_cell_angle_beta 103.875624
_cell_angle_gamma 89.021209
_cell_volume 508.659296
_symmetry_space_group_name_H-M "P -1"
_symmetry_group_IT_number 2
_symmetry_cell_setting 'triclinic'
loop_
_space_group_symop_operation_xyz
x,y,z
-x,-y,-z
loop_
_atom_site_type_symbol
_atom_site_label
_atom_site_fract_x
_atom_site_fract_y
_atom_site_fract_z
Si Si1 0.290130 0.253506 0.472391
Si Si2 0.189037 0.785376 0.644553
Si Si3 0.631247 0.132192 0.193305
Si Si4 0.406050 0.727844 0.308461
Si Si5 0.803288 0.251073 0.975008
Si Si6 0.967239 0.364521 0.143148
O O1 0.500000 0.500000 0.500000
O O2 0.238102 0.427071 0.567349
O O3 0.060051 0.228548 0.407907
O O4 0.349143 0.903348 0.403308
O O5 0.213561 0.901197 0.741257
O O6 0.384305 0.034459 0.667139
O O7 0.480855 0.391379 0.256172
O O8 0.798762 0.274708 0.174456
O O9 0.445174 0.827927 0.093895
O O10 0.174961 0.661036 0.234385
O O11 0.810463 0.375758 0.072128
O O12 0.893663 0.918943 0.916252
O O13 0.000000 0.500000 0.000000
#
# Coordination Sequence:
#
# PCOD9007134 Si02
#       6
#     2   2   2   2   2   2
#     4   9  20  39  61  85 120 158 196 244 292 348
#     4  10  21  39  61  88 119 157 200 242 294 346
#     4  11  23  37  62  92 117 154 200 244 293 349
#     4  10  21  39  60  86 121 159 195 241 291 346
#     4  10  22  40  60  85 119 157 193 239 296 349
#     4  10  22  38  58  89 121 151 196 243 289 350
#
# _framework density 23.591432999999999
#
# number of rings (size 3 to 8) (size 9 to 14) (size 15 to 20)
#    0.000    2.000    0.000    2.500    0.000    9.333 
#    0.000   11.667    0.000    0.000    0.000    0.000 
#    0.000    0.000    0.000    0.000    0.000    0.000 
#
# Total GULP energy -67099.192802 kJ/mol
# GULP energy per Si atom -5591.599400 kJ/mol
# Density = 2.353774 g / cm^3
# Si number density = 23.591433 Si / 1000 Ang^3
#
#
#
# Elastic Constant Matrix: (Units=GPa)
#
#
# Indices 1 2 3 4 5 6 
#
# 1 94.5173 12.2615 62.7984 -6.2813 32.7135 8.3174
# 2 12.2615 23.2048 33.7433 -12.3658 15.8625 2.3940
# 3 62.7984 33.7433 184.8906 -15.9115 33.3096 4.0899
# 4 -6.2813 -12.3658 -15.9115 47.2866 -5.6529 -6.2063
# 5 32.7135 15.8625 33.3096 -5.6529 59.9844 11.7514
# 6 8.3174 2.3940 4.0899 -6.2063 11.7514 35.0930
#
#
#
# Elastic Compliance Matrix: (Units=1/GPa)
#
#
# Indices 1 2 3 4 5 6 
#
# 1 0.015659 0.003399 -0.004691 0.000459 -0.006572 -0.001115
# 2 0.003399 0.075025 -0.010959 0.015005 -0.014772 0.002954
# 3 -0.004691 -0.010959 0.008891 -0.000371 0.000359 0.000637
# 4 0.000459 0.015005 -0.000371 0.025266 -0.002454 0.004201
# 5 -0.006572 -0.014772 0.000359 -0.002454 0.024959 -0.006268
# 6 -0.001115 0.002954 0.000637 0.004201 -0.006268 0.031326
#
#
# Mechanical properties :
#
#
# Convention : Reuss Voigt Hill
#
# Bulk Modulus (GPa) = 13.32042 57.80212 35.56127
# Shear Modulus (GPa) = 21.67757 41.39342 31.53550
#
# Velocity S-wave (km/s) = 3.03458 4.19333 3.66011
# Velocity P-wave (km/s) = 4.23519 6.92820 5.74181
#
# Compressibility (1/GPa) = 0.07507269
#
# Stress axis : x y z
#
# Youngs Moduli (GPa) = 63.86069 13.32890 112.46997
#
# Poissons Ratio (x) = -0.04530 0.52757
# Poissons Ratio (y) = -0.21706 1.23261
# Poissons Ratio (z) = 0.29956 0.14608
#
# Static dielectric constant tensor:
#      x y z
#    x 1.878430 -0.087380 -0.036710 
#    y -0.087380 1.890610 0.019890 
#    z -0.036710 0.019890 1.910580 
# 
# From -- ./inp_files/3167.got.cif
#   From: 2010.05.17/outbox.cif.g08.bks.cpg/sg2_2_cif.got.tgz:3167.got - 2010.06.03 11:33:40.
