data_PCOD9007410
_publ_section_title
;
Structure prediction by ZEFSAII (Michael W. Deem and Ramdas Pophale) SiO2 
 PCOD9007410
Probable space group: P -1
;
_chemical_formula_sum "Si O2"
_cell_formula_units_Z 16
_cell_length_a 12.217844
_cell_length_b 14.364173
_cell_length_c 14.638875
_cell_angle_alpha 30.714921
_cell_angle_beta 48.250977
_cell_angle_gamma 69.958710
_cell_volume 781.031273
_symmetry_space_group_name_H-M "P -1"
_symmetry_group_IT_number 2
_symmetry_cell_setting 'triclinic'
loop_
_space_group_symop_operation_xyz
x,y,z
-x,-y,-z
loop_
_atom_site_type_symbol
_atom_site_label
_atom_site_fract_x
_atom_site_fract_y
_atom_site_fract_z
Si Si1 0.509717 0.717926 0.581331
Si Si2 0.755687 0.211121 0.931659
Si Si3 0.318837 0.779845 0.238182
Si Si4 0.603966 0.579409 0.470123
Si Si5 0.744796 0.795510 0.556163
Si Si6 0.300059 0.834419 0.700298
Si Si7 0.044397 0.935649 0.122658
Si Si8 0.097878 0.445827 0.282868
O O1 0.500025 0.566312 0.631721
O O2 0.577270 0.677081 0.674281
O O3 0.334358 0.713404 0.703652
O O4 0.657271 0.981028 0.241902
O O5 0.654979 0.177468 0.921557
O O6 0.794132 0.405432 0.812482
O O7 0.945544 0.264683 0.745091
O O8 0.311860 0.557742 0.446924
O O9 0.122250 0.718934 0.433933
O O10 0.500000 0.000000 0.000000
O O11 0.500000 0.500000 0.500000
O O12 0.756178 0.847668 0.143446
O O13 0.794122 0.662484 0.706336
O O14 0.744551 0.988750 0.444507
O O15 0.911282 0.898792 0.305631
O O16 0.500000 0.000000 0.500000
O O17 0.148432 0.633842 0.020440
O O18 0.000000 0.000000 0.000000
#
# Coordination Sequence:
#
# PCOD9007410 Si02
#       8
#     2   2   2   2   2   2   2   2
#     4  10  21  39  61  91 130 161 203 258 310 367
#     4  11  20  35  60  91 128 154 198 267 319 361
#     4  12  25  39  57  94 131 156 207 262 312 380
#     4  11  23  38  62  87 119 168 199 249 325 368
#     4  11  20  34  61  91 128 163 203 252 311 365
#     4  10  21  41  58  94 131 160 214 260 300 364
#     4  11  18  34  57  88 122 154 200 250 313 371
#     4  12  23  37  66  95 124 167 205 258 318 366
#
# _framework density 20.485734999999998
#
# number of rings (size 3 to 8) (size 9 to 14) (size 15 to 20)
#    0.000    1.000    6.250    4.125    0.000    2.000 
#    2.250    0.000    0.000    7.500    0.000    0.000 
#    0.000    0.000    0.000    0.000    0.000    0.000 
#
# Total GULP energy -89128.853056 kJ/mol
# GULP energy per Si atom -5570.553316 kJ/mol
# Density = 2.043911 g / cm^3
# Si number density = 20.485735 Si / 1000 Ang^3
#
#
#
# Elastic Constant Matrix: (Units=GPa)
#
#
# Indices 1 2 3 4 5 6 
#
# 1 82.7750 34.6424 9.1541 -14.9393 0.4017 -10.2932
# 2 34.6424 126.1403 12.9371 -4.9062 -9.3103 -26.5400
# 3 9.1541 12.9371 66.6088 2.3321 -3.5729 -2.2436
# 4 -14.9393 -4.9062 2.3321 30.6085 -6.1164 8.6861
# 5 0.4017 -9.3103 -3.5729 -6.1164 22.6789 -12.1955
# 6 -10.2932 -26.5400 -2.2436 8.6861 -12.1955 37.7562
#
#
#
# Elastic Compliance Matrix: (Units=1/GPa)
#
#
# Indices 1 2 3 4 5 6 
#
# 1 0.015051 -0.003820 -0.001605 0.006881 -0.000450 -0.000406
# 2 -0.003820 0.012150 -0.000860 -0.000870 0.010648 0.011087
# 3 -0.001605 -0.000860 0.015621 -0.001974 0.002163 0.001039
# 4 0.006881 -0.000870 -0.001974 0.038982 0.006677 -0.005664
# 5 -0.000450 0.010648 0.002163 0.006677 0.065129 0.026991
# 6 -0.000406 0.011087 0.001039 -0.005664 0.026991 0.044252
#
#
# Mechanical properties :
#
#
# Convention : Reuss Voigt Hill
#
# Bulk Modulus (GPa) = 33.05600 43.22127 38.13863
# Shear Modulus (GPa) = 23.38221 32.79474 28.08848
#
# Velocity S-wave (km/s) = 3.38211 4.00541 3.70689
# Velocity P-wave (km/s) = 5.60560 6.52190 6.08103
#
# Compressibility (1/GPa) = 0.03025170
#
# Stress axis : x y z
#
# Youngs Moduli (GPa) = 66.44192 82.30642 64.01742
#
# Poissons Ratio (x) = 0.31439 0.10277
# Poissons Ratio (y) = 0.25379 0.05504
# Poissons Ratio (z) = 0.10666 0.07076
#
# Static dielectric constant tensor:
#      x y z
#    x 1.775670 -0.044300 0.047240 
#    y -0.044300 1.792650 0.015700 
#    z 0.047240 0.015700 1.776600 
# 
# From -- ./inp_files/315903.got.cif
#   From: 2010.05.17/outbox.cif.g08.bks.cpg/sg2_158_cif.got.tgz:315903.got - 2010.06.03 11:33:40.
