data_PCOD9007366
_publ_section_title
;
Structure prediction by ZEFSAII (Michael W. Deem and Ramdas Pophale) SiO2 
 PCOD9007366
Probable space group: P -1
;
_chemical_formula_sum "Si O2"
_cell_formula_units_Z 16
_cell_length_a 27.661248
_cell_length_b 19.087587
_cell_length_c 11.782544
_cell_angle_alpha 153.985975
_cell_angle_beta 151.693261
_cell_angle_gamma 16.638787
_cell_volume 771.923732
_symmetry_space_group_name_H-M "P -1"
_symmetry_group_IT_number 2
_symmetry_cell_setting 'triclinic'
loop_
_space_group_symop_operation_xyz
x,y,z
-x,-y,-z
loop_
_atom_site_type_symbol
_atom_site_label
_atom_site_fract_x
_atom_site_fract_y
_atom_site_fract_z
Si Si1 0.183074 0.587471 0.306471
Si Si2 0.478305 0.062256 0.723542
Si Si3 0.943350 0.913765 0.648455
Si Si4 0.161297 0.288845 0.944049
Si Si5 0.228027 0.903602 0.204798
Si Si6 0.438760 0.954040 0.708386
Si Si7 0.984617 0.082194 0.781052
Si Si8 0.652607 0.581551 0.232299
O O1 0.383316 0.357690 0.408512
O O2 0.135013 0.683984 0.218003
O O3 0.081133 0.827105 0.532624
O O4 0.142044 0.455424 0.056854
O O5 0.384802 0.124152 0.734621
O O6 0.526877 0.844157 0.432763
O O7 0.382079 0.310701 0.808820
O O8 0.660809 0.904451 0.907022
O O9 0.843340 0.879236 0.361709
O O10 0.147192 0.633767 0.642726
O O11 0.896615 0.993054 0.799033
O O12 0.891563 0.110494 0.734429
O O13 0.000000 0.500000 0.000000
O O14 0.305814 0.980436 0.496853
O O15 0.365205 0.585573 0.028153
O O16 0.122669 0.021143 0.040787
O O17 0.500000 0.000000 0.000000
#
# Coordination Sequence:
#
# PCOD9007366 Si02
#       8
#     2   2   2   2   2   2   2   2
#     4  10  22  39  61  88 118 152 196 246 296 352
#     4  10  22  39  61  88 118 152 196 246 296 352
#     4  11  21  38  61  86 119 156 199 243 291 352
#     4  11  18  37  61  85 114 153 196 237 292 352
#     4  11  23  39  61  88 120 162 200 241 299 355
#     4  11  24  42  57  82 125 160 194 246 299 355
#     4  10  21  39  61  90 116 149 199 248 298 346
#     4  10  21  39  61  90 116 149 199 248 298 346
#
# _framework density 20.727436000000001
#
# number of rings (size 3 to 8) (size 9 to 14) (size 15 to 20)
#    0.000    1.500    2.500    5.250    0.000    6.000 
#    0.000    3.750    0.000    0.000    0.000    0.000 
#    0.000    0.000    0.000    0.000    0.000    0.000 
#
# Total GULP energy -89309.538534 kJ/mol
# GULP energy per Si atom -5581.846158 kJ/mol
# Density = 2.068026 g / cm^3
# Si number density = 20.727436 Si / 1000 Ang^3
#
#
#
# Elastic Constant Matrix: (Units=GPa)
#
#
# Indices 1 2 3 4 5 6 
#
# 1 120.0274 23.3633 32.3625 -21.6719 6.7786 29.1192
# 2 23.3633 40.3725 -0.9685 -7.4219 9.2254 29.3263
# 3 32.3625 -0.9685 106.3862 -16.5297 11.4434 10.8966
# 4 -21.6719 -7.4219 -16.5297 9.9163 -7.8465 -7.5742
# 5 6.7786 9.2254 11.4434 -7.8465 35.8104 -4.4242
# 6 29.1192 29.3263 10.8966 -7.5742 -4.4242 42.6251
#
#
#
# Elastic Compliance Matrix: (Units=1/GPa)
#
#
# Indices 1 2 3 4 5 6 
#
# 1 0.015066 -0.001170 0.000542 0.033992 0.004337 -0.003136
# 2 -0.001170 0.070614 0.010215 0.007080 -0.026088 -0.051844
# 3 0.000542 0.010215 0.014237 0.025328 -0.002575 -0.006805
# 4 0.033992 0.007080 0.025328 0.273231 0.045831 0.018741
# 5 0.004337 -0.026088 -0.002575 0.045831 0.048247 0.028796
# 6 -0.003136 -0.051844 -0.006805 0.018741 0.028796 0.069330
#
#
# Mechanical properties :
#
#
# Convention : Reuss Voigt Hill
#
# Bulk Modulus (GPa) = 8.39686 41.81119 25.10402
# Shear Modulus (GPa) = 9.78000 31.80562 20.79281
#
# Velocity S-wave (km/s) = 2.17454 3.92148 3.17070
# Velocity P-wave (km/s) = 3.21943 6.38120 5.05393
#
# Compressibility (1/GPa) = 0.11909217
#
# Stress axis : x y z
#
# Youngs Moduli (GPa) = 66.37324 14.16159 70.23979
#
# Poissons Ratio (x) = 0.01657 -0.03810
# Poissons Ratio (y) = 0.07764 -0.71750
# Poissons Ratio (z) = -0.03600 -0.14466
#
# Static dielectric constant tensor:
#      x y z
#    x 1.722380 -0.033760 -0.020110 
#    y -0.033760 1.725110 0.038300 
#    z -0.020110 0.038300 1.772870 
# 
# From -- ./inp_files/476986.got.cif
#   From: 2010.05.17/outbox.cif.g08.bks.cpg/sg2_239_cif.got.tgz:476986.got - 2010.06.03 11:33:40.
