data_PCOD9007792
_publ_section_title
;
Structure prediction by ZEFSAII (Michael W. Deem and Ramdas Pophale) SiO2 
 PCOD9007792
Probable space group: P -1
;
_chemical_formula_sum "Si O2"
_cell_formula_units_Z 16
_cell_length_a 17.640931
_cell_length_b 13.875632
_cell_length_c 21.139963
_cell_angle_alpha 143.098881
_cell_angle_beta 24.204531
_cell_angle_gamma 157.956671
_cell_volume 760.247179
_symmetry_space_group_name_H-M "P -1"
_symmetry_group_IT_number 2
_symmetry_cell_setting 'triclinic'
loop_
_space_group_symop_operation_xyz
x,y,z
-x,-y,-z
loop_
_atom_site_type_symbol
_atom_site_label
_atom_site_fract_x
_atom_site_fract_y
_atom_site_fract_z
Si Si1 0.136941 0.709075 0.134453
Si Si2 0.803672 0.594946 0.450188
Si Si3 0.459703 0.905530 0.552243
Si Si4 0.930937 0.716707 0.051412
Si Si5 0.210404 0.272901 0.345194
Si Si6 0.131136 0.251902 0.741168
Si Si7 0.273486 0.091502 0.872118
Si Si8 0.910733 0.622679 0.626917
O O1 0.037344 0.718269 0.281286
O O2 0.921210 0.632451 0.203360
O O3 0.075517 0.476802 0.059850
O O4 0.500000 0.000000 0.000000
O O5 0.743098 0.390002 0.429733
O O6 0.912389 0.796453 0.526474
O O7 0.483119 0.435071 0.578766
O O8 0.500000 0.000000 0.500000
O O9 0.340807 0.973867 0.720194
O O10 0.803400 0.088427 0.407747
O O11 0.581571 0.530776 0.203716
O O12 0.987876 0.790819 0.120483
O O13 0.172745 0.972818 0.956503
O O14 0.117666 0.352444 0.411389
O O15 0.075522 0.026167 0.282211
O O16 0.584010 0.413370 0.799899
O O17 0.000000 0.000000 0.000000
O O18 0.000000 0.500000 0.500000
#
# Coordination Sequence:
#
# PCOD9007792 Si02
#       8
#     2   2   2   2   2   2   2   2
#     4  12  25  49  68 101 135 175 229 285 344 392
#     4  11  24  44  72  98 136 180 220 281 336 406
#     4  11  23  42  66  99 140 179 224 273 334 408
#     4  11  24  46  68  99 140 177 223 285 340 400
#     4  11  22  44  70 101 135 175 231 271 338 407
#     4  11  25  46  71  95 133 182 227 282 334 403
#     4  11  22  40  68  99 136 177 224 273 340 404
#     4  10  21  39  62  98 139 175 220 270 326 410
#
# _framework density 21.045788999999999
#
# number of rings (size 3 to 8) (size 9 to 14) (size 15 to 20)
#    0.000    1.000    5.000    2.250    1.750    0.500 
#   13.500    1.250    0.000    0.000    0.000    0.000 
#    0.000    0.000    0.000    0.000    0.000    0.000 
#
# Total GULP energy -89431.896701 kJ/mol
# GULP energy per Si atom -5589.493544 kJ/mol
# Density = 2.099789 g / cm^3
# Si number density = 21.045789 Si / 1000 Ang^3
#
#
#
# Elastic Constant Matrix: (Units=GPa)
#
#
# Indices 1 2 3 4 5 6 
#
# 1 153.2717 17.5635 58.4491 -4.3715 15.7479 2.9770
# 2 17.5635 35.6388 17.1431 -6.4742 6.8014 13.7992
# 3 58.4491 17.1431 124.4010 -11.6789 26.5956 8.0599
# 4 -4.3715 -6.4742 -11.6789 27.3310 -4.4355 2.3551
# 5 15.7479 6.8014 26.5956 -4.4355 47.6804 9.9860
# 6 2.9770 13.7992 8.0599 2.3551 9.9860 34.3311
#
#
#
# Elastic Compliance Matrix: (Units=1/GPa)
#
#
# Indices 1 2 3 4 5 6 
#
# 1 0.008222 -0.003077 -0.003488 -0.001174 -0.000786 0.001652
# 2 -0.003077 0.038048 -0.002129 0.009075 0.000845 -0.015395
# 3 -0.003488 -0.002129 0.011233 0.003051 -0.004443 -0.000396
# 4 -0.001174 0.009075 0.003051 0.041000 0.002862 -0.007907
# 5 -0.000786 0.000845 -0.004443 0.002862 0.025276 -0.006777
# 6 0.001652 -0.015395 -0.000396 -0.007907 -0.006777 0.037779
#
#
# Mechanical properties :
#
#
# Convention : Reuss Voigt Hill
#
# Bulk Modulus (GPa) = 24.92853 55.51365 40.22109
# Shear Modulus (GPa) = 25.99863 36.54556 31.27209
#
# Velocity S-wave (km/s) = 3.51855 4.17163 3.85893
# Velocity P-wave (km/s) = 5.32706 7.04543 6.24562
#
# Compressibility (1/GPa) = 0.04011468
#
# Stress axis : x y z
#
# Youngs Moduli (GPa) = 121.61811 26.28271 89.02486
#
# Poissons Ratio (x) = 0.08088 0.31056
# Poissons Ratio (y) = 0.37424 0.18950
# Poissons Ratio (z) = 0.42426 0.05595
#
# Static dielectric constant tensor:
#      x y z
#    x 1.685740 0.005640 -0.034580 
#    y 0.005640 1.821570 0.016910 
#    z -0.034580 0.016910 1.736990 
# 
# From -- ./inp_files/217819.got.cif
#   From: 2010.05.17/outbox.cif.g08.bks.cpg/sg2_109_cif.got.tgz:217819.got - 2010.06.03 11:33:40.
