data_PCOD9007161
_publ_section_title
;
Structure prediction by ZEFSAII (Michael W. Deem and Ramdas Pophale) SiO2 
 PCOD9007161
Probable space group: P -1
;
_chemical_formula_sum "Si O2"
_cell_formula_units_Z 16
_cell_length_a 16.021830
_cell_length_b 11.007461
_cell_length_c 12.378480
_cell_angle_alpha 69.400195
_cell_angle_beta 36.940383
_cell_angle_gamma 42.413247
_cell_volume 715.901108
_symmetry_space_group_name_H-M "P -1"
_symmetry_group_IT_number 2
_symmetry_cell_setting 'triclinic'
loop_
_space_group_symop_operation_xyz
x,y,z
-x,-y,-z
loop_
_atom_site_type_symbol
_atom_site_label
_atom_site_fract_x
_atom_site_fract_y
_atom_site_fract_z
Si Si1 0.771348 0.158220 0.512136
Si Si2 0.045823 0.178328 0.307964
Si Si3 0.010946 0.282465 0.555312
Si Si4 0.114379 0.223959 0.822366
Si Si5 0.186599 0.633792 0.728703
Si Si6 0.515367 0.997383 0.132502
Si Si7 0.598573 0.795406 0.336282
Si Si8 0.688451 0.602731 0.977669
O O1 0.718336 0.297077 0.424854
O O2 0.970366 0.087177 0.395568
O O3 0.878497 0.936617 0.443894
O O4 0.536653 0.311302 0.777784
O O5 0.968026 0.288810 0.470756
O O6 0.910306 0.344441 0.294035
O O7 0.322627 0.001062 0.059580
O O8 0.787872 0.491276 0.792439
O O9 0.229497 0.217816 0.358629
O O10 0.197137 0.291794 0.776455
O O11 0.910110 0.407592 0.889558
O O12 0.350008 0.993313 0.593706
O O13 0.018991 0.200020 0.021263
O O14 0.346764 0.395996 0.681889
O O15 0.579977 0.892645 0.216471
O O16 0.606638 0.813483 0.015551
#
# Coordination Sequence:
#
# PCOD9007161 Si02
#       8
#     2   2   2   2   2   2   2   2
#     4   9  24  43  62  89 122 171 207 245 307 362
#     4  10  22  43  67  88 123 166 207 254 305 360
#     4  11  23  43  63  92 125 162 209 254 302 365
#     4  11  21  35  63  93 123 161 200 249 311 367
#     4  10  21  39  60  88 118 163 200 248 295 362
#     4  11  21  41  65  94 124 159 204 257 312 356
#     4  11  20  37  62  93 126 156 203 251 306 371
#     4  11  23  39  64  92 127 164 198 254 315 358
#
# _framework density 22.349457000000001
#
# number of rings (size 3 to 8) (size 9 to 14) (size 15 to 20)
#    0.750    0.750    3.750    1.875    0.000    2.500 
#    0.000    5.000    0.000    0.000    0.000    0.000 
#    0.000    0.000    0.000    0.000    0.000    0.000 
#
# Total GULP energy -89411.357639 kJ/mol
# GULP energy per Si atom -5588.209852 kJ/mol
# Density = 2.229859 g / cm^3
# Si number density = 22.349457 Si / 1000 Ang^3
#
#
#
# Elastic Constant Matrix: (Units=GPa)
#
#
# Indices 1 2 3 4 5 6 
#
# 1 89.8795 14.6137 36.5506 -10.8150 -9.7832 6.5285
# 2 14.6137 60.5829 62.4331 -15.8198 -1.9112 1.4259
# 3 36.5506 62.4331 187.8388 -8.1415 -4.2439 29.3526
# 4 -10.8150 -15.8198 -8.1415 31.6798 6.6492 1.4351
# 5 -9.7832 -1.9112 -4.2439 6.6492 47.8363 -10.0581
# 6 6.5285 1.4259 29.3526 1.4351 -10.0581 24.0717
#
#
#
# Elastic Compliance Matrix: (Units=1/GPa)
#
#
# Indices 1 2 3 4 5 6 
#
# 1 0.012668 0.000410 -0.002420 0.003500 0.001924 0.000086
# 2 0.000410 0.031663 -0.011997 0.012048 0.001225 0.012436
# 3 -0.002420 -0.011997 0.011780 -0.002641 -0.002480 -0.013876
# 4 0.003500 0.012048 -0.002641 0.039304 -0.005115 -0.002924
# 5 0.001924 0.001225 -0.002480 -0.005115 0.024572 0.013001
# 6 0.000086 0.012436 -0.013876 -0.002924 0.013001 0.063310
#
#
# Mechanical properties :
#
#
# Convention : Reuss Voigt Hill
#
# Bulk Modulus (GPa) = 35.59021 62.83290 49.21156
# Shear Modulus (GPa) = 22.65777 35.69782 29.17779
#
# Velocity S-wave (km/s) = 3.18747 4.00091 3.61713
# Velocity P-wave (km/s) = 5.43191 7.03689 6.28584
#
# Compressibility (1/GPa) = 0.02809761
#
# Stress axis : x y z
#
# Youngs Moduli (GPa) = 78.94185 31.58269 84.88974
#
# Poissons Ratio (x) = -0.01296 0.20539
# Poissons Ratio (y) = -0.03240 1.01844
# Poissons Ratio (z) = 0.19100 0.37891
#
# Static dielectric constant tensor:
#      x y z
#    x 1.878320 -0.051220 -0.000130 
#    y -0.051220 1.837810 -0.025430 
#    z -0.000130 -0.025430 1.795520 
# 
# From -- ./inp_files/452337.got.cif
#   From: 2010.05.17/outbox.cif.g08.bks.cpg/sg2_227_cif.got.tgz:452337.got - 2010.06.03 11:33:40.
