data_PCOD9007392
_publ_section_title
;
Structure prediction by ZEFSAII (Michael W. Deem and Ramdas Pophale) SiO2 
 PCOD9007392
Probable space group: P -1
;
_chemical_formula_sum "Si O2"
_cell_formula_units_Z 16
_cell_length_a 13.672189
_cell_length_b 13.712182
_cell_length_c 6.586072
_cell_angle_alpha 123.900267
_cell_angle_beta 105.252682
_cell_angle_gamma 40.874265
_cell_volume 641.402345
_symmetry_space_group_name_H-M "P -1"
_symmetry_group_IT_number 2
_symmetry_cell_setting 'triclinic'
loop_
_space_group_symop_operation_xyz
x,y,z
-x,-y,-z
loop_
_atom_site_type_symbol
_atom_site_label
_atom_site_fract_x
_atom_site_fract_y
_atom_site_fract_z
Si Si1 0.350303 0.574048 0.907000
Si Si2 0.276835 0.821625 0.860943
Si Si3 0.065858 0.538734 0.236232
Si Si4 0.818698 0.949162 0.541261
Si Si5 0.401273 0.911327 0.789091
Si Si6 0.983900 0.148462 0.823881
Si Si7 0.779545 0.534982 0.141146
Si Si8 0.282760 0.233853 0.317457
O O1 0.322930 0.649936 0.755266
O O2 0.189967 0.748375 0.139758
O O3 0.500000 0.500000 0.000000
O O4 0.349629 0.435656 0.791884
O O5 0.266781 0.902707 0.160196
O O6 0.392660 0.787795 0.732733
O O7 0.105926 0.985323 0.856425
O O8 0.139148 0.410331 0.316434
O O9 0.933425 0.749009 0.460161
O O10 0.203599 0.479227 0.108390
O O11 0.000000 0.500000 0.000000
O O12 0.697747 0.002453 0.373325
O O13 0.937293 0.919974 0.431243
O O14 0.565725 0.827892 0.748946
O O15 0.313706 0.072286 0.092305
O O16 0.940201 0.325371 0.052238
O O17 0.747375 0.693066 0.388079
#
# Coordination Sequence:
#
# PCOD9007392 Si02
#       8
#     2   2   2   2   2   2   2   2
#     4  10  23  41  63  92 121 159 209 253 295 366
#     4  11  22  40  68  84 126 162 199 252 308 352
#     4  11  22  39  63  94 123 158 208 246 294 375
#     4  10  21  39  61  91 122 157 200 246 305 355
#     4  10  25  39  58  96 121 158 209 245 295 378
#     4   8  20  42  58  92 120 153 207 247 291 370
#     4   9  23  41  64  86 128 158 202 252 305 349
#     4  11  23  41  61  86 130 161 197 253 306 355
#
# _framework density 24.945340000000002
#
# number of rings (size 3 to 8) (size 9 to 14) (size 15 to 20)
#    0.750    1.250    1.250    1.125    5.250    1.000 
#    0.000    4.375    0.000    0.000    0.000    0.000 
#    0.000    0.000    0.000    0.000    0.000    0.000 
#
# Total GULP energy -89428.767907 kJ/mol
# GULP energy per Si atom -5589.297994 kJ/mol
# Density = 2.488856 g / cm^3
# Si number density = 24.945340 Si / 1000 Ang^3
#
#
#
# Elastic Constant Matrix: (Units=GPa)
#
#
# Indices 1 2 3 4 5 6 
#
# 1 111.7845 34.9351 -0.9287 -12.7562 -11.9926 -1.2178
# 2 34.9351 75.0116 3.5378 3.0949 -3.3287 -7.1895
# 3 -0.9287 3.5378 71.7043 18.2861 6.8033 -6.3504
# 4 -12.7562 3.0949 18.2861 28.9377 8.1532 6.5814
# 5 -11.9926 -3.3287 6.8033 8.1532 24.7127 -0.8006
# 6 -1.2178 -7.1895 -6.3504 6.5814 -0.8006 37.9975
#
#
#
# Elastic Compliance Matrix: (Units=1/GPa)
#
#
# Indices 1 2 3 4 5 6 
#
# 1 0.011777 -0.005722 -0.001690 0.006425 0.003224 -0.002033
# 2 -0.005722 0.016680 0.000943 -0.006266 0.001415 0.004245
# 3 -0.001690 0.000943 0.017760 -0.012957 -0.001135 0.005313
# 4 0.006425 -0.006266 -0.012957 0.052426 -0.011860 -0.012476
# 5 0.003224 0.001415 -0.001135 -0.011860 0.046550 0.003216
# 6 -0.002033 0.004245 0.005313 -0.012476 0.003216 0.030172
#
#
# Mechanical properties :
#
#
# Convention : Reuss Voigt Hill
#
# Bulk Modulus (GPa) = 30.04865 37.06543 33.55704
# Shear Modulus (GPa) = 25.07576 33.06000 29.06788
#
# Velocity S-wave (km/s) = 3.17397 3.64441 3.41730
# Velocity P-wave (km/s) = 5.05016 5.70963 5.38999
#
# Compressibility (1/GPa) = 0.03327936
#
# Stress axis : x y z
#
# Youngs Moduli (GPa) = 84.91197 59.95222 56.30532
#
# Poissons Ratio (x) = 0.34305 0.09513
# Poissons Ratio (y) = 0.48587 -0.05308
# Poissons Ratio (z) = 0.14346 -0.05651
#
# Static dielectric constant tensor:
#      x y z
#    x 2.112550 0.060880 0.036010 
#    y 0.060880 1.939190 0.043420 
#    z 0.036010 0.043420 2.003280 
# 
# From -- ./inp_files/98616.got.cif
#   From: 2010.05.17/outbox.cif.g08.bks.cpg/sg2_50_cif.got.tgz:98616.got - 2010.06.03 11:33:40.
