data_PCOD9007944
_publ_section_title
;
Structure prediction by ZEFSAII (Michael W. Deem and Ramdas Pophale) SiO2 
 PCOD9007944
Probable space group: P -1
;
_chemical_formula_sum "Si O2"
_cell_formula_units_Z 14
_cell_length_a 16.383320
_cell_length_b 15.592603
_cell_length_c 8.815577
_cell_angle_alpha 115.090686
_cell_angle_beta 134.068682
_cell_angle_gamma 26.849400
_cell_volume 581.612302
_symmetry_space_group_name_H-M "P -1"
_symmetry_group_IT_number 2
_symmetry_cell_setting 'triclinic'
loop_
_space_group_symop_operation_xyz
x,y,z
-x,-y,-z
loop_
_atom_site_type_symbol
_atom_site_label
_atom_site_fract_x
_atom_site_fract_y
_atom_site_fract_z
Si Si1 0.554948 0.581955 0.930171
Si Si2 0.679414 0.595559 0.543999
Si Si3 0.332082 0.935746 0.087800
Si Si4 0.676451 0.407699 0.522168
Si Si5 0.935032 0.792891 0.507277
Si Si6 0.321079 0.355793 0.092106
Si Si7 0.664713 0.820741 0.216433
O O1 0.332563 0.669909 0.670459
O O2 0.671067 0.548959 0.907390
O O3 0.431972 0.761457 0.006401
O O4 0.823251 0.336191 0.186393
O O5 0.467094 0.824256 0.345931
O O6 0.527533 0.615589 0.420176
O O7 0.786312 0.561246 0.812018
O O8 0.921413 0.367237 0.574197
O O9 0.472116 0.915946 0.162840
O O10 0.993595 0.192904 0.822958
O O11 0.500000 0.500000 0.500000
O O12 0.846671 0.768689 0.474449
O O13 0.657733 0.066728 0.317569
O O14 0.176371 0.385988 0.822676
O O15 0.500000 0.000000 0.000000
#
# Coordination Sequence:
#
# PCOD9007944 Si02
#       7
#     2   2   2   2   2   2   2
#     4  10  22  41  63  92 123 174 209 254 321 372
#     4  11  24  40  63  99 126 167 213 259 313 381
#     4  10  24  41  66  92 129 164 216 257 315 378
#     4  12  24  40  63  93 131 164 212 265 312 373
#     4  10  23  42  66  92 130 162 212 261 314 378
#     4  10  21  39  63  91 131 166 206 257 315 372
#     4   9  19  43  68  91 126 170 203 262 317 373
#
# _framework density 24.071017000000001
#
# number of rings (size 3 to 8) (size 9 to 14) (size 15 to 20)
#    0.000    1.714    1.429    3.000    2.000    9.714 
#    0.000    2.857    0.000    0.000    0.000    1.000 
#    0.000    0.000    0.000    0.000    0.000    0.000 
#
# Total GULP energy -78233.380807 kJ/mol
# GULP energy per Si atom -5588.098629 kJ/mol
# Density = 2.401623 g / cm^3
# Si number density = 24.071017 Si / 1000 Ang^3
#
#
#
# Elastic Constant Matrix: (Units=GPa)
#
#
# Indices 1 2 3 4 5 6 
#
# 1 128.5997 -1.6880 21.5584 -5.8779 -4.8546 -0.0776
# 2 -1.6880 43.6654 11.2602 -4.3457 -0.2784 -9.5957
# 3 21.5584 11.2602 61.0272 -12.7308 -1.8364 -8.3556
# 4 -5.8779 -4.3457 -12.7308 27.6144 10.6771 0.5880
# 5 -4.8546 -0.2784 -1.8364 10.6771 35.6916 -1.1916
# 6 -0.0776 -9.5957 -8.3556 0.5880 -1.1916 31.5926
#
#
#
# Elastic Compliance Matrix: (Units=1/GPa)
#
#
# Indices 1 2 3 4 5 6 
#
# 1 0.008360 0.001055 -0.003153 0.000144 0.000925 -0.000461
# 2 0.001055 0.025622 -0.003648 0.002582 -0.000391 0.006757
# 3 -0.003153 -0.003648 0.020524 0.008872 -0.001919 0.004075
# 4 0.000144 0.002582 0.008872 0.045783 -0.013140 0.001783
# 5 0.000925 -0.000391 -0.001919 -0.013140 0.032000 0.000827
# 6 -0.000461 0.006757 0.004075 0.001783 0.000827 0.034780
#
#
# Mechanical properties :
#
#
# Convention : Reuss Voigt Hill
#
# Bulk Modulus (GPa) = 23.24816 32.83926 28.04371
# Shear Modulus (GPa) = 25.92024 32.45718 29.18871
#
# Velocity S-wave (km/s) = 3.28506 3.67603 3.48603
# Velocity P-wave (km/s) = 4.90591 5.62938 5.28005
#
# Compressibility (1/GPa) = 0.04301415
#
# Stress axis : x y z
#
# Youngs Moduli (GPa) = 119.62147 39.02822 48.72333
#
# Poissons Ratio (x) = -0.04118 0.15362
# Poissons Ratio (y) = -0.12623 0.17776
# Poissons Ratio (z) = 0.37717 0.14239
#
# Static dielectric constant tensor:
#      x y z
#    x 1.943550 -0.030590 -0.030750 
#    y -0.030590 1.973530 0.035530 
#    z -0.030750 0.035530 1.997920 
# 
# From -- ./inp_files/221061.got.cif
#   From: 2010.05.17/outbox.cif.g08.bks.cpg/sg2_111_cif.got.tgz:221061.got - 2010.06.03 11:33:40.
