data_PCOD9007639
_publ_section_title
;
Structure prediction by ZEFSAII (Michael W. Deem and Ramdas Pophale) SiO2 
 PCOD9007639
Probable space group: P -1
;
_chemical_formula_sum "Si O2"
_cell_formula_units_Z 12
_cell_length_a 7.136562
_cell_length_b 7.082791
_cell_length_c 18.131668
_cell_angle_alpha 68.328572
_cell_angle_beta 134.922726
_cell_angle_gamma 120.142147
_cell_volume 561.025901
_symmetry_space_group_name_H-M "P -1"
_symmetry_group_IT_number 2
_symmetry_cell_setting 'triclinic'
loop_
_space_group_symop_operation_xyz
x,y,z
-x,-y,-z
loop_
_atom_site_type_symbol
_atom_site_label
_atom_site_fract_x
_atom_site_fract_y
_atom_site_fract_z
Si Si1 0.298902 0.540277 0.499410
Si Si2 0.703756 0.499892 0.180943
Si Si3 0.817146 0.117487 0.674179
Si Si4 0.357919 0.680542 0.653229
Si Si5 0.263224 0.704651 0.016344
Si Si6 0.722456 0.083623 0.161750
O O1 0.500000 0.500000 0.500000
O O2 0.408941 0.564633 0.609904
O O3 0.978693 0.363205 0.433177
O O4 0.268136 0.768003 0.435005
O O5 0.586710 0.429513 0.241494
O O6 0.503884 0.610362 0.071798
O O7 0.708897 0.284576 0.175150
O O8 0.014094 0.685292 0.251909
O O9 0.553030 0.932516 0.664817
O O10 0.045759 0.009888 0.731121
O O11 0.420393 0.885661 0.095615
O O12 0.187146 0.826368 0.909077
O O13 0.000000 0.500000 0.000000
#
# Coordination Sequence:
#
# PCOD9007639 Si02
#       6
#     2   2   2   2   2   2
#     4  10  23  43  64  91 125 164 208 258 308 367
#     4  10  22  40  60  96 123 164 209 251 311 366
#     4  10  22  40  61  90 125 158 209 258 299 372
#     4  10  22  41  62  93 125 158 213 250 308 375
#     4  10  21  39  62  90 126 163 208 252 301 376
#     4  10  22  39  63  88 128 162 201 262 305 358
#
# _framework density 21.389386999999999
#
# number of rings (size 3 to 8) (size 9 to 14) (size 15 to 20)
#    0.000    2.000    0.000    2.000    4.667    2.667 
#   12.000    0.000    0.000    0.000    0.000    0.000 
#    0.000    0.000    0.000    0.000    0.000    0.000 
#
# Total GULP energy -67057.357626 kJ/mol
# GULP energy per Si atom -5588.113135 kJ/mol
# Density = 2.134070 g / cm^3
# Si number density = 21.389387 Si / 1000 Ang^3
#
#
#
# Elastic Constant Matrix: (Units=GPa)
#
#
# Indices 1 2 3 4 5 6 
#
# 1 85.7291 49.7649 21.3403 20.5773 -3.5694 5.5104
# 2 49.7649 152.9815 21.2167 23.9314 10.6958 12.9394
# 3 21.3403 21.2167 47.8264 -9.8405 -4.7844 -6.4631
# 4 20.5773 23.9314 -9.8405 36.5704 4.1404 6.3950
# 5 -3.5694 10.6958 -4.7844 4.1404 15.7339 1.3649
# 6 5.5104 12.9394 -6.4631 6.3950 1.3649 63.6616
#
#
#
# Elastic Compliance Matrix: (Units=1/GPa)
#
#
# Indices 1 2 3 4 5 6 
#
# 1 0.018970 -0.003665 -0.008537 -0.011254 0.007229 -0.000788
# 2 -0.003665 0.009695 -0.004523 -0.004385 -0.007513 -0.001511
# 3 -0.008537 -0.004523 0.030831 0.014788 0.006347 0.003167
# 4 -0.011254 -0.004385 0.014788 0.041306 -0.005889 -0.000657
# 5 0.007229 -0.007513 0.006347 -0.005889 0.073736 0.000556
# 6 -0.000788 -0.001511 0.003167 -0.000657 0.000556 0.016459
#
#
# Mechanical properties :
#
#
# Convention : Reuss Voigt Hill
#
# Bulk Modulus (GPa) = 38.39685 52.35341 45.37513
# Shear Modulus (GPa) = 21.44714 36.14086 28.79400
#
# Velocity S-wave (km/s) = 3.16998 4.11501 3.67302
# Velocity P-wave (km/s) = 5.60256 6.86347 6.26482
#
# Compressibility (1/GPa) = 0.02604380
#
# Stress axis : x y z
#
# Youngs Moduli (GPa) = 52.71375 103.14178 32.43529
#
# Poissons Ratio (x) = 0.37805 0.27692
# Poissons Ratio (y) = 0.19321 0.14672
# Poissons Ratio (z) = 0.45004 0.46656
#
# Static dielectric constant tensor:
#      x y z
#    x 1.756510 0.008480 0.001460 
#    y 0.008480 1.769650 0.013970 
#    z 0.001460 0.013970 1.820040 
# 
# From -- ./inp_files/8646.got.cif
#   From: 2010.05.17/outbox.cif.g08.bks.cpg/sg2_5_cif.got.tgz:8646.got - 2010.06.03 11:33:40.
