data_PCOD9007463
_publ_section_title
;
Structure prediction by ZEFSAII (Michael W. Deem and Ramdas Pophale) SiO2 
 PCOD9007463
Probable space group: P -1
;
_chemical_formula_sum "Si O2"
_cell_formula_units_Z 16
_cell_length_a 11.846036
_cell_length_b 14.985992
_cell_length_c 8.921896
_cell_angle_alpha 70.197015
_cell_angle_beta 67.003782
_cell_angle_gamma 128.326162
_cell_volume 679.166752
_symmetry_space_group_name_H-M "P -1"
_symmetry_group_IT_number 2
_symmetry_cell_setting 'triclinic'
loop_
_space_group_symop_operation_xyz
x,y,z
-x,-y,-z
loop_
_atom_site_type_symbol
_atom_site_label
_atom_site_fract_x
_atom_site_fract_y
_atom_site_fract_z
Si Si1 0.161850 0.376094 0.852030
Si Si2 0.848264 0.484548 0.946483
Si Si3 0.935040 0.898889 0.827798
Si Si4 0.739487 0.151491 0.984125
Si Si5 0.579753 0.762032 0.286452
Si Si6 0.518981 0.860223 0.019255
Si Si7 0.639176 0.793002 0.786365
Si Si8 0.378372 0.797572 0.544313
O O1 0.119435 0.420148 0.986555
O O2 0.440626 0.579579 0.533541
O O3 0.092497 0.225205 0.026535
O O4 0.994236 0.296996 0.845693
O O5 0.653376 0.401588 0.983257
O O6 0.717778 0.303417 0.188590
O O7 0.124585 0.640102 0.669643
O O8 0.746921 0.788034 0.847600
O O9 0.840394 0.907380 0.999473
O O10 0.202491 0.103736 0.506046
O O11 0.537147 0.995870 0.309587
O O12 0.699626 0.228211 0.893428
O O13 0.666733 0.030375 0.955731
O O14 0.553716 0.829173 0.380255
O O15 0.442577 0.718968 0.239789
O O16 0.688457 0.927768 0.764275
#
# Coordination Sequence:
#
# PCOD9007463 Si02
#       8
#     2   2   2   2   2   2   2   2
#     4  11  23  38  64  93 125 161 204 256 303 360
#     4  10  22  38  60  98 124 163 195 254 320 358
#     4  10  22  43  62  90 120 169 211 246 302 361
#     4  10  21  39  61  95 123 161 200 255 306 368
#     4   9  20  42  61  86 124 161 207 250 297 360
#     4   9  21  40  60  90 123 159 204 245 313 360
#     4  10  22  42  65  87 125 164 205 252 303 372
#     4   9  20  38  60  91 129 156 207 245 310 368
#
# _framework density 23.558281000000001
#
# number of rings (size 3 to 8) (size 9 to 14) (size 15 to 20)
#    0.000    2.250    0.000    1.125    7.000    1.500 
#   11.250   23.125    0.000    0.000    0.000    0.000 
#    0.000    0.000    0.000    0.000    0.000    0.000 
#
# Total GULP energy -89335.416495 kJ/mol
# GULP energy per Si atom -5583.463531 kJ/mol
# Density = 2.350466 g / cm^3
# Si number density = 23.558281 Si / 1000 Ang^3
#
#
#
# Elastic Constant Matrix: (Units=GPa)
#
#
# Indices 1 2 3 4 5 6 
#
# 1 134.7582 38.8869 11.5072 3.8435 3.3715 10.4283
# 2 38.8869 73.4693 12.0795 5.0139 -16.7838 16.7318
# 3 11.5072 12.0795 79.7236 11.6298 -10.9548 -12.6155
# 4 3.8435 5.0139 11.6298 20.5189 -7.6914 -2.9470
# 5 3.3715 -16.7838 -10.9548 -7.6914 27.7597 1.2420
# 6 10.4283 16.7318 -12.6155 -2.9470 1.2420 41.5938
#
#
#
# Elastic Compliance Matrix: (Units=1/GPa)
#
#
# Indices 1 2 3 4 5 6 
#
# 1 0.009432 -0.005930 -0.001000 -0.001901 -0.005641 -0.000249
# 2 -0.005930 0.022109 -0.002037 0.000870 0.013900 -0.008378
# 3 -0.001000 -0.002037 0.015093 -0.006028 0.002946 0.005133
# 4 -0.001901 0.000870 -0.006028 0.057958 0.014348 0.001977
# 5 -0.005641 0.013900 0.002946 0.014348 0.050419 -0.003772
# 6 -0.000249 -0.008378 0.005133 0.001977 -0.003772 0.029284
#
#
# Mechanical properties :
#
#
# Convention : Reuss Voigt Hill
#
# Bulk Modulus (GPa) = 34.84362 45.87759 40.36061
# Shear Modulus (GPa) = 23.60776 33.00629 28.30702
#
# Velocity S-wave (km/s) = 3.16903 3.74712 3.47013
# Velocity P-wave (km/s) = 5.31158 6.18365 5.76413
#
# Compressibility (1/GPa) = 0.02869966
#
# Stress axis : x y z
#
# Youngs Moduli (GPa) = 106.02228 45.23100 66.25761
#
# Poissons Ratio (x) = 0.26823 0.06626
# Poissons Ratio (y) = 0.62873 0.13494
# Poissons Ratio (z) = 0.10603 0.09212
#
# Static dielectric constant tensor:
#      x y z
#    x 1.894530 0.021900 -0.007690 
#    y 0.021900 1.945010 0.053270 
#    z -0.007690 0.053270 1.899140 
# 
# From -- ./inp_files/279283.got.cif
#   From: 2010.05.17/outbox.cif.g08.bks.cpg/sg2_140_cif.got.tgz:279283.got - 2010.06.03 11:33:40.
