data_PCOD9007311
_publ_section_title
;
Structure prediction by ZEFSAII (Michael W. Deem and Ramdas Pophale) SiO2 
 PCOD9007311
Probable space group: P -1
;
_chemical_formula_sum "Si O2"
_cell_formula_units_Z 14
_cell_length_a 10.821689
_cell_length_b 24.804114
_cell_length_c 7.553623
_cell_angle_alpha 49.996841
_cell_angle_beta 48.120977
_cell_angle_gamma 21.306955
_cell_volume 546.907677
_symmetry_space_group_name_H-M "P -1"
_symmetry_group_IT_number 2
_symmetry_cell_setting 'triclinic'
loop_
_space_group_symop_operation_xyz
x,y,z
-x,-y,-z
loop_
_atom_site_type_symbol
_atom_site_label
_atom_site_fract_x
_atom_site_fract_y
_atom_site_fract_z
Si Si1 0.125151 0.142374 0.822413
Si Si2 0.217710 0.848758 0.085736
Si Si3 0.609442 0.594336 0.408338
Si Si4 0.465318 0.913441 0.239528
Si Si5 0.369592 0.447119 0.931955
Si Si6 0.843901 0.349162 0.100325
Si Si7 0.615364 0.708283 0.634420
O O1 0.437769 0.081507 0.681330
O O2 0.041030 0.120036 0.789366
O O3 0.773917 0.320393 0.799174
O O4 0.170705 0.068239 0.094627
O O5 0.459430 0.729873 0.266414
O O6 0.472152 0.767557 0.846979
O O7 0.000000 0.000000 0.000000
O O8 0.704382 0.548097 0.207541
O O9 0.293023 0.664943 0.626858
O O10 0.969225 0.436623 0.488071
O O11 0.421195 0.846283 0.437344
O O12 0.811031 0.794086 0.038338
O O13 0.105310 0.604589 0.914144
O O14 0.396462 0.372291 0.202335
O O15 0.500000 0.500000 0.000000
#
# Coordination Sequence:
#
# PCOD9007311 Si02
#       7
#     2   2   2   2   2   2   2
#     4   9  21  40  57  84 124 162 197 245 307 359
#     4  10  23  42  63  90 118 159 210 250 299 363
#     4  10  21  41  63  86 123 160 197 255 302 351
#     4  11  22  38  60  90 125 161 200 247 306 365
#     4  10  21  39  61  87 120 159 201 251 306 349
#     4  12  22  38  60  92 119 157 210 245 289 366
#     4  10  21  39  62  89 120 159 198 249 308 356
#
# _framework density 25.598471
#
# number of rings (size 3 to 8) (size 9 to 14) (size 15 to 20)
#    0.000    2.000    2.857    2.143    0.000    8.571 
#    2.571    3.571    0.000    0.000    0.000    0.000 
#    0.000    0.000    0.000    0.000    0.000    0.000 
#
# Total GULP energy -78113.107744 kJ/mol
# GULP energy per Si atom -5579.507696 kJ/mol
# Density = 2.554021 g / cm^3
# Si number density = 25.598471 Si / 1000 Ang^3
#
#
#
# Elastic Constant Matrix: (Units=GPa)
#
#
# Indices 1 2 3 4 5 6 
#
# 1 30.6060 10.7520 2.0672 7.3528 -3.4845 10.1953
# 2 10.7520 111.9054 24.6977 -7.5254 0.9019 20.0823
# 3 2.0672 24.6977 103.1258 -4.9998 -10.3945 15.4176
# 4 7.3528 -7.5254 -4.9998 37.8872 -1.6379 -1.7164
# 5 -3.4845 0.9019 -10.3945 -1.6379 18.2361 -5.7948
# 6 10.1953 20.0823 15.4176 -1.7164 -5.7948 43.1154
#
#
#
# Elastic Compliance Matrix: (Units=1/GPa)
#
#
# Indices 1 2 3 4 5 6 
#
# 1 0.038843 -0.003204 0.001272 -0.008139 0.005100 -0.007786
# 2 -0.003204 0.010561 -0.002138 0.002122 -0.003359 -0.003764
# 3 0.001272 -0.002138 0.011207 0.000957 0.006040 -0.002463
# 4 -0.008139 0.002122 0.000957 0.028704 0.002105 0.002020
# 5 0.005100 -0.003359 0.006040 0.002105 0.061698 0.006575
# 6 -0.007786 -0.003764 -0.002463 0.002020 0.006575 0.028632
#
#
# Mechanical properties :
#
#
# Convention : Reuss Voigt Hill
#
# Bulk Modulus (GPa) = 19.05820 35.63011 27.34415
# Shear Modulus (GPa) = 24.35763 33.72244 29.04003
#
# Velocity S-wave (km/s) = 3.08803 3.63348 3.37180
# Velocity P-wave (km/s) = 4.49175 5.61712 5.08566
#
# Compressibility (1/GPa) = 0.05247086
#
# Stress axis : x y z
#
# Youngs Moduli (GPa) = 25.74496 94.68773 89.23168
#
# Poissons Ratio (x) = 0.30338 -0.11353
# Poissons Ratio (y) = 0.08249 0.19078
# Poissons Ratio (z) = -0.03275 0.20244
#
# Static dielectric constant tensor:
#      x y z
#    x 2.220100 -0.009170 -0.027730 
#    y -0.009170 1.985730 -0.014570 
#    z -0.027730 -0.014570 2.016470 
# 
# From -- ./inp_files/244348.got.cif
#   From: 2010.05.17/outbox.cif.g08.bks.cpg/sg2_123_cif.got.tgz:244348.got - 2010.06.03 11:33:40.
