data_PCOD9007529
_publ_section_title
;
Structure prediction by ZEFSAII (Michael W. Deem and Ramdas Pophale) SiO2 
 PCOD9007529
Probable space group: P -1
;
_chemical_formula_sum "Si O2"
_cell_formula_units_Z 12
_cell_length_a 11.535935
_cell_length_b 9.247729
_cell_length_c 8.542225
_cell_angle_alpha 45.366372
_cell_angle_beta 78.867377
_cell_angle_gamma 51.023233
_cell_volume 450.256387
_symmetry_space_group_name_H-M "P -1"
_symmetry_group_IT_number 2
_symmetry_cell_setting 'triclinic'
loop_
_space_group_symop_operation_xyz
x,y,z
-x,-y,-z
loop_
_atom_site_type_symbol
_atom_site_label
_atom_site_fract_x
_atom_site_fract_y
_atom_site_fract_z
Si Si1 0.619724 0.527520 0.024592
Si Si2 0.593451 0.191560 0.856819
Si Si3 0.189255 0.729312 0.116366
Si Si4 0.720033 0.835797 0.784057
Si Si5 0.829436 0.596338 0.429598
Si Si6 0.993957 0.241629 0.360098
O O1 0.781625 0.274495 0.072083
O O2 0.605191 0.787538 0.792766
O O3 0.582606 0.567314 0.190428
O O4 0.500000 0.500000 0.000000
O O5 0.693203 0.906441 0.153240
O O6 0.616777 0.087055 0.753009
O O7 0.695744 0.270418 0.805433
O O8 0.228531 0.453575 0.366803
O O9 0.000000 0.000000 0.000000
O O10 0.824755 0.864316 0.624235
O O11 0.868303 0.526125 0.066261
O O12 0.000000 0.500000 0.500000
O O13 0.897006 0.367064 0.453043
O O14 0.000000 0.000000 0.500000
#
# Coordination Sequence:
#
# PCOD9007529 Si02
#       6
#     2   2   2   2   2   2
#     4  10  23  40  62  90 121 168 199 248 311 357
#     4  10  22  40  59  88 122 161 200 249 302 360
#     4  11  22  37  62  87 121 157 200 250 299 355
#     4  10  21  39  62  86 125 158 205 246 304 361
#     4  11  21  35  59  89 119 156 202 247 297 353
#     4  10  22  35  60  95 119 156 200 256 301 350
#
# _framework density 26.651481
#
# number of rings (size 3 to 8) (size 9 to 14) (size 15 to 20)
#    0.000    1.667    1.667    2.500    7.000    0.667 
#    0.000    3.333    0.000   12.000    0.000    0.000 
#    0.000    0.000    0.000    0.000    0.000    0.000 
#
# Total GULP energy -67058.781015 kJ/mol
# GULP energy per Si atom -5588.231751 kJ/mol
# Density = 2.659082 g / cm^3
# Si number density = 26.651481 Si / 1000 Ang^3
#
#
#
# Elastic Constant Matrix: (Units=GPa)
#
#
# Indices 1 2 3 4 5 6 
#
# 1 149.9345 70.6606 25.5513 10.0608 -40.8922 8.9328
# 2 70.6606 180.6925 27.6491 12.0761 -14.9204 -10.9498
# 3 25.5513 27.6491 100.1578 3.6767 -15.8159 -15.1685
# 4 10.0608 12.0761 3.6767 33.5721 -10.4960 -8.2768
# 5 -40.8922 -14.9204 -15.8159 -10.4960 44.5094 -1.7578
# 6 8.9328 -10.9498 -15.1685 -8.2768 -1.7578 52.3749
#
#
#
# Elastic Compliance Matrix: (Units=1/GPa)
#
#
# Indices 1 2 3 4 5 6 
#
# 1 0.010990 -0.003629 -0.000853 0.000130 0.008506 -0.002574
# 2 -0.003629 0.007171 -0.001017 -0.001498 -0.001584 0.001534
# 3 -0.000853 -0.001017 0.011518 0.001315 0.003420 0.003591
# 4 0.000130 -0.001498 0.001315 0.034170 0.008369 0.005726
# 5 0.008506 -0.001584 0.003420 0.008369 0.033004 0.001639
# 6 -0.002574 0.001534 0.003591 0.005726 0.001639 0.021853
#
#
# Mechanical properties :
#
#
# Convention : Reuss Voigt Hill
#
# Bulk Modulus (GPa) = 53.53033 75.38964 64.45998
# Shear Modulus (GPa) = 36.78286 46.55285 41.66786
#
# Velocity S-wave (km/s) = 3.71906 4.18392 3.95832
# Velocity P-wave (km/s) = 6.21054 7.18950 6.71787
#
# Compressibility (1/GPa) = 0.01868100
#
# Stress axis : x y z
#
# Youngs Moduli (GPa) = 90.99214 139.44333 86.81870
#
# Poissons Ratio (x) = 0.50610 0.07407
# Poissons Ratio (y) = 0.33025 0.08827
# Poissons Ratio (z) = 0.07763 0.14177
#
# Static dielectric constant tensor:
#      x y z
#    x 2.095660 -0.024570 -0.009220 
#    y -0.024570 2.207400 -0.054200 
#    z -0.009220 -0.054200 2.062230 
# 
# From -- ./inp_files/94184.got.cif
#   From: 2010.05.17/outbox.cif.g08.bks.cpg/sg2_48_cif.got.tgz:94184.got - 2010.06.03 11:33:40.
