data_PCOD9007044
_publ_section_title
;
Structure prediction by ZEFSAII (Michael W. Deem and Ramdas Pophale) SiO2 
 PCOD9007044
Probable space group: P -1
;
_chemical_formula_sum "Si O2"
_cell_formula_units_Z 16
_cell_length_a 7.248229
_cell_length_b 23.590886
_cell_length_c 21.053952
_cell_angle_alpha 159.934057
_cell_angle_beta 131.269587
_cell_angle_gamma 58.788472
_cell_volume 853.656739
_symmetry_space_group_name_H-M "P -1"
_symmetry_group_IT_number 2
_symmetry_cell_setting 'triclinic'
loop_
_space_group_symop_operation_xyz
x,y,z
-x,-y,-z
loop_
_atom_site_type_symbol
_atom_site_label
_atom_site_fract_x
_atom_site_fract_y
_atom_site_fract_z
Si Si1 0.799140 0.012761 0.567515
Si Si2 0.596557 0.222005 0.433474
Si Si3 0.600794 0.325536 0.684956
Si Si4 0.359863 0.379022 0.432290
Si Si5 0.175688 0.886703 0.937797
Si Si6 0.589749 0.780677 0.859145
Si Si7 0.034731 0.080447 0.356942
Si Si8 0.099983 0.266767 0.793964
O O1 0.993479 0.186783 0.755419
O O2 0.500000 0.000000 0.500000
O O3 0.925714 0.994688 0.644630
O O4 0.788489 0.854496 0.350061
O O5 0.592807 0.314161 0.595548
O O6 0.501671 0.318303 0.457541
O O7 0.875713 0.209382 0.467699
O O8 0.386077 0.012808 0.169063
O O9 0.322779 0.194097 0.512824
O O10 0.836666 0.267126 0.699924
O O11 0.685424 0.530832 0.941099
O O12 0.491210 0.591339 0.674854
O O13 0.381180 0.272742 0.262115
O O14 0.042533 0.304833 0.293879
O O15 0.361233 0.859777 0.897014
O O16 0.000000 0.000000 0.000000
O O17 0.854149 0.923941 0.103075
#
# Coordination Sequence:
#
# PCOD9007044 Si02
#       8
#     2   2   2   2   2   2   2   2
#     4  11  22  43  65  90 122 162 197 249 312 361
#     4  10  22  37  60  89 124 160 204 251 297 365
#     4  11  22  41  60  92 121 156 205 251 298 363
#     4  10  21  39  59  88 122 161 202 248 308 351
#     4   9  19  36  61  83 114 163 196 243 300 352
#     4  10  22  38  60  90 122 156 205 255 294 365
#     4  11  23  39  62  91 123 161 203 250 304 360
#     4  10  24  40  64  89 120 159 202 250 303 365
#
# _framework density 18.742896999999999
#
# number of rings (size 3 to 8) (size 9 to 14) (size 15 to 20)
#    0.000    1.750    2.500    1.125    1.750    8.000 
#    0.000    0.000    0.000    0.000    0.000    0.000 
#    0.000    0.000    0.000    0.000    0.000    0.000 
#
# Total GULP energy -89273.026771 kJ/mol
# GULP energy per Si atom -5579.564173 kJ/mol
# Density = 1.870024 g / cm^3
# Si number density = 18.742897 Si / 1000 Ang^3
#
#
#
# Elastic Constant Matrix: (Units=GPa)
#
#
# Indices 1 2 3 4 5 6 
#
# 1 103.0873 40.8091 61.1891 -5.5175 5.2114 -1.3138
# 2 40.8091 88.1745 31.0349 -1.9920 -0.3743 14.1882
# 3 61.1891 31.0349 88.2952 -2.2286 22.9499 -2.6132
# 4 -5.5175 -1.9920 -2.2286 24.0842 1.7694 -1.4819
# 5 5.2114 -0.3743 22.9499 1.7694 21.4422 2.6955
# 6 -1.3138 14.1882 -2.6132 -1.4819 2.6955 31.5065
#
#
#
# Elastic Compliance Matrix: (Units=1/GPa)
#
#
# Indices 1 2 3 4 5 6 
#
# 1 0.019782 -0.003759 -0.015243 0.002009 0.011227 0.000387
# 2 -0.003759 0.016527 -0.005713 -0.001195 0.008529 -0.008859
# 3 -0.015243 -0.005713 0.032579 0.001889 -0.032363 0.007497
# 4 0.002009 -0.001195 0.001889 0.042739 -0.006478 0.003343
# 5 0.011227 0.008529 -0.032363 -0.006478 0.080900 -0.013283
# 6 0.000387 -0.008859 0.007497 0.003343 -0.013283 0.037660
#
#
# Mechanical properties :
#
#
# Convention : Reuss Voigt Hill
#
# Bulk Modulus (GPa) = 51.39902 60.62480 56.01191
# Shear Modulus (GPa) = 17.47625 25.17484 21.32555
#
# Velocity S-wave (km/s) = 3.05687 3.66890 3.37678
# Velocity P-wave (km/s) = 6.31997 7.09672 6.71958
#
# Compressibility (1/GPa) = 0.01945562
#
# Stress axis : x y z
#
# Youngs Moduli (GPa) = 50.55181 60.50881 30.69480
#
# Poissons Ratio (x) = 0.22748 0.46790
# Poissons Ratio (y) = 0.19005 0.17535
# Poissons Ratio (z) = 0.77059 0.34567
#
# Static dielectric constant tensor:
#      x y z
#    x 1.646020 0.000160 0.006260 
#    y 0.000160 1.645570 0.020960 
#    z 0.006260 0.020960 1.731550 
# 
# From -- ./inp_files/48895.got.cif
#   From: 2010.05.17/outbox.cif.g08.bks.cpg/sg2_25_cif.got.tgz:48895.got - 2010.06.03 11:33:40.
