data_PCOD9007932
_publ_section_title
;
Structure prediction by ZEFSAII (Michael W. Deem and Ramdas Pophale) SiO2 
 PCOD9007932
Probable space group: P -1
;
_chemical_formula_sum "Si O2"
_cell_formula_units_Z 16
_cell_length_a 11.393315
_cell_length_b 9.317568
_cell_length_c 12.348970
_cell_angle_alpha 50.225463
_cell_angle_beta 124.045539
_cell_angle_gamma 102.337599
_cell_volume 813.070338
_symmetry_space_group_name_H-M "P -1"
_symmetry_group_IT_number 2
_symmetry_cell_setting 'triclinic'
loop_
_space_group_symop_operation_xyz
x,y,z
-x,-y,-z
loop_
_atom_site_type_symbol
_atom_site_label
_atom_site_fract_x
_atom_site_fract_y
_atom_site_fract_z
Si Si1 0.408221 0.153481 0.798739
Si Si2 0.205748 0.098192 0.545645
Si Si3 0.344078 0.388048 0.349023
Si Si4 0.128779 0.113161 0.007142
Si Si5 0.621297 0.260840 0.684837
Si Si6 0.140390 0.458042 0.013762
Si Si7 0.147881 0.389491 0.688246
Si Si8 0.886090 0.286104 0.327279
O O1 0.326422 0.044000 0.725508
O O2 0.513471 0.249717 0.734897
O O3 0.281683 0.304844 0.720089
O O4 0.500000 0.000000 0.000000
O O5 0.268390 0.220925 0.431082
O O6 0.060586 0.232965 0.455219
O O7 0.163918 0.906316 0.578596
O O8 0.515802 0.318999 0.498723
O O9 0.297518 0.574405 0.314254
O O10 0.283226 0.431186 0.176300
O O11 0.129293 0.274843 0.021549
O O12 0.273637 0.945424 0.173754
O O13 0.122160 0.220626 0.836013
O O14 0.000000 0.000000 0.000000
O O15 0.137836 0.634913 0.845520
O O16 0.000000 0.500000 0.000000
O O17 0.188309 0.546101 0.713201
O O18 0.000000 0.500000 0.500000
#
# Coordination Sequence:
#
# PCOD9007932 Si02
#       8
#     2   2   2   2   2   2   2   2
#     4  11  22  40  66  93 128 169 215 256 321 382
#     4  10  21  39  63  91 126 168 207 267 308 385
#     4  10  22  41  65  87 127 170 214 259 320 380
#     4  11  25  40  65  97 130 163 218 268 317 386
#     4  10  23  42  66  93 125 172 215 265 323 379
#     4  11  22  38  62  91 127 168 208 264 320 380
#     4  11  23  41  64  97 127 165 212 266 312 376
#     4  10  22  38  62  94 129 162 214 260 322 366
#
# _framework density 19.678494000000001
#
# number of rings (size 3 to 8) (size 9 to 14) (size 15 to 20)
#    0.000    1.500    3.750    0.750    3.500    3.500 
#    0.000    3.125    0.000    0.000    0.000    0.000 
#    0.000    0.000    0.000    0.000    0.000    0.000 
#
# Total GULP energy -89288.349788 kJ/mol
# GULP energy per Si atom -5580.521862 kJ/mol
# Density = 1.963371 g / cm^3
# Si number density = 19.678494 Si / 1000 Ang^3
#
#
#
# Elastic Constant Matrix: (Units=GPa)
#
#
# Indices 1 2 3 4 5 6 
#
# 1 76.2075 31.5868 23.5865 -7.9463 5.4833 -5.5833
# 2 31.5868 63.0242 24.7424 -12.0276 -2.1182 6.7823
# 3 23.5865 24.7424 135.4573 5.9252 13.9357 4.9824
# 4 -7.9463 -12.0276 5.9252 31.9619 -6.2779 4.7638
# 5 5.4833 -2.1182 13.9357 -6.2779 18.8822 -5.2847
# 6 -5.5833 6.7823 4.9824 4.7638 -5.2847 28.1696
#
#
#
# Elastic Compliance Matrix: (Units=1/GPa)
#
#
# Indices 1 2 3 4 5 6 
#
# 1 0.018003 -0.009343 -0.001191 -0.000408 -0.004038 0.005340
# 2 -0.009343 0.025518 -0.004343 0.011215 0.010507 -0.007153
# 3 -0.001191 -0.004343 0.009664 -0.005330 -0.009547 -0.001789
# 4 -0.000408 0.011215 -0.005330 0.040603 0.017281 -0.005463
# 5 -0.004038 0.010507 -0.009547 0.017281 0.070529 0.008667
# 6 0.005340 -0.007153 -0.001789 -0.005463 0.008667 0.041146
#
#
# Mechanical properties :
#
#
# Convention : Reuss Voigt Hill
#
# Bulk Modulus (GPa) = 42.67983 48.28004 45.47994
# Shear Modulus (GPa) = 20.57395 28.78763 24.68079
#
# Velocity S-wave (km/s) = 3.23693 3.82893 3.54531
# Velocity P-wave (km/s) = 5.97545 6.64344 6.31828
#
# Compressibility (1/GPa) = 0.02343027
#
# Stress axis : x y z
#
# Youngs Moduli (GPa) = 55.54757 39.18867 103.47523
#
# Poissons Ratio (x) = 0.36615 0.12326
# Poissons Ratio (y) = 0.51900 0.44935
# Poissons Ratio (z) = 0.06617 0.17018
#
# Static dielectric constant tensor:
#      x y z
#    x 1.694130 0.009390 0.006690 
#    y 0.009390 1.686440 -0.001560 
#    z 0.006690 -0.001560 1.700500 
# 
# From -- ./inp_files/391197.got.cif
#   From: 2010.05.17/outbox.cif.g08.bks.cpg/sg2_196_cif.got.tgz:391197.got - 2010.06.03 11:33:40.
