data_PCOD9007129
_publ_section_title
;
Structure prediction by ZEFSAII (Michael W. Deem and Ramdas Pophale) SiO2 
 PCOD9007129
Probable space group: P -1
;
_chemical_formula_sum "Si O2"
_cell_formula_units_Z 10
_cell_length_a 7.472201
_cell_length_b 15.385503
_cell_length_c 11.926694
_cell_angle_alpha 155.099339
_cell_angle_beta 136.491309
_cell_angle_gamma 54.938394
_cell_volume 380.656557
_symmetry_space_group_name_H-M "P -1"
_symmetry_group_IT_number 2
_symmetry_cell_setting 'triclinic'
loop_
_space_group_symop_operation_xyz
x,y,z
-x,-y,-z
loop_
_atom_site_type_symbol
_atom_site_label
_atom_site_fract_x
_atom_site_fract_y
_atom_site_fract_z
Si Si1 0.028105 0.323601 0.942565
Si Si2 0.556433 0.867030 0.663302
Si Si3 0.289361 0.307687 0.249735
Si Si4 0.769958 0.546849 0.247487
Si Si5 0.397313 0.676866 0.879879
O O1 0.753293 0.233654 0.641812
O O2 0.295390 0.347850 0.017595
O O3 0.993430 0.531008 0.238924
O O4 0.087284 0.186916 0.918285
O O5 0.597108 0.831590 0.772792
O O6 0.758073 0.756200 0.558125
O O7 0.619248 0.113449 0.945669
O O8 0.500000 0.500000 0.500000
O O9 0.206638 0.470365 0.487972
O O10 0.500000 0.500000 0.000000
O O11 0.687832 0.339678 0.050478
#
# Coordination Sequence:
#
# PCOD9007129 Si02
#       5
#     2   2   2   2   2
#     4  10  21  40  62  83 117 157 189 233 295 342
#     4  10  21  39  60  86 118 150 194 242 281 340
#     4   9  21  38  58  86 119 151 190 238 288 341
#     4   9  21  38  58  86 119 151 190 238 288 341
#     4  10  21  39  60  86 118 150 194 242 281 340
#
# _framework density 26.270401
#
# number of rings (size 3 to 8) (size 9 to 14) (size 15 to 20)
#    0.000    2.400    0.000    0.600    0.000   22.400 
#    0.000   16.000    0.000    0.000    0.000    0.000 
#    0.000    0.000    0.000    0.000    0.000    0.000 
#
# Total GULP energy -55726.884714 kJ/mol
# GULP energy per Si atom -5572.688471 kJ/mol
# Density = 2.621061 g / cm^3
# Si number density = 26.270401 Si / 1000 Ang^3
#
#
#
# Elastic Constant Matrix: (Units=GPa)
#
#
# Indices 1 2 3 4 5 6 
#
# 1 146.2699 56.5566 21.7092 -7.5733 0.7346 -33.0590
# 2 56.5566 224.9581 67.3401 -10.8006 15.2356 30.1631
# 3 21.7092 67.3401 55.5859 -10.5333 0.6299 -7.6608
# 4 -7.5733 -10.8006 -10.5333 55.1972 -12.8196 -4.6789
# 5 0.7346 15.2356 0.6299 -12.8196 29.4833 -10.3365
# 6 -33.0590 30.1631 -7.6608 -4.6789 -10.3365 52.7468
#
#
#
# Elastic Compliance Matrix: (Units=1/GPa)
#
#
# Indices 1 2 3 4 5 6 
#
# 1 0.013490 -0.009422 0.009802 0.006633 0.013707 0.018541
# 2 -0.009422 0.017933 -0.022901 -0.009118 -0.021070 -0.024424
# 3 0.009802 -0.022901 0.049202 0.015873 0.029190 0.033514
# 4 0.006633 -0.009118 0.015873 0.027051 0.022447 0.018475
# 5 0.013707 -0.021070 0.029190 0.022447 0.067670 0.040132
# 6 0.018541 -0.024424 0.033514 0.018475 0.040132 0.058916
#
#
# Mechanical properties :
#
#
# Convention : Reuss Voigt Hill
#
# Bulk Modulus (GPa) = 28.10252 79.78063 53.94158
# Shear Modulus (GPa) = 17.17240 46.23266 31.70253
#
# Velocity S-wave (km/s) = 2.55949 4.19964 3.47764
# Velocity P-wave (km/s) = 4.41081 7.34513 6.05831
#
# Compressibility (1/GPa) = 0.03558400
#
# Stress axis : x y z
#
# Youngs Moduli (GPa) = 74.12986 55.76184 20.32455
#
# Poissons Ratio (x) = 0.52537 -0.19923
# Poissons Ratio (y) = 0.69842 0.46545
# Poissons Ratio (z) = -0.72664 1.27701
#
# Static dielectric constant tensor:
#      x y z
#    x 2.210810 -0.084190 -0.012380 
#    y -0.084190 2.303720 -0.084410 
#    z -0.012380 -0.084410 2.109750 
# 
# From -- ./inp_files/57420.got.cif
#   From: 2010.05.17/outbox.cif.g08.bks.cpg/sg2_29_cif.got.tgz:57420.got - 2010.06.03 11:33:40.
