data_PCOD9007600
_publ_section_title
;
Structure prediction by ZEFSAII (Michael W. Deem and Ramdas Pophale) SiO2 
 PCOD9007600
Probable space group: P -1
;
_chemical_formula_sum "Si O2"
_cell_formula_units_Z 16
_cell_length_a 8.737134
_cell_length_b 8.065363
_cell_length_c 26.602263
_cell_angle_alpha 50.292074
_cell_angle_beta 148.494841
_cell_angle_gamma 129.481547
_cell_volume 734.020002
_symmetry_space_group_name_H-M "P -1"
_symmetry_group_IT_number 2
_symmetry_cell_setting 'triclinic'
loop_
_space_group_symop_operation_xyz
x,y,z
-x,-y,-z
loop_
_atom_site_type_symbol
_atom_site_label
_atom_site_fract_x
_atom_site_fract_y
_atom_site_fract_z
Si Si1 0.683836 0.321370 0.569624
Si Si2 0.671984 0.423526 0.775925
Si Si3 0.727644 0.755261 0.214467
Si Si4 0.671064 0.489007 0.430286
Si Si5 0.234624 0.290624 0.978255
Si Si6 0.660715 0.943078 0.396452
Si Si7 0.855885 0.186501 0.992209
Si Si8 0.140317 0.147351 0.187714
O O1 0.500000 0.500000 0.500000
O O2 0.642664 0.310418 0.500962
O O3 0.524198 0.099054 0.595211
O O4 0.021871 0.384895 0.674378
O O5 0.417870 0.245828 0.769682
O O6 0.549573 0.536319 0.673178
O O7 0.807911 0.623100 0.812806
O O8 0.942643 0.310544 0.860095
O O9 0.417103 0.685280 0.109266
O O10 0.922946 0.960007 0.197545
O O11 0.638286 0.719376 0.401770
O O12 0.000000 0.500000 0.500000
O O13 0.112064 0.275261 0.004568
O O14 0.500000 0.500000 0.000000
O O15 0.302671 0.058395 0.025955
O O16 0.472520 0.093503 0.285296
O O17 0.000000 0.000000 0.500000
O O18 0.988206 0.166609 0.087760
#
# Coordination Sequence:
#
# PCOD9007600 Si02
#       8
#     2   2   2   2   2   2   2   2
#     4   9  20  38  61  88 121 159 202 252 313 368
#     4  11  23  39  63  91 123 164 207 253 306 371
#     4  10  21  39  62  89 122 159 204 258 306 365
#     4  11  20  39  64  88 121 162 206 254 315 364
#     4  10  22  41  62  90 127 159 206 254 313 364
#     4  10  22  40  59  90 126 159 205 263 308 370
#     4  10  22  40  63  90 125 162 202 260 307 369
#     4  11  23  40  61  92 124 162 211 249 311 371
#
# _framework density 21.797771999999998
#
# number of rings (size 3 to 8) (size 9 to 14) (size 15 to 20)
#    0.000    1.750    1.250    2.625    1.750    3.000 
#    4.500    1.875    0.000    0.000    0.000    0.000 
#    0.000    0.000    0.000    0.000    0.000    0.000 
#
# Total GULP energy -89125.879332 kJ/mol
# GULP energy per Si atom -5570.367458 kJ/mol
# Density = 2.174816 g / cm^3
# Si number density = 21.797772 Si / 1000 Ang^3
#
#
#
# Elastic Constant Matrix: (Units=GPa)
#
#
# Indices 1 2 3 4 5 6 
#
# 1 89.9109 29.6158 61.0327 10.9190 -16.1686 22.7041
# 2 29.6158 62.7264 13.9158 6.9601 -13.5573 9.6519
# 3 61.0327 13.9158 202.8061 -1.7999 -11.6290 11.7644
# 4 10.9190 6.9601 -1.7999 24.5154 -0.4548 5.6269
# 5 -16.1686 -13.5573 -11.6290 -0.4548 52.1859 -1.9241
# 6 22.7041 9.6519 11.7644 5.6269 -1.9241 32.7047
#
#
#
# Elastic Compliance Matrix: (Units=1/GPa)
#
#
# Indices 1 2 3 4 5 6 
#
# 1 0.019880 -0.005566 -0.004927 -0.005451 0.003227 -0.009258
# 2 -0.005566 0.019713 0.000584 -0.002666 0.003448 -0.001502
# 3 -0.004927 0.000584 0.006367 0.002370 0.000085 0.000555
# 4 -0.005451 -0.002666 0.002370 0.045068 -0.001613 -0.004131
# 5 0.003227 0.003448 0.000085 -0.001613 0.020997 -0.001775
# 6 -0.009258 -0.001502 0.000555 -0.004131 -0.001775 0.037854
#
#
# Mechanical properties :
#
#
# Convention : Reuss Voigt Hill
#
# Bulk Modulus (GPa) = 38.25423 62.73024 50.49224
# Shear Modulus (GPa) = 28.02485 38.60645 33.31565
#
# Velocity S-wave (km/s) = 3.58952 4.21303 3.91371
# Velocity P-wave (km/s) = 5.89638 7.24617 6.60584
#
# Compressibility (1/GPa) = 0.02614090
#
# Stress axis : x y z
#
# Youngs Moduli (GPa) = 50.30056 50.72780 157.05274
#
# Poissons Ratio (x) = 0.28238 0.77383
# Poissons Ratio (y) = 0.28000 -0.09168
# Poissons Ratio (z) = 0.24784 -0.02961
#
# Static dielectric constant tensor:
#      x y z
#    x 1.829470 0.062500 -0.038970 
#    y 0.062500 1.945570 -0.164090 
#    z -0.038970 -0.164090 2.033870 
# 
# From -- ./inp_files/616658.got.cif
#   From: 2010.05.17/outbox.cif.g08.bks.cpg/sg2_309_cif.got.tgz:616658.got - 2010.06.03 11:33:40.
