data_PCOD9007604
_publ_section_title
;
Structure prediction by ZEFSAII (Michael W. Deem and Ramdas Pophale) SiO2 
 PCOD9007604
Probable space group: P -1
;
_chemical_formula_sum "Si O2"
_cell_formula_units_Z 16
_cell_length_a 5.209456
_cell_length_b 27.528806
_cell_length_c 5.317524
_cell_angle_alpha 77.279350
_cell_angle_beta 118.522750
_cell_angle_gamma 104.011070
_cell_volume 645.184442
_symmetry_space_group_name_H-M "P -1"
_symmetry_group_IT_number 2
_symmetry_cell_setting 'triclinic'
loop_
_space_group_symop_operation_xyz
x,y,z
-x,-y,-z
loop_
_atom_site_type_symbol
_atom_site_label
_atom_site_fract_x
_atom_site_fract_y
_atom_site_fract_z
Si Si1 0.184011 0.519231 0.815182
Si Si2 0.640437 0.360648 0.259785
Si Si3 0.489875 0.767656 0.332189
Si Si4 0.914893 0.785899 0.903014
Si Si5 0.744862 0.867029 0.098834
Si Si6 0.270662 0.324162 0.629592
Si Si7 0.833546 0.114078 0.322173
Si Si8 0.147234 0.981291 0.842286
O O1 0.245838 0.579705 0.769755
O O2 0.000000 0.500000 0.500000
O O3 0.500000 0.500000 0.000000
O O4 0.000000 0.500000 0.000000
O O5 0.456834 0.348286 0.446240
O O6 0.935810 0.334406 0.433510
O O7 0.430614 0.345303 0.937308
O O8 0.534367 0.828039 0.233903
O O9 0.689300 0.734643 0.306903
O O10 0.150315 0.750350 0.118806
O O11 0.599256 0.761640 0.673243
O O12 0.879050 0.826204 0.050220
O O13 0.061277 0.825318 0.709681
O O14 0.978511 0.900834 0.341646
O O15 0.517357 0.893530 0.803274
O O16 0.888420 0.079427 0.151709
O O17 0.000000 0.000000 0.500000
O O18 0.500000 0.000000 0.000000
O O19 0.000000 0.000000 0.000000
#
# Coordination Sequence:
#
# PCOD9007604 Si02
#       8
#     2   2   2   2   2   2   2   2
#     4  12  24  44  72 100 137 180 234 296 345 409
#     4  12  26  45  68 104 137 186 231 283 354 409
#     4  10  23  37  60  92 122 174 217 269 329 392
#     4  10  21  39  62  89 123 162 224 267 326 389
#     4  10  21  39  63  90 123 163 221 267 326 389
#     4  12  26  44  69  98 144 181 227 283 340 423
#     4  10  23  39  63  93 123 168 213 276 325 388
#     4  12  28  49  73 105 139 181 225 277 343 419
#
# _framework density 24.799111
#
# number of rings (size 3 to 8) (size 9 to 14) (size 15 to 20)
#    0.000    1.000    0.000    6.000    7.000    0.000 
#    0.000    0.000    0.000    0.000    0.000    0.000 
#    0.000    0.000    0.000    0.000    0.000    0.000 
#
# Total GULP energy -89524.124130 kJ/mol
# GULP energy per Si atom -5595.257758 kJ/mol
# Density = 2.474267 g / cm^3
# Si number density = 24.799111 Si / 1000 Ang^3
#
#
#
# Elastic Constant Matrix: (Units=GPa)
#
#
# Indices 1 2 3 4 5 6 
#
# 1 149.7759 12.2653 78.6101 -4.8081 21.9869 -10.0675
# 2 12.2653 131.5962 46.4185 0.8457 4.9763 -3.8204
# 3 78.6101 46.4185 205.3106 31.3030 14.4243 7.0383
# 4 -4.8081 0.8457 31.3030 47.0156 -4.2362 -6.4175
# 5 21.9869 4.9763 14.4243 -4.2362 50.9011 0.7730
# 6 -10.0675 -3.8204 7.0383 -6.4175 0.7730 29.8180
#
#
#
# Elastic Compliance Matrix: (Units=1/GPa)
#
#
# Indices 1 2 3 4 5 6 
#
# 1 0.010063 0.000998 -0.004804 0.004745 -0.002775 0.005753
# 2 0.000998 0.008526 -0.002681 0.002043 -0.000373 0.002512
# 3 -0.004804 -0.002681 0.008611 -0.006979 -0.000600 -0.005484
# 4 0.004745 0.002043 -0.006979 0.027826 0.001901 0.009450
# 5 -0.002775 -0.000373 -0.000600 0.001901 0.021224 -0.000984
# 6 0.005753 0.002512 -0.005484 0.009450 -0.000984 0.039155
#
#
# Mechanical properties :
#
#
# Convention : Reuss Voigt Hill
#
# Bulk Modulus (GPa) = 70.30098 84.58561 77.44330
# Shear Modulus (GPa) = 37.56019 48.83951 43.19985
#
# Velocity S-wave (km/s) = 3.89598 4.44261 4.17825
# Velocity P-wave (km/s) = 6.97481 7.77805 7.38736
#
# Compressibility (1/GPa) = 0.01422455
#
# Stress axis : x y z
#
# Youngs Moduli (GPa) = 99.37575 117.29405 116.13725
#
# Poissons Ratio (x) = -0.11708 0.55795
# Poissons Ratio (y) = -0.09920 0.31138
# Poissons Ratio (z) = 0.47742 0.31448
#
# Static dielectric constant tensor:
#      x y z
#    x 2.043860 0.105000 -0.041540 
#    y 0.105000 1.970570 -0.055670 
#    z -0.041540 -0.055670 2.034260 
# 
# From -- ./inp_files/14523.got.cif
#   From: 2010.05.17/outbox.cif.g08.bks.cpg/sg2_8_cif.got.tgz:14523.got - 2010.06.03 11:33:40.
