data_PCOD9007001
_publ_section_title
;
Structure prediction by ZEFSAII (Michael W. Deem and Ramdas Pophale) SiO2 
 PCOD9007001
Probable space group: P -1
;
_chemical_formula_sum "Si O2"
_cell_formula_units_Z 16
_cell_length_a 17.147098
_cell_length_b 22.625482
_cell_length_c 13.545500
_cell_angle_alpha 149.276122
_cell_angle_beta 21.587525
_cell_angle_gamma 158.702739
_cell_volume 701.364965
_symmetry_space_group_name_H-M "P -1"
_symmetry_group_IT_number 2
_symmetry_cell_setting 'triclinic'
loop_
_space_group_symop_operation_xyz
x,y,z
-x,-y,-z
loop_
_atom_site_type_symbol
_atom_site_label
_atom_site_fract_x
_atom_site_fract_y
_atom_site_fract_z
Si Si1 0.934449 0.786272 0.586071
Si Si2 0.794972 0.432567 0.409982
Si Si3 0.175371 0.625891 0.064667
Si Si4 0.162694 0.181890 0.685344
Si Si5 0.894584 0.285107 0.252829
Si Si6 0.581875 0.601230 0.930012
Si Si7 0.839400 0.820004 0.531161
Si Si8 0.270808 0.108157 0.760003
O O1 0.677116 0.683215 0.825452
O O2 0.847228 0.751773 0.524580
O O3 0.101084 0.730135 0.321846
O O4 0.148519 0.978654 0.631468
O O5 0.496724 0.313605 0.522897
O O6 0.813508 0.340031 0.336331
O O7 0.760559 0.550307 0.661221
O O8 0.074512 0.527078 0.143105
O O9 0.515518 0.750990 0.815147
O O10 0.000000 0.500000 0.000000
O O11 0.134059 0.227303 0.675130
O O12 0.073413 0.014306 0.541040
O O13 0.945466 0.173153 0.997616
O O14 0.592592 0.183529 0.526427
O O15 0.224318 0.450047 0.136340
O O16 0.681139 0.736200 0.085719
O O17 0.000000 0.000000 0.000000
#
# Coordination Sequence:
#
# PCOD9007001 Si02
#       8
#     2   2   2   2   2   2   2   2
#     4  10  22  39  61  87 119 160 197 240 292 351
#     4  10  21  39  58  91 123 153 198 240 290 350
#     4  11  22  37  58  87 122 159 195 242 283 342
#     4  10  23  37  56  88 124 157 196 245 282 348
#     4  11  21  38  64  88 118 158 194 242 299 354
#     4   9  21  40  61  89 120 149 199 250 293 344
#     4  11  22  38  58  85 122 162 200 234 291 348
#     4  10  21  41  64  86 116 154 197 250 299 344
#
# _framework density 22.812660000000001
#
# number of rings (size 3 to 8) (size 9 to 14) (size 15 to 20)
#    0.000    1.750    1.250    2.625    1.750    1.000 
#    0.000    5.625    0.000   18.000    0.000    0.000 
#    0.000    0.000    0.000    0.000    0.000    0.000 
#
# Total GULP energy -89346.616147 kJ/mol
# GULP energy per Si atom -5584.163509 kJ/mol
# Density = 2.276074 g / cm^3
# Si number density = 22.812660 Si / 1000 Ang^3
#
#
#
# Elastic Constant Matrix: (Units=GPa)
#
#
# Indices 1 2 3 4 5 6 
#
# 1 181.8286 6.3408 22.2878 41.0671 45.2476 22.3425
# 2 6.3408 57.2595 16.7976 -4.4594 9.0488 13.7798
# 3 22.2878 16.7976 89.3256 -1.7896 32.4853 15.1747
# 4 41.0671 -4.4594 -1.7896 50.8497 6.7841 17.7518
# 5 45.2476 9.0488 32.4853 6.7841 33.9226 9.6310
# 6 22.3425 13.7798 15.1747 17.7518 9.6310 35.7208
#
#
#
# Elastic Compliance Matrix: (Units=1/GPa)
#
#
# Indices 1 2 3 4 5 6 
#
# 1 0.010381 0.000101 0.002955 -0.005990 -0.015312 -0.000682
# 2 0.000101 0.020996 -0.001139 0.005468 -0.003018 -0.009582
# 3 0.002955 -0.001139 0.019363 0.002895 -0.021242 -0.005347
# 4 -0.005990 0.005468 0.002895 0.030082 0.002026 -0.015088
# 5 -0.015312 -0.003018 -0.021242 0.002026 0.070733 -0.000313
# 6 -0.000682 -0.009582 -0.005347 -0.015088 -0.000313 0.041972
#
#
# Mechanical properties :
#
#
# Convention : Reuss Voigt Hill
#
# Bulk Modulus (GPa) = 18.32321 46.58512 32.45416
# Shear Modulus (GPa) = 24.05192 42.96448 33.50820
#
# Velocity S-wave (km/s) = 3.25056 4.34448 3.83671
# Velocity P-wave (km/s) = 4.70506 6.75508 5.82103
#
# Compressibility (1/GPa) = 0.05457558
#
# Stress axis : x y z
#
# Youngs Moduli (GPa) = 96.32990 47.62827 51.64441
#
# Poissons Ratio (x) = -0.00481 -0.15263
# Poissons Ratio (y) = -0.00972 0.05880
# Poissons Ratio (z) = -0.28469 0.05423
#
# Static dielectric constant tensor:
#      x y z
#    x 2.232770 0.175510 0.393860 
#    y 0.175510 2.021830 0.222070 
#    z 0.393860 0.222070 2.215210 
# 
# From -- ./inp_files/39534.got.cif
#   From: 2010.05.17/outbox.cif.g08.bks.cpg/sg2_20_cif.got.tgz:39534.got - 2010.06.03 11:33:40.
