data_PCOD9007744
_publ_section_title
;
Structure prediction by ZEFSAII (Michael W. Deem and Ramdas Pophale) SiO2 
 PCOD9007744
Probable space group: P -1
;
_chemical_formula_sum "Si O2"
_cell_formula_units_Z 14
_cell_length_a 11.786592
_cell_length_b 15.727228
_cell_length_c 11.872233
_cell_angle_alpha 153.861372
_cell_angle_beta 139.882284
_cell_angle_gamma 45.350817
_cell_volume 623.704092
_symmetry_space_group_name_H-M "P -1"
_symmetry_group_IT_number 2
_symmetry_cell_setting 'triclinic'
loop_
_space_group_symop_operation_xyz
x,y,z
-x,-y,-z
loop_
_atom_site_type_symbol
_atom_site_label
_atom_site_fract_x
_atom_site_fract_y
_atom_site_fract_z
Si Si1 0.352864 0.586918 0.146041
Si Si2 0.468405 0.199467 0.282419
Si Si3 0.023839 0.417848 0.046204
Si Si4 0.101680 0.080984 0.852037
Si Si5 0.729643 0.116722 0.736886
Si Si6 0.546538 0.195595 0.909363
Si Si7 0.312262 0.698143 0.616383
O O1 0.408639 0.766943 0.478891
O O2 0.348774 0.677337 0.126892
O O3 0.479173 0.406914 0.065207
O O4 0.156900 0.533237 0.967017
O O5 0.540113 0.347483 0.421089
O O6 0.265877 0.197350 0.163161
O O7 0.500000 0.000000 0.000000
O O8 0.187921 0.528170 0.348505
O O9 0.064893 0.190483 0.834918
O O10 0.000000 0.500000 0.000000
O O11 0.926611 0.094457 0.810758
O O12 0.177304 0.860848 0.649069
O O13 0.704166 0.119995 0.855847
O O14 0.611267 0.947142 0.399269
O O15 0.605460 0.213481 0.104204
#
# Coordination Sequence:
#
# PCOD9007744 Si02
#       7
#     2   2   2   2   2   2   2
#     4  11  22  42  65  94 129 166 208 262 315 371
#     4  10  21  39  62  94 128 165 203 252 317 378
#     4  11  23  39  61  93 127 165 204 252 311 378
#     4  10  23  40  62  89 130 163 203 263 309 367
#     4  10  23  45  63  96 122 166 219 259 315 361
#     4  11  24  41  71  89 126 169 212 264 307 379
#     4  11  23  41  60  98 126 165 210 250 321 374
#
# _framework density 22.446541
#
# number of rings (size 3 to 8) (size 9 to 14) (size 15 to 20)
#    0.000    1.429    1.429    3.857    2.000    2.286 
#    2.571    7.857    0.000    0.000    0.000    0.000 
#    0.000    0.000    0.000    0.000    0.000    0.000 
#
# Total GULP energy -78147.875093 kJ/mol
# GULP energy per Si atom -5581.991078 kJ/mol
# Density = 2.239545 g / cm^3
# Si number density = 22.446541 Si / 1000 Ang^3
#
#
#
# Elastic Constant Matrix: (Units=GPa)
#
#
# Indices 1 2 3 4 5 6 
#
# 1 123.2432 25.8785 57.9082 -23.0275 18.5563 9.2885
# 2 25.8785 84.3805 7.2112 8.5136 -1.1254 -1.9084
# 3 57.9082 7.2112 93.2975 -7.8744 23.7267 -7.2567
# 4 -23.0275 8.5136 -7.8744 39.3629 0.2352 1.4454
# 5 18.5563 -1.1254 23.7267 0.2352 28.0763 -7.7427
# 6 9.2885 -1.9084 -7.2567 1.4454 -7.7427 34.4393
#
#
#
# Elastic Compliance Matrix: (Units=1/GPa)
#
#
# Indices 1 2 3 4 5 6 
#
# 1 0.016446 -0.005620 -0.007877 0.009608 -0.006819 -0.008343
# 2 -0.005620 0.014277 0.000986 -0.006345 0.004555 0.003805
# 3 -0.007877 0.000986 0.017978 -0.001321 -0.008822 0.004039
# 4 0.009608 -0.006345 -0.001321 0.032408 -0.007487 -0.006265
# 5 -0.006819 0.004555 -0.008822 -0.007487 0.051147 0.012046
# 6 -0.008343 0.003805 0.004039 -0.006265 0.012046 0.035320
#
#
# Mechanical properties :
#
#
# Convention : Reuss Voigt Hill
#
# Bulk Modulus (GPa) = 42.22964 53.65743 47.94354
# Shear Modulus (GPa) = 24.93893 34.37060 29.65476
#
# Velocity S-wave (km/s) = 3.33684 3.91733 3.63868
# Velocity P-wave (km/s) = 5.80519 6.66461 6.24969
#
# Compressibility (1/GPa) = 0.02368005
#
# Stress axis : x y z
#
# Youngs Moduli (GPa) = 60.80481 70.04147 55.62482
#
# Poissons Ratio (x) = 0.39361 0.43817
# Poissons Ratio (y) = 0.34170 -0.05487
# Poissons Ratio (z) = 0.47897 -0.06909
#
# Static dielectric constant tensor:
#      x y z
#    x 1.809950 -0.011900 0.008530 
#    y -0.011900 1.904800 0.046990 
#    z 0.008530 0.046990 1.843560 
# 
# From -- ./inp_files/263726.got.cif
#   From: 2010.05.17/outbox.cif.g08.bks.cpg/sg2_132_cif.got.tgz:263726.got - 2010.06.03 11:33:40.
