data_PCOD9007214
_publ_section_title
;
Structure prediction by ZEFSAII (Michael W. Deem and Ramdas Pophale) SiO2 
 PCOD9007214
Probable space group: P -1
;
_chemical_formula_sum "Si O2"
_cell_formula_units_Z 12
_cell_length_a 9.994137
_cell_length_b 9.494001
_cell_length_c 13.672377
_cell_angle_alpha 135.067853
_cell_angle_beta 150.505462
_cell_angle_gamma 41.638457
_cell_volume 417.782433
_symmetry_space_group_name_H-M "P -1"
_symmetry_group_IT_number 2
_symmetry_cell_setting 'triclinic'
loop_
_space_group_symop_operation_xyz
x,y,z
-x,-y,-z
loop_
_atom_site_type_symbol
_atom_site_label
_atom_site_fract_x
_atom_site_fract_y
_atom_site_fract_z
Si Si1 0.716704 0.374450 0.853003
Si Si2 0.765117 0.506175 0.739191
Si Si3 0.175512 0.029534 0.720180
Si Si4 0.196041 0.063217 0.415101
Si Si5 0.814213 0.414880 0.229252
Si Si6 0.489170 0.143132 0.821807
O O1 0.659049 0.523823 0.792443
O O2 0.464511 0.485455 0.825886
O O3 0.733731 0.142882 0.710359
O O4 0.040605 0.350822 0.086348
O O5 0.500000 0.500000 0.500000
O O6 0.013336 0.269271 0.772965
O O7 0.466484 0.023538 0.848509
O O8 0.103853 0.898736 0.696560
O O9 0.000000 0.000000 0.500000
O O10 0.111790 0.284328 0.410451
O O11 0.441933 0.023674 0.636397
O O12 0.790314 0.623527 0.253836
O O13 0.752080 0.226929 0.038189
#
# Coordination Sequence:
#
# PCOD9007214 Si02
#       6
#     2   2   2   2   2   2
#     4  10  23  40  60  98 123 159 221 254 302 392
#     4  10  21  39  60  90 129 162 199 266 321 356
#     4   9  19  37  63  90 121 154 216 253 297 382
#     4  10  23  41  64  94 126 165 215 258 313 366
#     4  11  23  41  69  86 132 174 200 260 320 365
#     4  10  22  42  61  96 128 166 214 253 311 386
#
# _framework density 28.723082999999999
#
# number of rings (size 3 to 8) (size 9 to 14) (size 15 to 20)
#    0.000    2.000    1.667    0.500    4.667    5.333 
#    0.000    3.333    0.000    0.000    0.000    0.000 
#    0.000    0.000    0.000    0.000    0.000    0.000 
#
# Total GULP energy -67166.539368 kJ/mol
# GULP energy per Si atom -5597.211614 kJ/mol
# Density = 2.865771 g / cm^3
# Si number density = 28.723083 Si / 1000 Ang^3
#
#
#
# Elastic Constant Matrix: (Units=GPa)
#
#
# Indices 1 2 3 4 5 6 
#
# 1 145.4769 30.1177 22.5027 -9.1831 4.5906 -2.8145
# 2 30.1177 92.8798 28.3821 9.5250 7.6505 -15.6756
# 3 22.5027 28.3821 213.5537 8.8324 -3.1720 -15.6445
# 4 -9.1831 9.5250 8.8324 53.3881 1.4317 -8.4962
# 5 4.5906 7.6505 -3.1720 1.4317 33.0850 7.2671
# 6 -2.8145 -15.6756 -15.6445 -8.4962 7.2671 40.2841
#
#
#
# Elastic Compliance Matrix: (Units=1/GPa)
#
#
# Indices 1 2 3 4 5 6 
#
# 1 0.007602 -0.002456 -0.000570 0.001831 -0.000587 -0.000154
# 2 -0.002456 0.013219 -0.001128 -0.001718 -0.003817 0.004860
# 3 -0.000570 -0.001128 0.005015 -0.000543 0.000569 0.001252
# 4 0.001831 -0.001718 -0.000543 0.020086 -0.001607 0.003775
# 5 -0.000587 -0.003817 0.000569 -0.001607 0.032981 -0.007594
# 6 -0.000154 0.004860 0.001252 0.003775 -0.007594 0.029356
#
#
# Mechanical properties :
#
#
# Convention : Reuss Voigt Hill
#
# Bulk Modulus (GPa) = 57.05331 68.21284 62.63308
# Shear Modulus (GPa) = 40.84635 50.07863 45.46249
#
# Velocity S-wave (km/s) = 3.77513 4.18005 3.98274
# Velocity P-wave (km/s) = 6.23767 6.86273 6.55765
#
# Compressibility (1/GPa) = 0.01752747
#
# Stress axis : x y z
#
# Youngs Moduli (GPa) = 131.54778 75.65127 199.39269
#
# Poissons Ratio (x) = 0.18581 0.11372
# Poissons Ratio (y) = 0.32310 0.22483
# Poissons Ratio (z) = 0.07503 0.08530
#
# Static dielectric constant tensor:
#      x y z
#    x 2.300580 0.075260 0.033090 
#    y 0.075260 2.281660 0.034050 
#    z 0.033090 0.034050 2.337250 
# 
# From -- ./inp_files/386360.got.cif
#   From: 2010.05.17/outbox.cif.g08.bks.cpg/sg2_194_cif.got.tgz:386360.got - 2010.06.03 11:33:40.
