data_PCOD9007718
_publ_section_title
;
Structure prediction by ZEFSAII (Michael W. Deem and Ramdas Pophale) SiO2 
 PCOD9007718
Probable space group: P -1
;
_chemical_formula_sum "Si O2"
_cell_formula_units_Z 16
_cell_length_a 6.919820
_cell_length_b 12.271528
_cell_length_c 18.288133
_cell_angle_alpha 45.570808
_cell_angle_beta 127.935314
_cell_angle_gamma 139.215639
_cell_volume 712.363961
_symmetry_space_group_name_H-M "P -1"
_symmetry_group_IT_number 2
_symmetry_cell_setting 'triclinic'
loop_
_space_group_symop_operation_xyz
x,y,z
-x,-y,-z
loop_
_atom_site_type_symbol
_atom_site_label
_atom_site_fract_x
_atom_site_fract_y
_atom_site_fract_z
Si Si1 0.529265 0.043110 0.115139
Si Si2 0.648843 0.760722 0.245789
Si Si3 0.065188 0.740098 0.239308
Si Si4 0.782568 0.029451 0.480194
Si Si5 0.762818 0.531491 0.597851
Si Si6 0.263782 0.041793 0.333540
Si Si7 0.193460 0.300589 0.102866
Si Si8 0.718032 0.725728 0.030207
O O1 0.876443 0.215457 0.108556
O O2 0.526231 0.885896 0.140283
O O3 0.392857 0.935958 0.211506
O O4 0.337952 0.126648 0.018578
O O5 0.390566 0.566869 0.313792
O O6 0.829813 0.744127 0.232133
O O7 0.914321 0.883966 0.309210
O O8 0.111329 0.584024 0.347440
O O9 0.925026 0.703602 0.142757
O O10 0.475836 0.974471 0.396535
O O11 0.973539 0.251365 0.436192
O O12 0.702172 0.923025 0.588657
O O13 0.000000 0.000000 0.500000
O O14 0.500000 0.500000 0.500000
O O15 0.347436 0.219173 0.222284
O O16 0.400594 0.523536 0.045887
O O17 0.155599 0.228501 0.044494
#
# Coordination Sequence:
#
# PCOD9007718 Si02
#       8
#     2   2   2   2   2   2   2   2
#     4  10  21  39  62  93 124 167 217 256 314 383
#     4  10  23  41  66  94 131 174 210 269 325 384
#     4  11  25  41  66  95 133 168 215 270 323 384
#     4  11  25  41  67  96 128 169 215 273 322 385
#     4  11  24  44  66  99 130 168 223 265 324 396
#     4  10  22  42  62  94 130 167 219 262 326 385
#     4  10  23  41  65  91 131 175 211 268 325 386
#     4  11  23  41  63  96 131 172 217 265 325 385
#
# _framework density 22.460428
#
# number of rings (size 3 to 8) (size 9 to 14) (size 15 to 20)
#    0.000    1.500    1.250    3.000    1.750    8.500 
#    0.000    0.000    0.000    0.000    0.000    0.000 
#    0.000    0.000    0.000    0.000    0.000    0.000 
#
# Total GULP energy -89390.448292 kJ/mol
# GULP energy per Si atom -5586.903018 kJ/mol
# Density = 2.240931 g / cm^3
# Si number density = 22.460428 Si / 1000 Ang^3
#
#
#
# Elastic Constant Matrix: (Units=GPa)
#
#
# Indices 1 2 3 4 5 6 
#
# 1 162.4531 24.3650 45.7264 -0.9309 14.5558 -1.5188
# 2 24.3650 48.6461 20.5514 -9.7785 -0.3525 10.0573
# 3 45.7264 20.5514 114.5946 -2.9501 16.7375 -14.7332
# 4 -0.9309 -9.7785 -2.9501 27.3560 8.9967 2.9677
# 5 14.5558 -0.3525 16.7375 8.9967 47.0814 -6.2655
# 6 -1.5188 10.0573 -14.7332 2.9677 -6.2655 27.0945
#
#
#
# Elastic Compliance Matrix: (Units=1/GPa)
#
#
# Indices 1 2 3 4 5 6 
#
# 1 0.007331 -0.002853 -0.002225 -0.000552 -0.001392 -0.000001
# 2 -0.002853 0.030287 -0.005874 0.012290 -0.001314 -0.016246
# 3 -0.002225 -0.005874 0.012036 -0.000987 -0.002360 0.008163
# 4 -0.000552 0.012290 -0.000987 0.045350 -0.009694 -0.012338
# 5 -0.001392 -0.001314 -0.002360 -0.009694 0.025151 0.006004
# 6 -0.000001 -0.016246 0.008163 -0.012338 0.006004 0.050117
#
#
# Mechanical properties :
#
#
# Convention : Reuss Voigt Hill
#
# Bulk Modulus (GPa) = 36.03416 56.33105 46.18261
# Shear Modulus (GPa) = 24.82315 35.97645 30.39980
#
# Velocity S-wave (km/s) = 3.32805 4.00655 3.68296
# Velocity P-wave (km/s) = 5.55393 6.82187 6.22029
#
# Compressibility (1/GPa) = 0.02775144
#
# Stress axis : x y z
#
# Youngs Moduli (GPa) = 136.40229 33.01775 83.08124
#
# Poissons Ratio (x) = 0.09420 0.18484
# Poissons Ratio (y) = 0.38914 0.48799
# Poissons Ratio (z) = 0.30348 0.19394
#
# Static dielectric constant tensor:
#      x y z
#    x 1.832790 0.001230 0.000490 
#    y 0.001230 1.852030 0.001800 
#    z 0.000490 0.001800 1.831300 
# 
# From -- ./inp_files/369435.got.cif
#   From: 2010.05.17/outbox.cif.g08.bks.cpg/sg2_185_cif.got.tgz:369435.got - 2010.06.03 11:33:40.
