data_PCOD9007395
_publ_section_title
;
Structure prediction by ZEFSAII (Michael W. Deem and Ramdas Pophale) SiO2 
 PCOD9007395
Probable space group: P -1
;
_chemical_formula_sum "Si O2"
_cell_formula_units_Z 16
_cell_length_a 8.628319
_cell_length_b 12.578946
_cell_length_c 13.782024
_cell_angle_alpha 137.886424
_cell_angle_beta 73.762174
_cell_angle_gamma 77.213939
_cell_volume 718.507122
_symmetry_space_group_name_H-M "P -1"
_symmetry_group_IT_number 2
_symmetry_cell_setting 'triclinic'
loop_
_space_group_symop_operation_xyz
x,y,z
-x,-y,-z
loop_
_atom_site_type_symbol
_atom_site_label
_atom_site_fract_x
_atom_site_fract_y
_atom_site_fract_z
Si Si1 0.649925 0.246129 0.513322
Si Si2 0.663648 0.908162 0.553558
Si Si3 0.386645 0.343783 0.457658
Si Si4 0.034875 0.790282 0.867025
Si Si5 0.181151 0.644204 0.952767
Si Si6 0.270971 0.181035 0.208112
Si Si7 0.795215 0.803907 0.245236
Si Si8 0.108507 0.045768 0.307839
O O1 0.615274 0.227010 0.391915
O O2 0.424407 0.441097 0.737409
O O3 0.849319 0.234651 0.479040
O O4 0.737155 0.030026 0.401961
O O5 0.688651 0.744680 0.512858
O O6 0.756424 0.790894 0.355332
O O7 0.798569 0.962817 0.611287
O O8 0.411858 0.124706 0.731196
O O9 0.273188 0.586093 0.653173
O O10 0.313720 0.319332 0.350660
O O11 0.035391 0.748347 0.951765
O O12 0.890290 0.759737 0.811103
O O13 0.000000 0.000000 0.000000
O O14 0.038158 0.632394 0.044456
O O15 0.180230 0.821783 0.116577
O O16 0.208132 0.095779 0.243417
O O17 0.500000 0.000000 0.000000
#
# Coordination Sequence:
#
# PCOD9007395 Si02
#       8
#     2   2   2   2   2   2   2   2
#     4   9  20  39  62  87 126 163 207 247 317 363
#     4   9  19  39  63  92 119 169 197 256 323 362
#     4   9  21  42  62  88 126 162 210 257 309 375
#     4  11  22  41  61  90 122 166 210 254 315 365
#     4  10  21  39  61  91 123 162 212 256 301 374
#     4  11  24  39  61  90 125 161 215 258 316 368
#     4   9  19  39  67  84 127 159 210 254 308 375
#     4  10  21  40  60  87 129 160 205 260 309 370
#
# _framework density 22.268395000000002
#
# number of rings (size 3 to 8) (size 9 to 14) (size 15 to 20)
#    0.000    2.250    1.250    0.375    7.000    2.000 
#    6.750   15.625    0.000    0.000    0.000    0.000 
#    0.000    0.000    0.000    0.000    0.000    0.000 
#
# Total GULP energy -89153.287335 kJ/mol
# GULP energy per Si atom -5572.080458 kJ/mol
# Density = 2.221771 g / cm^3
# Si number density = 22.268395 Si / 1000 Ang^3
#
#
#
# Elastic Constant Matrix: (Units=GPa)
#
#
# Indices 1 2 3 4 5 6 
#
# 1 112.7456 29.2091 60.4443 -17.8699 -10.0011 -25.9896
# 2 29.2091 53.9659 7.0950 -15.1835 0.6851 -8.9699
# 3 60.4443 7.0950 117.4932 -3.7988 -9.3032 -8.8665
# 4 -17.8699 -15.1835 -3.7988 18.8527 3.1423 -4.0812
# 5 -10.0011 0.6851 -9.3032 3.1423 47.2292 -10.4201
# 6 -25.9896 -8.9699 -8.8665 -4.0812 -10.4201 26.9919
#
#
#
# Elastic Compliance Matrix: (Units=1/GPa)
#
#
# Indices 1 2 3 4 5 6 
#
# 1 0.025660 -0.000401 -0.009502 0.026938 0.008097 0.028651
# 2 -0.000401 0.027836 0.000377 0.024804 0.000815 0.013053
# 3 -0.009502 0.000377 0.012642 -0.007421 -0.000389 -0.006144
# 4 0.026938 0.024804 -0.007421 0.106756 0.008028 0.050983
# 5 0.008097 0.000815 -0.000389 0.008028 0.026546 0.019401
# 6 0.028651 0.013053 -0.006144 0.050983 0.019401 0.082154
#
#
# Mechanical properties :
#
#
# Convention : Reuss Voigt Hill
#
# Bulk Modulus (GPa) = 21.23797 53.07793 37.15795
# Shear Modulus (GPa) = 15.80574 31.11185 23.45879
#
# Velocity S-wave (km/s) = 2.66707 3.74188 3.24922
# Velocity P-wave (km/s) = 4.36375 6.52351 5.54970
#
# Compressibility (1/GPa) = 0.04708548
#
# Stress axis : x y z
#
# Youngs Moduli (GPa) = 38.97103 35.92530 79.09830
#
# Poissons Ratio (x) = 0.01440 0.75162
# Poissons Ratio (y) = 0.01562 -0.02981
# Poissons Ratio (z) = 0.37032 -0.01354
#
# Static dielectric constant tensor:
#      x y z
#    x 1.971650 0.003060 -0.010970 
#    y 0.003060 1.815900 -0.014340 
#    z -0.010970 -0.014340 1.847730 
# 
# From -- ./inp_files/504416.got.cif
#   From: 2010.05.17/outbox.cif.g08.bks.cpg/sg2_253_cif.got.tgz:504416.got - 2010.06.03 11:33:40.
