data_PCOD9007946
_publ_section_title
;
Structure prediction by ZEFSAII (Michael W. Deem and Ramdas Pophale) SiO2 
 PCOD9007946
Probable space group: P -1
;
_chemical_formula_sum "Si O2"
_cell_formula_units_Z 16
_cell_length_a 7.942218
_cell_length_b 8.700673
_cell_length_c 14.531711
_cell_angle_alpha 92.620234
_cell_angle_beta 104.629630
_cell_angle_gamma 130.338091
_cell_volume 710.188373
_symmetry_space_group_name_H-M "P -1"
_symmetry_group_IT_number 2
_symmetry_cell_setting 'triclinic'
loop_
_space_group_symop_operation_xyz
x,y,z
-x,-y,-z
loop_
_atom_site_type_symbol
_atom_site_label
_atom_site_fract_x
_atom_site_fract_y
_atom_site_fract_z
Si Si1 0.389413 0.473388 0.886695
Si Si2 0.973456 0.613627 0.675753
Si Si3 0.892744 0.017621 0.396621
Si Si4 0.596280 0.127330 0.611743
Si Si5 0.778098 0.676100 0.826030
Si Si6 0.573978 0.153881 0.142150
Si Si7 0.867469 0.260652 0.000810
Si Si8 0.905689 0.058140 0.748624
O O1 0.523300 0.468379 0.822105
O O2 0.461134 0.690411 0.882002
O O3 0.110930 0.275927 0.835979
O O4 0.500000 0.500000 0.000000
O O5 0.247823 0.750326 0.745046
O O6 0.821093 0.372291 0.627525
O O7 0.859936 0.617163 0.752637
O O8 0.972816 0.740654 0.600015
O O9 0.617791 0.902118 0.372577
O O10 0.961162 0.949853 0.317775
O O11 0.000000 0.000000 0.500000
O O12 0.705289 0.052645 0.683811
O O13 0.500000 0.000000 0.500000
O O14 0.942659 0.752045 0.941182
O O15 0.802506 0.860781 0.792675
O O16 0.719847 0.187868 0.073162
O O17 0.329302 0.911668 0.104421
O O18 0.000000 0.500000 0.000000
#
# Coordination Sequence:
#
# PCOD9007946 Si02
#       8
#     2   2   2   2   2   2   2   2
#     4  12  24  41  68 101 141 185 233 295 350 418
#     4  10  24  46  69 100 142 184 235 293 358 428
#     4  11  25  48  72 105 143 185 235 301 362 432
#     4  12  25  46  76 107 138 190 239 295 371 427
#     4  10  24  43  66  99 140 189 233 289 356 421
#     4  10  22  38  60  94 131 172 230 279 337 412
#     4  10  21  39  63  91 131 184 228 279 343 410
#     4  11  25  47  70 104 149 183 239 298 355 430
#
# _framework density 22.529235
#
# number of rings (size 3 to 8) (size 9 to 14) (size 15 to 20)
#    0.000    1.250    2.500    2.250    1.750   10.000 
#    2.250    0.000    0.000    0.000    0.000    0.000 
#    0.000    0.000    0.000    0.000    0.000    0.000 
#
# Total GULP energy -89438.689957 kJ/mol
# GULP energy per Si atom -5589.918122 kJ/mol
# Density = 2.247796 g / cm^3
# Si number density = 22.529235 Si / 1000 Ang^3
#
#
#
# Elastic Constant Matrix: (Units=GPa)
#
#
# Indices 1 2 3 4 5 6 
#
# 1 115.6477 46.7255 60.5430 -7.7416 26.0692 11.1788
# 2 46.7255 158.1666 90.8870 10.7216 24.7496 -2.7077
# 3 60.5430 90.8870 134.5317 -3.3786 37.7717 -2.7834
# 4 -7.7416 10.7216 -3.3786 39.8514 -4.8449 1.0757
# 5 26.0692 24.7496 37.7717 -4.8449 37.2541 -8.8529
# 6 11.1788 -2.7077 -2.7834 1.0757 -8.8529 42.1139
#
#
#
# Elastic Compliance Matrix: (Units=1/GPa)
#
#
# Indices 1 2 3 4 5 6 
#
# 1 0.012788 -0.001117 -0.003483 0.001943 -0.005592 -0.004922
# 2 -0.001117 0.010911 -0.007050 -0.003725 0.000363 0.000704
# 3 -0.003483 -0.007050 0.016452 0.001475 -0.009480 -0.000472
# 4 0.001943 -0.003725 0.001475 0.026977 0.002956 -0.000725
# 5 -0.005592 0.000363 -0.009480 0.002956 0.042842 0.009812
# 6 -0.004922 0.000704 -0.000472 -0.000725 0.009812 0.027147
#
#
# Mechanical properties :
#
#
# Convention : Reuss Voigt Hill
#
# Bulk Modulus (GPa) = 59.34224 89.40633 74.37428
# Shear Modulus (GPa) = 30.11421 37.85656 33.98539
#
# Velocity S-wave (km/s) = 3.66002 4.10363 3.88816
# Velocity P-wave (km/s) = 6.65269 7.88821 7.29664
#
# Compressibility (1/GPa) = 0.01685140
#
# Stress axis : x y z
#
# Youngs Moduli (GPa) = 78.19726 91.65020 60.78157
#
# Poissons Ratio (x) = 0.10239 0.21173
# Poissons Ratio (y) = 0.08736 0.42848
# Poissons Ratio (z) = 0.27239 0.64609
#
# Static dielectric constant tensor:
#      x y z
#    x 2.182380 0.094060 -0.051650 
#    y 0.094060 1.813720 -0.003790 
#    z -0.051650 -0.003790 1.825140 
# 
# From -- ./inp_files/299807.got.cif
#   From: 2010.05.17/outbox.cif.g08.bks.cpg/sg2_150_cif.got.tgz:299807.got - 2010.06.03 11:33:40.
