data_PCOD9007653
_publ_section_title
;
Structure prediction by ZEFSAII (Michael W. Deem and Ramdas Pophale) SiO2 
 PCOD9007653
Probable space group: P -1
;
_chemical_formula_sum "Si O2"
_cell_formula_units_Z 16
_cell_length_a 11.468016
_cell_length_b 8.579517
_cell_length_c 11.793288
_cell_angle_alpha 85.994666
_cell_angle_beta 83.529773
_cell_angle_gamma 37.873810
_cell_volume 707.477883
_symmetry_space_group_name_H-M "P -1"
_symmetry_group_IT_number 2
_symmetry_cell_setting 'triclinic'
loop_
_space_group_symop_operation_xyz
x,y,z
-x,-y,-z
loop_
_atom_site_type_symbol
_atom_site_label
_atom_site_fract_x
_atom_site_fract_y
_atom_site_fract_z
Si Si1 0.454649 0.696103 0.829434
Si Si2 0.099405 0.975243 0.741627
Si Si3 0.741747 0.533270 0.642749
Si Si4 0.579301 0.254258 0.719268
Si Si5 0.343706 0.295343 0.030357
Si Si6 0.144115 0.317209 0.248228
Si Si7 0.179806 0.546601 0.794265
Si Si8 0.772052 0.240155 0.496293
O O1 0.226605 0.923856 0.826950
O O2 0.545802 0.714058 0.722935
O O3 0.536586 0.439034 0.802814
O O4 0.540557 0.677338 0.935103
O O5 0.064355 0.831571 0.784538
O O6 0.243827 0.808193 0.626107
O O7 0.908698 0.260783 0.706492
O O8 0.809983 0.638636 0.643143
O O9 0.721662 0.469514 0.527731
O O10 0.381363 0.370274 0.722711
O O11 0.663268 0.244831 0.596975
O O12 0.726711 0.971494 0.759956
O O13 0.206443 0.367684 0.137956
O O14 0.225972 0.460639 0.923550
O O15 0.500000 0.000000 0.000000
O O16 0.931719 0.477848 0.249303
O O17 0.000000 0.000000 0.500000
#
# Coordination Sequence:
#
# PCOD9007653 Si02
#       8
#     2   2   2   2   2   2   2   2
#     4   9  21  38  62  84 116 155 201 241 298 343
#     4  10  21  39  64  87 118 153 203 244 289 354
#     4   9  20  36  61  89 118 158 193 241 295 348
#     4  10  21  39  62  91 121 156 196 248 291 352
#     4  11  23  42  61  86 121 158 197 249 300 350
#     4  11  22  40  62  86 128 157 194 244 298 353
#     4  11  23  39  60  89 117 160 200 243 296 347
#     4   9  18  39  64  89 119 156 199 242 294 348
#
# _framework density 22.615548
#
# number of rings (size 3 to 8) (size 9 to 14) (size 15 to 20)
#    0.000    2.000    1.250    2.625    1.750    6.500 
#    0.000    8.750    0.000    7.500    0.000    0.000 
#    0.000    0.000    0.000    0.000    0.000    0.000 
#
# Total GULP energy -89368.827529 kJ/mol
# GULP energy per Si atom -5585.551721 kJ/mol
# Density = 2.256407 g / cm^3
# Si number density = 22.615548 Si / 1000 Ang^3
#
#
#
# Elastic Constant Matrix: (Units=GPa)
#
#
# Indices 1 2 3 4 5 6 
#
# 1 173.9053 13.5255 33.8282 4.7260 4.2255 -9.0938
# 2 13.5255 54.7301 10.4837 -5.6001 -4.4734 3.7231
# 3 33.8282 10.4837 65.8559 -0.8134 -4.0310 12.4272
# 4 4.7260 -5.6001 -0.8134 24.7942 -2.9477 -2.6572
# 5 4.2255 -4.4734 -4.0310 -2.9477 27.5211 5.7972
# 6 -9.0938 3.7231 12.4272 -2.6572 5.7972 30.8997
#
#
#
# Elastic Compliance Matrix: (Units=1/GPa)
#
#
# Indices 1 2 3 4 5 6 
#
# 1 0.007106 -0.001648 -0.004456 -0.001763 -0.003153 0.004522
# 2 -0.001648 0.020022 -0.001503 0.005021 0.004391 -0.002685
# 3 -0.004456 -0.001503 0.019979 0.000741 0.005583 -0.010149
# 4 -0.001763 0.005021 0.000741 0.042611 0.005505 0.001209
# 5 -0.003153 0.004391 0.005583 0.005505 0.041251 -0.010968
# 6 0.004522 -0.002685 -0.010149 0.001209 -0.010968 0.040261
#
#
# Mechanical properties :
#
#
# Convention : Reuss Voigt Hill
#
# Bulk Modulus (GPa) = 31.35557 45.57403 38.46480
# Shear Modulus (GPa) = 25.37097 32.41993 28.89545
#
# Velocity S-wave (km/s) = 3.35302 3.79030 3.57834
# Velocity P-wave (km/s) = 5.37448 6.27300 5.84104
#
# Compressibility (1/GPa) = 0.03189226
#
# Stress axis : x y z
#
# Youngs Moduli (GPa) = 140.72183 49.94476 50.05275
#
# Poissons Ratio (x) = 0.08233 0.22303
# Poissons Ratio (y) = 0.23196 0.07524
# Poissons Ratio (z) = 0.62705 0.07508
#
# Static dielectric constant tensor:
#      x y z
#    x 1.857610 0.004000 0.040200 
#    y 0.004000 1.850540 -0.009760 
#    z 0.040200 -0.009760 1.881110 
# 
# From -- ./inp_files/353358.got.cif
#   From: 2010.05.17/outbox.cif.g08.bks.cpg/sg2_177_cif.got.tgz:353358.got - 2010.06.03 11:33:40.
