data_PCOD9007970
_publ_section_title
;
Structure prediction by ZEFSAII (Michael W. Deem and Ramdas Pophale) SiO2 
 PCOD9007970
Probable space group: P -1
;
_chemical_formula_sum "Si O2"
_cell_formula_units_Z 16
_cell_length_a 13.946611
_cell_length_b 9.759619
_cell_length_c 13.759440
_cell_angle_alpha 81.049320
_cell_angle_beta 147.419124
_cell_angle_gamma 76.484858
_cell_volume 725.038360
_symmetry_space_group_name_H-M "P -1"
_symmetry_group_IT_number 2
_symmetry_cell_setting 'triclinic'
loop_
_space_group_symop_operation_xyz
x,y,z
-x,-y,-z
loop_
_atom_site_type_symbol
_atom_site_label
_atom_site_fract_x
_atom_site_fract_y
_atom_site_fract_z
Si Si1 0.175017 0.482349 0.576300
Si Si2 0.938915 0.844393 0.054544
Si Si3 0.581438 0.929539 0.467811
Si Si4 0.844828 0.189115 0.478053
Si Si5 0.721828 0.246053 0.139096
Si Si6 0.324799 0.496008 0.074788
Si Si7 0.962686 0.146801 0.090037
Si Si8 0.879744 0.534477 0.687494
O O1 0.080134 0.690766 0.458496
O O2 0.176529 0.412596 0.479485
O O3 0.000000 0.500000 0.500000
O O4 0.451096 0.342197 0.867669
O O5 0.111417 0.632182 0.264607
O O6 0.953954 0.985838 0.101850
O O7 0.997228 0.835226 0.990999
O O8 0.662203 0.934973 0.818506
O O9 0.685758 0.719339 0.566803
O O10 0.808222 0.911562 0.647955
O O11 0.500000 0.000000 0.500000
O O12 0.757078 0.224307 0.286843
O O13 0.603470 0.299106 0.325436
O O14 0.068487 0.963878 0.703758
O O15 0.742536 0.389284 0.096348
O O16 0.272110 0.645798 0.091807
O O17 0.139125 0.470370 0.938015
#
# Coordination Sequence:
#
# PCOD9007970 Si02
#       8
#     2   2   2   2   2   2   2   2
#     4  11  23  40  63  94 134 163 210 273 317 377
#     4  10  22  43  64  93 134 166 222 268 325 393
#     4   9  21  41  62  93 132 172 213 271 324 378
#     4  10  22  40  66  91 121 178 212 258 325 390
#     4  10  22  41  63  90 130 167 218 258 323 389
#     4  10  21  39  63  92 128 166 214 266 320 379
#     4   9  21  41  66  93 131 173 209 277 328 378
#     4  11  24  39  66  97 125 172 219 262 329 388
#
# _framework density 22.067798
#
# number of rings (size 3 to 8) (size 9 to 14) (size 15 to 20)
#    0.000    2.000    0.000    3.000    5.250    7.000 
#    2.250    6.875    0.000    0.000    0.000    0.000 
#    0.000    0.000    0.000    0.000    0.000    0.000 
#
# Total GULP energy -89459.018319 kJ/mol
# GULP energy per Si atom -5591.188645 kJ/mol
# Density = 2.201757 g / cm^3
# Si number density = 22.067798 Si / 1000 Ang^3
#
#
#
# Elastic Constant Matrix: (Units=GPa)
#
#
# Indices 1 2 3 4 5 6 
#
# 1 68.9988 39.2999 20.1633 -11.1953 7.0461 -17.1120
# 2 39.2999 136.4238 49.0169 -19.3479 3.6039 -18.2216
# 3 20.1633 49.0169 65.7104 -21.1890 6.9562 -3.7741
# 4 -11.1953 -19.3479 -21.1890 38.6345 -10.6670 -0.4877
# 5 7.0461 3.6039 6.9562 -10.6670 26.1696 -9.1969
# 6 -17.1120 -18.2216 -3.7741 -0.4877 -9.1969 34.4600
#
#
#
# Elastic Compliance Matrix: (Units=1/GPa)
#
#
# Indices 1 2 3 4 5 6 
#
# 1 0.019407 -0.003466 -0.002000 0.002760 -0.000454 0.007503
# 2 -0.003466 0.011713 -0.007142 0.002025 0.003698 0.004705
# 3 -0.002000 -0.007142 0.023927 0.008268 -0.002408 -0.002675
# 4 0.002760 0.002025 0.008268 0.036264 0.014256 0.007664
# 5 -0.000454 0.003698 -0.002408 0.014256 0.049506 0.014880
# 6 0.007503 0.004705 -0.002675 0.007664 0.014880 0.039020
#
#
# Mechanical properties :
#
#
# Convention : Reuss Voigt Hill
#
# Bulk Modulus (GPa) = 33.52389 54.23256 43.87822
# Shear Modulus (GPa) = 23.25629 30.69635 26.97632
#
# Velocity S-wave (km/s) = 3.24984 3.73366 3.50012
# Velocity P-wave (km/s) = 5.41352 6.57387 6.02171
#
# Compressibility (1/GPa) = 0.02982948
#
# Stress axis : x y z
#
# Youngs Moduli (GPa) = 51.52839 85.37833 41.79414
#
# Poissons Ratio (x) = 0.29595 0.08360
# Poissons Ratio (y) = 0.17861 0.29848
# Poissons Ratio (z) = 0.10307 0.60975
#
# Static dielectric constant tensor:
#      x y z
#    x 1.816730 -0.012240 0.002540 
#    y -0.012240 1.802630 0.007650 
#    z 0.002540 0.007650 1.838400 
# 
# From -- ./inp_files/529703.got.cif
#   From: 2010.05.17/outbox.cif.g08.bks.cpg/sg2_265_cif.got.tgz:529703.got - 2010.06.03 11:33:40.
