data_PCOD9007860
_publ_section_title
;
Structure prediction by ZEFSAII (Michael W. Deem and Ramdas Pophale) SiO2 
 PCOD9007860
Probable space group: P -1
;
_chemical_formula_sum "Si O2"
_cell_formula_units_Z 14
_cell_length_a 9.256402
_cell_length_b 6.089183
_cell_length_c 28.735091
_cell_angle_alpha 121.455846
_cell_angle_beta 142.433679
_cell_angle_gamma 84.361636
_cell_volume 669.781143
_symmetry_space_group_name_H-M "P -1"
_symmetry_group_IT_number 2
_symmetry_cell_setting 'triclinic'
loop_
_space_group_symop_operation_xyz
x,y,z
-x,-y,-z
loop_
_atom_site_type_symbol
_atom_site_label
_atom_site_fract_x
_atom_site_fract_y
_atom_site_fract_z
Si Si1 0.422075 0.062999 0.535722
Si Si2 0.877346 0.303250 0.760923
Si Si3 0.484835 0.472802 0.049501
Si Si4 0.545230 0.315521 0.368891
Si Si5 0.974678 0.680625 0.447360
Si Si6 0.061053 0.162972 0.106642
Si Si7 0.768995 0.198920 0.941747
O O1 0.674514 0.149339 0.646732
O O2 0.424148 0.373459 0.571479
O O3 0.500000 0.000000 0.500000
O O4 0.101573 0.743390 0.435214
O O5 0.222095 0.494930 0.858666
O O6 0.808770 0.526449 0.793675
O O7 0.774598 0.012326 0.738237
O O8 0.194198 0.142676 0.960835
O O9 0.479387 0.755677 0.102175
O O10 0.500000 0.500000 0.000000
O O11 0.780306 0.299963 0.456067
O O12 0.657998 0.377256 0.351432
O O13 0.000000 0.000000 0.500000
O O14 0.913406 0.206085 0.028638
O O15 0.282139 0.098352 0.132954
O O16 0.000000 0.500000 0.000000
#
# Coordination Sequence:
#
# PCOD9007860 Si02
#       7
#     2   2   2   2   2   2   2
#     4  10  22  39  65  87 127 161 203 264 316 370
#     4  11  23  35  65  96 119 164 220 251 314 385
#     4  11  22  37  65  91 129 172 209 260 319 374
#     4   9  19  36  65  83 120 155 210 251 312 373
#     4   8  16  36  63  85 109 158 199 249 311 367
#     4  10  21  39  63  88 129 170 211 260 309 384
#     4   9  20  38  63  84 123 172 205 256 322 364
#
# _framework density 20.902352
#
# number of rings (size 3 to 8) (size 9 to 14) (size 15 to 20)
#    0.000    2.286    1.429    0.429    2.000    2.286 
#    0.000    0.000  103.714    0.000    0.000    0.000 
#    0.000    0.000    0.000    0.000    0.000    0.000 
#
# Total GULP energy -78052.679851 kJ/mol
# GULP energy per Si atom -5575.191418 kJ/mol
# Density = 2.085478 g / cm^3
# Si number density = 20.902352 Si / 1000 Ang^3
#
#
#
# Elastic Constant Matrix: (Units=GPa)
#
#
# Indices 1 2 3 4 5 6 
#
# 1 181.6691 44.6218 36.4848 6.9827 -14.9442 5.7987
# 2 44.6218 83.1782 15.0098 -3.4864 0.9184 6.7886
# 3 36.4848 15.0098 43.8781 -2.5877 -13.9185 4.1780
# 4 6.9827 -3.4864 -2.5877 29.7414 2.4723 7.7332
# 5 -14.9442 0.9184 -13.9185 2.4723 22.9515 -1.0426
# 6 5.7987 6.7886 4.1780 7.7332 -1.0426 44.3008
#
#
#
# Elastic Compliance Matrix: (Units=1/GPa)
#
#
# Indices 1 2 3 4 5 6 
#
# 1 0.007569 -0.003447 -0.004486 -0.002934 0.002686 0.000536
# 2 -0.003447 0.014889 -0.003553 0.003269 -0.005447 -0.002194
# 3 -0.004486 -0.003553 0.033543 0.002672 0.017179 -0.002094
# 4 -0.002934 0.003269 0.002672 0.037132 -0.004737 -0.006962
# 5 0.002686 -0.005447 0.017179 -0.004737 0.056512 0.001020
# 6 0.000536 -0.002194 -0.002094 -0.006962 0.001020 0.024276
#
#
# Mechanical properties :
#
#
# Convention : Reuss Voigt Hill
#
# Bulk Modulus (GPa) = 30.27777 55.66202 42.96989
# Shear Modulus (GPa) = 24.04979 33.57267 28.81123
#
# Velocity S-wave (km/s) = 3.39570 4.01205 3.71667
# Velocity P-wave (km/s) = 5.46728 6.93898 6.24662
#
# Compressibility (1/GPa) = 0.03302754
#
# Stress axis : x y z
#
# Youngs Moduli (GPa) = 132.12082 67.16363 29.81273
#
# Poissons Ratio (x) = 0.23152 0.13375
# Poissons Ratio (y) = 0.45544 0.10592
# Poissons Ratio (z) = 0.59275 0.23863
#
# Static dielectric constant tensor:
#      x y z
#    x 1.764040 0.026040 0.028690 
#    y 0.026040 1.791220 0.004070 
#    z 0.028690 0.004070 1.782540 
# 
# From -- ./inp_files/622160.got.cif
#   From: 2010.05.17/outbox.cif.g08.bks.cpg/sg2_312_cif.got.tgz:622160.got - 2010.06.03 11:33:40.
