data_PCOD9007826
_publ_section_title
;
Structure prediction by ZEFSAII (Michael W. Deem and Ramdas Pophale) SiO2 
 PCOD9007826
Probable space group: P -1
;
_chemical_formula_sum "Si O2"
_cell_formula_units_Z 12
_cell_length_a 9.095403
_cell_length_b 10.690302
_cell_length_c 7.068314
_cell_angle_alpha 116.999905
_cell_angle_beta 130.873421
_cell_angle_gamma 74.031712
_cell_volume 462.796217
_symmetry_space_group_name_H-M "P -1"
_symmetry_group_IT_number 2
_symmetry_cell_setting 'triclinic'
loop_
_space_group_symop_operation_xyz
x,y,z
-x,-y,-z
loop_
_atom_site_type_symbol
_atom_site_label
_atom_site_fract_x
_atom_site_fract_y
_atom_site_fract_z
Si Si1 0.292278 0.723993 0.802849
Si Si2 0.198184 0.235391 0.946013
Si Si3 0.383570 0.782190 0.507275
Si Si4 0.576422 0.503882 0.784992
Si Si5 0.338664 0.096249 0.628909
Si Si6 0.041902 0.168336 0.151659
O O1 0.253245 0.749239 0.562905
O O2 0.402389 0.575389 0.801763
O O3 0.103993 0.748392 0.783438
O O4 0.455032 0.840097 0.085607
O O5 0.190939 0.121538 0.696398
O O6 0.047716 0.224154 0.981292
O O7 0.402926 0.208608 0.208427
O O8 0.239626 0.386907 0.987440
O O9 0.373132 0.656685 0.260925
O O10 0.348945 0.931897 0.490735
O O11 0.500000 0.500000 0.500000
O O12 0.251626 0.178860 0.437596
O O13 0.000000 0.000000 0.000000
#
# Coordination Sequence:
#
# PCOD9007826 Si02
#       6
#     2   2   2   2   2   2
#     4   9  19  37  59  86 119 155 196 242 291 348
#     4   9  19  37  59  86 119 155 196 242 291 348
#     4   9  16  35  64  87 116 161 198 236 298 354
#     4   7  15  35  63  83 113 163 198 234 293 350
#     4  10  21  39  63  86 120 157 190 245 299 346
#     4  12  24  35  59  98 120 145 201 249 293 348
#
# _framework density 25.929342999999999
#
# number of rings (size 3 to 8) (size 9 to 14) (size 15 to 20)
#    0.000    3.333    0.000    4.000    0.000    5.333 
#    0.000   10.833    0.000  106.000    0.000    0.000 
#    0.000    0.000    0.000    0.000    0.000    0.000 
#
# Total GULP energy -67169.199585 kJ/mol
# GULP energy per Si atom -5597.433299 kJ/mol
# Density = 2.587033 g / cm^3
# Si number density = 25.929343 Si / 1000 Ang^3
#
#
#
# Elastic Constant Matrix: (Units=GPa)
#
#
# Indices 1 2 3 4 5 6 
#
# 1 131.8264 52.2890 27.6947 22.5966 -39.4346 -13.3318
# 2 52.2890 162.9704 59.2214 34.0460 -15.5192 -13.1470
# 3 27.6947 59.2214 82.9574 14.4200 -21.4521 -4.3334
# 4 22.5966 34.0460 14.4200 56.8251 -6.7748 -12.4407
# 5 -39.4346 -15.5192 -21.4521 -6.7748 45.6506 6.5321
# 6 -13.3318 -13.1470 -4.3334 -12.4407 6.5321 21.2355
#
#
#
# Elastic Compliance Matrix: (Units=1/GPa)
#
#
# Indices 1 2 3 4 5 6 
#
# 1 0.011662 -0.002614 0.000698 -0.001725 0.008960 0.002079
# 2 -0.002614 0.009774 -0.006120 -0.003103 -0.002578 0.002136
# 3 0.000698 -0.006120 0.018086 -0.000861 0.007236 -0.002390
# 4 -0.001725 -0.003103 -0.000861 0.022494 -0.001090 0.010333
# 5 0.008960 -0.002578 0.007236 -0.001090 0.032753 -0.005208
# 6 0.002079 0.002136 -0.002390 0.010333 -0.005208 0.056887
#
#
# Mechanical properties :
#
#
# Convention : Reuss Voigt Hill
#
# Bulk Modulus (GPa) = 42.64341 72.90715 57.77528
# Shear Modulus (GPa) = 28.48268 40.64550 34.56409
#
# Velocity S-wave (km/s) = 3.31792 3.96352 3.65500
# Velocity P-wave (km/s) = 5.58210 7.00890 6.33579
#
# Compressibility (1/GPa) = 0.02345028
#
# Stress axis : x y z
#
# Youngs Moduli (GPa) = 85.74650 102.31218 55.29020
#
# Poissons Ratio (x) = 0.26747 -0.03862
# Poissons Ratio (y) = 0.22417 0.33839
# Poissons Ratio (z) = -0.05989 0.62618
#
# Static dielectric constant tensor:
#      x y z
#    x 2.153740 0.001520 0.007340 
#    y 0.001520 2.080370 -0.029560 
#    z 0.007340 -0.029560 2.019660 
# 
# From -- ./inp_files/312204.got.cif
#   From: 2010.05.17/outbox.cif.g08.bks.cpg/sg2_157_cif.got.tgz:312204.got - 2010.06.03 11:33:40.
