data_PCOD9007900
_publ_section_title
;
Structure prediction by ZEFSAII (Michael W. Deem and Ramdas Pophale) SiO2 
 PCOD9007900
Probable space group: P -1
;
_chemical_formula_sum "Si O2"
_cell_formula_units_Z 16
_cell_length_a 9.996129
_cell_length_b 8.048150
_cell_length_c 10.087028
_cell_angle_alpha 62.808976
_cell_angle_beta 104.110002
_cell_angle_gamma 99.325145
_cell_volume 698.838925
_symmetry_space_group_name_H-M "P -1"
_symmetry_group_IT_number 2
_symmetry_cell_setting 'triclinic'
loop_
_space_group_symop_operation_xyz
x,y,z
-x,-y,-z
loop_
_atom_site_type_symbol
_atom_site_label
_atom_site_fract_x
_atom_site_fract_y
_atom_site_fract_z
Si Si1 0.517586 0.279449 0.564349
Si Si2 0.241139 0.973710 0.315622
Si Si3 0.682312 0.596552 0.881564
Si Si4 0.169648 0.394763 0.805463
Si Si5 0.597792 0.359010 0.272375
Si Si6 0.915000 0.401088 0.894104
Si Si7 0.078467 0.001407 0.828051
Si Si8 0.726769 0.013172 0.362394
O O1 0.500000 0.500000 0.500000
O O2 0.660554 0.179658 0.668364
O O3 0.523173 0.256178 0.415764
O O4 0.382189 0.161221 0.625834
O O5 0.082469 0.957733 0.236119
O O6 0.299473 0.180249 0.212745
O O7 0.238532 0.971743 0.477592
O O8 0.524180 0.524791 0.855797
O O9 0.770709 0.495400 0.828863
O O10 0.749089 0.564604 0.052259
O O11 0.266206 0.522438 0.686365
O O12 0.162066 0.178431 0.847558
O O13 0.011768 0.442282 0.775195
O O14 0.646165 0.199184 0.246174
O O15 0.000000 0.500000 0.000000
O O16 0.905935 0.184035 0.012962
O O17 0.142073 0.980693 0.704298
#
# Coordination Sequence:
#
# PCOD9007900 Si02
#       8
#     2   2   2   2   2   2   2   2
#     4  11  23  43  65  96 127 161 206 267 321 360
#     4  11  22  42  68  92 123 170 210 253 312 379
#     4  11  21  42  67  93 121 170 217 248 308 378
#     4  11  24  40  62  94 132 165 201 265 315 359
#     4  11  22  43  66  91 126 167 216 254 304 381
#     4  10  21  39  63  90 125 169 207 247 306 375
#     4  12  24  42  62  96 134 161 206 265 313 363
#     4  11  22  43  67  92 123 170 212 255 309 377
#
# _framework density 22.895119000000001
#
# number of rings (size 3 to 8) (size 9 to 14) (size 15 to 20)
#    0.000    1.000    5.000    4.125    0.000    1.000 
#    0.000    4.375    0.000    0.000    0.000    0.000 
#    0.000    0.000    0.000    0.000    0.000    0.000 
#
# Total GULP energy -89340.867841 kJ/mol
# GULP energy per Si atom -5583.804240 kJ/mol
# Density = 2.284301 g / cm^3
# Si number density = 22.895119 Si / 1000 Ang^3
#
#
#
# Elastic Constant Matrix: (Units=GPa)
#
#
# Indices 1 2 3 4 5 6 
#
# 1 148.0558 53.4625 20.2049 -24.8774 3.4513 -3.9601
# 2 53.4625 112.6285 6.7199 -29.4650 8.6371 1.9407
# 3 20.2049 6.7199 37.8662 -13.5588 -3.4025 -4.1698
# 4 -24.8774 -29.4650 -13.5588 32.0289 -7.4880 -5.1890
# 5 3.4513 8.6371 -3.4025 -7.4880 30.2765 -10.0910
# 6 -3.9601 1.9407 -4.1698 -5.1890 -10.0910 35.9512
#
#
#
# Elastic Compliance Matrix: (Units=1/GPa)
#
#
# Indices 1 2 3 4 5 6 
#
# 1 0.008880 -0.003329 -0.002778 0.003121 0.000911 0.001542
# 2 -0.003329 0.013155 0.003585 0.011228 0.000139 0.000999
# 3 -0.002778 0.003585 0.037146 0.021389 0.012198 0.010320
# 4 0.003121 0.011228 0.021389 0.060141 0.019143 0.016272
# 5 0.000911 0.000139 0.012198 0.019143 0.044585 0.016785
# 6 0.001542 0.000999 0.010320 0.016272 0.016785 0.036188
#
#
# Mechanical properties :
#
#
# Convention : Reuss Voigt Hill
#
# Bulk Modulus (GPa) = 18.47217 51.03611 34.75414
# Shear Modulus (GPa) = 22.40290 34.19554 28.29922
#
# Velocity S-wave (km/s) = 3.13149 3.86887 3.51955
# Velocity P-wave (km/s) = 4.60007 6.50363 5.63284
#
# Compressibility (1/GPa) = 0.05413548
#
# Stress axis : x y z
#
# Youngs Moduli (GPa) = 112.61284 76.01905 26.92065
#
# Poissons Ratio (x) = 0.25309 0.07479
# Poissons Ratio (y) = 0.37492 -0.09650
# Poissons Ratio (z) = 0.31285 -0.27251
#
# Static dielectric constant tensor:
#      x y z
#    x 1.992270 -0.006190 -0.017580 
#    y -0.006190 1.856700 -0.001420 
#    z -0.017580 -0.001420 1.972470 
# 
# From -- ./inp_files/307430.got.cif
#   From: 2010.05.17/outbox.cif.g08.bks.cpg/sg2_154_cif.got.tgz:307430.got - 2010.06.03 11:33:40.
