data_PCOD9007394
_publ_section_title
;
Structure prediction by ZEFSAII (Michael W. Deem and Ramdas Pophale) SiO2 
 PCOD9007394
Probable space group: P -1
;
_chemical_formula_sum "Si O2"
_cell_formula_units_Z 12
_cell_length_a 5.230185
_cell_length_b 20.555627
_cell_length_c 22.644281
_cell_angle_alpha 161.781103
_cell_angle_beta 123.317005
_cell_angle_gamma 49.718898
_cell_volume 558.778062
_symmetry_space_group_name_H-M "P -1"
_symmetry_group_IT_number 2
_symmetry_cell_setting 'triclinic'
loop_
_space_group_symop_operation_xyz
x,y,z
-x,-y,-z
loop_
_atom_site_type_symbol
_atom_site_label
_atom_site_fract_x
_atom_site_fract_y
_atom_site_fract_z
Si Si1 0.864054 0.776447 0.231392
Si Si2 0.828914 0.986606 0.906731
Si Si3 0.908735 0.869027 0.448197
Si Si4 0.765341 0.095959 0.810668
Si Si5 0.646518 0.244164 0.328679
Si Si6 0.762612 0.657103 0.933097
O O1 0.022380 0.782184 0.320189
O O2 0.453301 0.904957 0.274986
O O3 0.983870 0.939412 0.350526
O O4 0.000000 0.500000 0.000000
O O5 0.331082 0.194798 0.265186
O O6 0.496257 0.230709 0.057670
O O7 0.000000 0.000000 0.000000
O O8 0.115070 0.926204 0.840241
O O9 0.059949 0.624177 0.290213
O O10 0.500000 0.000000 0.500000
O O11 0.475689 0.226265 0.938076
O O12 0.071062 0.844847 0.658219
O O13 0.951397 0.254281 0.957405
O O14 0.500000 0.500000 0.500000
#
# Coordination Sequence:
#
# PCOD9007394 Si02
#       6
#     2   2   2   2   2   2
#     4  11  23  41  63  88 124 164 206 252 312 363
#     4  10  21  39  62  89 121 165 196 250 311 354
#     4  11  25  39  61  94 121 162 212 255 301 372
#     4  10  22  40  64  87 120 170 200 250 313 358
#     4  10  21  39  61  91 123 156 206 250 298 369
#     4  10  22  41  62  87 125 160 209 250 302 374
#
# _framework density 21.475429999999999
#
# number of rings (size 3 to 8) (size 9 to 14) (size 15 to 20)
#    0.000    1.667    1.667    2.000    4.667    2.667 
#    3.000    0.000    0.000    0.000    0.000    0.000 
#    0.000    0.000    0.000    0.000    0.000    0.000 
#
# Total GULP energy -66902.703081 kJ/mol
# GULP energy per Si atom -5575.225257 kJ/mol
# Density = 2.142655 g / cm^3
# Si number density = 21.475430 Si / 1000 Ang^3
#
#
#
# Elastic Constant Matrix: (Units=GPa)
#
#
# Indices 1 2 3 4 5 6 
#
# 1 116.1125 18.0596 21.6067 6.7639 15.0106 -8.0327
# 2 18.0596 137.8867 37.2713 23.6783 30.8732 -11.8359
# 3 21.6067 37.2713 78.2958 34.8948 31.9617 -1.2267
# 4 6.7639 23.6783 34.8948 45.0466 13.9248 5.8612
# 5 15.0106 30.8732 31.9617 13.9248 30.4816 -0.9109
# 6 -8.0327 -11.8359 -1.2267 5.8612 -0.9109 34.1997
#
#
#
# Elastic Compliance Matrix: (Units=1/GPa)
#
#
# Indices 1 2 3 4 5 6 
#
# 1 0.009414 -0.000024 -0.001424 0.000453 -0.003266 0.001987
# 2 -0.000024 0.010051 0.000440 -0.003338 -0.008990 0.003821
# 3 -0.001424 0.000440 0.029861 -0.016272 -0.023531 0.003051
# 4 0.000453 -0.003338 -0.016272 0.036478 0.003323 -0.007796
# 5 -0.003266 -0.008990 -0.023531 0.003323 0.066570 -0.003519
# 6 0.001987 0.003821 0.003051 -0.007796 -0.003519 0.032381
#
#
# Mechanical properties :
#
#
# Convention : Reuss Voigt Hill
#
# Bulk Modulus (GPa) = 21.13748 54.01893 37.57820
# Shear Modulus (GPa) = 24.68611 38.96939 31.82775
#
# Velocity S-wave (km/s) = 3.39411 4.26444 3.85392
# Velocity P-wave (km/s) = 5.02235 7.03247 6.11063
#
# Compressibility (1/GPa) = 0.04730934
#
# Stress axis : x y z
#
# Youngs Moduli (GPa) = 106.22035 99.49494 33.48802
#
# Poissons Ratio (x) = 0.00239 0.04769
# Poissons Ratio (y) = 0.00256 -0.01472
# Poissons Ratio (z) = 0.15128 -0.04374
#
# Static dielectric constant tensor:
#      x y z
#    x 1.842320 0.058900 -0.014230 
#    y 0.058900 1.817970 0.006940 
#    z -0.014230 0.006940 1.781530 
# 
# From -- ./inp_files/584348.got.cif
#   From: 2010.05.17/outbox.cif.g08.bks.cpg/sg2_293_cif.got.tgz:584348.got - 2010.06.03 11:33:40.
