data_PCOD9007624
_publ_section_title
;
Structure prediction by ZEFSAII (Michael W. Deem and Ramdas Pophale) SiO2 
 PCOD9007624
Probable space group: P -1
;
_chemical_formula_sum "Si O2"
_cell_formula_units_Z 16
_cell_length_a 14.687411
_cell_length_b 5.245064
_cell_length_c 17.890982
_cell_angle_alpha 96.358723
_cell_angle_beta 153.342308
_cell_angle_gamma 83.837678
_cell_volume 614.455318
_symmetry_space_group_name_H-M "P -1"
_symmetry_group_IT_number 2
_symmetry_cell_setting 'triclinic'
loop_
_space_group_symop_operation_xyz
x,y,z
-x,-y,-z
loop_
_atom_site_type_symbol
_atom_site_label
_atom_site_fract_x
_atom_site_fract_y
_atom_site_fract_z
Si Si1 0.856147 0.439921 0.015451
Si Si2 0.294111 0.759571 0.901858
Si Si3 0.581771 0.761024 0.318472
Si Si4 0.839033 0.771886 0.862275
Si Si5 0.413488 0.981312 0.517715
Si Si6 0.261991 0.223824 0.775500
Si Si7 0.169785 0.752527 0.527780
Si Si8 0.992082 0.838701 0.236127
O O1 0.660380 0.262284 0.868745
O O2 0.847946 0.587897 0.934787
O O3 0.848500 0.640165 0.083771
O O4 0.081102 0.319423 0.164012
O O5 0.518178 0.768246 0.102135
O O6 0.269628 0.478453 0.841447
O O7 0.279981 0.960340 0.828126
O O8 0.120863 0.885141 0.830750
O O9 0.623394 0.795202 0.440163
O O10 0.695739 0.499767 0.368397
O O11 0.687600 0.001513 0.363950
O O12 0.601195 0.833738 0.689304
O O13 0.000000 0.000000 0.000000
O O14 0.500000 0.000000 0.500000
O O15 0.199398 0.852413 0.344330
O O16 0.037745 0.236060 0.575500
O O17 0.072957 0.753135 0.373639
#
# Coordination Sequence:
#
# PCOD9007624 Si02
#       8
#     2   2   2   2   2   2   2   2
#     4  11  24  40  61  81 123 166 206 257 311 373
#     4   9  18  33  57  92 124 154 194 249 310 361
#     4  11  23  41  58  87 121 163 203 249 311 369
#     4  11  23  42  59  83 116 167 213 251 316 371
#     4  11  23  39  61  87 117 158 207 265 301 359
#     4   9  16  33  60  88 124 157 191 247 309 365
#     4  10  21  39  62  90 121 154 208 254 302 364
#     4  10  22  38  57  92 118 156 203 262 299 357
#
# _framework density 26.039321000000001
#
# number of rings (size 3 to 8) (size 9 to 14) (size 15 to 20)
#    0.000    1.750    1.250    4.500    3.500    0.500 
#    4.500    0.000    0.000    1.500    0.000    0.000 
#    0.000    2.000    0.000    0.000    0.000    0.000 
#
# Total GULP energy -89414.968119 kJ/mol
# GULP energy per Si atom -5588.435507 kJ/mol
# Density = 2.598005 g / cm^3
# Si number density = 26.039321 Si / 1000 Ang^3
#
#
#
# Elastic Constant Matrix: (Units=GPa)
#
#
# Indices 1 2 3 4 5 6 
#
# 1 63.1412 35.9442 35.7783 4.2966 35.1908 -0.7239
# 2 35.9442 104.3658 55.0766 8.3497 14.7775 1.3931
# 3 35.7783 55.0766 124.1279 9.9746 37.4149 -6.0880
# 4 4.2966 8.3497 9.9746 54.2425 -4.0488 2.9151
# 5 35.1908 14.7775 37.4149 -4.0488 62.0268 1.9842
# 6 -0.7239 1.3931 -6.0880 2.9151 1.9842 42.1607
#
#
#
# Elastic Compliance Matrix: (Units=1/GPa)
#
#
# Indices 1 2 3 4 5 6 
#
# 1 0.028412 -0.007431 -0.000315 -0.002201 -0.014351 0.001515
# 2 -0.007431 0.014566 -0.005645 -0.000217 0.004188 -0.001606
# 3 -0.000315 -0.005645 0.012892 -0.002094 -0.006469 0.002492
# 4 -0.002201 -0.000217 -0.002094 0.019419 0.003890 -0.001859
# 5 -0.014351 0.004188 -0.006469 0.003890 0.027515 -0.002883
# 6 0.001515 -0.001606 0.002492 -0.001859 -0.002883 0.024422
#
#
# Mechanical properties :
#
#
# Convention : Reuss Voigt Hill
#
# Bulk Modulus (GPa) = 34.37869 60.58145 47.48007
# Shear Modulus (GPa) = 30.54319 42.67505 36.60912
#
# Velocity S-wave (km/s) = 3.42857 4.05269 3.75362
# Velocity P-wave (km/s) = 5.37631 6.72420 6.08768
#
# Compressibility (1/GPa) = 0.02908779
#
# Stress axis : x y z
#
# Youngs Moduli (GPa) = 35.19664 68.65505 77.56676
#
# Poissons Ratio (x) = 0.51017 0.02445
# Poissons Ratio (y) = 0.26154 0.43784
# Poissons Ratio (z) = 0.01110 0.38754
#
# Static dielectric constant tensor:
#      x y z
#    x 2.190320 -0.148170 0.173450 
#    y -0.148170 2.410990 -0.445410 
#    z 0.173450 -0.445410 2.613380 
# 
# From -- ./inp_files/599045.got.cif
#   From: 2010.05.17/outbox.cif.g08.bks.cpg/sg2_300_cif.got.tgz:599045.got - 2010.06.03 11:33:40.
