data_PCOD9007630
_publ_section_title
;
Structure prediction by ZEFSAII (Michael W. Deem and Ramdas Pophale) SiO2 
 PCOD9007630
Probable space group: P -1
;
_chemical_formula_sum "Si O2"
_cell_formula_units_Z 14
_cell_length_a 9.160521
_cell_length_b 8.498117
_cell_length_c 20.896287
_cell_angle_alpha 48.097293
_cell_angle_beta 50.585351
_cell_angle_gamma 32.403009
_cell_volume 638.419872
_symmetry_space_group_name_H-M "P -1"
_symmetry_group_IT_number 2
_symmetry_cell_setting 'triclinic'
loop_
_space_group_symop_operation_xyz
x,y,z
-x,-y,-z
loop_
_atom_site_type_symbol
_atom_site_label
_atom_site_fract_x
_atom_site_fract_y
_atom_site_fract_z
Si Si1 0.788906 0.166997 0.883793
Si Si2 0.085946 0.678067 0.302203
Si Si3 0.728911 0.398666 0.013059
Si Si4 0.094254 0.263004 0.482491
Si Si5 0.476855 0.444114 0.448681
Si Si6 0.036975 0.363780 0.097381
Si Si7 0.664372 0.370597 0.281063
O O1 0.802892 0.973444 0.878918
O O2 0.984230 0.945851 0.950259
O O3 0.916989 0.264175 0.787543
O O4 0.466572 0.449897 0.911328
O O5 0.073788 0.438188 0.380880
O O6 0.373727 0.528898 0.291111
O O7 0.858114 0.007085 0.312336
O O8 0.500000 0.500000 0.000000
O O9 0.805436 0.577423 0.925966
O O10 0.000000 0.500000 0.500000
O O11 0.851457 0.290841 0.542738
O O12 0.385101 0.903852 0.501167
O O13 0.500000 0.500000 0.500000
O O14 0.620297 0.446824 0.348379
O O15 0.793389 0.464875 0.181254
O O16 0.000000 0.500000 0.000000
#
# Coordination Sequence:
#
# PCOD9007630 Si02
#       7
#     2   2   2   2   2   2   2
#     4  10  21  39  62  90 122 159 213 260 307 380
#     4  11  21  37  68  95 119 159 224 272 307 362
#     4  11  22  39  61  90 129 163 199 258 324 381
#     4  12  22  42  70  93 125 170 224 267 319 381
#     4  12  25  42  63  96 136 171 211 265 333 390
#     4   9  20  38  65  89 117 164 212 256 311 372
#     4  11  21  38  63  94 125 162 215 270 315 382
#
# _framework density 21.929141000000001
#
# number of rings (size 3 to 8) (size 9 to 14) (size 15 to 20)
#    0.000    1.143    2.857    5.143    0.000    3.429 
#    2.571    0.000    9.429    0.000    0.000    0.000 
#    0.000    0.000    0.000    0.000    0.000    0.000 
#
# Total GULP energy -78012.840266 kJ/mol
# GULP energy per Si atom -5572.345733 kJ/mol
# Density = 2.187923 g / cm^3
# Si number density = 21.929141 Si / 1000 Ang^3
#
#
#
# Elastic Constant Matrix: (Units=GPa)
#
#
# Indices 1 2 3 4 5 6 
#
# 1 79.5398 5.5837 12.3324 7.0567 6.2916 -15.1011
# 2 5.5837 103.3893 16.9664 3.6369 3.1714 -19.7605
# 3 12.3324 16.9664 135.8092 9.2770 -3.7919 7.3844
# 4 7.0567 3.6369 9.2770 32.9245 2.2213 1.8731
# 5 6.2916 3.1714 -3.7919 2.2213 24.7767 3.0428
# 6 -15.1011 -19.7605 7.3844 1.8731 3.0428 22.1760
#
#
#
# Elastic Compliance Matrix: (Units=1/GPa)
#
#
# Indices 1 2 3 4 5 6 
#
# 1 0.016694 0.002956 -0.002702 -0.003609 -0.006688 0.016124
# 2 0.002956 0.013111 -0.002743 -0.001876 -0.004571 0.015395
# 3 -0.002702 -0.002743 0.008543 -0.001328 0.003382 -0.007481
# 4 -0.003609 -0.001876 -0.001328 0.032161 -0.001163 -0.006245
# 5 -0.006688 -0.004571 0.003382 -0.001163 0.045213 -0.015859
# 6 0.016124 0.015395 -0.007481 -0.006245 -0.015859 0.074986
#
#
# Mechanical properties :
#
#
# Convention : Reuss Voigt Hill
#
# Bulk Modulus (GPa) = 29.96689 43.16702 36.56695
# Shear Modulus (GPa) = 24.17662 34.89917 29.53789
#
# Velocity S-wave (km/s) = 3.32398 3.99363 3.67409
# Velocity P-wave (km/s) = 5.33167 6.40257 5.89151
#
# Compressibility (1/GPa) = 0.03337017
#
# Stress axis : x y z
#
# Youngs Moduli (GPa) = 59.90083 76.27034 117.05222
#
# Poissons Ratio (x) = -0.22543 0.31629
# Poissons Ratio (y) = -0.17705 0.32106
# Poissons Ratio (z) = 0.16186 0.20920
#
# Static dielectric constant tensor:
#      x y z
#    x 1.875880 0.035180 0.035900 
#    y 0.035180 1.802680 -0.012540 
#    z 0.035900 -0.012540 2.003700 
# 
# From -- ./inp_files/223972.got.cif
#   From: 2010.05.17/outbox.cif.g08.bks.cpg/sg2_112_cif.got.tgz:223972.got - 2010.06.03 11:33:40.
