data_PCOD9007066
_publ_section_title
;
Structure prediction by ZEFSAII (Michael W. Deem and Ramdas Pophale) SiO2 
 PCOD9007066
Probable space group: P -1
;
_chemical_formula_sum "Si O2"
_cell_formula_units_Z 15
_cell_length_a 14.936405
_cell_length_b 8.093210
_cell_length_c 24.973672
_cell_angle_alpha 43.193537
_cell_angle_beta 22.420007
_cell_angle_gamma 53.550692
_cell_volume 750.334067
_symmetry_space_group_name_H-M "P -1"
_symmetry_group_IT_number 2
_symmetry_cell_setting 'triclinic'
loop_
_space_group_symop_operation_xyz
x,y,z
-x,-y,-z
loop_
_atom_site_type_symbol
_atom_site_label
_atom_site_fract_x
_atom_site_fract_y
_atom_site_fract_z
Si Si1 0.055622 0.146098 0.204029
Si Si2 0.497608 0.536574 0.929266
Si Si3 0.009131 0.735435 0.902738
Si Si4 0.181363 0.864882 0.037072
Si Si5 0.539642 0.143107 0.532573
Si Si6 0.000000 0.000000 0.000000
Si Si7 0.505552 0.355671 0.617370
Si Si8 0.963752 0.390020 0.708591
O O1 0.048490 0.317123 0.115151
O O2 0.790812 0.086000 0.392757
O O3 0.082813 0.881814 0.229983
O O4 0.280748 0.307235 0.077474
O O5 0.420186 0.790561 0.904100
O O6 0.762483 0.518970 0.769457
O O7 0.500000 0.500000 0.000000
O O8 0.286136 0.926953 0.709419
O O9 0.000000 0.500000 0.000000
O O10 0.815805 0.870936 0.000092
O O11 0.067646 0.671314 0.195222
O O12 0.998485 0.834750 0.095298
O O13 0.537264 0.202664 0.582724
O O14 0.531577 0.384801 0.445138
O O15 0.276934 0.181394 0.818006
O O16 0.756949 0.437598 0.492756
#
# Coordination Sequence:
#
# PCOD9007066 Si02
#       8
#     2   2   2   2   2   1   2   2
#     4  11  22  36  63  94 128 169 208 263 325 364
#     4  10  21  39  65  89 120 170 228 260 297 371
#     4  11  24  38  57  98 137 163 200 260 331 386
#     4  10  21  39  59  91 123 164 212 252 317 371
#     4  11  21  38  59  90 129 166 208 260 313 390
#     4  12  22  34  64  96 124 168 198 270 316 374
#     4  11  21  37  61  90 127 164 219 253 316 377
#     4  10  21  41  60  92 126 167 217 267 299 375
#
# _framework density 19.991094
#
# number of rings (size 3 to 8) (size 9 to 14) (size 15 to 20)
#    0.000    1.333    4.000    4.000    3.733    0.000 
#    0.000    0.667    0.000    3.200    0.000   13.067 
#    0.000    0.000    0.000    0.000    0.000    0.000 
#
# Total GULP energy -83509.958703 kJ/mol
# GULP energy per Si atom -5567.330580 kJ/mol
# Density = 1.994559 g / cm^3
# Si number density = 19.991094 Si / 1000 Ang^3
#
#
#
# Elastic Constant Matrix: (Units=GPa)
#
#
# Indices 1 2 3 4 5 6 
#
# 1 98.3315 24.1692 35.5487 -4.5738 -25.4385 6.9686
# 2 24.1692 67.2361 39.9957 10.0092 -3.1603 -5.8742
# 3 35.5487 39.9957 133.9314 -8.9938 -18.3704 3.8929
# 4 -4.5738 10.0092 -8.9938 25.8352 -0.9015 -1.7479
# 5 -25.4385 -3.1603 -18.3704 -0.9015 31.9710 -2.7182
# 6 6.9686 -5.8742 3.8929 -1.7479 -2.7182 21.9558
#
#
#
# Elastic Compliance Matrix: (Units=1/GPa)
#
#
# Indices 1 2 3 4 5 6 
#
# 1 0.015129 -0.005888 -0.000277 0.004939 0.011047 -0.004567
# 2 -0.005888 0.023646 -0.007427 -0.012486 -0.006310 0.007737
# 3 -0.000277 -0.007427 0.011015 0.006669 0.005336 -0.002661
# 4 0.004939 -0.012486 0.006669 0.046916 0.007732 -0.001399
# 5 0.011047 -0.006310 0.005336 0.007732 0.042708 -0.000237
# 6 -0.004567 0.007737 -0.002661 -0.001399 -0.000237 0.049396
#
#
# Mechanical properties :
#
#
# Convention : Reuss Voigt Hill
#
# Bulk Modulus (GPa) = 44.24037 55.43623 49.83830
# Shear Modulus (GPa) = 22.36833 29.27144 25.81988
#
# Velocity S-wave (km/s) = 3.34865 3.83067 3.59774
# Velocity P-wave (km/s) = 6.09338 6.88157 6.49944
#
# Compressibility (1/GPa) = 0.02260379
#
# Stress axis : x y z
#
# Youngs Moduli (GPa) = 66.10031 42.29082 90.78348
#
# Poissons Ratio (x) = 0.24902 0.02518
# Poissons Ratio (y) = 0.38922 0.67427
# Poissons Ratio (z) = 0.01834 0.31410
#
# Static dielectric constant tensor:
#      x y z
#    x 1.728930 0.029860 0.080370 
#    y 0.029860 1.785460 0.088800 
#    z 0.080370 0.088800 1.950250 
# 
# From -- ./inp_files/307153.got.cif
#   From: 2010.05.17/outbox.cif.g08.bks.cpg/sg2_154_cif.got.tgz:307153.got - 2010.06.03 11:33:40.
