data_PCOD9007139
_publ_section_title
;
Structure prediction by ZEFSAII (Michael W. Deem and Ramdas Pophale) SiO2 
 PCOD9007139
Probable space group: P -1
;
_chemical_formula_sum "Si O2"
_cell_formula_units_Z 16
_cell_length_a 11.704059
_cell_length_b 16.493084
_cell_length_c 21.068885
_cell_angle_alpha 157.004018
_cell_angle_beta 151.333952
_cell_angle_gamma 30.369269
_cell_volume 728.517315
_symmetry_space_group_name_H-M "P -1"
_symmetry_group_IT_number 2
_symmetry_cell_setting 'triclinic'
loop_
_space_group_symop_operation_xyz
x,y,z
-x,-y,-z
loop_
_atom_site_type_symbol
_atom_site_label
_atom_site_fract_x
_atom_site_fract_y
_atom_site_fract_z
Si Si1 0.569339 0.156331 0.015842
Si Si2 0.997067 0.821432 0.923004
Si Si3 0.962051 0.635735 0.392259
Si Si4 0.570501 0.113649 0.740217
Si Si5 0.724638 0.781554 0.965467
Si Si6 0.980326 0.094698 0.268652
Si Si7 0.341092 0.067565 0.724144
Si Si8 0.194208 0.655577 0.383654
O O1 0.769609 0.220700 0.205460
O O2 0.316485 0.224424 0.983189
O O3 0.474127 0.205483 0.932942
O O4 0.755057 0.913995 0.916522
O O5 0.996092 0.602492 0.731627
O O6 0.237036 0.775405 0.052675
O O7 0.000000 0.000000 0.000000
O O8 0.671601 0.739415 0.307284
O O9 0.045049 0.778907 0.587370
O O10 0.119153 0.616008 0.389996
O O11 0.466987 0.016512 0.680223
O O12 0.750459 0.941680 0.657432
O O13 0.953503 0.857978 0.105462
O O14 0.698787 0.570097 0.764468
O O15 0.500000 0.000000 0.000000
O O16 0.061898 0.218262 0.686164
O O17 0.340919 0.836088 0.586208
#
# Coordination Sequence:
#
# PCOD9007139 Si02
#       8
#     2   2   2   2   2   2   2   2
#     4  10  21  39  60  86 129 159 202 253 312 371
#     4  11  22  41  64  93 126 161 207 259 313 376
#     4  11  22  40  67  92 121 169 210 259 309 372
#     4  10  21  41  64  91 127 160 211 256 314 376
#     4  10  21  40  61  91 124 162 208 263 313 365
#     4  10  22  39  62  93 126 158 210 257 312 374
#     4  10  21  40  64  94 124 169 208 259 316 368
#     4  10  22  40  66  92 125 164 219 258 305 377
#
# _framework density 21.962416000000001
#
# number of rings (size 3 to 8) (size 9 to 14) (size 15 to 20)
#    0.000    1.750    1.250    3.750    0.000    3.500 
#    2.250    7.500    0.000    0.000    0.000    0.000 
#    0.000    0.000    0.000    0.000    0.000    0.000 
#
# Total GULP energy -89107.498481 kJ/mol
# GULP energy per Si atom -5569.218655 kJ/mol
# Density = 2.191243 g / cm^3
# Si number density = 21.962416 Si / 1000 Ang^3
#
#
#
# Elastic Constant Matrix: (Units=GPa)
#
#
# Indices 1 2 3 4 5 6 
#
# 1 98.7737 45.8485 38.6624 11.9244 -19.9400 -11.2832
# 2 45.8485 64.8239 43.7145 -5.5395 -2.9693 -3.2807
# 3 38.6624 43.7145 87.4903 10.2680 -24.4558 4.0568
# 4 11.9244 -5.5395 10.2680 32.8003 2.4760 2.2911
# 5 -19.9400 -2.9693 -24.4558 2.4760 30.5124 -3.6548
# 6 -11.2832 -3.2807 4.0568 2.2911 -3.6548 28.3116
#
#
#
# Elastic Compliance Matrix: (Units=1/GPa)
#
#
# Indices 1 2 3 4 5 6 
#
# 1 0.027547 -0.026464 0.010432 -0.020583 0.026842 0.011548
# 2 -0.026464 0.055174 -0.030399 0.031984 -0.039786 -0.007522
# 3 0.010432 -0.030399 0.033710 -0.022091 0.032891 0.001838
# 4 -0.020583 0.031984 -0.022091 0.053521 -0.033585 -0.009998
# 5 0.026842 -0.039786 0.032891 -0.033585 0.077215 0.014060
# 6 0.011548 -0.007522 0.001838 -0.009998 0.014060 0.041412
#
#
# Mechanical properties :
#
#
# Convention : Reuss Voigt Hill
#
# Bulk Modulus (GPa) = 42.42738 56.39318 49.41028
# Shear Modulus (GPa) = 12.84372 26.51570 19.67971
#
# Velocity S-wave (km/s) = 2.42090 3.47842 2.99668
# Velocity P-wave (km/s) = 5.21291 6.47035 5.87537
#
# Compressibility (1/GPa) = 0.02356969
#
# Stress axis : x y z
#
# Youngs Moduli (GPa) = 36.30141 18.12463 29.66507
#
# Poissons Ratio (x) = 0.47964 -0.30948
# Poissons Ratio (y) = 0.96067 0.90179
# Poissons Ratio (z) = -0.37871 0.55097
#
# Static dielectric constant tensor:
#      x y z
#    x 1.916520 -0.018160 0.057470 
#    y -0.018160 1.830150 -0.050890 
#    z 0.057470 -0.050890 1.806390 
# 
# From -- ./inp_files/596081.got.cif
#   From: 2010.05.17/outbox.cif.g08.bks.cpg/sg2_299_cif.got.tgz:596081.got - 2010.06.03 11:33:40.
