data_PCOD9007609
_publ_section_title
;
Structure prediction by ZEFSAII (Michael W. Deem and Ramdas Pophale) SiO2 
 PCOD9007609
Probable space group: P -1
;
_chemical_formula_sum "Si O2"
_cell_formula_units_Z 16
_cell_length_a 12.667926
_cell_length_b 22.870606
_cell_length_c 19.071571
_cell_angle_alpha 163.925971
_cell_angle_beta 41.375040
_cell_angle_gamma 147.385335
_cell_volume 757.445626
_symmetry_space_group_name_H-M "P -1"
_symmetry_group_IT_number 2
_symmetry_cell_setting 'triclinic'
loop_
_space_group_symop_operation_xyz
x,y,z
-x,-y,-z
loop_
_atom_site_type_symbol
_atom_site_label
_atom_site_fract_x
_atom_site_fract_y
_atom_site_fract_z
Si Si1 0.358448 0.469150 0.596414
Si Si2 0.319700 0.692467 0.265777
Si Si3 0.617116 0.281850 0.570068
Si Si4 0.434165 0.342440 0.558628
Si Si5 0.923628 0.145848 0.004454
Si Si6 0.250695 0.759984 0.678831
Si Si7 0.249869 0.257808 0.690103
Si Si8 0.848959 0.291606 0.064589
O O1 0.500000 0.500000 0.500000
O O2 0.453372 0.489998 0.648185
O O3 0.312045 0.671612 0.838070
O O4 0.139517 0.140483 0.320649
O O5 0.367957 0.720293 0.356533
O O6 0.077162 0.559817 0.230912
O O7 0.500000 0.000000 0.500000
O O8 0.300615 0.460971 0.962866
O O9 0.662661 0.133019 0.320374
O O10 0.383054 0.163497 0.532965
O O11 0.822588 0.613049 0.831222
O O12 0.627022 0.344153 0.475231
O O13 0.374500 0.435923 0.762138
O O14 0.232910 0.005328 0.264073
O O15 0.768753 0.071215 0.060086
O O16 0.869083 0.268868 0.111927
O O17 0.000000 0.500000 0.500000
O O18 0.000000 0.000000 0.500000
#
# Coordination Sequence:
#
# PCOD9007609 Si02
#       8
#     2   2   2   2   2   2   2   2
#     4  11  22  35  60  96 126 162 202 254 318 372
#     4  11  24  42  62  93 124 163 211 266 312 371
#     4   9  21  39  66  85 119 170 207 249 321 376
#     4  10  21  40  61  90 126 163 207 259 308 374
#     4   9  19  37  62  89 123 165 202 252 308 380
#     4   9  17  35  63  86 115 160 208 245 305 366
#     4  11  22  42  66  90 121 165 216 257 316 370
#     4  10  21  39  62  89 127 162 207 252 315 372
#
# _framework density 21.123628
#
# number of rings (size 3 to 8) (size 9 to 14) (size 15 to 20)
#    0.000    2.000    1.250    1.875    1.750    3.000 
#    6.750    1.250    0.000    7.500    0.000    0.000 
#    0.000    0.000    0.000    0.000    0.000    0.000 
#
# Total GULP energy -89095.665621 kJ/mol
# GULP energy per Si atom -5568.479101 kJ/mol
# Density = 2.107555 g / cm^3
# Si number density = 21.123628 Si / 1000 Ang^3
#
#
#
# Elastic Constant Matrix: (Units=GPa)
#
#
# Indices 1 2 3 4 5 6 
#
# 1 91.1222 49.8695 20.5946 -5.3654 14.1700 -4.9147
# 2 49.8695 136.6944 32.7495 -9.8609 11.2425 -8.7755
# 3 20.5946 32.7495 73.2692 -0.6608 5.9024 -7.8395
# 4 -5.3654 -9.8609 -0.6608 38.9933 1.1781 16.4491
# 5 14.1700 11.2425 5.9024 1.1781 25.6918 1.5894
# 6 -4.9147 -8.7755 -7.8395 16.4491 1.5894 44.5648
#
#
#
# Elastic Compliance Matrix: (Units=1/GPa)
#
#
# Indices 1 2 3 4 5 6 
#
# 1 0.014751 -0.004413 -0.001655 0.000922 -0.005888 0.000336
# 2 -0.004413 0.009906 -0.003031 0.001746 -0.001305 0.000333
# 3 -0.001655 -0.003031 0.015865 -0.001837 -0.001491 0.002743
# 4 0.000922 0.001746 -0.001837 0.030978 -0.001574 -0.011256
# 5 -0.005888 -0.001305 -0.001491 -0.001574 0.043288 -0.002131
# 6 0.000336 0.000333 0.002743 -0.011256 -0.002131 0.027255
#
#
# Mechanical properties :
#
#
# Convention : Reuss Voigt Hill
#
# Bulk Modulus (GPa) = 44.79292 56.39034 50.59163
# Shear Modulus (GPa) = 29.81790 35.04145 32.42968
#
# Velocity S-wave (km/s) = 3.76119 4.07735 3.92245
# Velocity P-wave (km/s) = 6.33350 6.99426 6.67207
#
# Compressibility (1/GPa) = 0.02232496
#
# Stress axis : x y z
#
# Youngs Moduli (GPa) = 67.79001 100.94570 63.03034
#
# Poissons Ratio (x) = 0.44545 0.10434
# Poissons Ratio (y) = 0.29914 0.19104
# Poissons Ratio (z) = 0.11222 0.30596
#
# Static dielectric constant tensor:
#      x y z
#    x 1.800730 -0.031180 0.067260 
#    y -0.031180 1.752140 -0.003940 
#    z 0.067260 -0.003940 1.810150 
# 
# From -- ./inp_files/570789.got.cif
#   From: 2010.05.17/outbox.cif.g08.bks.cpg/sg2_286_cif.got.tgz:570789.got - 2010.06.03 11:33:40.
