data_PCOD9007188
_publ_section_title
;
Structure prediction by ZEFSAII (Michael W. Deem and Ramdas Pophale) SiO2 
 PCOD9007188
Probable space group: P -1
;
_chemical_formula_sum "Si O2"
_cell_formula_units_Z 12
_cell_length_a 12.697229
_cell_length_b 9.368656
_cell_length_c 12.412816
_cell_angle_alpha 95.442504
_cell_angle_beta 42.906209
_cell_angle_gamma 129.904305
_cell_volume 536.661757
_symmetry_space_group_name_H-M "P -1"
_symmetry_group_IT_number 2
_symmetry_cell_setting 'triclinic'
loop_
_space_group_symop_operation_xyz
x,y,z
-x,-y,-z
loop_
_atom_site_type_symbol
_atom_site_label
_atom_site_fract_x
_atom_site_fract_y
_atom_site_fract_z
Si Si1 0.378086 0.595257 0.206948
Si Si2 0.238984 0.270322 0.908959
Si Si3 0.830599 0.534276 0.867302
Si Si4 0.683448 0.111924 0.033680
Si Si5 0.217060 0.415349 0.530606
Si Si6 0.450148 0.912515 0.410625
O O1 0.655836 0.743479 0.068640
O O2 0.137864 0.358693 0.457988
O O3 0.338661 0.524783 0.108155
O O4 0.411893 0.794481 0.196383
O O5 0.543144 0.521139 0.632920
O O6 0.145789 0.346394 0.037405
O O7 0.000000 0.000000 0.000000
O O8 0.690269 0.272243 0.985730
O O9 0.144699 0.745475 0.598667
O O10 0.947974 0.227610 0.794864
O O11 0.689388 0.137389 0.159615
O O12 0.402822 0.705423 0.430063
O O13 0.500000 0.000000 0.500000
#
# Coordination Sequence:
#
# PCOD9007188 Si02
#       6
#     2   2   2   2   2   2
#     4   9  21  40  62  89 126 161 201 253 302 359
#     4  10  21  43  62  85 128 167 198 252 308 357
#     4  11  22  37  66  94 119 161 210 248 301 358
#     4  10  21  40  63  92 120 159 205 253 300 363
#     4   8  20  37  61  83 124 159 199 244 307 352
#     4  10  21  39  60  89 124 160 200 252 303 364
#
# _framework density 22.360454000000001
#
# number of rings (size 3 to 8) (size 9 to 14) (size 15 to 20)
#    1.000    1.333    0.000    2.000    0.000   10.000 
#    3.000    1.667    0.000    0.000    0.000    0.000 
#    0.000    0.000    0.000    0.000    0.000    0.000 
#
# Total GULP energy -66833.845910 kJ/mol
# GULP energy per Si atom -5569.487159 kJ/mol
# Density = 2.230956 g / cm^3
# Si number density = 22.360454 Si / 1000 Ang^3
#
#
#
# Elastic Constant Matrix: (Units=GPa)
#
#
# Indices 1 2 3 4 5 6 
#
# 1 69.5550 11.4165 28.0083 3.5723 1.7913 16.7883
# 2 11.4165 70.2108 8.5637 26.1425 -0.9162 3.3798
# 3 28.0083 8.5637 127.1962 28.1172 13.3472 -4.4556
# 4 3.5723 26.1425 28.1172 31.0107 -1.4794 1.0740
# 5 1.7913 -0.9162 13.3472 -1.4794 29.8324 13.0945
# 6 16.7883 3.3798 -4.4556 1.0740 13.0945 32.0256
#
#
#
# Elastic Compliance Matrix: (Units=1/GPa)
#
#
# Indices 1 2 3 4 5 6 
#
# 1 0.021942 -0.005733 -0.008556 0.011124 0.010183 -0.016624
# 2 -0.005733 0.023388 0.005738 -0.024610 -0.004477 0.003991
# 3 -0.008556 0.005738 0.015129 -0.018543 -0.012063 0.011538
# 4 0.011124 -0.024610 -0.018543 0.069857 0.016961 -0.015092
# 5 0.010183 -0.004477 -0.012063 0.016961 0.051347 -0.028107
# 6 -0.016624 0.003991 0.011538 -0.015092 -0.028107 0.053122
#
#
# Mechanical properties :
#
#
# Convention : Reuss Voigt Hill
#
# Bulk Modulus (GPa) = 23.06480 40.32655 31.69567
# Shear Modulus (GPa) = 18.77302 33.17198 25.97250
#
# Velocity S-wave (km/s) = 2.90067 3.85582 3.41183
# Velocity P-wave (km/s) = 4.64283 6.15605 5.45220
#
# Compressibility (1/GPa) = 0.04335611
#
# Stress axis : x y z
#
# Youngs Moduli (GPa) = 45.57409 42.75684 66.10026
#
# Poissons Ratio (x) = 0.24514 0.56553
# Poissons Ratio (y) = 0.26129 -0.37925
# Poissons Ratio (z) = 0.38991 -0.24532
#
# Static dielectric constant tensor:
#      x y z
#    x 1.889230 0.017940 -0.024930 
#    y 0.017940 1.855840 0.038940 
#    z -0.024930 0.038940 1.935350 
# 
# From -- ./inp_files/417070.got.cif
#   From: 2010.05.17/outbox.cif.g08.bks.cpg/sg2_209_cif.got.tgz:417070.got - 2010.06.03 11:33:40.
