data_PCOD9007446
_publ_section_title
;
Structure prediction by ZEFSAII (Michael W. Deem and Ramdas Pophale) SiO2 
 PCOD9007446
Probable space group: P -1
;
_chemical_formula_sum "Si O2"
_cell_formula_units_Z 15
_cell_length_a 8.895136
_cell_length_b 12.216062
_cell_length_c 11.754896
_cell_angle_alpha 101.192439
_cell_angle_beta 140.075239
_cell_angle_gamma 101.368299
_cell_volume 671.865368
_symmetry_space_group_name_H-M "P -1"
_symmetry_group_IT_number 2
_symmetry_cell_setting 'triclinic'
loop_
_space_group_symop_operation_xyz
x,y,z
-x,-y,-z
loop_
_atom_site_type_symbol
_atom_site_label
_atom_site_fract_x
_atom_site_fract_y
_atom_site_fract_z
Si Si1 0.853668 0.719713 0.477367
Si Si2 0.317039 0.561212 0.732160
Si Si3 0.500000 0.500000 0.000000
Si Si4 0.375060 0.777543 0.219228
Si Si5 0.174161 0.942876 0.536561
Si Si6 0.096076 0.737212 0.291349
Si Si7 0.062774 0.354357 0.248120
Si Si8 0.485516 0.666263 0.612361
O O1 0.680781 0.576396 0.279476
O O2 0.626285 0.754493 0.382484
O O3 0.983445 0.699920 0.661309
O O4 0.101303 0.829429 0.564541
O O5 0.499093 0.654191 0.754055
O O6 0.000000 0.500000 0.500000
O O7 0.405703 0.604797 0.919293
O O8 0.812356 0.601418 0.135583
O O9 0.190650 0.747996 0.218548
O O10 0.521770 0.928350 0.287799
O O11 0.179755 0.682641 0.987115
O O12 0.074079 0.859426 0.344713
O O13 0.000000 0.000000 0.500000
O O14 0.351674 0.746776 0.512505
O O15 0.267519 0.513636 0.413250
O O16 0.229331 0.295237 0.273210
#
# Coordination Sequence:
#
# PCOD9007446 Si02
#       8
#     2   2   1   2   2   2   2   2
#     4  10  21  41  65  92 133 163 217 268 314 375
#     4  11  21  37  58  94 134 168 201 264 322 381
#     4  12  24  36  68  96 130 168 212 256 334 398
#     4  11  24  41  70  91 128 177 221 258 316 388
#     4  10  23  44  67  90 127 173 219 273 314 372
#     4  12  23  42  66  97 130 171 212 270 326 380
#     4  10  22  39  63  99 128 170 207 259 330 384
#     4  10  21  39  61  93 139 161 204 270 322 383
#
# _framework density 22.325900000000001
#
# number of rings (size 3 to 8) (size 9 to 14) (size 15 to 20)
#    0.000    1.333    4.000    1.200    1.867    1.067 
#    0.000    0.667    5.867    0.000    0.000    0.000 
#    0.000    0.000    0.000    0.000    0.000    0.000 
#
# Total GULP energy -83553.304614 kJ/mol
# GULP energy per Si atom -5570.220308 kJ/mol
# Density = 2.227509 g / cm^3
# Si number density = 22.325900 Si / 1000 Ang^3
#
#
#
# Elastic Constant Matrix: (Units=GPa)
#
#
# Indices 1 2 3 4 5 6 
#
# 1 173.2242 30.7823 33.4403 -2.5559 -18.5712 14.1975
# 2 30.7823 45.9481 15.2202 -8.3101 -10.9945 1.0267
# 3 33.4403 15.2202 60.6974 -27.7889 -12.0144 6.2252
# 4 -2.5559 -8.3101 -27.7889 33.1124 2.2177 -2.3473
# 5 -18.5712 -10.9945 -12.0144 2.2177 27.2404 -2.8500
# 6 14.1975 1.0267 6.2252 -2.3473 -2.8500 41.0609
#
#
#
# Elastic Compliance Matrix: (Units=1/GPa)
#
#
# Indices 1 2 3 4 5 6 
#
# 1 0.007689 -0.003947 -0.004888 -0.004751 0.001673 -0.001974
# 2 -0.003947 0.027500 -0.000842 0.005488 0.007764 0.001657
# 3 -0.004888 -0.000842 0.033568 0.026905 0.008814 -0.001228
# 4 -0.004751 0.005488 0.026905 0.053415 0.006592 0.000938
# 5 0.001673 0.007764 0.008814 0.006592 0.044477 0.001355
# 6 -0.001974 0.001657 -0.001228 0.000938 0.001355 0.025329
#
#
# Mechanical properties :
#
#
# Convention : Reuss Voigt Hill
#
# Bulk Modulus (GPa) = 20.24186 48.75059 34.49622
# Shear Modulus (GPa) = 21.94925 33.64454 27.79689
#
# Velocity S-wave (km/s) = 3.13889 3.88619 3.53236
# Velocity P-wave (km/s) = 4.71413 6.48228 5.66758
#
# Compressibility (1/GPa) = 0.04940258
#
# Stress axis : x y z
#
# Youngs Moduli (GPa) = 130.05746 36.36388 29.79071
#
# Poissons Ratio (x) = 0.14352 0.14561
# Poissons Ratio (y) = 0.51330 0.02509
# Poissons Ratio (z) = 0.63570 0.03063
#
# Static dielectric constant tensor:
#      x y z
#    x 1.722340 -0.106950 0.296630 
#    y -0.106950 1.859870 0.065030 
#    z 0.296630 0.065030 1.335170 
# 
# From -- ./inp_files/390575.got.cif
#   From: 2010.05.17/outbox.cif.g08.bks.cpg/sg2_196_cif.got.tgz:390575.got - 2010.06.03 11:33:40.
