data_PCOD9007151
_publ_section_title
;
Structure prediction by ZEFSAII (Michael W. Deem and Ramdas Pophale) SiO2 
 PCOD9007151
Probable space group: P -1
;
_chemical_formula_sum "Si O2"
_cell_formula_units_Z 16
_cell_length_a 12.143098
_cell_length_b 6.325461
_cell_length_c 18.968762
_cell_angle_alpha 138.417228
_cell_angle_beta 133.670885
_cell_angle_gamma 61.043504
_cell_volume 697.869005
_symmetry_space_group_name_H-M "P -1"
_symmetry_group_IT_number 2
_symmetry_cell_setting 'triclinic'
loop_
_space_group_symop_operation_xyz
x,y,z
-x,-y,-z
loop_
_atom_site_type_symbol
_atom_site_label
_atom_site_fract_x
_atom_site_fract_y
_atom_site_fract_z
Si Si1 0.593244 0.642682 0.511545
Si Si2 0.838843 0.386196 0.333805
Si Si3 0.897765 0.774781 0.845606
Si Si4 0.688283 0.335171 0.880066
Si Si5 0.645936 0.678510 0.214254
Si Si6 0.840450 0.644463 0.159074
Si Si7 0.366554 0.598176 0.281766
Si Si8 0.837627 0.343596 0.479723
O O1 0.500000 0.500000 0.500000
O O2 0.505236 0.501963 0.367970
O O3 0.762931 0.534863 0.556187
O O4 0.602486 0.021345 0.611244
O O5 0.699140 0.413276 0.226103
O O6 0.802350 0.487362 0.422503
O O7 0.981445 0.610337 0.425539
O O8 0.885315 0.022424 0.271136
O O9 0.787471 0.521001 0.776218
O O10 0.021919 0.570310 0.810176
O O11 0.782524 0.025050 0.825361
O O12 0.000000 0.000000 0.000000
O O13 0.528184 0.258374 0.830530
O O14 0.649685 0.506728 0.832638
O O15 0.790322 0.541588 0.032456
O O16 0.697911 0.593260 0.137159
O O17 0.753361 0.995649 0.357951
#
# Coordination Sequence:
#
# PCOD9007151 Si02
#       8
#     2   2   2   2   2   2   2   2
#     4  11  23  39  62  93 128 166 210 261 315 379
#     4  10  22  39  62  92 122 162 209 256 312 380
#     4  10  23  42  64  91 126 168 214 262 313 372
#     4  11  24  43  65  92 128 168 212 262 316 378
#     4  11  22  39  65  94 126 164 206 260 318 374
#     4  10  24  41  63  93 125 166 213 260 315 373
#     4  11  23  39  64  93 125 169 213 259 319 379
#     4  10  21  39  60  87 124 161 204 255 312 375
#
# _framework density 22.926936999999999
#
# number of rings (size 3 to 8) (size 9 to 14) (size 15 to 20)
#    0.000    1.500    0.000    4.500    0.000    9.500 
#    0.000    0.000    0.000    0.000    0.000    0.000 
#    0.000    0.000    0.000    0.000    0.000    0.000 
#
# Total GULP energy -89366.507081 kJ/mol
# GULP energy per Si atom -5585.406693 kJ/mol
# Density = 2.287475 g / cm^3
# Si number density = 22.926937 Si / 1000 Ang^3
#
#
#
# Elastic Constant Matrix: (Units=GPa)
#
#
# Indices 1 2 3 4 5 6 
#
# 1 108.2466 15.5822 12.8388 -7.8857 11.8713 -16.5411
# 2 15.5822 60.6373 16.6879 -8.6276 0.3036 -8.3628
# 3 12.8388 16.6879 66.2642 -17.3037 4.5909 -4.1214
# 4 -7.8857 -8.6276 -17.3037 36.8896 6.5501 -2.2333
# 5 11.8713 0.3036 4.5909 6.5501 39.0350 0.4682
# 6 -16.5411 -8.3628 -4.1214 -2.2333 0.4682 24.5761
#
#
#
# Elastic Compliance Matrix: (Units=1/GPa)
#
#
# Indices 1 2 3 4 5 6 
#
# 1 0.011266 -0.001324 -0.000295 0.003120 -0.003994 0.007443
# 2 -0.001324 0.018901 -0.003454 0.002810 0.000128 0.005214
# 3 -0.000295 -0.003454 0.018699 0.008693 -0.003573 0.002620
# 4 0.003120 0.002810 0.008693 0.034376 -0.007855 0.007788
# 5 -0.003994 0.000128 -0.003573 -0.007855 0.028624 -0.004503
# 6 0.007443 0.005214 0.002620 0.007788 -0.004503 0.048706
#
#
# Mechanical properties :
#
#
# Convention : Reuss Voigt Hill
#
# Bulk Modulus (GPa) = 25.82652 36.15177 30.98915
# Shear Modulus (GPa) = 27.22953 32.76940 29.99946
#
# Velocity S-wave (km/s) = 3.44999 3.78471 3.62122
# Velocity P-wave (km/s) = 5.21144 5.90772 5.57047
#
# Compressibility (1/GPa) = 0.03871989
#
# Stress axis : x y z
#
# Youngs Moduli (GPa) = 88.75999 52.90848 53.47983
#
# Poissons Ratio (x) = 0.07003 0.01579
# Poissons Ratio (y) = 0.11748 0.18473
# Poissons Ratio (z) = 0.02620 0.18275
#
# Static dielectric constant tensor:
#      x y z
#    x 1.844170 -0.031910 -0.018870 
#    y -0.031910 1.851130 -0.036590 
#    z -0.018870 -0.036590 1.871730 
# 
# From -- ./inp_files/564587.got.cif
#   From: 2010.05.17/outbox.cif.g08.bks.cpg/sg2_283_cif.got.tgz:564587.got - 2010.06.03 11:33:40.
