data_PCOD9007582
_publ_section_title
;
Structure prediction by ZEFSAII (Michael W. Deem and Ramdas Pophale) SiO2 
 PCOD9007582
Probable space group: P -1
;
_chemical_formula_sum "Si O2"
_cell_formula_units_Z 16
_cell_length_a 7.946695
_cell_length_b 11.832067
_cell_length_c 10.248873
_cell_angle_alpha 94.815929
_cell_angle_beta 131.048775
_cell_angle_gamma 67.115352
_cell_volume 648.843519
_symmetry_space_group_name_H-M "P -1"
_symmetry_group_IT_number 2
_symmetry_cell_setting 'triclinic'
loop_
_space_group_symop_operation_xyz
x,y,z
-x,-y,-z
loop_
_atom_site_type_symbol
_atom_site_label
_atom_site_fract_x
_atom_site_fract_y
_atom_site_fract_z
Si Si1 0.038162 0.657433 0.635209
Si Si2 0.375111 0.053408 0.737666
Si Si3 0.782536 0.098053 0.807223
Si Si4 0.030982 0.088218 0.339810
Si Si5 0.121681 0.539598 0.403732
Si Si6 0.444810 0.174292 0.038034
Si Si7 0.590464 0.561345 0.934366
Si Si8 0.300641 0.623434 0.248423
O O1 0.963435 0.632966 0.449250
O O2 0.313996 0.639908 0.738504
O O3 0.925417 0.789896 0.665321
O O4 0.013589 0.550156 0.699399
O O5 0.526524 0.110705 0.737810
O O6 0.129411 0.072706 0.536957
O O7 0.552667 0.903895 0.839010
O O8 0.331864 0.122168 0.861598
O O9 0.789024 0.231460 0.818076
O O10 0.811248 0.035970 0.673997
O O11 0.000000 0.000000 0.000000
O O12 0.744701 0.121618 0.167369
O O13 0.180710 0.605331 0.318539
O O14 0.399086 0.440402 0.584808
O O15 0.334062 0.325497 0.993258
O O16 0.746716 0.454432 0.900108
O O17 0.500000 0.500000 0.000000
#
# Coordination Sequence:
#
# PCOD9007582 Si02
#       8
#     2   2   2   2   2   2   2   2
#     4   9  20  38  63  95 125 160 212 269 325 395
#     4  11  23  42  66  96 131 174 218 265 333 387
#     4  12  25  43  62  93 138 177 222 274 325 392
#     4  11  23  41  69  95 127 173 214 268 330 398
#     4   9  19  40  62  97 126 156 219 272 326 399
#     4  10  23  42  65 100 129 163 220 278 318 397
#     4  10  21  39  62  88 127 173 210 264 330 382
#     4  10  22  38  66  90 127 176 211 273 331 383
#
# _framework density 24.659258999999999
#
# number of rings (size 3 to 8) (size 9 to 14) (size 15 to 20)
#    0.000    1.750    1.250    2.250    1.750    8.000 
#    2.250    0.625    0.000    0.000    0.000    0.000 
#    0.000    0.000    0.000    0.000    0.000    0.000 
#
# Total GULP energy -89402.469566 kJ/mol
# GULP energy per Si atom -5587.654348 kJ/mol
# Density = 2.460313 g / cm^3
# Si number density = 24.659259 Si / 1000 Ang^3
#
#
#
# Elastic Constant Matrix: (Units=GPa)
#
#
# Indices 1 2 3 4 5 6 
#
# 1 87.1246 46.2744 6.9374 -2.4999 -6.2550 16.8400
# 2 46.2744 207.2752 34.9810 5.6281 -22.3365 27.4268
# 3 6.9374 34.9810 88.1832 2.4834 0.3276 3.3920
# 4 -2.4999 5.6281 2.4834 37.0146 2.4003 -0.6114
# 5 -6.2550 -22.3365 0.3276 2.4003 41.5832 -4.3070
# 6 16.8400 27.4268 3.3920 -0.6114 -4.3070 39.0987
#
#
#
# Elastic Compliance Matrix: (Units=1/GPa)
#
#
# Indices 1 2 3 4 5 6 
#
# 1 0.013654 -0.002530 0.000051 0.001223 0.000202 -0.004069
# 2 -0.002530 0.006508 -0.002244 -0.001247 0.002896 -0.002982
# 3 0.000051 -0.002244 0.012228 -0.000390 -0.001235 0.000349
# 4 0.001223 -0.001247 -0.000390 0.027455 -0.002006 0.000590
# 5 0.000202 0.002896 -0.001235 -0.002006 0.025843 0.000804
# 6 -0.004069 -0.002982 0.000349 0.000590 0.000804 0.029488
#
#
# Mechanical properties :
#
#
# Convention : Reuss Voigt Hill
#
# Bulk Modulus (GPa) = 43.58298 62.10761 52.84530
# Shear Modulus (GPa) = 37.80156 43.16531 40.48344
#
# Velocity S-wave (km/s) = 3.91955 4.18840 4.05620
# Velocity P-wave (km/s) = 6.18031 6.97361 6.58891
#
# Compressibility (1/GPa) = 0.02294473
#
# Stress axis : x y z
#
# Youngs Moduli (GPa) = 73.24128 153.64658 81.77787
#
# Poissons Ratio (x) = 0.38868 -0.00414
# Poissons Ratio (y) = 0.18528 0.18349
# Poissons Ratio (z) = -0.00371 0.34474
#
# Static dielectric constant tensor:
#      x y z
#    x 1.933230 0.013120 0.006750 
#    y 0.013120 1.995840 -0.077520 
#    z 0.006750 -0.077520 2.159010 
# 
# From -- ./inp_files/390522.got.cif
#   From: 2010.05.17/outbox.cif.g08.bks.cpg/sg2_196_cif.got.tgz:390522.got - 2010.06.03 11:33:40.
