data_PCOD9007262
_publ_section_title
;
Structure prediction by ZEFSAII (Michael W. Deem and Ramdas Pophale) SiO2 
 PCOD9007262
Probable space group: P -1
;
_chemical_formula_sum "Si O2"
_cell_formula_units_Z 13
_cell_length_a 9.078150
_cell_length_b 12.284138
_cell_length_c 9.305762
_cell_angle_alpha 139.247927
_cell_angle_beta 57.844093
_cell_angle_gamma 113.777334
_cell_volume 573.515803
_symmetry_space_group_name_H-M "P -1"
_symmetry_group_IT_number 2
_symmetry_cell_setting 'triclinic'
loop_
_space_group_symop_operation_xyz
x,y,z
-x,-y,-z
loop_
_atom_site_type_symbol
_atom_site_label
_atom_site_fract_x
_atom_site_fract_y
_atom_site_fract_z
Si Si1 0.500000 0.000000 0.000000
Si Si2 0.522307 0.184989 0.502633
Si Si3 0.820549 0.178770 0.141946
Si Si4 0.289119 0.500000 0.879208
Si Si5 0.976571 0.500001 0.249761
Si Si6 0.477691 0.184987 0.867344
Si Si7 0.820552 0.821233 0.784405
O O1 0.346647 0.855135 0.907346
O O2 0.653355 0.855136 0.802920
O O3 0.721254 0.205767 0.371620
O O4 0.499997 0.177697 0.677699
O O5 0.471543 0.000001 0.278845
O O6 0.407952 0.336179 0.657429
O O7 0.932991 0.334125 0.194061
O O8 0.915568 0.000003 0.909100
O O9 0.407945 0.663826 0.985081
O O10 0.168372 0.499997 0.083911
O O11 0.159239 0.499998 0.812834
O O12 0.932997 0.665880 0.525811
O O13 0.278745 0.205767 0.039919
#
# Coordination Sequence:
#
# PCOD9007262 Si02
#       7
#     1   2   2   2   2   2   2
#     4   8  16  30  54  82 100 136 184 232 260 300
#     4  10  21  39  61  83 109 148 195 236 271 321
#     4   9  19  35  57  83 107 143 194 232 268 327
#     4  11  24  36  54  86 118 151 180 228 288 345
#     4  11  23  36  55  84 122 149 176 227 298 337
#     4  10  21  39  61  83 109 148 195 236 271 321
#     4   9  19  35  57  83 107 143 194 232 268 327
#
# _framework density 22.667203000000001
#
# number of rings (size 3 to 8) (size 9 to 14) (size 15 to 20)
#    0.923    1.231    0.000    3.231    0.000    3.077 
#    0.000    6.154    0.000    5.538    0.000    0.000 
#    0.000    0.000    0.000    0.000    0.000    0.000 
#
# Total GULP energy -72402.140004 kJ/mol
# GULP energy per Si atom -5569.395385 kJ/mol
# Density = 2.261561 g / cm^3
# Si number density = 22.667203 Si / 1000 Ang^3
#
#
#
# Elastic Constant Matrix: (Units=GPa)
#
#
# Indices 1 2 3 4 5 6 
#
# 1 79.1047 14.3793 25.4841 27.9968 -5.2496 3.9760
# 2 14.3793 167.9155 99.8191 21.3500 -17.6579 4.6384
# 3 25.4841 99.8191 184.1563 22.9566 0.8054 23.4976
# 4 27.9968 21.3500 22.9566 42.7370 -6.7636 6.0567
# 5 -5.2496 -17.6579 0.8054 -6.7636 -14.1744 -25.9960
# 6 3.9760 4.6384 23.4976 6.0567 -25.9960 -4.5860
#
#
#
# Elastic Compliance Matrix: (Units=1/GPa)
#
#
# Indices 1 2 3 4 5 6 
#
# 1 0.016652 0.000574 -0.001217 -0.010586 -0.000812 -0.000593
# 2 0.000574 0.008386 -0.003772 -0.002136 -0.001522 -0.004543
# 3 -0.001217 -0.003772 0.007690 -0.000487 0.005995 -0.000096
# 4 -0.010586 -0.002136 -0.000487 0.034090 0.007122 -0.009179
# 5 -0.000812 -0.001522 0.005995 0.007122 0.014994 -0.047112
# 6 -0.000593 -0.004543 -0.000096 -0.009179 -0.047112 0.031279
#
#
# Mechanical properties :
#
#
# Convention : Reuss Voigt Hill
#
# Bulk Modulus (GPa) = 41.84426 78.94907 60.39667
# Shear Modulus (GPa) = 38.49542 24.22827 31.36185
#
# Velocity S-wave (km/s) = 4.12550 3.27290 3.72368
# Velocity P-wave (km/s) = 6.41820 7.01340 6.72239
#
# Compressibility (1/GPa) = 0.02389814
#
# Stress axis : x y z
#
# Youngs Moduli (GPa) = 60.05415 119.25107 130.04075
#
# Poissons Ratio (x) = -0.06849 0.15822
# Poissons Ratio (y) = -0.03449 0.49053
# Poissons Ratio (z) = 0.07307 0.44983
#
# Static dielectric constant tensor:
#      x y z
#    x 1.632340 0.056270 -0.043470 
#    y 0.056270 1.754570 0.052740 
#    z -0.043470 0.052740 1.775780 
# 
# From -- ./inp_files/430572.got.cif
#   From: 2010.05.17/outbox.cif.g08.bks.cpg/sg2_216_cif.got.tgz:430572.got - 2010.06.03 11:33:40.
