data_PCOD9007664
_publ_section_title
;
Structure prediction by ZEFSAII (Michael W. Deem and Ramdas Pophale) SiO2 
 PCOD9007664
Probable space group: P -1
;
_chemical_formula_sum "Si O2"
_cell_formula_units_Z 16
_cell_length_a 10.212599
_cell_length_b 12.056553
_cell_length_c 11.485365
_cell_angle_alpha 51.621118
_cell_angle_beta 69.985762
_cell_angle_gamma 37.040678
_cell_volume 631.625085
_symmetry_space_group_name_H-M "P -1"
_symmetry_group_IT_number 2
_symmetry_cell_setting 'triclinic'
loop_
_space_group_symop_operation_xyz
x,y,z
-x,-y,-z
loop_
_atom_site_type_symbol
_atom_site_label
_atom_site_fract_x
_atom_site_fract_y
_atom_site_fract_z
Si Si1 0.949627 0.712985 0.713565
Si Si2 0.047630 0.014785 0.705737
Si Si3 0.508364 0.737446 0.155280
Si Si4 0.279735 0.625377 0.245868
Si Si5 0.662218 0.194066 0.580955
Si Si6 0.452682 0.133760 0.150086
Si Si7 0.289897 0.562465 0.023799
Si Si8 0.286610 0.095393 0.562631
O O1 0.782093 0.762083 0.820243
O O2 0.914210 0.695264 0.600526
O O3 0.218325 0.494126 0.792566
O O4 0.839082 0.954831 0.612935
O O5 0.259546 0.946051 0.656983
O O6 0.104419 0.805046 0.850445
O O7 0.958396 0.158079 0.757464
O O8 0.823179 0.195225 0.573189
O O9 0.389957 0.694054 0.162950
O O10 0.434147 0.794887 0.275995
O O11 0.453943 0.916992 0.974766
O O12 0.455404 0.400798 0.423275
O O13 0.230279 0.596890 0.155299
O O14 0.370744 0.352461 0.081010
O O15 0.659090 0.913672 0.314148
O O16 0.500000 0.500000 0.000000
O O17 0.500000 0.000000 0.500000
#
# Coordination Sequence:
#
# PCOD9007664 Si02
#       8
#     2   2   2   2   2   2   2   2
#     4  11  24  41  65  91 130 173 213 263 321 378
#     4  11  22  40  64  98 129 167 211 267 323 376
#     4  11  22  42  62  92 133 165 215 269 314 381
#     4  11  23  41  64  97 131 160 218 271 316 381
#     4  11  25  40  66  98 127 173 217 260 323 381
#     4  11  23  40  62  94 128 168 215 265 315 383
#     4  12  22  39  68  96 123 168 216 260 324 380
#     4  10  21  39  62  91 124 167 206 256 321 375
#
# _framework density 25.331482999999999
#
# number of rings (size 3 to 8) (size 9 to 14) (size 15 to 20)
#    0.000    1.000    2.500    5.250    0.000    2.500 
#    0.000    3.750    0.000    9.000    0.000    0.000 
#    0.000    0.000    0.000    0.000    0.000    0.000 
#
# Total GULP energy -89386.699655 kJ/mol
# GULP energy per Si atom -5586.668728 kJ/mol
# Density = 2.527383 g / cm^3
# Si number density = 25.331483 Si / 1000 Ang^3
#
#
#
# Elastic Constant Matrix: (Units=GPa)
#
#
# Indices 1 2 3 4 5 6 
#
# 1 70.4673 25.9440 17.8632 14.4272 -2.3365 -18.1656
# 2 25.9440 62.3515 17.4140 24.2816 8.6729 -5.2774
# 3 17.8632 17.4140 128.9686 36.8525 16.6631 -12.4446
# 4 14.4272 24.2816 36.8525 35.6542 -5.3410 2.8737
# 5 -2.3365 8.6729 16.6631 -5.3410 30.1965 4.9148
# 6 -18.1656 -5.2774 -12.4446 2.8737 4.9148 37.1554
#
#
#
# Elastic Compliance Matrix: (Units=1/GPa)
#
#
# Indices 1 2 3 4 5 6 
#
# 1 0.019599 -0.005498 0.000356 -0.005231 0.000466 0.009264
# 2 -0.005498 0.034343 0.011294 -0.037589 -0.025157 0.012207
# 3 0.000356 0.011294 0.019684 -0.032604 -0.022093 0.013815
# 4 -0.005231 -0.037589 -0.032604 0.099862 0.051474 -0.033349
# 5 0.000466 -0.025157 -0.022093 0.051474 0.065480 -0.023388
# 6 0.009264 0.012207 0.013815 -0.033349 -0.023388 0.043477
#
#
# Mechanical properties :
#
#
# Convention : Reuss Voigt Hill
#
# Bulk Modulus (GPa) = 11.63746 42.69220 27.16483
# Shear Modulus (GPa) = 16.73445 33.97231 25.35338
#
# Velocity S-wave (km/s) = 2.57304 3.66609 3.16708
# Velocity P-wave (km/s) = 3.66489 5.90002 4.91130
#
# Compressibility (1/GPa) = 0.08592939
#
# Stress axis : x y z
#
# Youngs Moduli (GPa) = 51.02172 29.11839 50.80364
#
# Poissons Ratio (x) = 0.16010 -0.01810
# Poissons Ratio (y) = 0.28053 -0.57376
# Poissons Ratio (z) = -0.01818 -0.32886
#
# Static dielectric constant tensor:
#      x y z
#    x 2.011130 0.023040 0.012530 
#    y 0.023040 1.970180 0.013120 
#    z 0.012530 0.013120 2.247520 
# 
# From -- ./inp_files/432574.got.cif
#   From: 2010.05.17/outbox.cif.g08.bks.cpg/sg2_217_cif.got.tgz:432574.got - 2010.06.03 11:33:40.
