data_PCOD9007486
_publ_section_title
;
Structure prediction by ZEFSAII (Michael W. Deem and Ramdas Pophale) SiO2 
 PCOD9007486
Probable space group: P -1
;
_chemical_formula_sum "Si O2"
_cell_formula_units_Z 16
_cell_length_a 9.665519
_cell_length_b 12.344142
_cell_length_c 13.844036
_cell_angle_alpha 103.512467
_cell_angle_beta 86.635508
_cell_angle_gamma 152.574661
_cell_volume 697.759278
_symmetry_space_group_name_H-M "P -1"
_symmetry_group_IT_number 2
_symmetry_cell_setting 'triclinic'
loop_
_space_group_symop_operation_xyz
x,y,z
-x,-y,-z
loop_
_atom_site_type_symbol
_atom_site_label
_atom_site_fract_x
_atom_site_fract_y
_atom_site_fract_z
Si Si1 0.042881 0.227868 0.802422
Si Si2 0.191955 0.872773 0.590048
Si Si3 0.758472 0.484959 0.894338
Si Si4 0.234779 0.255169 0.096705
Si Si5 0.857901 0.299677 0.263768
Si Si6 0.917909 0.303867 0.646171
Si Si7 0.705856 0.133915 0.923092
Si Si8 0.067451 0.989068 0.747238
O O1 0.396296 0.503103 0.887428
O O2 0.033315 0.093165 0.742173
O O3 0.974419 0.265469 0.727450
O O4 0.791384 0.073560 0.865160
O O5 0.034486 0.680430 0.638495
O O6 0.062854 0.752944 0.464523
O O7 0.564930 0.105411 0.621481
O O8 0.119012 0.943509 0.646640
O O9 0.835695 0.671517 0.920340
O O10 0.383311 0.203496 0.845162
O O11 0.904410 0.538530 0.802200
O O12 0.945694 0.572574 0.996951
O O13 0.204229 0.234311 0.210336
O O14 0.000000 0.000000 0.000000
O O15 0.835543 0.414991 0.307798
O O16 0.536762 0.003348 0.179073
O O17 0.500000 0.000000 0.000000
#
# Coordination Sequence:
#
# PCOD9007486 Si02
#       8
#     2   2   2   2   2   2   2   2
#     4  11  25  43  63 103 135 170 220 273 326 390
#     4  11  23  45  70  95 125 179 224 274 337 378
#     4  10  21  39  61  97 129 172 219 255 328 397
#     4  11  23  38  67  92 134 182 214 261 326 394
#     4  11  21  42  66  97 130 167 221 276 324 391
#     4  11  25  42  70  97 127 172 228 280 326 384
#     4  10  22  40  66  95 137 169 213 267 328 395
#     4  11  23  43  66  92 141 172 216 274 322 396
#
# _framework density 22.930544000000001
#
# number of rings (size 3 to 8) (size 9 to 14) (size 15 to 20)
#    0.000    1.250    3.750    1.875    3.500    2.500 
#    0.000    2.500    0.000    0.000    0.000    0.000 
#    0.000    0.000    0.000    0.000    0.000    0.000 
#
# Total GULP energy -89348.485901 kJ/mol
# GULP energy per Si atom -5584.280369 kJ/mol
# Density = 2.287835 g / cm^3
# Si number density = 22.930544 Si / 1000 Ang^3
#
#
#
# Elastic Constant Matrix: (Units=GPa)
#
#
# Indices 1 2 3 4 5 6 
#
# 1 136.0116 17.5259 58.1145 -0.6625 -31.6352 -15.6063
# 2 17.5259 24.7588 18.0435 1.1881 -18.1587 0.1580
# 3 58.1145 18.0435 134.7029 -9.3943 -27.8441 -5.9025
# 4 -0.6625 1.1881 -9.3943 21.6256 9.8153 -3.4333
# 5 -31.6352 -18.1587 -27.8441 9.8153 41.7430 -8.9139
# 6 -15.6063 0.1580 -5.9025 -3.4333 -8.9139 34.7862
#
#
#
# Elastic Compliance Matrix: (Units=1/GPa)
#
#
# Indices 1 2 3 4 5 6 
#
# 1 0.011529 0.001462 -0.003177 -0.004463 0.009730 0.006679
# 2 0.001462 0.068192 -0.003769 -0.019882 0.034331 0.006542
# 3 -0.003177 -0.003769 0.010028 0.003739 0.002014 0.001178
# 4 -0.004463 -0.019882 0.003739 0.059395 -0.023828 -0.001522
# 5 0.009730 0.034331 0.002014 -0.023828 0.056788 0.016751
# 6 0.006679 0.006542 0.001178 -0.001522 0.016751 0.036056
#
#
# Mechanical properties :
#
#
# Convention : Reuss Voigt Hill
#
# Bulk Modulus (GPa) = 12.69325 53.64902 33.17114
# Shear Modulus (GPa) = 17.90722 33.08358 25.49540
#
# Velocity S-wave (km/s) = 2.79755 3.80251 3.33806
# Velocity P-wave (km/s) = 3.99782 6.53650 5.41795
#
# Compressibility (1/GPa) = 0.07878201
#
# Stress axis : x y z
#
# Youngs Moduli (GPa) = 86.73581 14.66437 99.72021
#
# Poissons Ratio (x) = -0.02144 0.31683
# Poissons Ratio (y) = -0.12681 0.37582
# Poissons Ratio (z) = 0.27558 0.05527
#
# Static dielectric constant tensor:
#      x y z
#    x 1.854690 0.015060 -0.020940 
#    y 0.015060 1.894740 0.015090 
#    z -0.020940 0.015090 1.840970 
# 
# From -- ./inp_files/459669.got.cif
#   From: 2010.05.17/outbox.cif.g08.bks.cpg/sg2_230_cif.got.tgz:459669.got - 2010.06.03 11:33:40.
