data_PCOD9007618
_publ_section_title
;
Structure prediction by ZEFSAII (Michael W. Deem and Ramdas Pophale) SiO2 
 PCOD9007618
Probable space group: P -1
;
_chemical_formula_sum "Si O2"
_cell_formula_units_Z 16
_cell_length_a 18.514963
_cell_length_b 17.911693
_cell_length_c 8.386400
_cell_angle_alpha 61.903268
_cell_angle_beta 131.991945
_cell_angle_gamma 157.908651
_cell_volume 657.839710
_symmetry_space_group_name_H-M "P -1"
_symmetry_group_IT_number 2
_symmetry_cell_setting 'triclinic'
loop_
_space_group_symop_operation_xyz
x,y,z
-x,-y,-z
loop_
_atom_site_type_symbol
_atom_site_label
_atom_site_fract_x
_atom_site_fract_y
_atom_site_fract_z
Si Si1 0.244825 0.492328 0.012519
Si Si2 0.906723 0.013192 0.148597
Si Si3 0.806613 0.260170 0.140198
Si Si4 0.740676 0.665748 0.966323
Si Si5 0.215877 0.613733 0.629951
Si Si6 0.372441 0.056526 0.325592
Si Si7 0.197342 0.555614 0.162496
Si Si8 0.821101 0.746122 0.357194
O O1 0.340250 0.653406 0.903209
O O2 0.366186 0.508481 0.095357
O O3 0.287728 0.548001 0.203917
O O4 0.919696 0.218335 0.794739
O O5 0.092945 0.163638 0.110725
O O6 0.022485 0.144904 0.355364
O O7 0.848276 0.868878 0.244518
O O8 0.675547 0.889336 0.874745
O O9 0.025277 0.403374 0.444056
O O10 0.918517 0.312899 0.088270
O O11 0.856416 0.401825 0.057568
O O12 0.500000 0.000000 0.000000
O O13 0.491811 0.523083 0.789803
O O14 0.880405 0.758907 0.251914
O O15 0.446662 0.845152 0.635281
O O16 0.000000 0.500000 0.500000
O O17 0.560553 0.220346 0.590467
#
# Coordination Sequence:
#
# PCOD9007618 Si02
#       8
#     2   2   2   2   2   2   2   2
#     4  11  23  42  63  94 129 171 211 265 328 379
#     4  10  21  43  66  97 127 172 211 261 333 380
#     4  10  21  39  62  90 118 166 220 267 319 376
#     4  10  22  42  63 100 131 166 216 263 325 389
#     4  11  22  39  61  90 127 165 217 263 314 380
#     4  10  24  43  59  95 130 164 217 263 318 388
#     4  10  22  41  61  89 127 165 215 266 321 380
#     4  10  21  42  70  94 131 166 214 268 315 402
#
# _framework density 24.322033999999999
#
# number of rings (size 3 to 8) (size 9 to 14) (size 15 to 20)
#    0.000    1.750    1.250    2.250    1.750    0.500 
#   33.750    0.000    0.000    0.000    0.000    0.000 
#    0.000    0.000    0.000    0.000    0.000    0.000 
#
# Total GULP energy -89259.208024 kJ/mol
# GULP energy per Si atom -5578.700502 kJ/mol
# Density = 2.426668 g / cm^3
# Si number density = 24.322034 Si / 1000 Ang^3
#
#
#
# Elastic Constant Matrix: (Units=GPa)
#
#
# Indices 1 2 3 4 5 6 
#
# 1 103.5990 26.4436 3.3732 -11.4686 -27.0548 24.6003
# 2 26.4436 70.8088 2.8161 -6.8809 -10.9171 34.9621
# 3 3.3732 2.8161 72.9030 -5.5977 -19.0001 12.8290
# 4 -11.4686 -6.8809 -5.5977 31.1601 -2.5680 -2.2082
# 5 -27.0548 -10.9171 -19.0001 -2.5680 36.5255 -3.7453
# 6 24.6003 34.9621 12.8290 -2.2082 -3.7453 34.8979
#
#
#
# Elastic Compliance Matrix: (Units=1/GPa)
#
#
# Indices 1 2 3 4 5 6 
#
# 1 0.018166 0.006106 0.007732 0.009544 0.018002 -0.019229
# 2 0.006106 0.035570 0.010970 0.010566 0.017354 -0.041442
# 3 0.007732 0.010970 0.022517 0.009324 0.019111 -0.022078
# 4 0.009544 0.010566 0.009324 0.039779 0.016184 -0.016487
# 5 0.018002 0.017354 0.019111 0.016184 0.053872 -0.030296
# 6 -0.019229 -0.041442 -0.022078 -0.016487 -0.030296 0.087549
#
#
# Mechanical properties :
#
#
# Convention : Reuss Voigt Hill
#
# Bulk Modulus (GPa) = 7.94470 34.73073 21.33771
# Shear Modulus (GPa) = 20.01647 34.82857 27.42252
#
# Velocity S-wave (km/s) = 2.87187 3.78825 3.36143
# Velocity P-wave (km/s) = 3.77762 5.78316 4.88443
#
# Compressibility (1/GPa) = 0.12587015
#
# Stress axis : x y z
#
# Youngs Moduli (GPa) = 55.04686 28.11328 44.41090
#
# Poissons Ratio (x) = -0.17166 -0.34339
# Poissons Ratio (y) = -0.33611 -0.48720
# Poissons Ratio (z) = -0.42563 -0.30841
#
# Static dielectric constant tensor:
#      x y z
#    x 1.847760 -0.046650 -0.039440 
#    y -0.046650 1.911540 0.009800 
#    z -0.039440 0.009800 1.985050 
# 
# From -- ./inp_files/349516.got.cif
#   From: 2010.05.17/outbox.cif.g08.bks.cpg/sg2_175_cif.got.tgz:349516.got - 2010.06.03 11:33:40.
