data_PCOD9007312
_publ_section_title
;
Structure prediction by ZEFSAII (Michael W. Deem and Ramdas Pophale) SiO2 
 PCOD9007312
Probable space group: P -1
;
_chemical_formula_sum "Si O2"
_cell_formula_units_Z 16
_cell_length_a 9.198658
_cell_length_b 26.995011
_cell_length_c 15.344527
_cell_angle_alpha 18.495591
_cell_angle_beta 47.439549
_cell_angle_gamma 57.375500
_cell_volume 800.459189
_symmetry_space_group_name_H-M "P -1"
_symmetry_group_IT_number 2
_symmetry_cell_setting 'triclinic'
loop_
_space_group_symop_operation_xyz
x,y,z
-x,-y,-z
loop_
_atom_site_type_symbol
_atom_site_label
_atom_site_fract_x
_atom_site_fract_y
_atom_site_fract_z
Si Si1 0.578279 0.890732 0.584118
Si Si2 0.667412 0.724835 0.306679
Si Si3 0.012369 0.863922 0.488254
Si Si4 0.555405 0.052534 0.153833
Si Si5 0.932462 0.250993 0.165364
Si Si6 0.619491 0.678609 0.203065
Si Si7 0.330911 0.853526 0.247490
Si Si8 0.838944 0.461313 0.712258
O O1 0.664525 0.995947 0.282668
O O2 0.769726 0.848977 0.613278
O O3 0.500000 0.000000 0.500000
O O4 0.373898 0.711634 0.940804
O O5 0.647084 0.656372 0.330996
O O6 0.427822 0.711222 0.450004
O O7 0.767984 0.615359 0.500971
O O8 0.831143 0.931120 0.896742
O O9 0.042742 0.742565 0.751863
O O10 0.095862 0.815763 0.445185
O O11 0.304670 0.905015 0.495844
O O12 0.529506 0.221199 0.912357
O O13 0.648056 0.082698 0.967633
O O14 0.939507 0.413163 0.837262
O O15 0.134900 0.217041 0.106665
O O16 0.500000 0.500000 0.500000
O O17 0.500000 0.000000 0.000000
O O18 0.000000 0.500000 0.500000
#
# Coordination Sequence:
#
# PCOD9007312 Si02
#       8
#     2   2   2   2   2   2   2   2
#     4  11  25  37  61  96 129 152 206 252 310 361
#     4  10  21  39  61  87 120 164 201 251 307 360
#     4  11  22  40  67  87 117 164 209 256 288 367
#     4  10  21  39  61  88 118 164 205 251 294 369
#     4  11  21  36  61  86 119 156 205 239 309 358
#     4  11  22  32  58  89 123 154 199 251 311 365
#     4   9  18  40  67  85 115 162 221 241 300 355
#     4  11  23  39  57  88 131 159 187 251 315 363
#
# _framework density 19.988527000000001
#
# number of rings (size 3 to 8) (size 9 to 14) (size 15 to 20)
#    0.000    1.500    5.000    1.875    5.250    1.500 
#    0.000    1.250    0.000    0.000    0.000    0.000 
#    0.000    0.000    0.000    0.000    0.000    0.000 
#
# Total GULP energy -89265.317924 kJ/mol
# GULP energy per Si atom -5579.082370 kJ/mol
# Density = 1.994303 g / cm^3
# Si number density = 19.988527 Si / 1000 Ang^3
#
#
#
# Elastic Constant Matrix: (Units=GPa)
#
#
# Indices 1 2 3 4 5 6 
#
# 1 91.5385 30.9552 41.7334 4.3895 21.9805 -1.3409
# 2 30.9552 119.1805 37.3358 17.0584 12.3641 1.6233
# 3 41.7334 37.3358 55.2506 10.2175 29.3020 -0.1957
# 4 4.3895 17.0584 10.2175 9.2544 -4.4703 -0.2627
# 5 21.9805 12.3641 29.3020 -4.4703 36.6435 5.2216
# 6 -1.3409 1.6233 -0.1957 -0.2627 5.2216 24.7518
#
#
#
# Elastic Compliance Matrix: (Units=1/GPa)
#
#
# Indices 1 2 3 4 5 6 
#
# 1 0.018521 -0.002758 -0.025433 0.031192 0.014203 -0.001682
# 2 -0.002758 0.013767 0.006993 -0.038246 -0.013453 0.001435
# 3 -0.025433 0.006993 0.147422 -0.228830 -0.136569 0.025711
# 4 0.031192 -0.038246 -0.228830 0.535330 0.248815 -0.044418
# 5 0.014203 -0.013453 -0.136569 0.248815 0.167447 -0.032111
# 6 -0.001682 0.001435 0.025711 -0.044418 -0.032111 0.046722
#
#
# Mechanical properties :
#
#
# Convention : Reuss Voigt Hill
#
# Bulk Modulus (GPa) = 7.28260 54.00205 30.64233
# Shear Modulus (GPa) = 4.91461 24.52630 14.72045
#
# Velocity S-wave (km/s) = 1.56973 3.50668 2.71670
# Velocity P-wave (km/s) = 2.63376 6.59325 5.02034
#
# Compressibility (1/GPa) = 0.13731363
#
# Stress axis : x y z
#
# Youngs Moduli (GPa) = 53.99134 72.64006 6.78325
#
# Poissons Ratio (x) = 0.20036 0.17252
# Poissons Ratio (y) = 0.14893 -0.04744
# Poissons Ratio (z) = 1.37317 -0.50800
#
# Static dielectric constant tensor:
#      x y z
#    x 1.750430 -0.013510 0.011900 
#    y -0.013510 1.708900 0.026810 
#    z 0.011900 0.026810 1.784430 
# 
# From -- ./inp_files/296239.got.cif
#   From: 2010.05.17/outbox.cif.g08.bks.cpg/sg2_149_cif.got.tgz:296239.got - 2010.06.03 11:33:40.
