data_PCOD9007819
_publ_section_title
;
Structure prediction by ZEFSAII (Michael W. Deem and Ramdas Pophale) SiO2 
 PCOD9007819
Probable space group: P -1
;
_chemical_formula_sum "Si O2"
_cell_formula_units_Z 13
_cell_length_a 7.442487
_cell_length_b 10.748154
_cell_length_c 8.015153
_cell_angle_alpha 108.340576
_cell_angle_beta 55.147146
_cell_angle_gamma 112.585458
_cell_volume 481.947015
_symmetry_space_group_name_H-M "P -1"
_symmetry_group_IT_number 2
_symmetry_cell_setting 'triclinic'
loop_
_space_group_symop_operation_xyz
x,y,z
-x,-y,-z
loop_
_atom_site_type_symbol
_atom_site_label
_atom_site_fract_x
_atom_site_fract_y
_atom_site_fract_z
Si Si1 0.861041 0.787417 0.588663
Si Si2 0.742578 0.077398 0.759582
Si Si3 0.000000 0.500000 0.000000
Si Si4 0.522592 0.557177 0.827716
Si Si5 0.354254 0.939210 0.712876
Si Si6 0.027200 0.214276 0.983317
Si Si7 0.561202 0.708515 0.415550
O O1 0.726138 0.693565 0.765262
O O2 0.749098 0.697445 0.448115
O O3 0.127495 0.827924 0.422845
O O4 0.802304 0.931862 0.666593
O O5 0.854058 0.152593 0.896831
O O6 0.478633 0.036383 0.838098
O O7 0.721068 0.428036 0.098026
O O8 0.967253 0.627833 0.954955
O O9 0.573831 0.436857 0.637878
O O10 0.500000 0.500000 0.000000
O O11 0.413728 0.793364 0.620214
O O12 0.500000 0.000000 0.500000
O O13 0.083309 0.886099 0.849195
O O14 0.277184 0.211030 0.785522
#
# Coordination Sequence:
#
# PCOD9007819 Si02
#       7
#     2   2   1   2   2   2   2
#     4   9  18  37  61  86 118 158 208 252 306 374
#     4   9  19  35  59  85 112 159 206 247 303 368
#     4  10  22  40  60  88 124 160 208 258 304 368
#     4  11  23  38  64  94 124 167 211 258 317 375
#     4  11  23  36  57  91 125 157 203 260 314 372
#     4  10  21  39  63  85 117 165 209 253 310 372
#     4   9  21  40  60  86 121 167 206 252 320 369
#
# _framework density 26.973918000000001
#
# number of rings (size 3 to 8) (size 9 to 14) (size 15 to 20)
#    0.000    2.154    0.000    3.692    0.000    8.000 
#    0.000    0.000    0.000   18.462    0.000    0.000 
#    0.000    0.000    0.000    0.000    0.000    0.000 
#
# Total GULP energy -72395.283157 kJ/mol
# GULP energy per Si atom -5568.867935 kJ/mol
# Density = 2.691252 g / cm^3
# Si number density = 26.973918 Si / 1000 Ang^3
#
#
#
# Elastic Constant Matrix: (Units=GPa)
#
#
# Indices 1 2 3 4 5 6 
#
# 1 67.4213 27.8835 1.2405 2.7181 -13.1650 8.6761
# 2 27.8835 173.4628 53.7958 -41.1359 -5.4461 28.8736
# 3 1.2405 53.7958 77.8368 -41.3273 -6.4991 -1.5336
# 4 2.7181 -41.1359 -41.3273 67.0968 10.0082 2.4833
# 5 -13.1650 -5.4461 -6.4991 10.0082 41.3809 -7.6884
# 6 8.6761 28.8736 -1.5336 2.4833 -7.6884 37.6193
#
#
#
# Elastic Compliance Matrix: (Units=1/GPa)
#
#
# Indices 1 2 3 4 5 6 
#
# 1 0.017695 -0.003862 0.001153 -0.003311 0.006180 0.000411
# 2 -0.003862 0.010213 -0.005355 0.003891 -0.003166 -0.008070
# 3 0.001153 -0.005355 0.021946 0.009792 0.001560 0.004411
# 4 -0.003311 0.003891 0.009792 0.024488 -0.005785 -0.004622
# 5 0.006180 -0.003166 0.001560 -0.005785 0.028719 0.007319
# 6 0.000411 -0.008070 0.004411 -0.004622 0.007319 0.034662
#
#
# Mechanical properties :
#
#
# Convention : Reuss Voigt Hill
#
# Bulk Modulus (GPa) = 29.64964 53.84007 41.74485
# Shear Modulus (GPa) = 30.28611 44.93948 37.61279
#
# Velocity S-wave (km/s) = 3.35444 4.08614 3.73824
# Velocity P-wave (km/s) = 5.10087 6.50118 5.84313
#
# Compressibility (1/GPa) = 0.03372723
#
# Stress axis : x y z
#
# Youngs Moduli (GPa) = 56.51249 97.91638 45.56678
#
# Poissons Ratio (x) = 0.37813 -0.05254
# Poissons Ratio (y) = 0.21824 0.24399
# Poissons Ratio (z) = -0.06516 0.52429
#
# Static dielectric constant tensor:
#      x y z
#    x 2.106270 -0.046130 0.093060 
#    y -0.046130 2.109240 -0.078370 
#    z 0.093060 -0.078370 2.308300 
# 
# From -- ./inp_files/188983.got.cif
#   From: 2010.05.17/outbox.cif.g08.bks.cpg/sg2_95_cif.got.tgz:188983.got - 2010.06.03 11:33:40.
