data_PCOD9007619
_publ_section_title
;
Structure prediction by ZEFSAII (Michael W. Deem and Ramdas Pophale) SiO2 
 PCOD9007619
Probable space group: P -1
;
_chemical_formula_sum "Si O2"
_cell_formula_units_Z 14
_cell_length_a 11.227427
_cell_length_b 8.595033
_cell_length_c 18.325597
_cell_angle_alpha 44.216102
_cell_angle_beta 145.050929
_cell_angle_gamma 111.613616
_cell_volume 590.705011
_symmetry_space_group_name_H-M "P -1"
_symmetry_group_IT_number 2
_symmetry_cell_setting 'triclinic'
loop_
_space_group_symop_operation_xyz
x,y,z
-x,-y,-z
loop_
_atom_site_type_symbol
_atom_site_label
_atom_site_fract_x
_atom_site_fract_y
_atom_site_fract_z
Si Si1 0.781527 0.511536 0.554979
Si Si2 0.928073 0.607656 0.748057
Si Si3 0.629992 0.482353 0.738732
Si Si4 0.590146 0.445954 0.972241
Si Si5 0.747837 0.052170 0.045366
Si Si6 0.774097 0.203919 0.443202
Si Si7 0.301356 0.062566 0.742474
O O1 0.849191 0.504371 0.675206
O O2 0.545237 0.498424 0.421350
O O3 0.028574 0.252623 0.732616
O O4 0.715865 0.784321 0.391308
O O5 0.792196 0.593236 0.755952
O O6 0.222871 0.458040 0.956741
O O7 0.848996 0.903613 0.588026
O O8 0.436861 0.641125 0.653907
O O9 0.798689 0.186355 0.956863
O O10 0.598025 0.252190 0.104417
O O11 0.710964 0.225000 0.040099
O O12 0.331984 0.669979 0.731715
O O13 0.490347 0.080589 0.884833
O O14 0.016521 0.210584 0.575012
#
# Coordination Sequence:
#
# PCOD9007619 Si02
#       7
#     2   2   2   2   2   2   2
#     4  11  23  39  61  87 121 159 193 238 292 352
#     4  11  24  40  59  88 122 157 196 238 292 352
#     4  10  23  41  62  87 116 156 202 242 287 345
#     4  10  22  37  60  89 118 153 194 244 295 342
#     4  10  22  38  61  90 117 153 197 243 292 346
#     4  10  22  40  64  89 116 153 196 248 295 340
#     4  10  21  39  62  90 119 151 198 242 292 350
#
# _framework density 23.700493000000002
#
# number of rings (size 3 to 8) (size 9 to 14) (size 15 to 20)
#    0.000    1.714    0.000    3.857    0.000   16.571 
#    0.000    4.286    0.000    0.000    0.000    0.000 
#    0.000    0.000    0.000    0.000    0.000    0.000 
#
# Total GULP energy -78329.093028 kJ/mol
# GULP energy per Si atom -5594.935216 kJ/mol
# Density = 2.364655 g / cm^3
# Si number density = 23.700493 Si / 1000 Ang^3
#
#
#
# Elastic Constant Matrix: (Units=GPa)
#
#
# Indices 1 2 3 4 5 6 
#
# 1 79.3216 11.0472 27.3761 21.5091 7.0418 26.2675
# 2 11.0472 36.9472 19.0868 14.1794 1.9699 12.1002
# 3 27.3761 19.0868 119.5853 8.4237 -18.5089 25.0091
# 4 21.5091 14.1794 8.4237 40.5851 -3.5748 -0.5357
# 5 7.0418 1.9699 -18.5089 -3.5748 28.6867 9.1646
# 6 26.2675 12.1002 25.0091 -0.5357 9.1646 34.2873
#
#
#
# Elastic Compliance Matrix: (Units=1/GPa)
#
#
# Indices 1 2 3 4 5 6 
#
# 1 0.022069 0.005299 -0.002000 -0.013657 -0.003469 -0.016604
# 2 0.005299 0.038405 -0.003928 -0.015948 -0.004011 -0.013925
# 3 -0.002000 -0.003928 0.013592 0.000614 0.012944 -0.010445
# 4 -0.013657 -0.015948 0.000614 0.037941 0.004794 0.014954
# 5 -0.003469 -0.004011 0.012944 0.004794 0.050979 -0.018919
# 6 -0.016604 -0.013925 -0.010445 0.014954 -0.018919 0.059709
#
#
# Mechanical properties :
#
#
# Convention : Reuss Voigt Hill
#
# Bulk Modulus (GPa) = 13.73509 38.98603 26.36056
# Shear Modulus (GPa) = 20.14310 32.60141 26.37225
#
# Velocity S-wave (km/s) = 2.91847 3.71288 3.33938
# Velocity P-wave (km/s) = 4.14300 5.90472 5.10050
#
# Compressibility (1/GPa) = 0.07280623
#
# Stress axis : x y z
#
# Youngs Moduli (GPa) = 45.31235 26.03818 73.57451
#
# Poissons Ratio (x) = -0.13797 0.14718
# Poissons Ratio (y) = -0.24010 0.28901
# Poissons Ratio (z) = 0.09064 0.10228
#
# Static dielectric constant tensor:
#      x y z
#    x 1.943020 -0.061250 -0.011510 
#    y -0.061250 1.916000 -0.037790 
#    z -0.011510 -0.037790 1.892130 
# 
# From -- ./inp_files/273625.got.cif
#   From: 2010.05.17/outbox.cif.g08.bks.cpg/sg2_137_cif.got.tgz:273625.got - 2010.06.03 11:33:40.
