data_PCOD9007279
_publ_section_title
;
Structure prediction by ZEFSAII (Michael W. Deem and Ramdas Pophale) SiO2 
 PCOD9007279
Probable space group: P -1
;
_chemical_formula_sum "Si O2"
_cell_formula_units_Z 14
_cell_length_a 6.895778
_cell_length_b 16.863842
_cell_length_c 8.301605
_cell_angle_alpha 94.214156
_cell_angle_beta 89.715312
_cell_angle_gamma 42.931591
_cell_volume 653.312659
_symmetry_space_group_name_H-M "P -1"
_symmetry_group_IT_number 2
_symmetry_cell_setting 'triclinic'
loop_
_space_group_symop_operation_xyz
x,y,z
-x,-y,-z
loop_
_atom_site_type_symbol
_atom_site_label
_atom_site_fract_x
_atom_site_fract_y
_atom_site_fract_z
Si Si1 0.817758 0.170864 0.342826
Si Si2 0.145103 0.416462 0.741164
Si Si3 0.160315 0.995462 0.852733
Si Si4 0.804952 0.232816 0.715143
Si Si5 0.816924 0.386051 0.919842
Si Si6 0.841068 0.646454 0.629348
Si Si7 0.172584 0.192867 0.168884
O O1 0.854432 0.065621 0.300207
O O2 0.867695 0.187081 0.525481
O O3 0.481875 0.286381 0.323539
O O4 0.022896 0.157185 0.220100
O O5 0.476868 0.309003 0.764103
O O6 0.096295 0.392384 0.561380
O O7 0.958547 0.425342 0.870067
O O8 0.051857 0.535107 0.729025
O O9 0.489811 0.914075 0.881298
O O10 0.007382 0.121309 0.814396
O O11 0.000000 0.000000 0.000000
O O12 0.821814 0.321488 0.762616
O O13 0.500000 0.500000 0.000000
O O14 0.003626 0.285061 0.038470
O O15 0.855846 0.735004 0.675136
#
# Coordination Sequence:
#
# PCOD9007279 Si02
#       7
#     2   2   2   2   2   2   2
#     4  10  22  41  64  89 117 154 201 245 292 350
#     4  10  21  39  61  85 120 156 196 245 294 347
#     4  11  24  41  62  89 120 156 198 243 296 352
#     4  11  24  41  62  88 119 158 201 243 290 351
#     4  12  25  38  60  92 122 156 197 242 297 354
#     4   9  20  39  62  87 115 156 198 242 295 350
#     4  11  23  39  61  87 121 156 194 245 297 347
#
# _framework density 21.42925
#
# number of rings (size 3 to 8) (size 9 to 14) (size 15 to 20)
#    0.000    1.429    0.000    4.714    0.000    8.571 
#    0.000    5.714    0.000    0.000    0.000    0.000 
#    0.000    0.000    0.000    0.000    0.000    0.000 
#
# Total GULP energy -78307.543081 kJ/mol
# GULP energy per Si atom -5593.395934 kJ/mol
# Density = 2.138048 g / cm^3
# Si number density = 21.429250 Si / 1000 Ang^3
#
#
#
# Elastic Constant Matrix: (Units=GPa)
#
#
# Indices 1 2 3 4 5 6 
#
# 1 91.0583 34.6047 22.3878 -9.7433 -19.7333 -6.4175
# 2 34.6047 131.1804 21.9463 -13.9270 -5.3829 -14.5972
# 3 22.3878 21.9463 41.9871 6.7476 5.0108 -15.5839
# 4 -9.7433 -13.9270 6.7476 31.0474 5.5669 12.8207
# 5 -19.7333 -5.3829 5.0108 5.5669 39.0528 10.7143
# 6 -6.4175 -14.5972 -15.5839 12.8207 10.7143 35.3625
#
#
#
# Elastic Compliance Matrix: (Units=1/GPa)
#
#
# Indices 1 2 3 4 5 6 
#
# 1 0.019654 -0.001715 -0.018642 0.012811 0.014183 -0.014298
# 2 -0.001715 0.009407 -0.005104 0.004957 0.000555 -0.000642
# 3 -0.018642 -0.005104 0.059533 -0.033334 -0.024014 0.040107
# 4 0.012811 0.004957 -0.033334 0.057937 0.012836 -0.035213
# 5 0.014183 0.000555 -0.024014 0.012836 0.040913 -0.024829
# 6 -0.014298 -0.000642 0.040107 -0.035213 -0.024829 0.063383
#
#
# Mechanical properties :
#
#
# Convention : Reuss Voigt Hill
#
# Bulk Modulus (GPa) = 26.54385 46.90039 36.72212
# Shear Modulus (GPa) = 15.90818 33.44499 24.67659
#
# Velocity S-wave (km/s) = 2.72758 3.95488 3.39711
# Velocity P-wave (km/s) = 4.72580 6.54128 5.70621
#
# Compressibility (1/GPa) = 0.03767351
#
# Stress axis : x y z
#
# Youngs Moduli (GPa) = 50.88116 106.30634 16.79734
#
# Poissons Ratio (x) = 0.18229 0.31313
# Poissons Ratio (y) = 0.08725 0.08573
# Poissons Ratio (z) = 0.94851 0.54256
#
# Static dielectric constant tensor:
#      x y z
#    x 1.742870 0.009930 0.050270 
#    y 0.009930 1.742760 0.041770 
#    z 0.050270 0.041770 1.789130 
# 
# From -- ./inp_files/27677.got.cif
#   From: 2010.05.17/outbox.cif.g08.bks.cpg/sg2_14_cif.got.tgz:27677.got - 2010.06.03 11:33:40.
