data_PCOD9007306
_publ_section_title
;
Structure prediction by ZEFSAII (Michael W. Deem and Ramdas Pophale) SiO2 
 PCOD9007306
Probable space group: P -1
;
_chemical_formula_sum "Si O2"
_cell_formula_units_Z 15
_cell_length_a 9.526242
_cell_length_b 11.993780
_cell_length_c 10.715409
_cell_angle_alpha 46.704892
_cell_angle_beta 129.408494
_cell_angle_gamma 132.943846
_cell_volume 619.155163
_symmetry_space_group_name_H-M "P -1"
_symmetry_group_IT_number 2
_symmetry_cell_setting 'triclinic'
loop_
_space_group_symop_operation_xyz
x,y,z
-x,-y,-z
loop_
_atom_site_type_symbol
_atom_site_label
_atom_site_fract_x
_atom_site_fract_y
_atom_site_fract_z
Si Si1 0.830106 0.606352 0.746982
Si Si2 0.160740 0.081098 0.351275
Si Si3 0.485768 0.833019 0.313016
Si Si4 0.745961 0.748732 0.350685
Si Si5 0.723718 0.295201 0.084631
Si Si6 0.500000 0.000000 0.000000
Si Si7 0.228852 0.534540 0.571842
Si Si8 0.501340 0.825562 0.691788
O O1 0.885283 0.769231 0.739235
O O2 0.712839 0.632544 0.543893
O O3 0.040050 0.613155 0.813390
O O4 0.698820 0.442071 0.879601
O O5 0.330855 0.088554 0.544838
O O6 0.268472 0.132178 0.239573
O O7 0.500000 0.000000 0.500000
O O8 0.587460 0.829402 0.233247
O O9 0.324362 0.658441 0.411612
O O10 0.369085 0.933303 0.114477
O O11 0.748526 0.636710 0.319962
O O12 0.968573 0.901833 0.375680
O O13 0.585653 0.223455 0.182406
O O14 0.684425 0.146071 0.079993
O O15 0.367044 0.656993 0.664723
O O16 0.000000 0.500000 0.500000
#
# Coordination Sequence:
#
# PCOD9007306 Si02
#       8
#     2   2   2   2   2   1   2   2
#     4  10  21  39  61  87 117 156 198 241 293 346
#     4  10  21  40  65  87 116 157 200 242 292 352
#     4  10  22  38  61  88 119 155 196 243 293 347
#     4  11  20  39  65  89 114 152 204 250 286 341
#     4  11  23  38  60  87 121 155 193 243 294 348
#     4  12  22  36  60  90 116 148 196 246 292 340
#     4  11  22  36  59  89 119 152 194 243 292 348
#     4  11  23  40  59  85 121 159 195 237 297 357
#
# _framework density 24.226559999999999
#
# number of rings (size 3 to 8) (size 9 to 14) (size 15 to 20)
#    0.000    1.333    0.000    8.400    0.000    3.733 
#    0.000    0.000    0.000    3.200    0.000    0.000 
#    0.000    0.000    0.000    0.000    0.000    0.000 
#
# Total GULP energy -83584.269419 kJ/mol
# GULP energy per Si atom -5572.284628 kJ/mol
# Density = 2.417142 g / cm^3
# Si number density = 24.226560 Si / 1000 Ang^3
#
#
#
# Elastic Constant Matrix: (Units=GPa)
#
#
# Indices 1 2 3 4 5 6 
#
# 1 179.0640 66.6175 49.5784 2.0321 -20.3085 9.0165
# 2 66.6175 175.4034 40.2402 -17.0367 -15.3120 -12.6907
# 3 49.5784 40.2402 90.7121 -18.8931 -24.3530 5.1408
# 4 2.0321 -17.0367 -18.8931 19.5875 7.9150 5.0815
# 5 -20.3085 -15.3120 -24.3530 7.9150 36.6143 -5.6501
# 6 9.0165 -12.6907 5.1408 5.0815 -5.6501 50.6798
#
#
#
# Elastic Compliance Matrix: (Units=1/GPa)
#
#
# Indices 1 2 3 4 5 6 
#
# 1 0.008178 -0.002763 -0.004318 -0.008121 0.002164 -0.000653
# 2 -0.002763 0.007629 -0.000753 0.005590 0.000249 0.001945
# 3 -0.004318 -0.000753 0.018803 0.016111 0.005962 -0.002279
# 4 -0.008121 0.005590 0.016111 0.078142 -0.009529 -0.007687
# 5 0.002164 0.000249 0.005962 -0.009529 0.035252 0.003958
# 6 -0.000653 0.001945 -0.002279 -0.007687 0.003958 0.021778
#
#
# Mechanical properties :
#
#
# Convention : Reuss Voigt Hill
#
# Bulk Modulus (GPa) = 52.79141 84.22797 68.50969
# Shear Modulus (GPa) = 26.07359 40.62589 33.34974
#
# Velocity S-wave (km/s) = 3.28417 4.09946 3.71425
# Velocity P-wave (km/s) = 6.01823 7.56635 6.83625
#
# Compressibility (1/GPa) = 0.01894248
#
# Stress axis : x y z
#
# Youngs Moduli (GPa) = 122.27401 131.08469 53.18225
#
# Poissons Ratio (x) = 0.36215 0.22963
# Poissons Ratio (y) = 0.33781 0.04007
# Poissons Ratio (z) = 0.52795 0.09876
#
# Static dielectric constant tensor:
#      x y z
#    x 2.038130 -0.056000 0.098080 
#    y -0.056000 2.081080 -0.176860 
#    z 0.098080 -0.176860 2.276030 
# 
# From -- ./inp_files/389184.got.cif
#   From: 2010.05.17/outbox.cif.g08.bks.cpg/sg2_195_cif.got.tgz:389184.got - 2010.06.03 11:33:40.
