data_PCOD9007683
_publ_section_title
;
Structure prediction by ZEFSAII (Michael W. Deem and Ramdas Pophale) SiO2 
 PCOD9007683
Probable space group: P -1
;
_chemical_formula_sum "Si O2"
_cell_formula_units_Z 14
_cell_length_a 22.880785
_cell_length_b 16.841372
_cell_length_c 9.162394
_cell_angle_alpha 32.560464
_cell_angle_beta 147.074138
_cell_angle_gamma 157.045686
_cell_volume 706.569305
_symmetry_space_group_name_H-M "P -1"
_symmetry_group_IT_number 2
_symmetry_cell_setting 'triclinic'
loop_
_space_group_symop_operation_xyz
x,y,z
-x,-y,-z
loop_
_atom_site_type_symbol
_atom_site_label
_atom_site_fract_x
_atom_site_fract_y
_atom_site_fract_z
Si Si1 0.559166 0.406288 0.342335
Si Si2 0.237375 0.971364 0.409956
Si Si3 0.994259 0.490738 0.241550
Si Si4 0.118593 0.046320 0.294257
Si Si5 0.765229 0.716753 0.546561
Si Si6 0.094716 0.890934 0.943937
Si Si7 0.133732 0.427693 0.402750
O O1 0.623220 0.503722 0.489135
O O2 0.701639 0.483439 0.425617
O O3 0.415559 0.148243 0.455088
O O4 0.500000 0.500000 0.000000
O O5 0.138386 0.723791 0.610012
O O6 0.227096 0.049029 0.420000
O O7 0.145734 0.969041 0.095726
O O8 0.107759 0.482309 0.419223
O O9 0.903773 0.486349 0.929551
O O10 0.091076 0.713615 0.181016
O O11 0.221473 0.250578 0.301633
O O12 0.004094 0.832183 0.486237
O O13 0.000000 0.000000 0.000000
O O14 0.918882 0.775325 0.735515
O O15 0.790464 0.902577 0.238734
#
# Coordination Sequence:
#
# PCOD9007683 Si02
#       7
#     2   2   2   2   2   2   2
#     4  12  23  41  63  94 132 164 198 262 325 368
#     4  11  24  36  63  94 126 161 207 262 312 368
#     4  10  21  39  66  89 121 166 218 254 296 372
#     4  11  20  38  64  94 119 160 218 265 295 361
#     4  11  21  36  67  90 124 166 210 255 312 369
#     4  11  19  40  63  94 117 163 220 258 297 374
#     4  10  21  39  62  92 122 167 207 251 314 370
#
# _framework density 19.814050999999999
#
# number of rings (size 3 to 8) (size 9 to 14) (size 15 to 20)
#    0.000    1.143    5.714    2.143    0.000    1.143 
#    0.000    0.714    0.000    0.000    0.000    0.000 
#    0.000    0.000    0.000    0.000    0.000    0.000 
#
# Total GULP energy -78109.032907 kJ/mol
# GULP energy per Si atom -5579.216636 kJ/mol
# Density = 1.976895 g / cm^3
# Si number density = 19.814051 Si / 1000 Ang^3
#
#
#
# Elastic Constant Matrix: (Units=GPa)
#
#
# Indices 1 2 3 4 5 6 
#
# 1 91.6818 36.1354 15.3034 2.6626 9.5720 -2.7936
# 2 36.1354 84.9742 23.2278 -0.7692 -0.0432 6.9469
# 3 15.3034 23.2278 67.8525 3.0414 -9.0660 3.9800
# 4 2.6626 -0.7692 3.0414 27.8028 -1.2985 -1.8213
# 5 9.5720 -0.0432 -9.0660 -1.2985 34.6418 4.5692
# 6 -2.7936 6.9469 3.9800 -1.8213 4.5692 38.3392
#
#
#
# Elastic Compliance Matrix: (Units=1/GPa)
#
#
# Indices 1 2 3 4 5 6 
#
# 1 0.014115 -0.005703 -0.001982 -0.001337 -0.004843 0.002781
# 2 -0.005703 0.015468 -0.003756 0.001244 0.001040 -0.002893
# 3 -0.001982 -0.003756 0.017369 -0.001697 0.005286 -0.001977
# 4 -0.001337 0.001244 -0.001697 0.036462 0.001102 0.001454
# 5 -0.004843 0.001040 0.005286 0.001102 0.032275 -0.004884
# 6 0.002781 -0.002893 -0.001977 0.001454 -0.004884 0.027666
#
#
# Mechanical properties :
#
#
# Convention : Reuss Voigt Hill
#
# Bulk Modulus (GPa) = 41.54298 43.76018 42.65158
# Shear Modulus (GPa) = 28.69270 31.47957 30.08613
#
# Velocity S-wave (km/s) = 3.80952 3.99024 3.90092
# Velocity P-wave (km/s) = 6.35310 6.58504 6.47011
#
# Compressibility (1/GPa) = 0.02407146
#
# Stress axis : x y z
#
# Youngs Moduli (GPa) = 70.84731 64.64794 57.57422
#
# Poissons Ratio (x) = 0.36866 0.11409
# Poissons Ratio (y) = 0.40402 0.21626
# Poissons Ratio (z) = 0.14039 0.24283
#
# Static dielectric constant tensor:
#      x y z
#    x 1.757570 -0.033920 -0.017920 
#    y -0.033920 1.681300 -0.012970 
#    z -0.017920 -0.012970 1.722720 
# 
# From -- ./inp_files/159337.got.cif
#   From: 2010.05.17/outbox.cif.g08.bks.cpg/sg2_80_cif.got.tgz:159337.got - 2010.06.03 11:33:40.
