data_PCOD9007773
_publ_section_title
;
Structure prediction by ZEFSAII (Michael W. Deem and Ramdas Pophale) SiO2 
 PCOD9007773
Probable space group: P -1
;
_chemical_formula_sum "Si O2"
_cell_formula_units_Z 16
_cell_length_a 11.841609
_cell_length_b 19.077826
_cell_length_c 10.848664
_cell_angle_alpha 145.150040
_cell_angle_beta 140.248579
_cell_angle_gamma 28.993764
_cell_volume 667.217126
_symmetry_space_group_name_H-M "P -1"
_symmetry_group_IT_number 2
_symmetry_cell_setting 'triclinic'
loop_
_space_group_symop_operation_xyz
x,y,z
-x,-y,-z
loop_
_atom_site_type_symbol
_atom_site_label
_atom_site_fract_x
_atom_site_fract_y
_atom_site_fract_z
Si Si1 0.789716 0.401884 0.371850
Si Si2 0.628713 0.857084 0.143223
Si Si3 0.223033 0.967553 0.369486
Si Si4 0.001809 0.522176 0.886143
Si Si5 0.456384 0.273668 0.482239
Si Si6 0.852852 0.789921 0.822803
Si Si7 0.133039 0.988557 0.713751
Si Si8 0.462868 0.728336 0.000150
O O1 0.889774 0.456432 0.629591
O O2 0.597114 0.561389 0.355207
O O3 0.001383 0.267047 0.262512
O O4 0.667043 0.338949 0.234415
O O5 0.518228 0.790882 0.022494
O O6 0.741104 0.903459 0.399785
O O7 0.409283 0.031261 0.154076
O O8 0.830624 0.719196 0.020291
O O9 0.395084 0.823439 0.409175
O O10 0.302225 0.878959 0.178010
O O11 0.958932 0.050559 0.306396
O O12 0.276031 0.414809 0.926813
O O13 0.000000 0.500000 0.000000
O O14 0.202945 0.323198 0.353231
O O15 0.599043 0.152285 0.309937
O O16 0.955002 0.834358 0.073523
O O17 0.000000 0.000000 0.500000
#
# Coordination Sequence:
#
# PCOD9007773 Si02
#       8
#     2   2   2   2   2   2   2   2
#     4  12  25  43  69 100 136 178 219 271 341 397
#     4  10  23  42  70  92 129 179 218 279 326 389
#     4  10  21  43  64 100 131 171 225 271 331 390
#     4  10  24  45  66  97 133 178 221 275 329 392
#     4  10  23  40  66  94 134 175 217 273 331 395
#     4  11  22  44  65  96 132 171 226 270 329 395
#     4  10  21  39  62  96 130 171 219 270 325 394
#     4  11  24  45  68  99 137 174 223 274 334 397
#
# _framework density 23.9802
#
# number of rings (size 3 to 8) (size 9 to 14) (size 15 to 20)
#    0.000    1.500    1.250    3.375    1.750    6.000 
#    6.750    0.000    0.000    0.000    0.000    0.000 
#    0.000    0.000    0.000    0.000    0.000    0.000 
#
# Total GULP energy -89456.144187 kJ/mol
# GULP energy per Si atom -5591.009012 kJ/mol
# Density = 2.392562 g / cm^3
# Si number density = 23.980200 Si / 1000 Ang^3
#
#
#
# Elastic Constant Matrix: (Units=GPa)
#
#
# Indices 1 2 3 4 5 6 
#
# 1 95.1377 12.0510 33.7646 -0.4517 26.0491 -25.9009
# 2 12.0510 60.7012 26.1291 6.4609 -0.7668 -11.5664
# 3 33.7646 26.1291 135.0812 3.1828 7.1675 -12.2142
# 4 -0.4517 6.4609 3.1828 30.5074 -4.2913 -3.2332
# 5 26.0491 -0.7668 7.1675 -4.2913 45.1119 6.2611
# 6 -25.9009 -11.5664 -12.2142 -3.2332 6.2611 36.2570
#
#
#
# Elastic Compliance Matrix: (Units=1/GPa)
#
#
# Indices 1 2 3 4 5 6 
#
# 1 0.018946 0.000049 -0.002749 0.000366 -0.012524 0.014819
# 2 0.000049 0.019091 -0.003187 -0.003226 -0.000169 0.004793
# 3 -0.002749 -0.003187 0.008696 -0.000264 0.000140 -0.000099
# 4 0.000366 -0.003226 -0.000264 0.034066 0.002780 0.001701
# 5 -0.012524 -0.000169 0.000140 0.002780 0.031604 -0.014164
# 6 0.014819 0.004793 -0.000099 0.001701 -0.014164 0.042261
#
#
# Mechanical properties :
#
#
# Convention : Reuss Voigt Hill
#
# Bulk Modulus (GPa) = 28.60494 48.31217 38.45855
# Shear Modulus (GPa) = 28.07540 36.97361 32.52450
#
# Velocity S-wave (km/s) = 3.42537 3.93089 3.68680
# Velocity P-wave (km/s) = 5.25344 6.38693 5.84772
#
# Compressibility (1/GPa) = 0.03495900
#
# Stress axis : x y z
#
# Youngs Moduli (GPa) = 52.78117 52.38174 114.99026
#
# Poissons Ratio (x) = -0.00255 0.31613
# Poissons Ratio (y) = -0.00257 0.36642
# Poissons Ratio (z) = 0.14511 0.16692
#
# Static dielectric constant tensor:
#      x y z
#    x 1.919280 0.030060 0.023100 
#    y 0.030060 2.049810 -0.046290 
#    z 0.023100 -0.046290 1.963670 
# 
# From -- ./inp_files/260723.got.cif
#   From: 2010.05.17/outbox.cif.g08.bks.cpg/sg2_131_cif.got.tgz:260723.got - 2010.06.03 11:33:40.
