data_PCOD9007084
_publ_section_title
;
Structure prediction by ZEFSAII (Michael W. Deem and Ramdas Pophale) SiO2 
 PCOD9007084
Probable space group: P -1
;
_chemical_formula_sum "Si O2"
_cell_formula_units_Z 15
_cell_length_a 6.851971
_cell_length_b 12.628214
_cell_length_c 19.089571
_cell_angle_alpha 140.533524
_cell_angle_beta 40.853480
_cell_angle_gamma 133.652894
_cell_volume 663.928734
_symmetry_space_group_name_H-M "P -1"
_symmetry_group_IT_number 2
_symmetry_cell_setting 'triclinic'
loop_
_space_group_symop_operation_xyz
x,y,z
-x,-y,-z
loop_
_atom_site_type_symbol
_atom_site_label
_atom_site_fract_x
_atom_site_fract_y
_atom_site_fract_z
Si Si1 0.575618 0.680902 0.029419
Si Si2 0.585655 0.470142 0.383107
Si Si3 0.387475 0.754473 0.502986
Si Si4 0.297660 0.804925 0.877004
Si Si5 0.137879 0.733300 0.406098
Si Si6 0.300403 0.090315 0.758274
Si Si7 0.343768 0.807320 0.023022
Si Si8 0.000000 0.000000 0.500000
O O1 0.552445 0.831296 0.167823
O O2 0.376324 0.685002 0.015923
O O3 0.500000 0.500000 0.000000
O O4 0.930817 0.736126 0.937650
O O5 0.500000 0.500000 0.500000
O O6 0.399313 0.574404 0.440415
O O7 0.539903 0.280727 0.269849
O O8 0.953901 0.559879 0.329727
O O9 0.216273 0.723990 0.460124
O O10 0.744539 0.861257 0.450615
O O11 0.257556 0.886672 0.654396
O O12 0.402529 0.010191 0.946864
O O13 0.380699 0.747071 0.902738
O O14 0.440960 0.821169 0.323487
O O15 0.924333 0.863472 0.516247
O O16 0.987214 0.147261 0.862850
#
# Coordination Sequence:
#
# PCOD9007084 Si02
#       8
#     2   2   2   2   2   2   2   1
#     4  11  24  42  70 100 128 170 220 282 334 387
#     4  11  26  42  64  96 134 177 222 273 327 394
#     4  10  22  39  62  95 136 175 216 266 331 394
#     4  10  24  47  66  98 130 177 225 269 336 394
#     4  10  21  39  59  94 132 174 213 266 327 388
#     4  10  22  38  67 101 126 169 216 267 332 398
#     4  10  24  45  72  94 132 175 222 277 333 399
#     4   8  16  34  58  82 122 166 210 254 312 378
#
# _framework density 22.592787000000001
#
# number of rings (size 3 to 8) (size 9 to 14) (size 15 to 20)
#    0.000    1.867    0.000    2.800    3.733   11.200 
#    0.000    0.000    0.000    0.000    0.000    0.000 
#    0.000    0.000    0.000    0.000    0.000    0.000 
#
# Total GULP energy -83505.394589 kJ/mol
# GULP energy per Si atom -5567.026306 kJ/mol
# Density = 2.254136 g / cm^3
# Si number density = 22.592787 Si / 1000 Ang^3
#
#
#
# Elastic Constant Matrix: (Units=GPa)
#
#
# Indices 1 2 3 4 5 6 
#
# 1 109.7976 -1.7001 16.4077 6.0795 7.7233 -24.4098
# 2 -1.7001 27.8340 -3.6401 -11.4675 -12.6624 -2.7102
# 3 16.4077 -3.6401 87.9226 -7.5872 20.2514 -7.5348
# 4 6.0795 -11.4675 -7.5872 22.0463 3.1103 -0.1311
# 5 7.7233 -12.6624 20.2514 3.1103 19.5604 -10.5073
# 6 -24.4098 -2.7102 -7.5348 -0.1311 -10.5073 38.1018
#
#
#
# Elastic Compliance Matrix: (Units=1/GPa)
#
#
# Indices 1 2 3 4 5 6 
#
# 1 0.011189 0.001335 -0.002598 -0.003794 0.003942 0.007823
# 2 0.001335 0.080068 -0.007976 0.029127 0.067683 0.023739
# 3 -0.002598 -0.007976 0.017729 0.006411 -0.026783 -0.006089
# 4 -0.003794 0.029127 0.006411 0.063067 0.005039 0.002515
# 5 0.003942 0.067683 -0.026783 0.005039 0.142531 0.041366
# 6 0.007823 0.023739 -0.006089 0.002515 0.041366 0.043158
#
#
# Mechanical properties :
#
#
# Convention : Reuss Voigt Hill
#
# Bulk Modulus (GPa) = 11.04862 27.52103 19.28482
# Shear Modulus (GPa) = 12.30358 30.24080 21.27219
#
# Velocity S-wave (km/s) = 2.33616 3.66254 3.07179
# Velocity P-wave (km/s) = 3.48967 5.48575 4.59735
#
# Compressibility (1/GPa) = 0.09050902
#
# Stress axis : x y z
#
# Youngs Moduli (GPa) = 89.37697 12.48938 56.40619
#
# Poissons Ratio (x) = -0.01668 0.14652
# Poissons Ratio (y) = -0.11936 0.44989
# Poissons Ratio (z) = 0.23217 0.09961
#
# Static dielectric constant tensor:
#      x y z
#    x 1.944680 0.047350 -0.058970 
#    y 0.047350 1.898000 -0.008920 
#    z -0.058970 -0.008920 1.876540 
# 
# From -- ./inp_files/368106.got.cif
#   From: 2010.05.17/outbox.cif.g08.bks.cpg/sg2_185_cif.got.tgz:368106.got - 2010.06.03 11:33:40.
