data_PCOD9007017
_publ_section_title
;
Structure prediction by ZEFSAII (Michael W. Deem and Ramdas Pophale) SiO2 
 PCOD9007017
Probable space group: P -1
;
_chemical_formula_sum "Si O2"
_cell_formula_units_Z 14
_cell_length_a 5.000915
_cell_length_b 12.280887
_cell_length_c 15.815042
_cell_angle_alpha 49.396026
_cell_angle_beta 104.708924
_cell_angle_gamma 126.422139
_cell_volume 579.257900
_symmetry_space_group_name_H-M "P -1"
_symmetry_group_IT_number 2
_symmetry_cell_setting 'triclinic'
loop_
_space_group_symop_operation_xyz
x,y,z
-x,-y,-z
loop_
_atom_site_type_symbol
_atom_site_label
_atom_site_fract_x
_atom_site_fract_y
_atom_site_fract_z
Si Si1 0.531162 0.530375 0.604985
Si Si2 0.432939 0.911377 0.851882
Si Si3 0.226723 0.630814 0.669480
Si Si4 0.323833 0.154923 0.625133
Si Si5 0.836592 0.834700 0.159645
Si Si6 0.134893 0.732066 0.090112
Si Si7 0.516275 0.943359 0.659619
O O1 0.482879 0.610173 0.646773
O O2 0.488471 0.636817 0.475286
O O3 0.271349 0.321536 0.702952
O O4 0.910671 0.582942 0.609994
O O5 0.365919 0.833472 0.791421
O O6 0.488859 0.169832 0.888140
O O7 0.185986 0.788302 0.968470
O O8 0.818295 0.991104 0.867673
O O9 0.385730 0.815015 0.635348
O O10 0.054385 0.475578 0.804619
O O11 0.421014 0.080445 0.748147
O O12 0.409963 0.077108 0.591761
O O13 0.922218 0.058121 0.640409
O O14 0.936945 0.784197 0.106407
#
# Coordination Sequence:
#
# PCOD9007017 Si02
#       7
#     2   2   2   2   2   2   2
#     4  10  21  39  59  84 112 145 193 231 272 329
#     4  10  24  38  58  84 120 142 190 224 284 340
#     4  10  21  39  59  84 112 145 193 231 272 329
#     4  10  23  37  55  88 112 153 181 225 289 323
#     4  10  22  38  62  84 108 149 188 234 277 324
#     4  10  22  38  62  84 108 149 188 234 277 324
#     4  10  23  37  55  88 112 153 181 225 289 323
#
# _framework density 24.168858
#
# number of rings (size 3 to 8) (size 9 to 14) (size 15 to 20)
#    0.857    1.143    0.000    2.571    4.000    4.571 
#    0.000    1.429    0.000    0.000    0.000    0.000 
#    0.000    0.000    0.000    0.000    0.000    0.000 
#
# Total GULP energy -78348.026952 kJ/mol
# GULP energy per Si atom -5596.287639 kJ/mol
# Density = 2.411385 g / cm^3
# Si number density = 24.168858 Si / 1000 Ang^3
#
#
#
# Elastic Constant Matrix: (Units=GPa)
#
#
# Indices 1 2 3 4 5 6 
#
# 1 94.0057 3.1754 19.1505 -2.0886 -5.6934 -11.4304
# 2 3.1754 61.7157 4.9807 4.9000 -0.7742 -9.4469
# 3 19.1505 4.9807 159.4273 -1.0441 4.3713 -0.8112
# 4 -2.0886 4.9000 -1.0441 29.7575 -12.2655 -3.4580
# 5 -5.6934 -0.7742 4.3713 -12.2655 34.6304 -1.3111
# 6 -11.4304 -9.4469 -0.8112 -3.4580 -1.3111 26.4886
#
#
#
# Elastic Compliance Matrix: (Units=1/GPa)
#
#
# Indices 1 2 3 4 5 6 
#
# 1 0.011888 0.000198 -0.001479 0.002791 0.003349 0.005686
# 2 0.000198 0.017322 -0.000547 -0.002191 -0.000061 0.005958
# 3 -0.001479 -0.000547 0.006495 -0.000383 -0.001239 -0.000746
# 4 0.002791 -0.002191 -0.000383 0.041218 0.015305 0.006550
# 5 0.003349 -0.000061 -0.001239 0.015305 0.035197 0.005126
# 6 0.005686 0.005958 -0.000746 0.006550 0.005126 0.043416
#
#
# Mechanical properties :
#
#
# Convention : Reuss Voigt Hill
#
# Bulk Modulus (GPa) = 31.20121 41.08468 36.14294
# Shear Modulus (GPa) = 29.43327 37.36476 33.39901
#
# Velocity S-wave (km/s) = 3.49351 3.93617 3.72143
# Velocity P-wave (km/s) = 5.40468 6.13953 5.78379
#
# Compressibility (1/GPa) = 0.03205004
#
# Stress axis : x y z
#
# Youngs Moduli (GPa) = 84.11534 57.72870 153.96780
#
# Poissons Ratio (x) = -0.01145 0.22770
# Poissons Ratio (y) = -0.01669 0.08427
# Poissons Ratio (z) = 0.12440 0.03160
#
# Static dielectric constant tensor:
#      x y z
#    x 1.890540 -0.066690 -0.017270 
#    y -0.066690 1.889810 0.017050 
#    z -0.017270 0.017050 2.023730 
# 
# From -- ./inp_files/482737.got.cif
#   From: 2010.05.17/outbox.cif.g08.bks.cpg/sg2_242_cif.got.tgz:482737.got - 2010.06.03 11:33:40.
