data_PCOD9007521
_publ_section_title
;
Structure prediction by ZEFSAII (Michael W. Deem and Ramdas Pophale) SiO2 
 PCOD9007521
Probable space group: P -1
;
_chemical_formula_sum "Si O2"
_cell_formula_units_Z 16
_cell_length_a 12.652857
_cell_length_b 24.197627
_cell_length_c 6.753574
_cell_angle_alpha 109.729833
_cell_angle_beta 79.103190
_cell_angle_gamma 157.254245
_cell_volume 708.786544
_symmetry_space_group_name_H-M "P -1"
_symmetry_group_IT_number 2
_symmetry_cell_setting 'triclinic'
loop_
_space_group_symop_operation_xyz
x,y,z
-x,-y,-z
loop_
_atom_site_type_symbol
_atom_site_label
_atom_site_fract_x
_atom_site_fract_y
_atom_site_fract_z
Si Si1 0.427790 0.640145 0.692155
Si Si2 0.947080 0.169561 0.788178
Si Si3 0.760827 0.302573 0.616020
Si Si4 0.548397 0.897393 0.893640
Si Si5 0.122484 0.735489 0.163427
Si Si6 0.831996 0.833563 0.438903
Si Si7 0.461064 0.379580 0.033792
Si Si8 0.323742 0.130902 0.867479
O O1 0.538033 0.690381 0.493074
O O2 0.500576 0.615609 0.745276
O O3 0.091600 0.484253 0.661554
O O4 0.616280 0.785326 0.907513
O O5 0.994441 0.141031 0.578249
O O6 0.851854 0.181570 0.739988
O O7 0.261318 0.332375 0.982369
O O8 0.738041 0.040376 0.879410
O O9 0.579222 0.207934 0.363975
O O10 0.765455 0.241529 0.652419
O O11 0.605887 0.264773 0.788086
O O12 0.292280 0.797940 0.987849
O O13 0.711766 0.941476 0.053532
O O14 0.783218 0.547649 0.039504
O O15 0.716028 0.765232 0.175191
O O16 0.054653 0.992522 0.644530
#
# Coordination Sequence:
#
# PCOD9007521 Si02
#       8
#     2   2   2   2   2   2   2   2
#     4  11  22  39  61  86 115 155 188 237 291 334
#     4  10  21  40  59  84 121 151 185 241 284 333
#     4  10  22  41  58  89 116 145 198 239 278 346
#     4  11  22  40  59  85 118 151 194 236 281 344
#     4  10  21  39  62  86 115 151 191 234 289 339
#     4  10  22  38  57  86 119 148 194 234 276 349
#     4   9  21  39  59  87 118 145 191 238 279 348
#     4  11  23  39  61  84 118 152 192 239 285 336
#
# _framework density 22.573792000000001
#
# number of rings (size 3 to 8) (size 9 to 14) (size 15 to 20)
#    0.750    1.000    1.250    3.000    0.000    2.500 
#    4.500    1.250    0.000    0.000    0.000    0.000 
#    0.000    0.000    0.000    0.000    0.000    0.000 
#
# Total GULP energy -89275.582345 kJ/mol
# GULP energy per Si atom -5579.723897 kJ/mol
# Density = 2.252241 g / cm^3
# Si number density = 22.573792 Si / 1000 Ang^3
#
#
#
# Elastic Constant Matrix: (Units=GPa)
#
#
# Indices 1 2 3 4 5 6 
#
# 1 40.8845 -6.3408 -4.3994 -3.4295 0.9884 -5.2399
# 2 -6.3408 28.3011 -61.1950 17.2927 -7.1998 4.5705
# 3 -4.3994 -61.1950 -0.9332 32.0411 -3.2504 1.7957
# 4 -3.4295 17.2927 32.0411 13.7676 15.4847 -9.7271
# 5 0.9884 -7.1998 -3.2504 15.4847 24.0409 -0.0954
# 6 -5.2399 4.5705 1.7957 -9.7271 -0.0954 20.9056
#
#
#
# Elastic Compliance Matrix: (Units=1/GPa)
#
#
# Indices 1 2 3 4 5 6 
#
# 1 0.027558 0.003519 0.002877 0.009433 -0.005725 0.010254
# 2 0.003519 0.009679 -0.005663 0.017457 -0.009227 0.007333
# 3 0.002877 -0.005663 0.004793 0.018995 -0.013360 0.010324
# 4 0.009433 0.017457 0.018995 0.033097 -0.013861 0.012252
# 5 -0.005725 -0.009227 -0.013360 -0.013861 0.046171 -0.004509
# 6 0.010254 0.007333 0.010324 0.012252 -0.004509 0.053595
#
#
# Mechanical properties :
#
#
# Convention : Reuss Voigt Hill
#
# Bulk Modulus (GPa) = 22.99038 -8.40200 7.29419
# Shear Modulus (GPa) = 26.60608 21.08866 23.84737
#
# Velocity S-wave (km/s) = 3.43684 3.05980 3.25379
# Velocity P-wave (km/s) = 5.09468 2.95856 4.16587
#
# Compressibility (1/GPa) = 0.04349645
#
# Stress axis : x y z
#
# Youngs Moduli (GPa) = 36.28665 103.31556 208.62273
#
# Poissons Ratio (x) = -0.36356 -0.60021
# Poissons Ratio (y) = -0.12769 1.18146
# Poissons Ratio (z) = -0.10440 0.58509
#
# Static dielectric constant tensor:
#      x y z
#    x 1.880560 -0.005530 0.022050 
#    y -0.005530 1.854650 0.014560 
#    z 0.022050 0.014560 1.790820 
# 
# From -- ./inp_files/101548.got.cif
#   From: 2010.05.17/outbox.cif.g08.bks.cpg/sg2_51_cif.got.tgz:101548.got - 2010.06.03 11:33:40.
