data_PCOD9007404
_publ_section_title
;
Structure prediction by ZEFSAII (Michael W. Deem and Ramdas Pophale) SiO2 
 PCOD9007404
Probable space group: P -1
;
_chemical_formula_sum "Si O2"
_cell_formula_units_Z 16
_cell_length_a 7.724080
_cell_length_b 21.756136
_cell_length_c 27.259471
_cell_angle_alpha 11.567951
_cell_angle_beta 129.939958
_cell_angle_gamma 129.712103
_cell_volume 702.817663
_symmetry_space_group_name_H-M "P -1"
_symmetry_group_IT_number 2
_symmetry_cell_setting 'triclinic'
loop_
_space_group_symop_operation_xyz
x,y,z
-x,-y,-z
loop_
_atom_site_type_symbol
_atom_site_label
_atom_site_fract_x
_atom_site_fract_y
_atom_site_fract_z
Si Si1 0.771771 0.867180 0.154894
Si Si2 0.036699 0.723329 0.050307
Si Si3 0.772546 0.367671 0.624449
Si Si4 0.929400 0.278440 0.530774
Si Si5 0.802212 0.812866 0.796779
Si Si6 0.719719 0.127448 0.331139
Si Si7 0.908979 0.054785 0.524383
Si Si8 0.453278 0.240155 0.903915
O O1 0.691846 0.629257 0.369505
O O2 0.595616 0.857300 0.085873
O O3 0.988135 0.724570 0.280721
O O4 0.887044 0.172873 0.962294
O O5 0.892970 0.404071 0.266970
O O6 0.280753 0.689404 0.095688
O O7 0.915482 0.009218 0.780559
O O8 0.847259 0.513969 0.575938
O O9 0.618897 0.059747 0.843051
O O10 0.713375 0.488098 0.327339
O O11 0.951081 0.085744 0.636007
O O12 0.546865 0.858605 0.732042
O O13 0.841097 0.470698 0.088372
O O14 0.831595 0.837690 0.724649
O O15 0.767849 0.981114 0.506910
O O16 0.836220 0.983324 0.418397
#
# Coordination Sequence:
#
# PCOD9007404 Si02
#       8
#     2   2   2   2   2   2   2   2
#     4   9  19  37  57  87 121 163 212 253 300 367
#     4  11  23  39  61  93 125 159 210 261 302 367
#     4   9  20  37  61  85 124 167 205 255 306 357
#     4  10  21  39  61  91 127 157 208 260 302 369
#     4  11  22  41  70  91 121 170 200 251 331 373
#     4  10  23  44  65  93 127 153 208 262 310 388
#     4  11  23  41  66  94 126 160 205 261 314 378
#     4  11  22  39  61  86 125 171 204 252 313 356
#
# _framework density 22.765506999999999
#
# number of rings (size 3 to 8) (size 9 to 14) (size 15 to 20)
#    0.000    1.750    1.250    4.125    3.500    2.000 
#    2.250    0.000    0.000    0.000    0.000    0.000 
#    0.000    0.000    0.000    0.000    0.000    0.000 
#
# Total GULP energy -89377.668136 kJ/mol
# GULP energy per Si atom -5586.104259 kJ/mol
# Density = 2.271369 g / cm^3
# Si number density = 22.765507 Si / 1000 Ang^3
#
#
#
# Elastic Constant Matrix: (Units=GPa)
#
#
# Indices 1 2 3 4 5 6 
#
# 1 4.2505 -36.3839 63.5452 -6.4478 16.7497 10.4668
# 2 -36.3839 -69.9561 107.9329 -18.8693 14.2219 24.0812
# 3 63.5452 107.9329 -4.3002 13.7914 -1.1450 -34.3767
# 4 -6.4478 -18.8693 13.7914 28.2662 -0.1614 9.5007
# 5 16.7497 14.2219 -1.1450 -0.1614 28.4101 -0.9871
# 6 10.4668 24.0812 -34.3767 9.5007 -0.9871 20.8297
#
#
#
# Elastic Compliance Matrix: (Units=1/GPa)
#
#
# Indices 1 2 3 4 5 6 
#
# 1 0.052114 -0.027630 -0.001146 -0.008415 -0.016748 0.006909
# 2 -0.027630 0.019385 0.009637 -0.000729 0.007249 0.008052
# 3 -0.001146 0.009637 0.006997 0.002914 -0.003868 -0.000530
# 4 -0.008415 -0.000729 0.002914 0.033275 0.005457 -0.005039
# 5 -0.016748 0.007249 -0.003868 0.005457 0.041079 -0.006892
# 6 0.006909 0.008052 -0.000530 -0.005039 -0.006892 0.036325
#
#
# Mechanical properties :
#
#
# Convention : Reuss Voigt Hill
#
# Bulk Modulus (GPa) = 24.86487 22.24249 23.55368
# Shear Modulus (GPa) = 20.75886 1.82786 11.29336
#
# Velocity S-wave (km/s) = 3.02297 0.89702 2.22969
# Velocity P-wave (km/s) = 4.80940 3.29611 4.12278
#
# Compressibility (1/GPa) = 0.04021738
#
# Stress axis : x y z
#
# Youngs Moduli (GPa) = 19.18865 51.58521 142.92344
#
# Poissons Ratio (x) = 1.42528 0.16383
# Poissons Ratio (y) = 0.53018 -1.37729
# Poissons Ratio (z) = 0.02200 -0.49710
#
# Static dielectric constant tensor:
#      x y z
#    x 1.870570 -0.014200 0.055320 
#    y -0.014200 1.866880 0.005720 
#    z 0.055320 0.005720 1.863220 
# 
# From -- ./inp_files/622740.got.cif
#   From: 2010.05.17/outbox.cif.g08.bks.cpg/sg2_312_cif.got.tgz:622740.got - 2010.06.03 11:33:40.
