data_PCOD9007601
_publ_section_title
;
Structure prediction by ZEFSAII (Michael W. Deem and Ramdas Pophale) SiO2 
 PCOD9007601
Probable space group: P -1
;
_chemical_formula_sum "Si O2"
_cell_formula_units_Z 14
_cell_length_a 11.658159
_cell_length_b 10.067054
_cell_length_c 6.874997
_cell_angle_alpha 110.939929
_cell_angle_beta 54.477860
_cell_angle_gamma 97.026204
_cell_volume 609.458211
_symmetry_space_group_name_H-M "P -1"
_symmetry_group_IT_number 2
_symmetry_cell_setting 'triclinic'
loop_
_space_group_symop_operation_xyz
x,y,z
-x,-y,-z
loop_
_atom_site_type_symbol
_atom_site_label
_atom_site_fract_x
_atom_site_fract_y
_atom_site_fract_z
Si Si1 0.371580 0.086204 0.323684
Si Si2 0.179828 0.328486 0.772704
Si Si3 0.021143 0.482578 0.697606
Si Si4 0.800517 0.986215 0.882975
Si Si5 0.920758 0.202640 0.578113
Si Si6 0.692139 0.150685 0.461852
Si Si7 0.477751 0.349346 0.536745
O O1 0.216451 0.164616 0.591024
O O2 0.467235 0.215699 0.326334
O O3 0.340147 0.047728 0.113822
O O4 0.395485 0.952161 0.373719
O O5 0.315892 0.363725 0.779937
O O6 0.164508 0.421657 0.636682
O O7 0.042401 0.375004 0.056763
O O8 0.925930 0.353067 0.758029
O O9 0.000000 0.500000 0.500000
O O10 0.868568 0.098841 0.737538
O O11 0.760762 0.054379 0.165812
O O12 0.922878 0.852200 0.689435
O O13 0.811060 0.204512 0.510775
O O14 0.592642 0.284783 0.543196
O O15 0.500000 0.500000 0.500000
#
# Coordination Sequence:
#
# PCOD9007601 Si02
#       7
#     2   2   2   2   2   2   2
#     4   9  21  42  61  89 122 159 209 252 300 365
#     4   9  23  42  62  88 131 158 204 262 302 359
#     4  11  23  39  67  92 122 167 204 253 316 366
#     4  10  21  39  62  89 123 160 203 258 305 358
#     4  10  22  37  57  96 123 151 212 253 303 367
#     4  11  23  38  67  87 123 168 202 253 308 366
#     4  10  23  42  63  90 128 165 204 254 310 366
#
# _framework density 22.971219999999999
#
# number of rings (size 3 to 8) (size 9 to 14) (size 15 to 20)
#    0.857    1.143    1.429    0.857    6.000    1.714 
#    0.000    3.571    0.000    0.000    0.000    0.000 
#    0.000    0.000    0.000    0.000    0.000    0.000 
#
# Total GULP energy -78103.317695 kJ/mol
# GULP energy per Si atom -5578.808407 kJ/mol
# Density = 2.291894 g / cm^3
# Si number density = 22.971220 Si / 1000 Ang^3
#
#
#
# Elastic Constant Matrix: (Units=GPa)
#
#
# Indices 1 2 3 4 5 6 
#
# 1 81.9915 40.9782 34.1283 -13.9513 25.2900 -9.0298
# 2 40.9782 112.4214 27.2374 4.0591 -0.1981 -19.1728
# 3 34.1283 27.2374 98.5081 -6.0790 15.0754 -15.0768
# 4 -13.9513 4.0591 -6.0790 23.5336 -1.6847 8.0265
# 5 25.2900 -0.1981 15.0754 -1.6847 32.1680 3.9988
# 6 -9.0298 -19.1728 -15.0768 8.0265 3.9988 39.8053
#
#
#
# Elastic Compliance Matrix: (Units=1/GPa)
#
#
# Indices 1 2 3 4 5 6 
#
# 1 0.026595 -0.009787 -0.002838 0.015743 -0.018683 -0.001054
# 2 -0.009787 0.014076 -0.001414 -0.009878 0.007270 0.005285
# 3 -0.002838 -0.001414 0.012786 0.000231 -0.004242 0.003897
# 4 0.015743 -0.009878 0.000231 0.057029 -0.008094 -0.011785
# 5 -0.018683 0.007270 -0.004242 -0.008094 0.048073 -0.005540
# 6 -0.001054 0.005285 0.003897 -0.011785 -0.005540 0.031838
#
#
# Mechanical properties :
#
#
# Convention : Reuss Voigt Hill
#
# Bulk Modulus (GPa) = 39.40602 55.28985 47.34793
# Shear Modulus (GPa) = 22.03276 31.80654 26.91965
#
# Velocity S-wave (km/s) = 3.10037 3.72509 3.42700
# Velocity P-wave (km/s) = 5.47797 6.52864 6.02625
#
# Compressibility (1/GPa) = 0.02537684
#
# Stress axis : x y z
#
# Youngs Moduli (GPa) = 37.60139 71.04197 78.21250
#
# Poissons Ratio (x) = 0.69531 0.22198
# Poissons Ratio (y) = 0.36802 0.11062
# Poissons Ratio (z) = 0.10672 0.10048
#
# Static dielectric constant tensor:
#      x y z
#    x 1.932290 -0.033860 -0.064420 
#    y -0.033860 1.880530 0.019750 
#    z -0.064420 0.019750 1.893840 
# 
# From -- ./inp_files/67785.got.cif
#   From: 2010.05.17/outbox.cif.g08.bks.cpg/sg2_34_cif.got.tgz:67785.got - 2010.06.03 11:33:40.
