data_PCOD9007774
_publ_section_title
;
Structure prediction by ZEFSAII (Michael W. Deem and Ramdas Pophale) SiO2 
 PCOD9007774
Probable space group: P -1
;
_chemical_formula_sum "Si O2"
_cell_formula_units_Z 16
_cell_length_a 12.544380
_cell_length_b 17.690371
_cell_length_c 9.512117
_cell_angle_alpha 40.249110
_cell_angle_beta 142.638118
_cell_angle_gamma 147.139683
_cell_volume 665.112177
_symmetry_space_group_name_H-M "P -1"
_symmetry_group_IT_number 2
_symmetry_cell_setting 'triclinic'
loop_
_space_group_symop_operation_xyz
x,y,z
-x,-y,-z
loop_
_atom_site_type_symbol
_atom_site_label
_atom_site_fract_x
_atom_site_fract_y
_atom_site_fract_z
Si Si1 0.799187 0.994796 0.121719
Si Si2 0.423360 0.335630 0.058619
Si Si3 0.673232 0.314004 0.900457
Si Si4 0.263976 0.910603 0.809309
Si Si5 0.843377 0.430441 0.219844
Si Si6 0.836850 0.989087 0.702274
Si Si7 0.257496 0.872230 0.376739
Si Si8 0.682806 0.452253 0.434485
O O1 0.569367 0.833221 0.111543
O O2 0.870183 0.067466 0.247708
O O3 0.968719 0.987405 0.219136
O O4 0.773193 0.101917 0.851122
O O5 0.661511 0.440181 0.085999
O O6 0.300477 0.165927 0.143624
O O7 0.481854 0.345438 0.271683
O O8 0.292905 0.399969 0.784945
O O9 0.643407 0.401649 0.626556
O O10 0.799266 0.248313 0.065584
O O11 0.796095 0.408115 0.034550
O O12 0.290645 0.989935 0.580253
O O13 0.500000 0.000000 0.000000
O O14 0.780948 0.276869 0.424945
O O15 0.097247 0.536464 0.379931
O O16 0.891978 0.106722 0.709570
O O17 0.500000 0.000000 0.500000
#
# Coordination Sequence:
#
# PCOD9007774 Si02
#       8
#     2   2   2   2   2   2   2   2
#     4  11  23  37  66 104 133 174 213 277 351 388
#     4  11  25  47  70  99 137 174 233 287 325 398
#     4  11  23  45  65  97 141 175 225 275 330 414
#     4  10  21  39  62  96 131 174 212 269 336 396
#     4  12  24  45  72  98 135 186 224 276 342 401
#     4  12  22  42  68 102 136 164 220 283 343 399
#     4  12  21  40  67  98 134 165 214 277 344 394
#     4  11  27  47  67  97 136 188 232 270 329 405
#
# _framework density 24.056094000000002
#
# number of rings (size 3 to 8) (size 9 to 14) (size 15 to 20)
#    0.000    0.750    3.750    4.500    1.750    1.500 
#    6.750    0.000    0.000    0.000    0.000    0.000 
#    0.000    0.000    0.000    0.000    0.000    0.000 
#
# Total GULP energy -89438.553450 kJ/mol
# GULP energy per Si atom -5589.909591 kJ/mol
# Density = 2.400134 g / cm^3
# Si number density = 24.056094 Si / 1000 Ang^3
#
#
#
# Elastic Constant Matrix: (Units=GPa)
#
#
# Indices 1 2 3 4 5 6 
#
# 1 116.5347 -0.7367 33.4147 8.2846 6.8445 1.5069
# 2 -0.7367 37.9680 15.0412 -0.1211 5.7927 0.5587
# 3 33.4147 15.0412 156.6775 10.3315 -24.7398 -1.0177
# 4 8.2846 -0.1211 10.3315 22.9441 0.3863 -0.2304
# 5 6.8445 5.7927 -24.7398 0.3863 49.7959 4.7026
# 6 1.5069 0.5587 -1.0177 -0.2304 4.7026 30.8946
#
#
#
# Elastic Compliance Matrix: (Units=1/GPa)
#
#
# Indices 1 2 3 4 5 6 
#
# 1 0.009628 0.001577 -0.002481 -0.002307 -0.002704 -0.000185
# 2 0.001577 0.028853 -0.004095 0.001523 -0.005633 0.000135
# 3 -0.002481 -0.004095 0.008284 -0.002943 0.004985 -0.000313
# 4 -0.002307 0.001523 -0.002943 0.045786 -0.001733 0.000593
# 5 -0.002704 -0.005633 0.004985 -0.001733 0.023907 -0.003254
# 6 -0.000185 0.000135 -0.000313 0.000593 -0.003254 0.032864
#
#
# Mechanical properties :
#
#
# Convention : Reuss Voigt Hill
#
# Bulk Modulus (GPa) = 27.19776 45.17984 36.18880
# Shear Modulus (GPa) = 29.14190 38.29099 33.71645
#
# Velocity S-wave (km/s) = 3.48431 3.99399 3.74782
# Velocity P-wave (km/s) = 5.24574 6.33175 5.81416
#
# Compressibility (1/GPa) = 0.03676773
#
# Stress axis : x y z
#
# Youngs Moduli (GPa) = 103.86731 34.65823 120.71430
#
# Poissons Ratio (x) = -0.05467 0.29946
# Poissons Ratio (y) = -0.16385 0.49436
# Poissons Ratio (z) = 0.25767 0.14194
#
# Static dielectric constant tensor:
#      x y z
#    x 2.023650 0.039890 0.048210 
#    y 0.039890 1.932880 0.064920 
#    z 0.048210 0.064920 1.954810 
# 
# From -- ./inp_files/278890.got.cif
#   From: 2010.05.17/outbox.cif.g08.bks.cpg/sg2_140_cif.got.tgz:278890.got - 2010.06.03 11:33:40.
