data_PCOD9007657
_publ_section_title
;
Structure prediction by ZEFSAII (Michael W. Deem and Ramdas Pophale) SiO2 
 PCOD9007657
Probable space group: P -1
;
_chemical_formula_sum "Si O2"
_cell_formula_units_Z 14
_cell_length_a 8.855867
_cell_length_b 5.095066
_cell_length_c 15.953490
_cell_angle_alpha 87.658287
_cell_angle_beta 62.297606
_cell_angle_gamma 74.894435
_cell_volume 612.587034
_symmetry_space_group_name_H-M "P -1"
_symmetry_group_IT_number 2
_symmetry_cell_setting 'triclinic'
loop_
_space_group_symop_operation_xyz
x,y,z
-x,-y,-z
loop_
_atom_site_type_symbol
_atom_site_label
_atom_site_fract_x
_atom_site_fract_y
_atom_site_fract_z
Si Si1 0.357577 0.934849 0.880296
Si Si2 0.720957 0.086332 0.291981
Si Si3 0.818561 0.505913 0.001922
Si Si4 0.363944 0.397337 0.594125
Si Si5 0.114040 0.929106 0.272353
Si Si6 0.647979 0.488181 0.890410
Si Si7 0.017786 0.456787 0.396902
O O1 0.227364 0.773427 0.958142
O O2 0.550342 0.727513 0.849989
O O3 0.307892 0.972833 0.795697
O O4 0.323709 0.228591 0.927780
O O5 0.616153 0.912283 0.377219
O O6 0.927300 0.003234 0.268423
O O7 0.654130 0.408502 0.322636
O O8 0.810665 0.537019 0.902722
O O9 0.000000 0.500000 0.000000
O O10 0.500000 0.500000 0.500000
O O11 0.179795 0.477165 0.590381
O O12 0.274610 0.802594 0.169535
O O13 0.109933 0.673720 0.334111
O O14 0.115822 0.168336 0.333435
O O15 0.500000 0.500000 0.000000
O O16 0.000000 0.500000 0.500000
#
# Coordination Sequence:
#
# PCOD9007657 Si02
#       7
#     2   2   2   2   2   2   2
#     4  11  23  40  61  91 125 162 212 270 314 369
#     4  10  21  39  62  91 123 163 214 256 314 391
#     4  11  23  40  64  89 123 170 213 260 319 379
#     4  10  21  39  63  91 123 159 202 263 323 382
#     4  10  22  40  65  91 127 171 210 260 320 384
#     4  10  24  43  63  95 132 169 218 271 318 372
#     4  10  22  41  65  94 124 162 211 260 321 389
#
# _framework density 22.853894
#
# number of rings (size 3 to 8) (size 9 to 14) (size 15 to 20)
#    0.000    1.714    0.000    3.429    0.000    9.143 
#    0.000    2.857    0.000    0.000    0.000    0.000 
#    0.000    0.000    0.000    0.000    0.000    0.000 
#
# Total GULP energy -78242.557409 kJ/mol
# GULP energy per Si atom -5588.754101 kJ/mol
# Density = 2.280188 g / cm^3
# Si number density = 22.853894 Si / 1000 Ang^3
#
#
#
# Elastic Constant Matrix: (Units=GPa)
#
#
# Indices 1 2 3 4 5 6 
#
# 1 72.9435 32.8460 34.8286 2.7879 18.1683 4.6891
# 2 32.8460 115.7433 37.9632 10.4821 18.6248 12.2632
# 3 34.8286 37.9632 98.3767 14.4493 23.2784 0.1554
# 4 2.7879 10.4821 14.4493 30.3601 17.8665 -1.7551
# 5 18.1683 18.6248 23.2784 17.8665 45.7263 6.7748
# 6 4.6891 12.2632 0.1554 -1.7551 6.7748 22.6269
#
#
#
# Elastic Compliance Matrix: (Units=1/GPa)
#
#
# Indices 1 2 3 4 5 6 
#
# 1 0.018660 -0.003291 -0.004741 0.004980 -0.005609 0.000014
# 2 -0.003291 0.011331 -0.002812 -0.002576 -0.000036 -0.005629
# 3 -0.004741 -0.002812 0.014200 -0.003138 -0.003448 0.003198
# 4 0.004980 -0.002576 -0.003138 0.046586 -0.018968 0.009679
# 5 -0.005609 -0.000036 -0.003448 -0.018968 0.034865 -0.010705
# 6 0.000014 -0.005629 0.003198 0.009679 -0.010705 0.051177
#
#
# Mechanical properties :
#
#
# Convention : Reuss Voigt Hill
#
# Bulk Modulus (GPa) = 44.43466 55.37100 49.90283
# Shear Modulus (GPa) = 24.27087 31.83770 28.05428
#
# Velocity S-wave (km/s) = 3.26237 3.73647 3.50744
# Velocity P-wave (km/s) = 5.80309 6.54949 6.18756
#
# Compressibility (1/GPa) = 0.02250495
#
# Stress axis : x y z
#
# Youngs Moduli (GPa) = 53.58974 88.25006 70.42100
#
# Poissons Ratio (x) = 0.29039 0.33386
# Poissons Ratio (y) = 0.17634 0.19803
# Poissons Ratio (z) = 0.25407 0.24816
#
# Static dielectric constant tensor:
#      x y z
#    x 1.903330 0.001110 -0.028670 
#    y 0.001110 1.842440 0.024380 
#    z -0.028670 0.024380 1.959720 
# 
# From -- ./inp_files/89779.got.cif
#   From: 2010.05.17/outbox.cif.g08.bks.cpg/sg2_45_cif.got.tgz:89779.got - 2010.06.03 11:33:40.
