data_PCOD9007155
_publ_section_title
;
Structure prediction by ZEFSAII (Michael W. Deem and Ramdas Pophale) SiO2 
 PCOD9007155
Probable space group: P -1
;
_chemical_formula_sum "Si O2"
_cell_formula_units_Z 12
_cell_length_a 11.276537
_cell_length_b 9.208561
_cell_length_c 13.108898
_cell_angle_alpha 104.102755
_cell_angle_beta 146.461653
_cell_angle_gamma 99.364075
_cell_volume 532.999611
_symmetry_space_group_name_H-M "P -1"
_symmetry_group_IT_number 2
_symmetry_cell_setting 'triclinic'
loop_
_space_group_symop_operation_xyz
x,y,z
-x,-y,-z
loop_
_atom_site_type_symbol
_atom_site_label
_atom_site_fract_x
_atom_site_fract_y
_atom_site_fract_z
Si Si1 0.240147 0.756383 0.048772
Si Si2 0.256437 0.725778 0.393678
Si Si3 0.357369 0.100575 0.108016
Si Si4 0.158563 0.937297 0.213996
Si Si5 0.693706 0.428970 0.234805
Si Si6 0.308320 0.219017 0.721162
O O1 0.984902 0.514894 0.825580
O O2 0.189956 0.834527 0.126012
O O3 0.544895 0.811419 0.267309
O O4 0.232034 0.873210 0.970389
O O5 0.366930 0.788308 0.599376
O O6 0.143234 0.828414 0.285167
O O7 0.539372 0.826646 0.541993
O O8 0.455283 0.234410 0.102192
O O9 0.118668 0.088732 0.991573
O O10 0.725753 0.623189 0.306034
O O11 0.000000 0.500000 0.500000
O O12 0.561090 0.340604 0.011532
O O13 0.000000 0.000000 0.500000
#
# Coordination Sequence:
#
# PCOD9007155 Si02
#       6
#     2   2   2   2   2   2
#     4  11  22  40  65  93 125 165 212 257 313 380
#     4  10  21  39  60  87 127 165 204 255 312 370
#     4  11  24  40  63  95 127 163 209 260 315 376
#     4  10  23  40  61  92 128 165 205 256 316 375
#     4  11  25  46  68  94 131 169 213 269 323 377
#     4  11  26  45  68  96 127 170 218 265 320 382
#
# _framework density 22.514088000000001
#
# number of rings (size 3 to 8) (size 9 to 14) (size 15 to 20)
#    0.000    1.333    0.000    5.500    0.000   16.000 
#    0.000    1.667    0.000    0.000    0.000    0.000 
#    0.000    0.000    0.000    0.000    0.000    0.000 
#
# Total GULP energy -67066.253656 kJ/mol
# GULP energy per Si atom -5588.854471 kJ/mol
# Density = 2.246284 g / cm^3
# Si number density = 22.514088 Si / 1000 Ang^3
#
#
#
# Elastic Constant Matrix: (Units=GPa)
#
#
# Indices 1 2 3 4 5 6 
#
# 1 73.3157 63.2880 27.5970 2.2537 15.3597 -11.2549
# 2 63.2880 192.5423 68.5971 7.6541 17.2935 2.1729
# 3 27.5970 68.5971 103.1901 10.4205 20.8236 -8.5501
# 4 2.2537 7.6541 10.4205 53.8190 12.9450 8.3264
# 5 15.3597 17.2935 20.8236 12.9450 24.4039 -3.3520
# 6 -11.2549 2.1729 -8.5501 8.3264 -3.3520 39.5125
#
#
#
# Elastic Compliance Matrix: (Units=1/GPa)
#
#
# Indices 1 2 3 4 5 6 
#
# 1 0.022072 -0.006836 0.000958 0.001322 -0.009775 0.005762
# 2 -0.006836 0.009042 -0.004764 0.000097 0.001445 -0.003373
# 3 0.000958 -0.004764 0.014747 -0.000495 -0.009128 0.003056
# 4 0.001322 0.000097 -0.000495 0.022675 -0.013281 -0.005641
# 5 -0.009775 0.001445 -0.009128 -0.013281 0.061374 0.003166
# 6 0.005762 -0.003373 0.003056 -0.005641 0.003166 0.029254
#
#
# Mechanical properties :
#
#
# Convention : Reuss Voigt Hill
#
# Bulk Modulus (GPa) = 40.68773 76.44580 58.56676
# Shear Modulus (GPa) = 26.50574 37.51815 32.01195
#
# Velocity S-wave (km/s) = 3.43490 4.08662 3.77485
# Velocity P-wave (km/s) = 5.81745 7.50304 6.71336
#
# Compressibility (1/GPa) = 0.02457744
#
# Stress axis : x y z
#
# Youngs Moduli (GPa) = 45.30679 110.59341 67.81252
#
# Poissons Ratio (x) = 0.75600 -0.06496
# Poissons Ratio (y) = 0.30971 0.32303
# Poissons Ratio (z) = -0.04340 0.52682
#
# Static dielectric constant tensor:
#      x y z
#    x 1.874170 0.043490 -0.034900 
#    y 0.043490 1.830720 -0.000680 
#    z -0.034900 -0.000680 1.862410 
# 
# From -- ./inp_files/300786.got.cif
#   From: 2010.05.17/outbox.cif.g08.bks.cpg/sg2_151_cif.got.tgz:300786.got - 2010.06.03 11:33:40.
