data_PCOD9007163
_publ_section_title
;
Structure prediction by ZEFSAII (Michael W. Deem and Ramdas Pophale) SiO2 
 PCOD9007163
Probable space group: P -1
;
_chemical_formula_sum "Si O2"
_cell_formula_units_Z 14
_cell_length_a 7.547905
_cell_length_b 14.395477
_cell_length_c 7.099813
_cell_angle_alpha 53.119298
_cell_angle_beta 69.452829
_cell_angle_gamma 55.964568
_cell_volume 511.220913
_symmetry_space_group_name_H-M "P -1"
_symmetry_group_IT_number 2
_symmetry_cell_setting 'triclinic'
loop_
_space_group_symop_operation_xyz
x,y,z
-x,-y,-z
loop_
_atom_site_type_symbol
_atom_site_label
_atom_site_fract_x
_atom_site_fract_y
_atom_site_fract_z
Si Si1 0.668599 0.651598 0.573704
Si Si2 0.634599 0.730561 0.051571
Si Si3 0.774538 0.009798 0.007579
Si Si4 0.703242 0.095569 0.490827
Si Si5 0.558940 0.440497 0.760932
Si Si6 0.997656 0.279099 0.627281
Si Si7 0.039129 0.184368 0.328793
O O1 0.646267 0.686461 0.317384
O O2 0.528297 0.783614 0.582424
O O3 0.577873 0.548340 0.752750
O O4 0.913124 0.616472 0.561477
O O5 0.593751 0.625803 0.072566
O O6 0.425720 0.874377 0.952468
O O7 0.844112 0.742443 0.902348
O O8 0.815800 0.861259 0.201521
O O9 0.735034 0.047318 0.756204
O O10 0.000000 0.000000 0.000000
O O11 0.867693 0.154137 0.322144
O O12 0.774599 0.962386 0.513019
O O13 0.500000 0.500000 0.500000
O O14 0.802113 0.327947 0.781647
O O15 0.928742 0.255724 0.475583
#
# Coordination Sequence:
#
# PCOD9007163 Si02
#       7
#     2   2   2   2   2   2   2
#     4  10  22  41  63  85 114 161 206 237 278 356
#     4  10  21  39  60  88 119 157 194 239 300 344
#     4  11  19  37  61  87 117 154 199 240 281 352
#     4  10  22  41  58  87 125 157 189 238 304 349
#     4  10  21  41  64  82 116 160 204 241 281 349
#     4  12  22  38  63  92 117 152 201 244 293 347
#     4  11  22  37  58  91 124 153 186 245 309 346
#
# _framework density 27.385422999999999
#
# number of rings (size 3 to 8) (size 9 to 14) (size 15 to 20)
#    0.000    1.429    2.857    3.857    0.000    4.571 
#    0.000    7.143    0.000    0.000    0.000    0.000 
#    0.000    0.000    0.000    0.000    0.000    0.000 
#
# Total GULP energy -78498.140200 kJ/mol
# GULP energy per Si atom -5607.010014 kJ/mol
# Density = 2.732309 g / cm^3
# Si number density = 27.385423 Si / 1000 Ang^3
#
#
#
# Elastic Constant Matrix: (Units=GPa)
#
#
# Indices 1 2 3 4 5 6 
#
# 1 77.9064 6.1369 32.1448 -16.5981 -35.7033 14.7260
# 2 6.1369 92.7483 -4.6851 -13.9204 -11.3505 9.6853
# 3 32.1448 -4.6851 132.0451 -12.9517 -26.4001 -4.2445
# 4 -16.5981 -13.9204 -12.9517 23.7142 10.6100 -11.7201
# 5 -35.7033 -11.3505 -26.4001 10.6100 63.6843 -4.3740
# 6 14.7260 9.6853 -4.2445 -11.7201 -4.3740 35.3548
#
#
#
# Elastic Compliance Matrix: (Units=1/GPa)
#
#
# Indices 1 2 3 4 5 6 
#
# 1 0.020552 0.001236 -0.002671 0.006663 0.009121 -0.005882
# 2 0.001236 0.012217 0.001230 0.007249 0.002100 -0.001051
# 3 -0.002671 0.001230 0.009267 0.004868 0.002010 0.003751
# 4 0.006663 0.007249 0.004868 0.062873 -0.002304 0.016381
# 5 0.009121 0.002100 0.002010 -0.002304 0.022260 -0.002143
# 6 -0.005882 -0.001051 0.003751 0.016381 -0.002143 0.036638
#
#
# Mechanical properties :
#
#
# Convention : Reuss Voigt Hill
#
# Bulk Modulus (GPa) = 24.02420 41.09920 32.56170
# Shear Modulus (GPa) = 28.07508 42.49086 35.28297
#
# Velocity S-wave (km/s) = 3.20532 3.94329 3.59330
# Velocity P-wave (km/s) = 4.74241 5.98105 5.39738
#
# Compressibility (1/GPa) = 0.04162469
#
# Stress axis : x y z
#
# Youngs Moduli (GPa) = 48.65634 81.85340 107.91043
#
# Poissons Ratio (x) = -0.10115 0.28826
# Poissons Ratio (y) = -0.06013 -0.13270
# Poissons Ratio (z) = 0.12997 -0.10066
#
# Static dielectric constant tensor:
#      x y z
#    x 2.146380 0.000510 0.028450 
#    y 0.000510 2.145210 -0.024810 
#    z 0.028450 -0.024810 2.153060 
# 
# From -- ./inp_files/199319.got.cif
#   From: 2010.05.17/outbox.cif.g08.bks.cpg/sg2_100_cif.got.tgz:199319.got - 2010.06.03 11:33:40.
