data_PCOD9007507
_publ_section_title
;
Structure prediction by ZEFSAII (Michael W. Deem and Ramdas Pophale) SiO2 
 PCOD9007507
Probable space group: P -1
;
_chemical_formula_sum "Si O2"
_cell_formula_units_Z 16
_cell_length_a 23.946089
_cell_length_b 17.380101
_cell_length_c 5.747259
_cell_angle_alpha 111.904637
_cell_angle_beta 103.532171
_cell_angle_gamma 18.592573
_cell_volume 647.165262
_symmetry_space_group_name_H-M "P -1"
_symmetry_group_IT_number 2
_symmetry_cell_setting 'triclinic'
loop_
_space_group_symop_operation_xyz
x,y,z
-x,-y,-z
loop_
_atom_site_type_symbol
_atom_site_label
_atom_site_fract_x
_atom_site_fract_y
_atom_site_fract_z
Si Si1 0.705606 0.383886 0.941936
Si Si2 0.150531 0.645418 0.837519
Si Si3 0.550030 0.325852 0.600794
Si Si4 0.071547 0.430181 0.243990
Si Si5 0.525465 0.194235 0.183959
Si Si6 0.811789 0.555816 0.661616
Si Si7 0.416624 0.186666 0.902575
Si Si8 0.811001 0.106299 0.407335
O O1 0.609313 0.569851 0.854654
O O2 0.847990 0.123856 0.663611
O O3 0.804230 0.319524 0.123961
O O4 0.540697 0.554951 0.095027
O O5 0.106491 0.640691 0.586658
O O6 0.345264 0.337581 0.787951
O O7 0.987033 0.862378 0.122783
O O8 0.580151 0.186739 0.418335
O O9 0.730554 0.132909 0.480296
O O10 0.370999 0.608491 0.596019
O O11 0.049113 0.559816 0.373430
O O12 0.000000 0.500000 0.500000
O O13 0.000000 0.500000 0.000000
O O14 0.286764 0.098785 0.085021
O O15 0.430661 0.235266 0.184601
O O16 0.757214 0.629092 0.964319
O O17 0.609248 0.869188 0.708730
#
# Coordination Sequence:
#
# PCOD9007507 Si02
#       8
#     2   2   2   2   2   2   2   2
#     4  10  21  40  64  90 122 177 216 276 337 404
#     4  11  22  37  65  94 125 163 223 282 330 395
#     4  10  21  39  62  82 129 174 222 263 340 403
#     4  11  27  44  65  99 140 175 221 278 335 398
#     4   9  21  40  62  91 123 170 221 268 330 404
#     4  10  22  40  64  89 127 171 217 269 335 403
#     4   9  20  40  60  91 123 165 217 275 333 397
#     4  10  23  38  56  93 128 166 221 280 333 403
#
# _framework density 24.723203999999999
#
# number of rings (size 3 to 8) (size 9 to 14) (size 15 to 20)
#    0.000    2.000    0.000    1.875    5.250    1.500 
#    4.500    0.000    0.000    0.000    0.000    0.000 
#    0.000    0.000    0.000    0.000    0.000    0.000 
#
# Total GULP energy -89249.390650 kJ/mol
# GULP energy per Si atom -5578.086916 kJ/mol
# Density = 2.466693 g / cm^3
# Si number density = 24.723204 Si / 1000 Ang^3
#
#
#
# Elastic Constant Matrix: (Units=GPa)
#
#
# Indices 1 2 3 4 5 6 
#
# 1 127.6439 22.0949 57.3680 9.5692 3.1749 -7.7278
# 2 22.0949 64.8201 1.5437 7.1929 13.2074 9.5079
# 3 57.3680 1.5437 123.0115 15.4032 10.1409 -13.6133
# 4 9.5692 7.1929 15.4032 25.2301 -0.5345 5.7479
# 5 3.1749 13.2074 10.1409 -0.5345 45.8026 7.3454
# 6 -7.7278 9.5079 -13.6133 5.7479 7.3454 32.5236
#
#
#
# Elastic Compliance Matrix: (Units=1/GPa)
#
#
# Indices 1 2 3 4 5 6 
#
# 1 0.010806 -0.004005 -0.004898 -0.000271 0.001254 0.001453
# 2 -0.004005 0.018804 0.002221 -0.004493 -0.005117 -0.003569
# 3 -0.004898 0.002221 0.012290 -0.007636 -0.004007 0.005586
# 4 -0.000271 -0.004493 -0.007636 0.048473 0.005454 -0.011746
# 5 0.001254 -0.005117 -0.004007 0.005454 0.025222 -0.006544
# 6 0.001453 -0.003569 0.005586 -0.011746 -0.006544 0.038027
#
#
# Mechanical properties :
#
#
# Convention : Reuss Voigt Hill
#
# Bulk Modulus (GPa) = 35.04235 53.05431 44.04833
# Shear Modulus (GPa) = 28.32888 36.34251 32.33569
#
# Velocity S-wave (km/s) = 3.38870 3.83819 3.62043
# Velocity P-wave (km/s) = 5.43283 6.41468 5.94407
#
# Compressibility (1/GPa) = 0.02853690
#
# Stress axis : x y z
#
# Youngs Moduli (GPa) = 92.54100 53.17901 81.36446
#
# Poissons Ratio (x) = 0.21300 0.39852
# Poissons Ratio (y) = 0.37066 -0.18074
# Poissons Ratio (z) = 0.45326 -0.11813
#
# Static dielectric constant tensor:
#      x y z
#    x 2.077090 -0.154460 0.026220 
#    y -0.154460 2.092820 -0.063570 
#    z 0.026220 -0.063570 1.999430 
# 
# From -- ./inp_files/109948.got.cif
#   From: 2010.05.17/outbox.cif.g08.bks.cpg/sg2_55_cif.got.tgz:109948.got - 2010.06.03 11:33:40.
