data_PCOD9007563
_publ_section_title
;
Structure prediction by ZEFSAII (Michael W. Deem and Ramdas Pophale) SiO2 
 PCOD9007563
Probable space group: P -1
;
_chemical_formula_sum "Si O2"
_cell_formula_units_Z 12
_cell_length_a 7.097523
_cell_length_b 18.432233
_cell_length_c 20.152126
_cell_angle_alpha 20.268923
_cell_angle_beta 43.443213
_cell_angle_gamma 36.452588
_cell_volume 537.427295
_symmetry_space_group_name_H-M "P -1"
_symmetry_group_IT_number 2
_symmetry_cell_setting 'triclinic'
loop_
_space_group_symop_operation_xyz
x,y,z
-x,-y,-z
loop_
_atom_site_type_symbol
_atom_site_label
_atom_site_fract_x
_atom_site_fract_y
_atom_site_fract_z
Si Si1 0.195703 0.469130 0.910428
Si Si2 0.601096 0.646062 0.227028
Si Si3 0.725282 0.484642 0.696565
Si Si4 0.868013 0.807869 0.580674
Si Si5 0.474954 0.168612 0.780801
Si Si6 0.608335 0.076443 0.677161
O O1 0.485805 0.521569 0.786213
O O2 0.948950 0.647491 0.764450
O O3 0.000000 0.500000 0.000000
O O4 0.360507 0.181332 0.100553
O O5 0.396274 0.615738 0.247437
O O6 0.435682 0.711047 0.285608
O O7 0.949426 0.399831 0.344341
O O8 0.629803 0.880686 0.001470
O O9 0.654684 0.742433 0.463751
O O10 0.092300 0.297475 0.775727
O O11 0.063790 0.948746 0.411162
O O12 0.500000 0.000000 0.500000
O O13 0.541855 0.197925 0.662691
#
# Coordination Sequence:
#
# PCOD9007563 Si02
#       6
#     2   2   2   2   2   2
#     4  10  22  41  59  89 122 165 213 251 301 371
#     4   9  21  37  61  91 123 158 203 252 297 370
#     4  10  22  38  63  91 127 157 201 258 304 367
#     4  10  23  42  60  87 126 161 209 261 298 364
#     4  11  19  39  64  91 126 160 198 251 317 366
#     4  10  21  39  62  88 121 162 204 253 309 368
#
# _framework density 22.328600999999999
#
# number of rings (size 3 to 8) (size 9 to 14) (size 15 to 20)
#    0.000    2.333    3.333    1.000    0.000    8.667 
#    6.000    0.000    0.000    0.000    0.000    0.000 
#    0.000    0.000    0.000    0.000    0.000    0.000 
#
# Total GULP energy -66990.851626 kJ/mol
# GULP energy per Si atom -5582.570969 kJ/mol
# Density = 2.227778 g / cm^3
# Si number density = 22.328601 Si / 1000 Ang^3
#
#
#
# Elastic Constant Matrix: (Units=GPa)
#
#
# Indices 1 2 3 4 5 6 
#
# 1 29.7411 18.1942 9.8331 -6.4353 5.0852 -10.0426
# 2 18.1942 102.6731 34.9608 11.0317 20.2423 -3.1217
# 3 9.8331 34.9608 143.2930 3.2943 18.4539 -15.4644
# 4 -6.4353 11.0317 3.2943 49.0319 3.6641 19.8978
# 5 5.0852 20.2423 18.4539 3.6641 16.6563 -4.8126
# 6 -10.0426 -3.1217 -15.4644 19.8978 -4.8126 34.2910
#
#
#
# Elastic Compliance Matrix: (Units=1/GPa)
#
#
# Indices 1 2 3 4 5 6 
#
# 1 0.042313 -0.007149 0.000081 0.003519 -0.002376 0.009402
# 2 -0.007149 0.014393 -0.001410 -0.002197 -0.013868 -0.002091
# 3 0.000081 -0.001410 0.008566 -0.001197 -0.006515 0.003538
# 4 0.003519 -0.002197 -0.001197 0.029383 -0.008739 -0.017986
# 5 -0.002376 -0.013868 -0.006515 -0.008739 0.090477 0.012872
# 6 0.009402 -0.002091 0.003538 -0.017986 0.012872 0.045564
#
#
# Mechanical properties :
#
#
# Convention : Reuss Voigt Hill
#
# Bulk Modulus (GPa) = 20.69795 44.63149 32.66472
# Shear Modulus (GPa) = 18.95676 34.17711 26.56693
#
# Velocity S-wave (km/s) = 2.91690 3.91659 3.45311
# Velocity P-wave (km/s) = 4.54250 6.36276 5.52807
#
# Compressibility (1/GPa) = 0.04831396
#
# Stress axis : x y z
#
# Youngs Moduli (GPa) = 23.63351 69.47668 116.74521
#
# Poissons Ratio (x) = 0.49670 -0.00940
# Poissons Ratio (y) = 0.16896 0.16464
# Poissons Ratio (z) = -0.00190 0.09798
#
# Static dielectric constant tensor:
#      x y z
#    x 1.866810 0.060140 -0.003770 
#    y 0.060140 1.846240 0.011940 
#    z -0.003770 0.011940 1.836150 
# 
# From -- ./inp_files/349337.got.cif
#   From: 2010.05.17/outbox.cif.g08.bks.cpg/sg2_175_cif.got.tgz:349337.got - 2010.06.03 11:33:40.
