data_PCOD9007917
_publ_section_title
;
Structure prediction by ZEFSAII (Michael W. Deem and Ramdas Pophale) SiO2 
 PCOD9007917
Probable space group: P -1
;
_chemical_formula_sum "Si O2"
_cell_formula_units_Z 16
_cell_length_a 6.225071
_cell_length_b 11.558627
_cell_length_c 22.661014
_cell_angle_alpha 29.682516
_cell_angle_beta 79.774720
_cell_angle_gamma 66.879159
_cell_volume 692.991493
_symmetry_space_group_name_H-M "P -1"
_symmetry_group_IT_number 2
_symmetry_cell_setting 'triclinic'
loop_
_space_group_symop_operation_xyz
x,y,z
-x,-y,-z
loop_
_atom_site_type_symbol
_atom_site_label
_atom_site_fract_x
_atom_site_fract_y
_atom_site_fract_z
Si Si1 0.275930 0.152130 0.795063
Si Si2 0.296379 0.007417 0.568907
Si Si3 0.797004 0.673734 0.768044
Si Si4 0.421647 0.656196 0.373607
Si Si5 0.005371 0.959134 0.706412
Si Si6 0.506755 0.453300 0.950179
Si Si7 0.717311 0.458478 0.690217
Si Si8 0.274811 0.517265 0.739954
O O1 0.400196 0.218318 0.704512
O O2 0.250600 0.359416 0.755543
O O3 0.992697 0.219201 0.772276
O O4 0.448099 0.839834 0.937764
O O5 0.569415 0.827975 0.664672
O O6 0.101827 0.100334 0.592266
O O7 0.220652 0.825970 0.611849
O O8 0.278627 0.264581 0.424186
O O9 0.723669 0.492120 0.891846
O O10 0.811713 0.892934 0.711639
O O11 0.073818 0.516974 0.795316
O O12 0.500000 0.500000 0.500000
O O13 0.428110 0.498273 0.384099
O O14 0.135333 0.875824 0.302823
O O15 0.248041 0.683583 0.834058
O O16 0.500000 0.500000 0.000000
O O17 0.578414 0.390398 0.779586
#
# Coordination Sequence:
#
# PCOD9007917 Si02
#       8
#     2   2   2   2   2   2   2   2
#     4  11  25  41  61  92 124 160 205 253 302 355
#     4  10  21  39  63  91 122 160 201 247 307 367
#     4  10  22  41  64  89 119 161 205 249 303 361
#     4  11  23  39  62  94 128 159 198 250 306 364
#     4  10  22  40  63  91 123 161 202 248 305 362
#     4  11  24  42  65  90 121 161 205 251 300 361
#     4  11  23  38  61  91 125 162 201 250 304 362
#     4  10  23  41  62  90 124 160 204 252 303 361
#
# _framework density 23.088305999999999
#
# number of rings (size 3 to 8) (size 9 to 14) (size 15 to 20)
#    0.000    1.500    0.000    4.125    0.000   12.500 
#    0.000    6.250    0.000    0.000    0.000    0.000 
#    0.000    0.000    0.000    0.000    0.000    0.000 
#
# Total GULP energy -89289.992985 kJ/mol
# GULP energy per Si atom -5580.624562 kJ/mol
# Density = 2.303576 g / cm^3
# Si number density = 23.088306 Si / 1000 Ang^3
#
#
#
# Elastic Constant Matrix: (Units=GPa)
#
#
# Indices 1 2 3 4 5 6 
#
# 1 91.7872 39.9139 40.7629 -2.0522 -16.3331 -18.0860
# 2 39.9139 138.6427 35.4403 -5.5986 -19.1065 -21.1708
# 3 40.7629 35.4403 82.6132 5.9993 -12.2191 -23.1985
# 4 -2.0522 -5.5986 5.9993 15.4955 -8.4102 -8.0356
# 5 -16.3331 -19.1065 -12.2191 -8.4102 24.1783 8.7108
# 6 -18.0860 -21.1708 -23.1985 -8.0356 8.7108 55.3692
#
#
#
# Elastic Compliance Matrix: (Units=1/GPa)
#
#
# Indices 1 2 3 4 5 6 
#
# 1 0.016739 -0.000912 -0.006477 0.011272 0.010367 0.002411
# 2 -0.000912 0.010230 -0.002655 0.010837 0.008935 0.002669
# 3 -0.006477 -0.002655 0.017747 -0.007682 -0.001405 0.003411
# 4 0.011272 0.010837 -0.007682 0.103180 0.043603 0.012721
# 5 0.010367 0.008935 -0.001405 0.043603 0.069288 0.001641
# 6 0.002411 0.002669 0.003411 0.012721 0.001641 0.022886
#
#
# Mechanical properties :
#
#
# Convention : Reuss Voigt Hill
#
# Bulk Modulus (GPa) = 40.60072 60.58636 50.59354
# Shear Modulus (GPa) = 18.63122 32.13699 25.38410
#
# Velocity S-wave (km/s) = 2.84378 3.73489 3.31937
# Velocity P-wave (km/s) = 5.32972 6.70054 6.05406
#
# Compressibility (1/GPa) = 0.02463010
#
# Stress axis : x y z
#
# Youngs Moduli (GPa) = 59.74015 97.74894 56.34698
#
# Poissons Ratio (x) = 0.08911 0.36494
# Poissons Ratio (y) = 0.05446 0.14960
# Poissons Ratio (z) = 0.38692 0.25952
#
# Static dielectric constant tensor:
#      x y z
#    x 1.912290 -0.025070 0.016600 
#    y -0.025070 1.911110 -0.012820 
#    z 0.016600 -0.012820 1.837910 
# 
# From -- ./inp_files/69608.got.cif
#   From: 2010.05.17/outbox.cif.g08.bks.cpg/sg2_35_cif.got.tgz:69608.got - 2010.06.03 11:33:40.
