data_PCOD9007493
_publ_section_title
;
Structure prediction by ZEFSAII (Michael W. Deem and Ramdas Pophale) SiO2 
 PCOD9007493
Probable space group: P -1
;
_chemical_formula_sum "Si O2"
_cell_formula_units_Z 14
_cell_length_a 5.522133
_cell_length_b 21.020023
_cell_length_c 15.338611
_cell_angle_alpha 21.205433
_cell_angle_beta 77.903864
_cell_angle_gamma 80.415884
_cell_volume 627.606624
_symmetry_space_group_name_H-M "P -1"
_symmetry_group_IT_number 2
_symmetry_cell_setting 'triclinic'
loop_
_space_group_symop_operation_xyz
x,y,z
-x,-y,-z
loop_
_atom_site_type_symbol
_atom_site_label
_atom_site_fract_x
_atom_site_fract_y
_atom_site_fract_z
Si Si1 0.103611 0.536955 0.064980
Si Si2 0.264445 0.158481 0.285093
Si Si3 0.268353 0.437820 0.534764
Si Si4 0.593798 0.470819 0.786963
Si Si5 0.220292 0.027157 0.021665
Si Si6 0.412466 0.846419 0.574900
Si Si7 0.251728 0.763029 0.512187
O O1 0.174041 0.487598 0.220507
O O2 0.974450 0.354272 0.272581
O O3 0.335723 0.640397 0.867485
O O4 0.922124 0.691301 0.887186
O O5 0.349463 0.108244 0.439793
O O6 0.223840 0.984438 0.451087
O O7 0.492413 0.273616 0.072760
O O8 0.500000 0.500000 0.500000
O O9 0.339737 0.512879 0.338485
O O10 0.000000 0.500000 0.500000
O O11 0.234794 0.226810 0.799228
O O12 0.405337 0.616207 0.641491
O O13 0.171949 0.895287 0.275651
O O14 0.500000 0.000000 0.000000
O O15 0.000000 0.000000 0.000000
O O16 0.414712 0.857210 0.457118
#
# Coordination Sequence:
#
# PCOD9007493 Si02
#       7
#     2   2   2   2   2   2   2
#     4  10  21  39  64  93 131 177 219 288 344 421
#     4   9  21  39  63  90 140 168 222 283 346 423
#     4  12  28  47  75 107 144 188 246 304 364 433
#     4  10  23  42  64  92 134 180 224 290 356 416
#     4  12  26  50  75 106 148 190 241 303 365 427
#     4  10  21  39  61  99 128 177 223 280 348 417
#     4  11  24  39  68  94 135 176 235 280 353 424
#
# _framework density 22.306965000000002
#
# number of rings (size 3 to 8) (size 9 to 14) (size 15 to 20)
#    0.000    1.429    1.429    2.571    6.000    6.286 
#    0.000    0.000    0.000    0.000    0.000    0.000 
#    0.000    0.000    0.000    0.000    0.000    0.000 
#
# Total GULP energy -78171.308640 kJ/mol
# GULP energy per Si atom -5583.664903 kJ/mol
# Density = 2.225619 g / cm^3
# Si number density = 22.306965 Si / 1000 Ang^3
#
#
#
# Elastic Constant Matrix: (Units=GPa)
#
#
# Indices 1 2 3 4 5 6 
#
# 1 101.7715 54.1753 44.9776 -12.4678 19.6418 16.1928
# 2 54.1753 139.5312 59.5540 5.3423 12.3530 21.8054
# 3 44.9776 59.5540 144.9185 -12.3371 12.9067 19.0688
# 4 -12.4678 5.3423 -12.3371 43.8034 6.6303 13.8896
# 5 19.6418 12.3530 12.9067 6.6303 37.1387 -3.8521
# 6 16.1928 21.8054 19.0688 13.8896 -3.8521 45.5847
#
#
#
# Elastic Compliance Matrix: (Units=1/GPa)
#
#
# Indices 1 2 3 4 5 6 
#
# 1 0.016468 -0.004504 -0.000839 0.008510 -0.009135 -0.006709
# 2 -0.004504 0.010486 -0.003060 -0.003117 0.000395 -0.001153
# 3 -0.000839 -0.003060 0.009592 0.004538 -0.003086 -0.003894
# 4 0.008510 -0.003117 0.004538 0.033465 -0.012539 -0.014686
# 5 -0.009135 0.000395 -0.003086 -0.012539 0.036100 0.011218
# 6 -0.006709 -0.001153 -0.003894 -0.014686 0.011218 0.031924
#
#
# Mechanical properties :
#
#
# Convention : Reuss Voigt Hill
#
# Bulk Modulus (GPa) = 50.66191 78.18166 64.42178
# Shear Modulus (GPa) = 30.97485 40.47298 35.72391
#
# Velocity S-wave (km/s) = 3.73040 4.26416 4.00618
# Velocity P-wave (km/s) = 6.42768 7.70508 7.09518
#
# Compressibility (1/GPa) = 0.01973870
#
# Stress axis : x y z
#
# Youngs Moduli (GPa) = 60.72566 95.36115 104.25405
#
# Poissons Ratio (x) = 0.42954 0.08748
# Poissons Ratio (y) = 0.27353 0.31904
# Poissons Ratio (z) = 0.05095 0.29183
#
# Static dielectric constant tensor:
#      x y z
#    x 1.988030 0.016330 -0.082880 
#    y 0.016330 1.846520 -0.029020 
#    z -0.082880 -0.029020 1.810410 
# 
# From -- ./inp_files/89010.got.cif
#   From: 2010.05.17/outbox.cif.g08.bks.cpg/sg2_45_cif.got.tgz:89010.got - 2010.06.03 11:33:40.
