data_PCOD9007131
_publ_section_title
;
Structure prediction by ZEFSAII (Michael W. Deem and Ramdas Pophale) SiO2 
 PCOD9007131
Probable space group: P -1
;
_chemical_formula_sum "Si O2"
_cell_formula_units_Z 14
_cell_length_a 14.432928
_cell_length_b 8.240632
_cell_length_c 9.934650
_cell_angle_alpha 74.365626
_cell_angle_beta 64.754135
_cell_angle_gamma 124.985939
_cell_volume 630.683563
_symmetry_space_group_name_H-M "P -1"
_symmetry_group_IT_number 2
_symmetry_cell_setting 'triclinic'
loop_
_space_group_symop_operation_xyz
x,y,z
-x,-y,-z
loop_
_atom_site_type_symbol
_atom_site_label
_atom_site_fract_x
_atom_site_fract_y
_atom_site_fract_z
Si Si1 0.713071 0.041722 0.048739
Si Si2 0.796658 0.498441 0.023160
Si Si3 0.147649 0.819954 0.363440
Si Si4 0.406050 0.542800 0.224524
Si Si5 0.479357 0.249952 0.191082
Si Si6 0.027860 0.104834 0.636304
Si Si7 0.998532 0.194463 0.921192
O O1 0.784395 0.316026 0.981311
O O2 0.752790 0.048280 0.868091
O O3 0.814837 0.039197 0.074877
O O4 0.513315 0.771666 0.225172
O O5 0.607575 0.322039 0.192156
O O6 0.878789 0.562055 0.101884
O O7 0.911932 0.796085 0.820121
O O8 0.000000 0.500000 0.500000
O O9 0.068444 0.902324 0.409501
O O10 0.284933 0.947652 0.360683
O O11 0.469567 0.433028 0.196735
O O12 0.213049 0.300049 0.435154
O O13 0.435764 0.657559 0.030871
O O14 0.047749 0.253190 0.721469
O O15 0.000000 0.000000 0.000000
#
# Coordination Sequence:
#
# PCOD9007131 Si02
#       7
#     2   2   2   2   2   2   2
#     4  10  22  38  61  89 118 154 196 241 295 342
#     4  11  22  38  63  88 119 157 194 242 294 347
#     4  10  23  38  59  87 123 153 196 245 288 351
#     4  10  21  39  60  86 121 155 197 239 289 352
#     4  10  22  37  58  86 121 158 190 239 299 346
#     4  10  22  38  64  86 117 159 200 238 290 348
#     4   9  19  42  63  83 116 159 197 239 290 347
#
# _framework density 22.198136000000002
#
# number of rings (size 3 to 8) (size 9 to 14) (size 15 to 20)
#    0.000    2.000    0.000    4.714    6.000    2.286 
#    0.000    7.143    0.000    0.000    0.000    0.000 
#    0.000    0.000    0.000    0.000    0.000    0.000 
#
# Total GULP energy -78149.589794 kJ/mol
# GULP energy per Si atom -5582.113557 kJ/mol
# Density = 2.214761 g / cm^3
# Si number density = 22.198136 Si / 1000 Ang^3
#
#
#
# Elastic Constant Matrix: (Units=GPa)
#
#
# Indices 1 2 3 4 5 6 
#
# 1 70.0529 35.4209 36.6109 -12.4226 -25.3332 6.5001
# 2 35.4209 130.6463 41.3038 -36.4473 -19.0002 16.1561
# 3 36.6109 41.3038 79.3084 -30.2401 -29.0963 6.7505
# 4 -12.4226 -36.4473 -30.2401 36.3728 2.3806 -3.5726
# 5 -25.3332 -19.0002 -29.0963 2.3806 27.4740 -9.8626
# 6 6.5001 16.1561 6.7505 -3.5726 -9.8626 40.7133
#
#
#
# Elastic Compliance Matrix: (Units=1/GPa)
#
#
# Indices 1 2 3 4 5 6 
#
# 1 0.023556 -0.002558 -0.001699 0.003074 0.018727 0.002342
# 2 -0.002558 0.012466 0.002239 0.012826 0.006750 -0.002149
# 3 -0.001699 0.002239 0.038424 0.031532 0.039897 0.005444
# 4 0.003074 0.012826 0.031532 0.065396 0.041194 0.004909
# 5 0.018727 0.006750 0.039897 0.041194 0.102849 0.016246
# 6 0.002342 -0.002149 0.005444 0.004909 0.016246 0.028504
#
#
# Mechanical properties :
#
#
# Convention : Reuss Voigt Hill
#
# Bulk Modulus (GPa) = 14.20264 56.29766 35.25015
# Shear Modulus (GPa) = 16.73910 32.02350 24.38130
#
# Velocity S-wave (km/s) = 2.74902 3.80231 3.31773
# Velocity P-wave (km/s) = 4.06057 6.68530 5.53089
#
# Compressibility (1/GPa) = 0.07040944
#
# Stress axis : x y z
#
# Youngs Moduli (GPa) = 42.45182 80.22103 26.02524
#
# Poissons Ratio (x) = 0.20521 0.04421
# Poissons Ratio (y) = 0.10859 -0.05826
# Poissons Ratio (z) = 0.07211 -0.17958
#
# Static dielectric constant tensor:
#      x y z
#    x 1.854550 0.042340 -0.024520 
#    y 0.042340 1.863280 -0.015140 
#    z -0.024520 -0.015140 1.864580 
# 
# From -- ./inp_files/179592.got.cif
#   From: 2010.05.17/outbox.cif.g08.bks.cpg/sg2_90_cif.got.tgz:179592.got - 2010.06.03 11:33:40.
