data_PCOD9007924
_publ_section_title
;
Structure prediction by ZEFSAII (Michael W. Deem and Ramdas Pophale) SiO2 
 PCOD9007924
Probable space group: P -1
;
_chemical_formula_sum "Si O2"
_cell_formula_units_Z 14
_cell_length_a 11.569926
_cell_length_b 10.091302
_cell_length_c 16.941682
_cell_angle_alpha 52.431914
_cell_angle_beta 147.039624
_cell_angle_gamma 142.259782
_cell_volume 650.047307
_symmetry_space_group_name_H-M "P -1"
_symmetry_group_IT_number 2
_symmetry_cell_setting 'triclinic'
loop_
_space_group_symop_operation_xyz
x,y,z
-x,-y,-z
loop_
_atom_site_type_symbol
_atom_site_label
_atom_site_fract_x
_atom_site_fract_y
_atom_site_fract_z
Si Si1 0.491281 0.586142 0.701741
Si Si2 0.783351 0.243521 0.555716
Si Si3 0.189585 0.541594 0.804418
Si Si4 0.729460 0.746336 0.945941
Si Si5 0.492373 0.942224 0.925952
Si Si6 0.207590 0.104628 0.655552
Si Si7 0.998809 0.996430 0.748321
O O1 0.295379 0.646435 0.587451
O O2 0.645673 0.624050 0.858202
O O3 0.339515 0.352225 0.660403
O O4 0.718469 0.774195 0.702589
O O5 0.909542 0.404803 0.644039
O O6 0.500000 0.000000 0.500000
O O7 0.989757 0.194718 0.673150
O O8 0.456766 0.698799 0.842683
O O9 0.229985 0.697647 0.838673
O O10 0.201515 0.366055 0.913589
O O11 0.000000 0.000000 0.000000
O O12 0.454449 0.090530 0.798235
O O13 0.500000 0.000000 0.000000
O O14 0.759636 0.955162 0.074092
O O15 0.000000 0.000000 0.500000
O O16 0.045774 0.976695 0.690737
#
# Coordination Sequence:
#
# PCOD9007924 Si02
#       7
#     2   2   2   2   2   2   2
#     4  11  23  40  63  89 122 160 199 252 310 359
#     4  10  21  39  63  91 124 160 199 252 316 369
#     4  11  21  38  61  87 125 160 195 257 309 350
#     4  11  22  37  63  94 119 154 204 253 313 373
#     4  10  21  40  63  86 121 165 205 245 296 362
#     4  11  24  41  62  89 120 162 210 245 292 364
#     4  10  22  42  61  87 125 156 198 256 305 360
#
# _framework density 21.536892999999999
#
# number of rings (size 3 to 8) (size 9 to 14) (size 15 to 20)
#    0.000    1.429    0.000    7.714    0.000    4.571 
#    0.000    7.143    0.000    0.000    0.000    0.000 
#    0.000    0.000    0.000    0.000    0.000    0.000 
#
# Total GULP energy -78132.231995 kJ/mol
# GULP energy per Si atom -5580.873714 kJ/mol
# Density = 2.148787 g / cm^3
# Si number density = 21.536893 Si / 1000 Ang^3
#
#
#
# Elastic Constant Matrix: (Units=GPa)
#
#
# Indices 1 2 3 4 5 6 
#
# 1 60.2396 33.5102 28.2129 11.6088 -16.0903 1.7875
# 2 33.5102 126.4655 45.6277 16.2618 -0.1887 -5.5673
# 3 28.2129 45.6277 145.9532 -3.7275 -13.0462 -8.3686
# 4 11.6088 16.2618 -3.7275 49.5938 -15.5687 -3.7137
# 5 -16.0903 -0.1887 -13.0462 -15.5687 38.2288 2.5998
# 6 1.7875 -5.5673 -8.3686 -3.7137 2.5998 38.2640
#
#
#
# Elastic Compliance Matrix: (Units=1/GPa)
#
#
# Indices 1 2 3 4 5 6 
#
# 1 0.023279 -0.005283 -0.002290 -0.001412 0.008625 -0.003080
# 2 -0.005283 0.010892 -0.002853 -0.003984 -0.004844 0.001150
# 3 -0.002290 -0.002853 0.008650 0.003246 0.003182 0.001683
# 4 -0.001412 -0.003984 0.003246 0.025573 0.010776 0.001946
# 5 0.008625 -0.004844 0.003182 0.010776 0.035359 -0.001768
# 6 -0.003080 0.001150 0.001683 0.001946 -0.001768 0.027122
#
#
# Mechanical properties :
#
#
# Convention : Reuss Voigt Hill
#
# Bulk Modulus (GPa) = 45.51824 60.81776 53.16800
# Shear Modulus (GPa) = 31.43651 40.23783 35.83717
#
# Velocity S-wave (km/s) = 3.82469 4.32710 4.08363
# Velocity P-wave (km/s) = 6.37850 7.29830 6.85385
#
# Compressibility (1/GPa) = 0.02196921
#
# Stress axis : x y z
#
# Youngs Moduli (GPa) = 42.95684 91.80953 115.61106
#
# Poissons Ratio (x) = 0.48507 0.26474
# Poissons Ratio (y) = 0.22696 0.32979
# Poissons Ratio (z) = 0.09837 0.26189
#
# Static dielectric constant tensor:
#      x y z
#    x 1.841420 -0.020130 0.081730 
#    y -0.020130 1.767510 -0.017550 
#    z 0.081730 -0.017550 1.835430 
# 
# From -- ./inp_files/356547.got.cif
#   From: 2010.05.17/outbox.cif.g08.bks.cpg/sg2_179_cif.got.tgz:356547.got - 2010.06.03 11:33:40.
