data_PCOD9007740
_publ_section_title
;
Structure prediction by ZEFSAII (Michael W. Deem and Ramdas Pophale) SiO2 
 PCOD9007740
Probable space group: P -1
;
_chemical_formula_sum "Si O2"
_cell_formula_units_Z 16
_cell_length_a 20.616089
_cell_length_b 11.335678
_cell_length_c 9.189091
_cell_angle_alpha 130.051742
_cell_angle_beta 118.741413
_cell_angle_gamma 29.053770
_cell_volume 778.788304
_symmetry_space_group_name_H-M "P -1"
_symmetry_group_IT_number 2
_symmetry_cell_setting 'triclinic'
loop_
_space_group_symop_operation_xyz
x,y,z
-x,-y,-z
loop_
_atom_site_type_symbol
_atom_site_label
_atom_site_fract_x
_atom_site_fract_y
_atom_site_fract_z
Si Si1 0.435692 0.715344 0.830667
Si Si2 0.873685 0.628609 0.032345
Si Si3 0.476638 0.192865 0.221855
Si Si4 0.079931 0.302401 0.574591
Si Si5 0.666899 0.622074 0.513376
Si Si6 0.941379 0.263538 0.580195
Si Si7 0.365002 0.896269 0.470548
Si Si8 0.471437 0.818651 0.244011
O O1 0.521412 0.676669 0.789293
O O2 0.494211 0.446998 0.643038
O O3 0.274574 0.030585 0.881485
O O4 0.473935 0.693103 0.018468
O O5 0.910562 0.574237 0.199290
O O6 0.878641 0.464847 0.812541
O O7 0.000000 0.500000 0.000000
O O8 0.347611 0.415247 0.367667
O O9 0.606266 0.008422 0.319144
O O10 0.500000 0.000000 0.000000
O O11 0.000000 0.500000 0.500000
O O12 0.024809 0.245485 0.557476
O O13 0.238703 0.011907 0.468829
O O14 0.814532 0.425072 0.477200
O O15 0.607287 0.610529 0.320115
O O16 0.568614 0.943912 0.670611
O O17 0.000000 0.000000 0.500000
O O18 0.355722 0.971109 0.355390
#
# Coordination Sequence:
#
# PCOD9007740 Si02
#       8
#     2   2   2   2   2   2   2   2
#     4  12  22  42  65  99 130 167 226 275 328 391
#     4  10  23  42  68  93 129 181 218 271 340 406
#     4  11  21  37  64  94 126 163 212 277 323 384
#     4  11  25  46  67  95 138 182 220 273 341 407
#     4  10  21  39  62  94 126 170 217 263 341 387
#     4  11  24  45  71  95 132 179 231 274 326 409
#     4  11  25  39  67 100 130 171 223 274 331 393
#     4  10  21  39  64  92 133 169 209 276 333 393
#
# _framework density 20.544737000000001
#
# number of rings (size 3 to 8) (size 9 to 14) (size 15 to 20)
#    0.000    1.250    3.750    1.500    3.500    3.000 
#    2.250    0.625    0.000    0.000    0.000    0.000 
#    0.000    0.000    0.000    0.000    0.000    0.000 
#
# Total GULP energy -89103.321766 kJ/mol
# GULP energy per Si atom -5568.957610 kJ/mol
# Density = 2.049798 g / cm^3
# Si number density = 20.544737 Si / 1000 Ang^3
#
#
#
# Elastic Constant Matrix: (Units=GPa)
#
#
# Indices 1 2 3 4 5 6 
#
# 1 142.6614 46.1015 37.8882 -6.4432 -6.6048 -9.3202
# 2 46.1015 89.9920 52.2589 1.2704 5.4942 -7.6027
# 3 37.8882 52.2589 110.1420 -23.9046 -10.7129 -0.8729
# 4 -6.4432 1.2704 -23.9046 31.3282 6.9440 2.1807
# 5 -6.6048 5.4942 -10.7129 6.9440 30.0822 -3.8993
# 6 -9.3202 -7.6027 -0.8729 2.1807 -3.8993 38.2719
#
#
#
# Elastic Compliance Matrix: (Units=1/GPa)
#
#
# Indices 1 2 3 4 5 6 
#
# 1 0.008771 -0.004189 -0.000588 0.000873 0.002474 0.001493
# 2 -0.004189 0.020057 -0.010490 -0.008527 -0.006014 0.002598
# 3 -0.000588 -0.010490 0.017469 0.012712 0.004806 -0.002063
# 4 0.000873 -0.008527 0.012712 0.043377 -0.004268 -0.004098
# 5 0.002474 -0.006014 0.004806 -0.004268 0.038052 0.003637
# 6 0.001493 0.002598 -0.002063 -0.004098 0.003637 0.027565
#
#
# Mechanical properties :
#
#
# Convention : Reuss Voigt Hill
#
# Bulk Modulus (GPa) = 63.44248 68.36587 65.90417
# Shear Modulus (GPa) = 26.16714 33.70624 29.93669
#
# Velocity S-wave (km/s) = 3.57272 4.05486 3.82140
# Velocity P-wave (km/s) = 6.92577 7.43447 7.18462
#
# Compressibility (1/GPa) = 0.01576231
#
# Stress axis : x y z
#
# Youngs Moduli (GPa) = 114.01361 49.85774 57.24500
#
# Poissons Ratio (x) = 0.20887 0.03363
# Poissons Ratio (y) = 0.47763 0.60053
# Poissons Ratio (z) = 0.06698 0.52303
#
# Static dielectric constant tensor:
#      x y z
#    x 1.808740 0.020610 -0.032740 
#    y 0.020610 1.791360 -0.000550 
#    z -0.032740 -0.000550 1.767600 
# 
# From -- ./inp_files/345623.got.cif
#   From: 2010.05.17/outbox.cif.g08.bks.cpg/sg2_173_cif.got.tgz:345623.got - 2010.06.03 11:33:40.
