data_PCOD9007730
_publ_section_title
;
Structure prediction by ZEFSAII (Michael W. Deem and Ramdas Pophale) SiO2 
 PCOD9007730
Probable space group: P -1
;
_chemical_formula_sum "Si O2"
_cell_formula_units_Z 14
_cell_length_a 17.156519
_cell_length_b 7.707531
_cell_length_c 8.912113
_cell_angle_alpha 51.560158
_cell_angle_beta 136.758374
_cell_angle_gamma 103.290268
_cell_volume 575.174295
_symmetry_space_group_name_H-M "P -1"
_symmetry_group_IT_number 2
_symmetry_cell_setting 'triclinic'
loop_
_space_group_symop_operation_xyz
x,y,z
-x,-y,-z
loop_
_atom_site_type_symbol
_atom_site_label
_atom_site_fract_x
_atom_site_fract_y
_atom_site_fract_z
Si Si1 0.460493 0.733772 0.610668
Si Si2 0.303507 0.424734 0.512650
Si Si3 0.030293 0.714863 0.855009
Si Si4 0.263093 0.465472 0.753875
Si Si5 0.607186 0.803658 0.538622
Si Si6 0.863962 0.526090 0.141699
Si Si7 0.116227 0.013169 0.239070
O O1 0.400237 0.542822 0.621867
O O2 0.482430 0.795377 0.436017
O O3 0.385862 0.974822 0.474986
O O4 0.597682 0.639934 0.927850
O O5 0.173098 0.636189 0.154940
O O6 0.268402 0.343197 0.665888
O O7 0.368637 0.210401 0.597455
O O8 0.035965 0.694518 0.694139
O O9 0.000000 0.500000 0.000000
O O10 0.925753 0.940562 0.670758
O O11 0.152777 0.459684 0.710677
O O12 0.226413 0.750118 0.522545
O O13 0.724728 0.556318 0.885403
O O14 0.868003 0.763270 0.939489
O O15 0.000000 0.000000 0.000000
#
# Coordination Sequence:
#
# PCOD9007730 Si02
#       7
#     2   2   2   2   2   2   2
#     4  10  21  39  62  93 130 160 211 263 309 379
#     4  11  20  37  65  90 124 170 210 251 321 380
#     4   9  20  40  62  89 122 166 210 259 310 371
#     4  11  23  38  63  97 123 161 211 259 312 381
#     4   9  20  38  63  91 127 170 201 257 323 368
#     4   9  21  40  62  88 129 156 205 268 307 366
#     4  11  21  39  65  86 119 168 207 252 318 366
#
# _framework density 24.340444999999999
#
# number of rings (size 3 to 8) (size 9 to 14) (size 15 to 20)
#    0.000    2.000    1.429    1.714    0.000    1.714 
#    0.000    2.857    6.286    0.000    0.000    0.000 
#    0.000    0.000    0.000    0.000    0.000    0.000 
#
# Total GULP energy -78054.364143 kJ/mol
# GULP energy per Si atom -5575.311724 kJ/mol
# Density = 2.428505 g / cm^3
# Si number density = 24.340445 Si / 1000 Ang^3
#
#
#
# Elastic Constant Matrix: (Units=GPa)
#
#
# Indices 1 2 3 4 5 6 
#
# 1 186.7786 65.8604 0.6745 6.4589 -24.1634 -54.1103
# 2 65.8604 81.4164 -1.6011 2.8029 -2.0604 -44.0339
# 3 0.6745 -1.6011 36.2739 -1.4581 2.7147 -9.2621
# 4 6.4589 2.8029 -1.4581 25.1487 -4.9178 -2.5042
# 5 -24.1634 -2.0604 2.7147 -4.9178 36.2321 3.7911
# 6 -54.1103 -44.0339 -9.2621 -2.5042 3.7911 57.2768
#
#
#
# Elastic Compliance Matrix: (Units=1/GPa)
#
#
# Indices 1 2 3 4 5 6 
#
# 1 0.009017 -0.004609 0.000426 -0.000296 0.005189 0.004688
# 2 -0.004609 0.024441 0.005398 -0.000417 -0.003771 0.015540
# 3 0.000426 0.005398 0.030530 0.001537 -0.002505 0.009722
# 4 -0.000296 -0.000417 0.001537 0.041087 0.005125 0.001105
# 5 0.005189 -0.003771 -0.002505 0.005125 0.031759 -0.000280
# 6 0.004688 0.015540 0.009722 0.001105 -0.000280 0.035473
#
#
# Mechanical properties :
#
#
# Convention : Reuss Voigt Hill
#
# Bulk Modulus (GPa) = 15.05647 48.25961 31.65804
# Shear Modulus (GPa) = 26.03928 39.70052 32.86990
#
# Velocity S-wave (km/s) = 3.27432 4.04301 3.67880
# Velocity P-wave (km/s) = 4.52704 6.45481 5.57488
#
# Compressibility (1/GPa) = 0.06641665
#
# Stress axis : x y z
#
# Youngs Moduli (GPa) = 110.89951 40.91525 32.75464
#
# Poissons Ratio (x) = 0.18858 -0.01394
# Poissons Ratio (y) = 0.51115 -0.17681
# Poissons Ratio (z) = -0.04719 -0.22086
#
# Static dielectric constant tensor:
#      x y z
#    x 2.067160 -0.092750 -0.071890 
#    y -0.092750 2.051410 -0.002300 
#    z -0.071890 -0.002300 2.002580 
# 
# From -- ./inp_files/327341.got.cif
#   From: 2010.05.17/outbox.cif.g08.bks.cpg/sg2_164_cif.got.tgz:327341.got - 2010.06.03 11:33:40.
