data_PCOD9007075
_publ_section_title
;
Structure prediction by ZEFSAII (Michael W. Deem and Ramdas Pophale) SiO2 
 PCOD9007075
Probable space group: P -1
;
_chemical_formula_sum "Si O2"
_cell_formula_units_Z 14
_cell_length_a 8.815389
_cell_length_b 15.440425
_cell_length_c 14.109688
_cell_angle_alpha 140.784415
_cell_angle_beta 103.176921
_cell_angle_gamma 48.158066
_cell_volume 714.480990
_symmetry_space_group_name_H-M "P -1"
_symmetry_group_IT_number 2
_symmetry_cell_setting 'triclinic'
loop_
_space_group_symop_operation_xyz
x,y,z
-x,-y,-z
loop_
_atom_site_type_symbol
_atom_site_label
_atom_site_fract_x
_atom_site_fract_y
_atom_site_fract_z
Si Si1 0.277049 0.339973 0.009451
Si Si2 0.628658 0.316602 0.137563
Si Si3 0.674565 0.755109 0.276676
Si Si4 0.679890 0.593207 0.326857
Si Si5 0.788784 0.804441 0.831480
Si Si6 0.200269 0.917011 0.856395
Si Si7 0.465768 0.913057 0.730919
O O1 0.391171 0.247239 0.840759
O O2 0.314828 0.161839 0.908650
O O3 0.421078 0.355300 0.102543
O O4 0.975271 0.586696 0.171229
O O5 0.596586 0.496206 0.253966
O O6 0.642628 0.298962 0.239984
O O7 0.908577 0.079409 0.932636
O O8 0.661330 0.643558 0.257389
O O9 0.500000 0.000000 0.500000
O O10 0.507157 0.815848 0.553341
O O11 0.972824 0.411774 0.254298
O O12 0.738676 0.764205 0.691714
O O13 0.500000 0.000000 0.000000
O O14 0.834960 0.933787 0.945868
O O15 0.332799 0.894859 0.766314
#
# Coordination Sequence:
#
# PCOD9007075 Si02
#       7
#     2   2   2   2   2   2   2
#     4  11  23  42  71  89 121 166 212 256 310 359
#     4  10  21  39  59  93 124 166 195 250 319 373
#     4  11  24  45  66  92 116 165 222 264 292 360
#     4  11  23  38  59  92 132 155 207 264 301 372
#     4   9  17  33  59  88 115 163 203 243 301 365
#     4   9  19  35  61  87 132 161 196 241 316 384
#     4  11  20  37  62  95 123 163 207 249 310 373
#
# _framework density 19.594640999999999
#
# number of rings (size 3 to 8) (size 9 to 14) (size 15 to 20)
#    0.000    1.714    2.857    3.000    2.000    1.143 
#    2.571    0.714    0.000    0.000    0.000    0.000 
#    0.000    0.000    0.000    0.000    0.000    0.000 
#
# Total GULP energy -78002.423864 kJ/mol
# GULP energy per Si atom -5571.601705 kJ/mol
# Density = 1.955004 g / cm^3
# Si number density = 19.594641 Si / 1000 Ang^3
#
#
#
# Elastic Constant Matrix: (Units=GPa)
#
#
# Indices 1 2 3 4 5 6 
#
# 1 70.4838 20.3534 21.4672 0.8246 1.3106 7.5990
# 2 20.3534 73.3496 16.9096 -3.6441 2.2802 18.5298
# 3 21.4672 16.9096 77.3884 1.6805 0.6033 1.5882
# 4 0.8246 -3.6441 1.6805 31.2856 4.3469 -4.5793
# 5 1.3106 2.2802 0.6033 4.3469 16.2874 3.0645
# 6 7.5990 18.5298 1.5882 -4.5793 3.0645 38.4685
#
#
#
# Elastic Compliance Matrix: (Units=1/GPa)
#
#
# Indices 1 2 3 4 5 6 
#
# 1 0.016490 -0.003338 -0.003793 -0.000822 -0.000203 -0.001575
# 2 -0.003338 0.017101 -0.002683 0.001307 -0.001014 -0.007231
# 3 -0.003793 -0.002683 0.014550 -0.000814 0.000108 0.001335
# 4 -0.000822 0.001307 -0.000814 0.034229 -0.010058 0.004442
# 5 -0.000203 -0.001014 0.000108 -0.010058 0.065342 -0.005878
# 6 -0.001575 -0.007231 0.001335 0.004442 -0.005878 0.030731
#
#
# Mechanical properties :
#
#
# Convention : Reuss Voigt Hill
#
# Bulk Modulus (GPa) = 35.07176 37.63138 36.35157
# Shear Modulus (GPa) = 24.08769 28.04109 26.06439
#
# Velocity S-wave (km/s) = 3.50994 3.78704 3.65112
# Velocity P-wave (km/s) = 5.86206 6.19426 6.03045
#
# Compressibility (1/GPa) = 0.02851297
#
# Stress axis : x y z
#
# Youngs Moduli (GPa) = 60.64284 58.47544 68.73019
#
# Poissons Ratio (x) = 0.19519 0.26070
# Poissons Ratio (y) = 0.20243 0.18439
# Poissons Ratio (z) = 0.23003 0.15688
#
# Static dielectric constant tensor:
#      x y z
#    x 1.702400 0.011240 -0.006320 
#    y 0.011240 1.750680 0.007020 
#    z -0.006320 0.007020 1.730080 
# 
# From -- ./inp_files/496808.got.cif
#   From: 2010.05.17/outbox.cif.g08.bks.cpg/sg2_249_cif.got.tgz:496808.got - 2010.06.03 11:33:40.
