data_PCOD9007228
_publ_section_title
;
Structure prediction by ZEFSAII (Michael W. Deem and Ramdas Pophale) SiO2 
 PCOD9007228
Probable space group: P -1
;
_chemical_formula_sum "Si O2"
_cell_formula_units_Z 12
_cell_length_a 9.261021
_cell_length_b 8.399957
_cell_length_c 12.018028
_cell_angle_alpha 46.155543
_cell_angle_beta 122.098777
_cell_angle_gamma 132.233387
_cell_volume 495.441790
_symmetry_space_group_name_H-M "P -1"
_symmetry_group_IT_number 2
_symmetry_cell_setting 'triclinic'
loop_
_space_group_symop_operation_xyz
x,y,z
-x,-y,-z
loop_
_atom_site_type_symbol
_atom_site_label
_atom_site_fract_x
_atom_site_fract_y
_atom_site_fract_z
Si Si1 0.611062 0.990364 0.268961
Si Si2 0.275537 0.721768 0.416037
Si Si3 0.870242 0.256606 0.426583
Si Si4 0.174323 0.477153 0.025827
Si Si5 0.467939 0.427339 0.741182
Si Si6 0.290246 0.385631 0.907077
O O1 0.411041 0.926967 0.282436
O O2 0.562480 0.758600 0.281448
O O3 0.780328 0.035376 0.406288
O O4 0.692549 0.240657 0.107152
O O5 0.184859 0.812907 0.433086
O O6 0.415691 0.634660 0.574721
O O7 0.098002 0.467031 0.413804
O O8 0.759649 0.409485 0.267810
O O9 0.137911 0.288958 0.996100
O O10 0.310536 0.442377 0.186922
O O11 0.000000 0.500000 0.000000
O O12 0.323187 0.270964 0.861927
O O13 0.500000 0.500000 0.000000
#
# Coordination Sequence:
#
# PCOD9007228 Si02
#       6
#     2   2   2   2   2   2
#     4  11  22  37  64  89 121 160 203 247 301 357
#     4  10  21  40  63  89 125 161 196 250 300 365
#     4   9  20  38  63  89 123 159 203 240 307 357
#     4  10  22  41  64  87 120 164 204 248 297 360
#     4  10  21  39  60  92 123 155 197 256 304 351
#     4   8  17  37  63  81 119 159 194 243 302 347
#
# _framework density 24.220807000000001
#
# number of rings (size 3 to 8) (size 9 to 14) (size 15 to 20)
#    0.000    2.333    0.000    1.500    4.667    0.667 
#    3.000    0.833   25.667    0.000    0.000    0.000 
#    0.000    0.000    0.000    0.000    0.000    0.000 
#
# Total GULP energy -66933.172652 kJ/mol
# GULP energy per Si atom -5577.764388 kJ/mol
# Density = 2.416568 g / cm^3
# Si number density = 24.220807 Si / 1000 Ang^3
#
#
#
# Elastic Constant Matrix: (Units=GPa)
#
#
# Indices 1 2 3 4 5 6 
#
# 1 128.2498 36.3806 37.7950 11.5136 -15.7855 25.7616
# 2 36.3806 72.0212 18.7039 20.8000 -24.7920 3.8509
# 3 37.7950 18.7039 64.5806 3.4461 -11.4907 16.1482
# 4 11.5136 20.8000 3.4461 29.0625 -2.6657 -15.3700
# 5 -15.7855 -24.7920 -11.4907 -2.6657 34.0038 1.2634
# 6 25.7616 3.8509 16.1482 -15.3700 1.2634 35.4877
#
#
#
# Elastic Compliance Matrix: (Units=1/GPa)
#
#
# Indices 1 2 3 4 5 6 
#
# 1 0.012833 -0.000472 -0.002836 -0.010786 0.004285 -0.012799
# 2 -0.000472 0.029737 0.000715 -0.027773 0.020119 -0.015955
# 3 -0.002836 0.000715 0.021159 -0.007120 0.006204 -0.010952
# 4 -0.010786 -0.027773 -0.007120 0.084543 -0.022949 0.051517
# 5 0.004285 0.020119 0.006204 -0.022949 0.047097 -0.019733
# 6 -0.012799 -0.015955 -0.010952 0.051517 -0.019733 0.067200
#
#
# Mechanical properties :
#
#
# Convention : Reuss Voigt Hill
#
# Bulk Modulus (GPa) = 17.08093 50.06785 33.57439
# Shear Modulus (GPa) = 17.40522 31.17561 24.29042
#
# Velocity S-wave (km/s) = 2.68359 3.59157 3.17025
# Velocity P-wave (km/s) = 4.08285 6.15755 5.22423
#
# Compressibility (1/GPa) = 0.05854484
#
# Stress axis : x y z
#
# Youngs Moduli (GPa) = 77.92162 33.62796 47.26047
#
# Poissons Ratio (x) = 0.01586 0.13401
# Poissons Ratio (y) = 0.03675 -0.03378
# Poissons Ratio (z) = 0.22096 -0.02404
#
# Static dielectric constant tensor:
#      x y z
#    x 2.015840 -0.049280 -0.042740 
#    y -0.049280 1.996490 0.008870 
#    z -0.042740 0.008870 1.945530 
# 
# From -- ./inp_files/34031.got.cif
#   From: 2010.05.17/outbox.cif.g08.bks.cpg/sg2_18_cif.got.tgz:34031.got - 2010.06.03 11:33:40.
