data_PCOD9007981
_publ_section_title
;
Structure prediction by ZEFSAII (Michael W. Deem and Ramdas Pophale) SiO2 
 PCOD9007981
Probable space group: P -1
;
_chemical_formula_sum "Si O2"
_cell_formula_units_Z 14
_cell_length_a 25.872777
_cell_length_b 5.835779
_cell_length_c 15.275240
_cell_angle_alpha 90.861176
_cell_angle_beta 17.161068
_cell_angle_gamma 83.974772
_cell_volume 622.298880
_symmetry_space_group_name_H-M "P -1"
_symmetry_group_IT_number 2
_symmetry_cell_setting 'triclinic'
loop_
_space_group_symop_operation_xyz
x,y,z
-x,-y,-z
loop_
_atom_site_type_symbol
_atom_site_label
_atom_site_fract_x
_atom_site_fract_y
_atom_site_fract_z
Si Si1 0.669012 0.661875 0.818859
Si Si2 0.699052 0.319167 0.269455
Si Si3 0.690565 0.701864 0.519461
Si Si4 0.557128 0.839294 0.189358
Si Si5 0.568817 0.146015 0.318684
Si Si6 0.046861 0.786724 0.994723
Si Si7 0.339007 0.830036 0.219115
O O1 0.754518 0.373784 0.643436
O O2 0.746339 0.872291 0.663850
O O3 0.450898 0.780190 0.131076
O O4 0.665937 0.671669 0.929778
O O5 0.626072 0.617661 0.389299
O O6 0.700113 0.240576 0.166270
O O7 0.892263 0.161666 0.008067
O O8 0.531587 0.285418 0.597139
O O9 0.617141 0.934588 0.573909
O O10 0.514295 0.728990 0.865339
O O11 0.871591 0.703424 0.278920
O O12 0.657199 0.979796 0.089128
O O13 0.232198 0.555860 0.658571
O O14 0.500000 0.000000 0.500000
O O15 0.000000 0.000000 0.000000
#
# Coordination Sequence:
#
# PCOD9007981 Si02
#       7
#     2   2   2   2   2   2   2
#     4   9  18  29  50  68  98 126 165 200 251 294
#     4  10  18  31  46  65  98 128 166 201 241 290
#     4  10  20  28  45  67 101 131 165 198 239 296
#     4  10  17  29  47  69  95 128 161 204 247 293
#     4   9  19  30  46  66  92 128 161 207 247 282
#     4  11  20  30  45  70  96 137 167 195 237 298
#     4   9  18  32  44  71  97 132 160 203 244 296
#
# _framework density 22.497229000000001
#
# number of rings (size 3 to 8) (size 9 to 14) (size 15 to 20)
#    0.000    2.286    2.857    0.857    4.000    0.000 
#    0.000    0.000    0.000    0.000    0.000    1.000 
#    0.000   11.429    0.000    0.286    0.000    0.000 
#
# Total GULP energy -78026.780710 kJ/mol
# GULP energy per Si atom -5573.341479 kJ/mol
# Density = 2.244602 g / cm^3
# Si number density = 22.497229 Si / 1000 Ang^3
#
#
#
# Elastic Constant Matrix: (Units=GPa)
#
#
# Indices 1 2 3 4 5 6 
#
# 1 139.8364 41.1193 10.2119 0.5507 -6.5533 19.5351
# 2 41.1193 135.4256 8.1469 -1.1713 5.1240 -1.2539
# 3 10.2119 8.1469 21.6446 -1.6748 7.9224 2.8396
# 4 0.5507 -1.1713 -1.6748 17.5546 4.8113 -1.0208
# 5 -6.5533 5.1240 7.9224 4.8113 31.2612 -2.5324
# 6 19.5351 -1.2539 2.8396 -1.0208 -2.5324 55.0544
#
#
#
# Elastic Compliance Matrix: (Units=1/GPa)
#
#
# Indices 1 2 3 4 5 6 
#
# 1 0.008781 -0.002586 -0.004190 -0.001944 0.003396 -0.002838
# 2 -0.002586 0.008333 -0.001393 0.001014 -0.001620 0.001123
# 3 -0.004190 -0.001393 0.055734 0.009744 -0.016436 -0.001995
# 4 -0.001944 0.001014 0.009744 0.061479 -0.012442 0.000778
# 5 0.003396 -0.001620 -0.016436 -0.012442 0.039141 0.001176
# 6 -0.002838 0.001123 -0.001995 0.000778 0.001176 0.019368
#
#
# Mechanical properties :
#
#
# Convention : Reuss Voigt Hill
#
# Bulk Modulus (GPa) = 17.69585 46.20695 31.95140
# Shear Modulus (GPa) = 21.92881 36.60262 29.26572
#
# Velocity S-wave (km/s) = 3.12546 4.03796 3.61065
# Velocity P-wave (km/s) = 4.57248 6.50567 5.62278
#
# Compressibility (1/GPa) = 0.05651043
#
# Stress axis : x y z
#
# Youngs Moduli (GPa) = 113.88433 119.99836 17.94240
#
# Poissons Ratio (x) = 0.31027 0.07519
# Poissons Ratio (y) = 0.29446 0.02499
# Poissons Ratio (z) = 0.47723 0.16713
#
# Static dielectric constant tensor:
#      x y z
#    x 1.997280 0.009070 0.167220 
#    y 0.009070 1.995300 -0.113730 
#    z 0.167220 -0.113730 2.172730 
# 
# From -- ./inp_files/579448.got.cif
#   From: 2010.05.17/outbox.cif.g08.bks.cpg/sg2_290_cif.got.tgz:579448.got - 2010.06.03 11:33:40.
