data_PCOD9007018
_publ_section_title
;
Structure prediction by ZEFSAII (Michael W. Deem and Ramdas Pophale) SiO2 
 PCOD9007018
Probable space group: P -1
;
_chemical_formula_sum "Si O2"
_cell_formula_units_Z 16
_cell_length_a 8.237020
_cell_length_b 13.948026
_cell_length_c 7.574770
_cell_angle_alpha 103.993191
_cell_angle_beta 126.366037
_cell_angle_gamma 89.441268
_cell_volume 669.964539
_symmetry_space_group_name_H-M "P -1"
_symmetry_group_IT_number 2
_symmetry_cell_setting 'triclinic'
loop_
_space_group_symop_operation_xyz
x,y,z
-x,-y,-z
loop_
_atom_site_type_symbol
_atom_site_label
_atom_site_fract_x
_atom_site_fract_y
_atom_site_fract_z
Si Si1 0.265415 0.581204 0.518061
Si Si2 0.889729 0.467513 0.098366
Si Si3 0.434378 0.142638 0.946218
Si Si4 0.200273 0.719831 0.828536
Si Si5 0.810063 0.990372 0.738615
Si Si6 0.484303 0.399178 0.652404
Si Si7 0.810389 0.782655 0.439342
Si Si8 0.607637 0.063803 0.342081
O O1 0.316268 0.648645 0.751171
O O2 0.337738 0.474173 0.528239
O O3 0.379263 0.628721 0.436858
O O4 0.017945 0.550978 0.342469
O O5 0.901197 0.354189 0.116595
O O6 0.650602 0.463721 0.916775
O O7 0.000000 0.500000 0.000000
O O8 0.256059 0.202231 0.799001
O O9 0.350055 0.026083 0.799615
O O10 0.626639 0.187898 0.964041
O O11 0.542967 0.147734 0.209265
O O12 0.030957 0.757601 0.615829
O O13 0.804899 0.888112 0.579500
O O14 0.604047 0.975822 0.712788
O O15 0.784032 0.074672 0.610326
O O16 0.000000 0.000000 0.000000
O O17 0.355198 0.303863 0.618752
#
# Coordination Sequence:
#
# PCOD9007018 Si02
#       8
#     2   2   2   2   2   2   2   2
#     4  10  23  39  61  85 124 161 210 257 318 369
#     4  10  21  39  59  84 121 165 209 256 313 364
#     4  10  22  41  63  92 126 165 204 262 310 373
#     4  12  23  38  61  93 126 162 210 265 309 370
#     4  10  21  40  66  93 125 164 204 254 311 377
#     4  10  21  41  61  85 118 169 207 258 308 370
#     4  11  23  38  63  93 126 160 213 255 310 374
#     4   9  21  42  65  89 126 165 207 248 320 375
#
# _framework density 23.881862000000002
#
# number of rings (size 3 to 8) (size 9 to 14) (size 15 to 20)
#    0.000    1.750    2.500    1.125    1.750    2.500 
#    0.000    6.250    0.000    0.000    0.000    0.000 
#    0.000    0.000    0.000    0.000    0.000    0.000 
#
# Total GULP energy -89265.206878 kJ/mol
# GULP energy per Si atom -5579.075430 kJ/mol
# Density = 2.382751 g / cm^3
# Si number density = 23.881862 Si / 1000 Ang^3
#
#
#
# Elastic Constant Matrix: (Units=GPa)
#
#
# Indices 1 2 3 4 5 6 
#
# 1 48.7139 6.8837 14.6538 -4.9371 -0.5718 5.5514
# 2 6.8837 68.7093 22.8868 -22.1587 -14.2744 15.1608
# 3 14.6538 22.8868 107.4307 -25.4058 13.5193 9.0689
# 4 -4.9371 -22.1587 -25.4058 55.5862 3.0086 -5.4335
# 5 -0.5718 -14.2744 13.5193 3.0086 34.3157 0.3415
# 6 5.5514 15.1608 9.0689 -5.4335 0.3415 24.7658
#
#
#
# Elastic Compliance Matrix: (Units=1/GPa)
#
#
# Indices 1 2 3 4 5 6 
#
# 1 0.021845 -0.000052 -0.002784 0.000195 0.001460 -0.003823
# 2 -0.000052 0.022190 -0.003793 0.005459 0.010356 -0.011129
# 3 -0.002784 -0.003793 0.012410 0.004229 -0.006879 -0.000576
# 4 0.000195 0.005459 0.004229 0.022184 -0.001336 -0.000049
# 5 0.001460 0.010356 -0.006879 -0.001336 0.036350 -0.004943
# 6 -0.003823 -0.011129 -0.000576 -0.000049 -0.004943 0.048316
#
#
# Mechanical properties :
#
#
# Convention : Reuss Voigt Hill
#
# Bulk Modulus (GPa) = 23.15396 34.85583 29.00490
# Shear Modulus (GPa) = 26.18498 34.96219 30.57359
#
# Velocity S-wave (km/s) = 3.31484 3.83033 3.58187
# Velocity P-wave (km/s) = 4.93631 5.84711 5.41091
#
# Compressibility (1/GPa) = 0.04318916
#
# Stress axis : x y z
#
# Youngs Moduli (GPa) = 45.77656 45.06457 80.57752
#
# Poissons Ratio (x) = 0.00233 0.22431
# Poissons Ratio (y) = 0.00236 0.30564
# Poissons Ratio (z) = 0.12743 0.17093
#
# Static dielectric constant tensor:
#      x y z
#    x 1.884830 0.040770 -0.012610 
#    y 0.040770 1.951440 -0.038700 
#    z -0.012610 -0.038700 2.013340 
# 
# From -- ./inp_files/188925.got.cif
#   From: 2010.05.17/outbox.cif.g08.bks.cpg/sg2_95_cif.got.tgz:188925.got - 2010.06.03 11:33:40.
