data_PCOD9007735
_publ_section_title
;
Structure prediction by ZEFSAII (Michael W. Deem and Ramdas Pophale) SiO2 
 PCOD9007735
Probable space group: P -1
;
_chemical_formula_sum "Si O2"
_cell_formula_units_Z 14
_cell_length_a 9.166445
_cell_length_b 9.045936
_cell_length_c 11.141063
_cell_angle_alpha 109.473126
_cell_angle_beta 104.865803
_cell_angle_gamma 47.624347
_cell_volume 642.742748
_symmetry_space_group_name_H-M "P -1"
_symmetry_group_IT_number 2
_symmetry_cell_setting 'triclinic'
loop_
_space_group_symop_operation_xyz
x,y,z
-x,-y,-z
loop_
_atom_site_type_symbol
_atom_site_label
_atom_site_fract_x
_atom_site_fract_y
_atom_site_fract_z
Si Si1 0.070126 0.595345 0.123508
Si Si2 0.930296 0.027726 0.129213
Si Si3 0.963697 0.236472 0.405486
Si Si4 0.492165 0.437506 0.116217
Si Si5 0.785139 0.831566 0.341915
Si Si6 0.642793 0.248119 0.457297
Si Si7 0.408890 0.328361 0.653042
O O1 0.306088 0.457809 0.122027
O O2 0.968972 0.653252 0.248832
O O3 0.988212 0.814593 0.117614
O O4 0.000000 0.500000 0.000000
O O5 0.020071 0.089797 0.263362
O O6 0.696699 0.215465 0.128763
O O7 0.000000 0.000000 0.000000
O O8 0.846630 0.202551 0.465429
O O9 0.805496 0.466941 0.382967
O O10 0.127994 0.203402 0.514530
O O11 0.492760 0.594196 0.236199
O O12 0.500000 0.500000 0.000000
O O13 0.626309 0.799401 0.308372
O O14 0.688862 0.059824 0.336550
O O15 0.500000 0.500000 0.500000
O O16 0.552443 0.214692 0.540783
#
# Coordination Sequence:
#
# PCOD9007735 Si02
#       7
#     2   2   2   2   2   2   2
#     4  12  27  46  71 105 141 181 234 291 344 416
#     4  11  24  45  72 102 138 184 237 282 343 422
#     4  10  22  41  67  97 134 180 225 279 348 402
#     4  11  23  44  72  96 134 189 230 281 350 409
#     4  12  23  41  67 103 140 178 229 287 346 406
#     4  10  21  39  62  93 132 176 223 277 339 404
#     4  10  23  40  65  99 138 173 227 286 341 410
#
# _framework density 21.781655000000001
#
# number of rings (size 3 to 8) (size 9 to 14) (size 15 to 20)
#    0.000    1.143    2.857    3.000    4.000    1.714 
#    0.000    0.000    0.000    0.000    0.000    0.000 
#    0.000    0.000    0.000    0.000    0.000    0.000 
#
# Total GULP energy -78014.351449 kJ/mol
# GULP energy per Si atom -5572.453675 kJ/mol
# Density = 2.173208 g / cm^3
# Si number density = 21.781655 Si / 1000 Ang^3
#
#
#
# Elastic Constant Matrix: (Units=GPa)
#
#
# Indices 1 2 3 4 5 6 
#
# 1 109.1936 -6.4777 35.3402 12.8397 0.5567 -0.0026
# 2 -6.4777 53.8026 28.3361 11.9646 4.6382 2.8587
# 3 35.3402 28.3361 133.2026 14.6039 -1.0556 -18.3572
# 4 12.8397 11.9646 14.6039 34.0118 3.0273 -3.2052
# 5 0.5567 4.6382 -1.0556 3.0273 39.8921 4.0203
# 6 -0.0026 2.8587 -18.3572 -3.2052 4.0203 24.6157
#
#
#
# Elastic Compliance Matrix: (Units=1/GPa)
#
#
# Indices 1 2 3 4 5 6 
#
# 1 0.011301 0.004756 -0.004086 -0.004575 -0.000050 -0.004186
# 2 0.004756 0.025321 -0.006976 -0.008406 -0.001653 -0.008967
# 3 -0.004086 -0.006976 0.011353 -0.000030 0.000240 0.009233
# 4 -0.004575 -0.008406 -0.000030 0.034845 -0.002193 0.005849
# 5 -0.000050 -0.001653 0.000240 -0.002193 0.025850 -0.004136
# 6 -0.004186 -0.008967 0.009233 0.005849 -0.004136 0.049988
#
#
# Mechanical properties :
#
#
# Convention : Reuss Voigt Hill
#
# Bulk Modulus (GPa) = 28.27676 45.62179 36.94927
# Shear Modulus (GPa) = 27.31399 35.63725 31.47562
#
# Velocity S-wave (km/s) = 3.54501 4.04928 3.80551
# Velocity P-wave (km/s) = 5.45585 6.54620 6.02574
#
# Compressibility (1/GPa) = 0.03536473
#
# Stress axis : x y z
#
# Youngs Moduli (GPa) = 88.49049 39.49246 88.08319
#
# Poissons Ratio (x) = -0.18784 0.35988
# Poissons Ratio (y) = -0.42090 0.61445
# Poissons Ratio (z) = 0.36154 0.27549
#
# Static dielectric constant tensor:
#      x y z
#    x 1.756050 -0.018500 0.009760 
#    y -0.018500 1.836930 -0.000810 
#    z 0.009760 -0.000810 1.832620 
# 
# From -- ./inp_files/175713.got.cif
#   From: 2010.05.17/outbox.cif.g08.bks.cpg/sg2_88_cif.got.tgz:175713.got - 2010.06.03 11:33:40.
