data_PCOD9007875
_publ_section_title
;
Structure prediction by ZEFSAII (Michael W. Deem and Ramdas Pophale) SiO2 
 PCOD9007875
Probable space group: P -1
;
_chemical_formula_sum "Si O2"
_cell_formula_units_Z 10
_cell_length_a 15.031161
_cell_length_b 8.444872
_cell_length_c 12.026654
_cell_angle_alpha 117.994682
_cell_angle_beta 27.901060
_cell_angle_gamma 138.375774
_cell_volume 374.082578
_symmetry_space_group_name_H-M "P -1"
_symmetry_group_IT_number 2
_symmetry_cell_setting 'triclinic'
loop_
_space_group_symop_operation_xyz
x,y,z
-x,-y,-z
loop_
_atom_site_type_symbol
_atom_site_label
_atom_site_fract_x
_atom_site_fract_y
_atom_site_fract_z
Si Si1 0.536463 0.717579 0.479124
Si Si2 0.320653 0.148487 0.236780
Si Si3 0.310799 0.836027 0.310386
Si Si4 0.209975 0.197111 0.994696
Si Si5 0.372166 0.947117 0.749621
O O1 0.500000 0.500000 0.500000
O O2 0.532897 0.673938 0.338461
O O3 0.290596 0.677784 0.784221
O O4 0.904877 0.044606 0.216499
O O5 0.606127 0.513386 0.042838
O O6 0.301013 0.034982 0.342360
O O7 0.399122 0.044911 0.033108
O O8 0.000000 0.000000 0.500000
O O9 0.000000 0.500000 0.500000
O O10 0.345275 0.812552 0.393576
O O11 0.144247 0.943380 0.026101
O O12 0.500000 0.000000 0.500000
#
# Coordination Sequence:
#
# PCOD9007875 Si02
#       5
#     2   2   2   2   2
#     4  10  21  39  63  89 125 170 215 269 327 386
#     4  11  25  43  68 100 135 178 227 278 338 401
#     4  11  24  43  69  99 135 178 227 280 334 402
#     4  10  22  39  60  91 128 167 216 268 325 393
#     4  10  22  40  64  95 131 170 218 273 332 395
#
# _framework density 26.732061999999999
#
# number of rings (size 3 to 8) (size 9 to 14) (size 15 to 20)
#    0.000    1.600    0.000    3.600    0.000    8.800 
#    0.000    6.000    0.000    0.000    0.000    0.000 
#    0.000    0.000    0.000    0.000    0.000    0.000 
#
# Total GULP energy -55780.869047 kJ/mol
# GULP energy per Si atom -5578.086905 kJ/mol
# Density = 2.667122 g / cm^3
# Si number density = 26.732062 Si / 1000 Ang^3
#
#
#
# Elastic Constant Matrix: (Units=GPa)
#
#
# Indices 1 2 3 4 5 6 
#
# 1 137.9295 24.8978 41.1730 11.5915 -26.9939 29.5639
# 2 24.8978 122.6746 25.7685 17.9264 -29.6920 -11.8767
# 3 41.1730 25.7685 94.2750 10.0850 -35.8160 -3.3736
# 4 11.5915 17.9264 10.0850 38.3896 -12.9388 -8.5852
# 5 -26.9939 -29.6920 -35.8160 -12.9388 48.2850 12.0258
# 6 29.5639 -11.8767 -3.3736 -8.5852 12.0258 46.2649
#
#
#
# Elastic Compliance Matrix: (Units=1/GPa)
#
#
# Indices 1 2 3 4 5 6 
#
# 1 0.011701 -0.001002 -0.002770 -0.002654 0.005623 -0.009891
# 2 -0.001002 0.009974 -0.000353 -0.002470 0.004248 0.001612
# 3 -0.002770 -0.000353 0.015626 0.000277 0.009820 0.000318
# 4 -0.002654 -0.002470 0.000277 0.030546 0.003963 0.005720
# 5 0.005623 0.004248 0.009820 0.003963 0.037502 -0.010799
# 6 -0.009891 0.001612 0.000318 0.005720 -0.010799 0.032240
#
#
# Mechanical properties :
#
#
# Convention : Reuss Voigt Hill
#
# Bulk Modulus (GPa) = 34.42126 59.83975 47.13051
# Shear Modulus (GPa) = 32.14933 44.12388 38.13661
#
# Velocity S-wave (km/s) = 3.47169 4.06716 3.78117
# Velocity P-wave (km/s) = 5.38280 6.67003 6.06069
#
# Compressibility (1/GPa) = 0.02905181
#
# Stress axis : x y z
#
# Youngs Moduli (GPa) = 85.46038 100.25688 63.99523
#
# Poissons Ratio (x) = 0.10043 0.17729
# Poissons Ratio (y) = 0.08560 0.02259
# Poissons Ratio (z) = 0.23676 0.03539
#
# Static dielectric constant tensor:
#      x y z
#    x -1.652600 3.005900 0.034440 
#    y 3.005900 -0.152020 -0.048700 
#    z 0.034440 -0.048700 2.269680 
# 
# From -- ./inp_files/19368.got.cif
#   From: 2010.05.17/outbox.cif.g08.bks.cpg/sg2_10_cif.got.tgz:19368.got - 2010.06.03 11:33:40.
