data_PCOD9007665
_publ_section_title
;
Structure prediction by ZEFSAII (Michael W. Deem and Ramdas Pophale) SiO2 
 PCOD9007665
Probable space group: P -1
;
_chemical_formula_sum "Si O2"
_cell_formula_units_Z 14
_cell_length_a 8.833209
_cell_length_b 15.210527
_cell_length_c 7.016053
_cell_angle_alpha 74.443493
_cell_angle_beta 52.921138
_cell_angle_gamma 49.847326
_cell_volume 563.470604
_symmetry_space_group_name_H-M "P -1"
_symmetry_group_IT_number 2
_symmetry_cell_setting 'triclinic'
loop_
_space_group_symop_operation_xyz
x,y,z
-x,-y,-z
loop_
_atom_site_type_symbol
_atom_site_label
_atom_site_fract_x
_atom_site_fract_y
_atom_site_fract_z
Si Si1 0.527000 0.459534 0.223287
Si Si2 0.540945 0.021094 0.739027
Si Si3 0.959529 0.779424 0.905610
Si Si4 0.348858 0.329042 0.347681
Si Si5 0.115395 0.229047 0.475548
Si Si6 0.746698 0.140126 0.432059
Si Si7 0.607714 0.306757 0.786913
O O1 0.798866 0.341370 0.126715
O O2 0.346231 0.427275 0.399878
O O3 0.468903 0.571302 0.309236
O O4 0.500000 0.500000 0.000000
O O5 0.751458 0.033011 0.542276
O O6 0.636384 0.904987 0.619250
O O7 0.283303 0.149646 0.824858
O O8 0.500000 0.000000 0.000000
O O9 0.018715 0.869667 0.785444
O O10 0.915439 0.753294 0.742229
O O11 0.131086 0.322904 0.505847
O O12 0.572376 0.208567 0.345259
O O13 0.424924 0.329179 0.074157
O O14 0.876716 0.244210 0.706734
O O15 0.628783 0.226806 0.652498
#
# Coordination Sequence:
#
# PCOD9007665 Si02
#       7
#     2   2   2   2   2   2   2
#     4   9  20  40  63  87 123 162 199 250 305 354
#     4  10  21  39  62  91 125 158 202 253 298 360
#     4   9  20  39  62  89 123 162 203 249 301 360
#     4  10  22  40  59  92 124 155 205 251 298 361
#     4  10  22  37  61  90 121 161 203 248 307 358
#     4  10  22  38  63  90 118 164 205 241 307 360
#     4  10  21  41  62  86 123 159 200 254 300 356
#
# _framework density 24.846017
#
# number of rings (size 3 to 8) (size 9 to 14) (size 15 to 20)
#    0.000    2.286    0.000    1.714    0.000   16.000 
#    0.000   14.286    0.000    0.000    0.000    1.000 
#    0.000    0.000    0.000    0.000    0.000    0.000 
#
# Total GULP energy -78245.797695 kJ/mol
# GULP energy per Si atom -5588.985550 kJ/mol
# Density = 2.478947 g / cm^3
# Si number density = 24.846017 Si / 1000 Ang^3
#
#
#
# Elastic Constant Matrix: (Units=GPa)
#
#
# Indices 1 2 3 4 5 6 
#
# 1 101.1089 38.4263 2.8236 -9.8004 -14.1470 21.3590
# 2 38.4263 119.6957 15.7726 0.2843 -16.8813 -1.3631
# 3 2.8236 15.7726 64.0891 -9.8660 -5.3052 6.5456
# 4 -9.8004 0.2843 -9.8660 44.9942 4.6725 -10.2832
# 5 -14.1470 -16.8813 -5.3052 4.6725 35.3807 -1.0265
# 6 21.3590 -1.3631 6.5456 -10.2832 -1.0265 49.0616
#
#
#
# Elastic Compliance Matrix: (Units=1/GPa)
#
#
# Indices 1 2 3 4 5 6 
#
# 1 0.013182 -0.004048 0.001503 0.001604 0.003189 -0.005649
# 2 -0.004048 0.010476 -0.002562 -0.001348 0.003237 0.002181
# 3 0.001503 -0.002562 0.017041 0.003418 0.001417 -0.002253
# 4 0.001604 -0.001348 0.003418 0.024492 -0.002611 0.003887
# 5 0.003189 0.003237 0.001417 -0.002611 0.031601 -0.001373
# 6 -0.005649 0.002181 -0.002253 0.003887 -0.001373 0.023989
#
#
# Mechanical properties :
#
#
# Convention : Reuss Voigt Hill
#
# Bulk Modulus (GPa) = 32.80258 44.32652 38.56455
# Shear Modulus (GPa) = 35.42149 41.07871 38.25010
#
# Velocity S-wave (km/s) = 3.77986 4.07053 3.92789
# Velocity P-wave (km/s) = 5.68162 6.32230 6.01050
#
# Compressibility (1/GPa) = 0.03048540
#
# Stress axis : x y z
#
# Youngs Moduli (GPa) = 75.86165 95.45314 58.68117
#
# Poissons Ratio (x) = 0.38643 -0.08822
# Poissons Ratio (y) = 0.30711 0.15035
# Poissons Ratio (z) = -0.11405 0.24456
#
# Static dielectric constant tensor:
#      x y z
#    x 1.997410 -0.043690 0.018480 
#    y -0.043690 1.990080 -0.016110 
#    z 0.018480 -0.016110 1.956090 
# 
# From -- ./inp_files/200569.got.cif
#   From: 2010.05.17/outbox.cif.g08.bks.cpg/sg2_101_cif.got.tgz:200569.got - 2010.06.03 11:33:40.
