data_PCOD9007137
_publ_section_title
;
Structure prediction by ZEFSAII (Michael W. Deem and Ramdas Pophale) SiO2 
 PCOD9007137
Probable space group: P -1
;
_chemical_formula_sum "Si O2"
_cell_formula_units_Z 14
_cell_length_a 15.659542
_cell_length_b 7.055678
_cell_length_c 9.536961
_cell_angle_alpha 121.531006
_cell_angle_beta 55.299397
_cell_angle_gamma 137.788942
_cell_volume 572.168971
_symmetry_space_group_name_H-M "P -1"
_symmetry_group_IT_number 2
_symmetry_cell_setting 'triclinic'
loop_
_space_group_symop_operation_xyz
x,y,z
-x,-y,-z
loop_
_atom_site_type_symbol
_atom_site_label
_atom_site_fract_x
_atom_site_fract_y
_atom_site_fract_z
Si Si1 0.661543 0.856960 0.580368
Si Si2 0.690827 0.814537 0.997144
Si Si3 0.222764 0.314125 0.377721
Si Si4 0.343078 0.837158 0.056800
Si Si5 0.365221 0.412148 0.762213
Si Si6 0.030570 0.344502 0.708252
Si Si7 0.012779 0.795980 0.997799
O O1 0.695455 0.681354 0.569764
O O2 0.500865 0.673534 0.659687
O O3 0.705388 0.853748 0.381138
O O4 0.713891 0.130270 0.734107
O O5 0.696156 0.605994 0.810716
O O6 0.593403 0.650537 0.155372
O O7 0.666954 0.990199 0.987514
O O8 0.834303 0.026448 0.021278
O O9 0.156063 0.455944 0.535949
O O10 0.095486 0.975311 0.344257
O O11 0.287893 0.529290 0.930157
O O12 0.500000 0.000000 0.000000
O O13 0.986138 0.539009 0.833620
O O14 0.065632 0.317902 0.824836
O O15 0.000000 0.000000 0.000000
#
# Coordination Sequence:
#
# PCOD9007137 Si02
#       7
#     2   2   2   2   2   2   2
#     4   9  20  37  60  89 117 161 203 236 308 359
#     4  10  22  38  59  92 118 155 206 240 297 364
#     4   9  19  38  61  86 117 161 200 244 307 355
#     4   9  20  39  59  84 119 160 198 240 302 352
#     4  10  21  39  60  86 127 157 194 257 291 354
#     4   9  20  40  60  81 123 156 194 256 298 353
#     4  10  22  37  60  91 116 157 203 244 303 362
#
# _framework density 24.468297
#
# number of rings (size 3 to 8) (size 9 to 14) (size 15 to 20)
#    0.000    2.571    0.000    0.000    4.000    8.571 
#    2.571   12.857    0.000    0.000    0.000    0.000 
#    0.000    0.000    0.000    0.000    0.000    0.000 
#
# Total GULP energy -78203.546055 kJ/mol
# GULP energy per Si atom -5585.967575 kJ/mol
# Density = 2.441261 g / cm^3
# Si number density = 24.468297 Si / 1000 Ang^3
#
#
#
# Elastic Constant Matrix: (Units=GPa)
#
#
# Indices 1 2 3 4 5 6 
#
# 1 88.5043 26.9022 40.7849 5.9555 10.1267 -21.9408
# 2 26.9022 78.0170 57.1461 11.9992 3.7743 -30.8245
# 3 40.7849 57.1461 224.0385 5.2482 0.5558 -27.3404
# 4 5.9555 11.9992 5.2482 33.6339 -4.5612 -1.0342
# 5 10.1267 3.7743 0.5558 -4.5612 27.6012 0.1569
# 6 -21.9408 -30.8245 -27.3404 -1.0342 0.1569 41.0590
#
#
#
# Elastic Compliance Matrix: (Units=1/GPa)
#
#
# Indices 1 2 3 4 5 6 
#
# 1 0.014634 -0.000729 -0.001654 -0.002659 -0.005710 0.006126
# 2 -0.000729 0.022699 -0.003767 -0.007505 -0.004080 0.013970
# 3 -0.001654 -0.003767 0.005715 0.000905 0.001156 0.000112
# 4 -0.002659 -0.007505 0.000905 0.033592 0.007567 -0.005636
# 5 -0.005710 -0.004080 0.001156 0.007567 0.040141 -0.005308
# 6 0.006126 0.013970 0.000112 -0.005636 -0.005308 0.038070
#
#
# Mechanical properties :
#
#
# Convention : Reuss Voigt Hill
#
# Bulk Modulus (GPa) = 32.52110 71.13625 51.82867
# Shear Modulus (GPa) = 28.18501 38.17391 33.17946
#
# Velocity S-wave (km/s) = 3.39765 3.95414 3.68641
# Velocity P-wave (km/s) = 5.35835 7.06986 6.27275
#
# Compressibility (1/GPa) = 0.03074927
#
# Stress axis : x y z
#
# Youngs Moduli (GPa) = 68.33564 44.05411 174.97813
#
# Poissons Ratio (x) = 0.03211 0.28941
# Poissons Ratio (y) = 0.04981 0.65906
# Poissons Ratio (z) = 0.11303 0.16593
#
# Static dielectric constant tensor:
#      x y z
#    x 1.987410 0.060900 -0.015270 
#    y 0.060900 2.001730 -0.011900 
#    z -0.015270 -0.011900 2.020540 
# 
# From -- ./inp_files/324105.got.cif
#   From: 2010.05.17/outbox.cif.g08.bks.cpg/sg2_163_cif.got.tgz:324105.got - 2010.06.03 11:33:40.
