data_PCOD9007309
_publ_section_title
;
Structure prediction by ZEFSAII (Michael W. Deem and Ramdas Pophale) SiO2 
 PCOD9007309
Probable space group: P -1
;
_chemical_formula_sum "Si O2"
_cell_formula_units_Z 16
_cell_length_a 7.357363
_cell_length_b 9.609942
_cell_length_c 18.147410
_cell_angle_alpha 105.854668
_cell_angle_beta 64.746152
_cell_angle_gamma 55.610605
_cell_volume 694.141397
_symmetry_space_group_name_H-M "P -1"
_symmetry_group_IT_number 2
_symmetry_cell_setting 'triclinic'
loop_
_space_group_symop_operation_xyz
x,y,z
-x,-y,-z
loop_
_atom_site_type_symbol
_atom_site_label
_atom_site_fract_x
_atom_site_fract_y
_atom_site_fract_z
Si Si1 0.296285 0.561681 0.656600
Si Si2 0.508870 0.828232 0.997165
Si Si3 0.284591 0.139012 0.678308
Si Si4 0.101039 0.986895 0.898667
Si Si5 0.721268 0.168118 0.633741
Si Si6 0.730921 0.158421 0.399446
Si Si7 0.837833 0.395316 0.934302
Si Si8 0.206836 0.400356 0.242977
O O1 0.466419 0.432135 0.687221
O O2 0.531762 0.351720 0.525520
O O3 0.260679 0.742097 0.657771
O O4 0.964789 0.657092 0.724127
O O5 0.746154 0.617094 0.984808
O O6 0.646729 0.681164 0.876580
O O7 0.500000 0.000000 0.000000
O O8 0.150328 0.970855 0.096853
O O9 0.530903 0.124531 0.656993
O O10 0.055324 0.242042 0.802835
O O11 0.073719 0.321907 0.673150
O O12 0.432419 0.902707 0.597597
O O13 0.479193 0.752735 0.784089
O O14 0.022577 0.201887 0.936915
O O15 0.000000 0.000000 0.000000
O O16 0.000000 0.000000 0.500000
O O17 0.909909 0.078131 0.664917
O O18 0.500000 0.500000 0.000000
#
# Coordination Sequence:
#
# PCOD9007309 Si02
#       8
#     2   2   2   2   2   2   2   2
#     4   9  20  38  59  85 122 153 198 256 291 351
#     4   9  18  35  56  79 113 149 191 242 291 347
#     4  10  21  39  61  87 118 158 202 244 299 359
#     4   9  18  35  56  80 112 153 192 234 299 355
#     4   9  20  39  60  85 121 158 198 247 298 352
#     4  10  21  40  61  86 121 157 201 249 299 354
#     4   9  19  36  60  80 117 154 191 247 294 356
#     4   9  19  36  54  79 117 148 192 241 292 351
#
# _framework density 23.050058
#
# number of rings (size 3 to 8) (size 9 to 14) (size 15 to 20)
#    0.000    2.750    0.000    0.750    1.750    6.500 
#    9.000    8.125    0.000    0.000    0.000    0.000 
#    0.000    0.000    0.000    0.000    0.000    0.000 
#
# Total GULP energy -89217.323898 kJ/mol
# GULP energy per Si atom -5576.082744 kJ/mol
# Density = 2.299760 g / cm^3
# Si number density = 23.050058 Si / 1000 Ang^3
#
#
#
# Elastic Constant Matrix: (Units=GPa)
#
#
# Indices 1 2 3 4 5 6 
#
# 1 53.2912 36.5353 12.8648 3.2888 -17.3786 8.0816
# 2 36.5353 140.2343 10.4509 -3.8406 -2.5506 13.5733
# 3 12.8648 10.4509 50.9349 -15.6541 -17.9543 0.7381
# 4 3.2888 -3.8406 -15.6541 20.4890 7.7972 1.1954
# 5 -17.3786 -2.5506 -17.9543 7.7972 31.7902 -0.8798
# 6 8.0816 13.5733 0.7381 1.1954 -0.8798 31.4608
#
#
#
# Elastic Compliance Matrix: (Units=1/GPa)
#
#
# Indices 1 2 3 4 5 6 
#
# 1 0.033528 -0.008101 -0.005716 -0.018207 0.018812 -0.003765
# 2 -0.008101 0.009524 -0.000086 0.005068 -0.005022 -0.002359
# 3 -0.005716 -0.000086 0.030720 0.020895 0.009100 0.000245
# 4 -0.018207 0.005068 0.020895 0.074862 -0.016143 -0.001296
# 5 0.018812 -0.005022 0.009100 -0.016143 0.050412 -0.000856
# 6 -0.003765 -0.002359 0.000245 -0.001296 -0.000856 0.033790
#
#
# Mechanical properties :
#
#
# Convention : Reuss Voigt Hill
#
# Bulk Modulus (GPa) = 21.75548 40.46248 31.10898
# Shear Modulus (GPa) = 18.11821 29.05529 23.58675
#
# Velocity S-wave (km/s) = 2.80668 3.55425 3.20235
# Velocity P-wave (km/s) = 4.46790 5.86821 5.21526
#
# Compressibility (1/GPa) = 0.04596542
#
# Stress axis : x y z
#
# Youngs Moduli (GPa) = 29.82587 105.00097 32.55173
#
# Poissons Ratio (x) = 0.85062 0.18607
# Poissons Ratio (y) = 0.24162 0.00281
# Poissons Ratio (z) = 0.17048 0.00905
#
# Static dielectric constant tensor:
#      x y z
#    x 1.906420 -0.056140 0.007280 
#    y -0.056140 1.967770 0.055140 
#    z 0.007280 0.055140 1.895030 
# 
# From -- ./inp_files/326625.got.cif
#   From: 2010.05.17/outbox.cif.g08.bks.cpg/sg2_164_cif.got.tgz:326625.got - 2010.06.03 11:33:40.
