data_PCOD9007474
_publ_section_title
;
Structure prediction by ZEFSAII (Michael W. Deem and Ramdas Pophale) SiO2 
 PCOD9007474
Probable space group: P -1
;
_chemical_formula_sum "Si O2"
_cell_formula_units_Z 16
_cell_length_a 9.705610
_cell_length_b 9.307135
_cell_length_c 24.290814
_cell_angle_alpha 37.127051
_cell_angle_beta 46.971438
_cell_angle_gamma 75.497221
_cell_volume 722.661866
_symmetry_space_group_name_H-M "P -1"
_symmetry_group_IT_number 2
_symmetry_cell_setting 'triclinic'
loop_
_space_group_symop_operation_xyz
x,y,z
-x,-y,-z
loop_
_atom_site_type_symbol
_atom_site_label
_atom_site_fract_x
_atom_site_fract_y
_atom_site_fract_z
Si Si1 0.253323 0.346093 0.652512
Si Si2 0.978400 0.327560 0.370838
Si Si3 0.263501 0.851435 0.330012
Si Si4 0.027021 0.145542 0.295706
Si Si5 0.001787 0.288686 0.139113
Si Si6 0.588447 0.564300 0.727228
Si Si7 0.392176 0.735142 0.805273
Si Si8 0.494111 0.411231 0.681312
O O1 0.500000 0.500000 0.500000
O O2 0.154309 0.530780 0.629476
O O3 0.317346 0.311029 0.707825
O O4 0.044342 0.012061 0.781063
O O5 0.061129 0.331682 0.284256
O O6 0.220870 0.490365 0.294542
O O7 0.774824 0.948438 0.553515
O O8 0.448709 0.821436 0.260147
O O9 0.000000 0.500000 0.500000
O O10 0.348662 0.931316 0.346082
O O11 0.227270 0.097308 0.250568
O O12 0.039427 0.307665 0.187632
O O13 0.752782 0.780962 0.485960
O O14 0.751505 0.227348 0.211268
O O15 0.223684 0.585220 0.951775
O O16 0.425503 0.501016 0.843434
O O17 0.427927 0.419126 0.759649
#
# Coordination Sequence:
#
# PCOD9007474 Si02
#       8
#     2   2   2   2   2   2   2   2
#     4  12  23  39  62  95 127 161 214 270 309 369
#     4  10  23  37  64  94 125 160 212 268 319 369
#     4  10  21  39  66  92 123 159 214 262 313 374
#     4  10  21  39  61  96 122 162 213 262 315 372
#     4  11  25  40  65  93 128 174 211 260 316 383
#     4  10  22  40  61  91 130 167 205 262 321 376
#     4  11  23  45  63  88 133 173 210 255 325 380
#     4  10  22  35  63  95 121 160 208 264 321 360
#
# _framework density 22.140366
#
# number of rings (size 3 to 8) (size 9 to 14) (size 15 to 20)
#    0.000    1.500    3.750    0.750    5.250    1.500 
#    0.000    2.500    0.000    0.000    0.000    0.000 
#    0.000    0.000    0.000    0.000    0.000    0.000 
#
# Total GULP energy -89306.854706 kJ/mol
# GULP energy per Si atom -5581.678419 kJ/mol
# Density = 2.208997 g / cm^3
# Si number density = 22.140366 Si / 1000 Ang^3
#
#
#
# Elastic Constant Matrix: (Units=GPa)
#
#
# Indices 1 2 3 4 5 6 
#
# 1 125.3018 46.8686 22.2459 10.4411 4.2016 1.3573
# 2 46.8686 112.1461 17.5727 -0.4231 -0.7015 -0.4025
# 3 22.2459 17.5727 16.7352 2.8653 3.1125 2.0997
# 4 10.4411 -0.4231 2.8653 17.1372 1.1684 2.7723
# 5 4.2016 -0.7015 3.1125 1.1684 13.3184 -1.0165
# 6 1.3573 -0.4025 2.0997 2.7723 -1.0165 53.9985
#
#
#
# Elastic Compliance Matrix: (Units=1/GPa)
#
#
# Indices 1 2 3 4 5 6 
#
# 1 0.011585 -0.003121 -0.011130 -0.005286 -0.000726 0.000376
# 2 -0.003121 0.011745 -0.009492 0.003468 0.003550 0.000424
# 3 -0.011130 -0.009492 0.089325 -0.006667 -0.017527 -0.003252
# 4 -0.005286 0.003468 -0.006667 0.063402 -0.002374 -0.002882
# 5 -0.000726 0.003550 -0.017527 -0.002374 0.079984 0.002354
# 6 0.000376 0.000424 -0.003252 -0.002882 0.002354 0.018831
#
#
# Mechanical properties :
#
#
# Convention : Reuss Voigt Hill
#
# Bulk Modulus (GPa) = 15.34436 47.50640 31.42538
# Shear Modulus (GPa) = 14.53152 28.05722 21.29437
#
# Velocity S-wave (km/s) = 2.56468 3.56370 3.10464
# Velocity P-wave (km/s) = 3.96430 6.19974 5.20348
#
# Compressibility (1/GPa) = 0.06517052
#
# Stress axis : x y z
#
# Youngs Moduli (GPa) = 86.32103 85.14064 11.19507
#
# Poissons Ratio (x) = 0.26570 0.12460
# Poissons Ratio (y) = 0.26938 0.10626
# Poissons Ratio (z) = 0.96073 0.80814
#
# Static dielectric constant tensor:
#      x y z
#    x 1.955490 0.056240 -0.080620 
#    y 0.056240 1.862150 0.000270 
#    z -0.080620 0.000270 1.913540 
# 
# From -- ./inp_files/242890.got.cif
#   From: 2010.05.17/outbox.cif.g08.bks.cpg/sg2_122_cif.got.tgz:242890.got - 2010.06.03 11:33:40.
