data_PCOD9007334
_publ_section_title
;
Structure prediction by ZEFSAII (Michael W. Deem and Ramdas Pophale) SiO2 
 PCOD9007334
Probable space group: P -1
;
_chemical_formula_sum "Si O2"
_cell_formula_units_Z 14
_cell_length_a 26.994666
_cell_length_b 14.665936
_cell_length_c 14.665932
_cell_angle_alpha 20.441243
_cell_angle_beta 158.699374
_cell_angle_gamma 158.699353
_cell_volume 653.136676
_symmetry_space_group_name_H-M "P -1"
_symmetry_group_IT_number 2
_symmetry_cell_setting 'triclinic'
loop_
_space_group_symop_operation_xyz
x,y,z
-x,-y,-z
loop_
_atom_site_type_symbol
_atom_site_label
_atom_site_fract_x
_atom_site_fract_y
_atom_site_fract_z
Si Si1 0.819876 0.714966 0.214970
Si Si2 0.046206 0.616613 0.116610
Si Si3 0.466694 0.387620 0.887627
Si Si4 0.745160 0.290665 0.790659
Si Si5 0.308054 0.064475 0.564473
Si Si6 0.569246 0.372659 0.872660
Si Si7 0.017383 0.233408 0.733408
O O1 0.902139 0.559086 0.558895
O O2 0.846303 0.682799 0.182799
O O3 0.635565 0.561250 0.061257
O O4 0.902137 0.058890 0.059090
O O5 0.148416 0.660496 0.160500
O O6 0.867290 0.441817 0.941810
O O7 0.364227 0.557535 0.555830
O O8 0.506017 0.368001 0.868005
O O9 0.364227 0.055823 0.057542
O O10 0.426451 0.210961 0.710959
O O11 0.337033 0.305720 0.311014
O O12 0.138418 0.934613 0.434613
O O13 0.337033 0.811016 0.805719
O O14 0.000000 0.500000 0.500000
O O15 0.000000 0.000000 0.000000
#
# Coordination Sequence:
#
# PCOD9007334 Si02
#       7
#     2   2   2   2   2   2   2
#     4  12  26  43  72 101 137 175 228 277 329 407
#     4  11  26  48  67 102 133 175 228 273 341 406
#     4  12  24  42  69 102 130 179 217 284 333 398
#     4  11  26  45  72  95 138 176 218 286 336 401
#     4  10  21  39  61  88 123 177 208 270 310 383
#     4  10  22  39  62  91 129 159 224 262 321 380
#     4  12  25  42  65  93 137 177 216 264 331 384
#
# _framework density 21.435023000000001
#
# number of rings (size 3 to 8) (size 9 to 14) (size 15 to 20)
#    0.000    0.857    0.000    6.857    4.000    5.714 
#    0.000    0.000    0.000    0.000    0.000    0.000 
#    0.000    0.000    0.000    0.000    0.000    0.000 
#
# Total GULP energy -78311.143177 kJ/mol
# GULP energy per Si atom -5593.653084 kJ/mol
# Density = 2.138624 g / cm^3
# Si number density = 21.435023 Si / 1000 Ang^3
#
#
#
# Elastic Constant Matrix: (Units=GPa)
#
#
# Indices 1 2 3 4 5 6 
#
# 1 70.6813 20.3750 26.6191 -5.6319 -0.3217 -0.5451
# 2 20.3750 350.7858 -110.1875 -110.0700 79.5828 -39.1869
# 3 26.6191 -110.1875 375.2788 87.9837 -76.5053 44.4154
# 4 -5.6319 -110.0700 87.9837 112.6271 -38.8946 30.4875
# 5 -0.3217 79.5828 -76.5053 -38.8946 66.9072 -16.6536
# 6 -0.5451 -39.1869 44.4154 30.4875 -16.6536 48.4617
#
#
#
# Elastic Compliance Matrix: (Units=1/GPa)
#
#
# Indices 1 2 3 4 5 6 
#
# 1 0.015150 -0.001101 -0.001615 0.000929 0.000130 0.000221
# 2 -0.001101 0.004850 -0.000129 0.003281 -0.003854 0.000638
# 3 -0.001615 -0.000129 0.004019 -0.001781 0.003321 -0.001544
# 4 0.000929 0.003281 -0.001781 0.015463 0.001861 -0.004792
# 5 0.000130 -0.003854 0.003321 0.001861 0.024699 0.001158
# 6 0.000221 0.000638 -0.001544 -0.004792 0.001158 0.025981
#
#
# Mechanical properties :
#
#
# Convention : Reuss Voigt Hill
#
# Bulk Modulus (GPa) = 54.55739 74.48435 64.52087
# Shear Modulus (GPa) = 49.03884 102.92850 75.98367
#
# Velocity S-wave (km/s) = 4.78827 6.93708 5.96031
# Velocity P-wave (km/s) = 7.48851 9.94929 8.80529
#
# Compressibility (1/GPa) = 0.01832932
#
# Stress axis : x y z
#
# Youngs Moduli (GPa) = 66.00709 206.20420 248.83171
#
# Poissons Ratio (x) = 0.22698 0.40190
# Poissons Ratio (y) = 0.07266 0.03199
# Poissons Ratio (z) = 0.10661 0.02651
#
# Static dielectric constant tensor:
#      x y z
#    x 1.740500 -0.009680 -0.005700 
#    y -0.009680 1.799800 0.047500 
#    z -0.005700 0.047500 1.747200 
# 
# From -- ./inp_files/544227.got.cif
#   From: 2010.05.17/outbox.cif.g08.bks.cpg/sg2_273_cif.got.tgz:544227.got - 2010.06.03 11:33:40.
