data_PCOD9007532
_publ_section_title
;
Structure prediction by ZEFSAII (Michael W. Deem and Ramdas Pophale) SiO2 
 PCOD9007532
Probable space group: P -1
;
_chemical_formula_sum "Si O2"
_cell_formula_units_Z 12
_cell_length_a 9.528719
_cell_length_b 10.216132
_cell_length_c 11.772490
_cell_angle_alpha 139.909055
_cell_angle_beta 54.740313
_cell_angle_gamma 135.821146
_cell_volume 513.289241
_symmetry_space_group_name_H-M "P -1"
_symmetry_group_IT_number 2
_symmetry_cell_setting 'triclinic'
loop_
_space_group_symop_operation_xyz
x,y,z
-x,-y,-z
loop_
_atom_site_type_symbol
_atom_site_label
_atom_site_fract_x
_atom_site_fract_y
_atom_site_fract_z
Si Si1 0.408680 0.581126 0.264943
Si Si2 0.986126 0.656472 0.253052
Si Si3 0.404238 0.732100 0.116289
Si Si4 0.320301 0.888868 0.920755
Si Si5 0.948414 0.898214 0.829151
Si Si6 0.811821 0.927269 0.382625
O O1 0.381427 0.686571 0.231116
O O2 0.193258 0.386663 0.287615
O O3 0.570062 0.781356 0.406119
O O4 0.515164 0.432414 0.080260
O O5 0.816147 0.394138 0.198035
O O6 0.894199 0.761608 0.278339
O O7 0.183337 0.997243 0.087008
O O8 0.071756 0.839522 0.440073
O O9 0.571784 0.996913 0.173669
O O10 0.186311 0.661193 0.121384
O O11 0.500000 0.000000 0.000000
O O12 0.135340 0.999414 0.724953
O O13 0.000000 0.000000 0.000000
#
# Coordination Sequence:
#
# PCOD9007532 Si02
#       6
#     2   2   2   2   2   2
#     4  10  21  39  62  87 116 154 200 246 293 348
#     4  11  24  40  59  88 125 159 194 242 300 357
#     4  10  21  39  62  87 117 153 200 247 292 349
#     4  11  22  37  62  90 115 154 204 248 291 346
#     4  11  22  39  64  89 116 155 202 248 291 345
#     4  11  24  40  59  87 124 161 195 241 300 355
#
# _framework density 23.378630000000001
#
# number of rings (size 3 to 8) (size 9 to 14) (size 15 to 20)
#    0.000    1.333    0.000    8.000    0.000    4.000 
#    0.000   10.000    0.000    0.000    0.000    0.000 
#    0.000    0.000    0.000    0.000    0.000    0.000 
#
# Total GULP energy -67193.366764 kJ/mol
# GULP energy per Si atom -5599.447230 kJ/mol
# Density = 2.332542 g / cm^3
# Si number density = 23.378630 Si / 1000 Ang^3
#
#
#
# Elastic Constant Matrix: (Units=GPa)
#
#
# Indices 1 2 3 4 5 6 
#
# 1 72.5631 20.1153 -0.3832 14.7349 6.6852 1.3890
# 2 20.1153 187.1126 54.9723 44.6066 9.2390 2.1613
# 3 -0.3832 54.9723 70.3145 21.2659 14.8695 1.6238
# 4 14.7349 44.6066 21.2659 40.8674 6.1953 11.5544
# 5 6.6852 9.2390 14.8695 6.1953 36.3702 5.9433
# 6 1.3890 2.1613 1.6238 11.5544 5.9433 31.2352
#
#
#
# Elastic Compliance Matrix: (Units=1/GPa)
#
#
# Indices 1 2 3 4 5 6 
#
# 1 0.015660 -0.001032 0.003495 -0.006463 -0.003306 0.002213
# 2 -0.001032 0.008481 -0.004683 -0.007196 0.000815 0.002210
# 3 0.003495 -0.004683 0.021583 -0.007113 -0.007575 0.003119
# 4 -0.006463 -0.007196 -0.007113 0.042349 0.001116 -0.014723
# 5 -0.003306 0.000815 -0.007575 0.001116 0.031779 -0.005975
# 6 0.002213 0.002210 0.003119 -0.014723 -0.005975 0.038185
#
#
# Mechanical properties :
#
#
# Convention : Reuss Voigt Hill
#
# Bulk Modulus (GPa) = 24.22215 53.26654 38.74435
# Shear Modulus (GPa) = 28.37058 38.71362 33.54210
#
# Velocity S-wave (km/s) = 3.48735 4.07374 3.79190
# Velocity P-wave (km/s) = 5.15740 6.70529 5.98162
#
# Compressibility (1/GPa) = 0.04128452
#
# Stress axis : x y z
#
# Youngs Moduli (GPa) = 63.85591 117.91215 46.33242
#
# Poissons Ratio (x) = 0.12166 -0.16192
# Poissons Ratio (y) = 0.06588 0.21697
# Poissons Ratio (z) = -0.22316 0.55217
#
# Static dielectric constant tensor:
#      x y z
#    x 1.847480 -0.005360 -0.037750 
#    y -0.005360 1.864590 -0.002840 
#    z -0.037750 -0.002840 1.880030 
# 
# From -- ./inp_files/415631.got.cif
#   From: 2010.05.17/outbox.cif.g08.bks.cpg/sg2_208_cif.got.tgz:415631.got - 2010.06.03 11:33:40.
