data_PCOD9007995
_publ_section_title
;
Structure prediction by ZEFSAII (Michael W. Deem and Ramdas Pophale) SiO2 
 PCOD9007995
Probable space group: P -1
;
_chemical_formula_sum "Si O2"
_cell_formula_units_Z 14
_cell_length_a 10.415736
_cell_length_b 7.616162
_cell_length_c 11.640308
_cell_angle_alpha 142.614506
_cell_angle_beta 99.538923
_cell_angle_gamma 89.590831
_cell_volume 540.823642
_symmetry_space_group_name_H-M "P -1"
_symmetry_group_IT_number 2
_symmetry_cell_setting 'triclinic'
loop_
_space_group_symop_operation_xyz
x,y,z
-x,-y,-z
loop_
_atom_site_type_symbol
_atom_site_label
_atom_site_fract_x
_atom_site_fract_y
_atom_site_fract_z
Si Si1 0.911894 0.637897 0.423732
Si Si2 0.974281 0.697721 0.912311
Si Si3 0.540612 0.801577 0.802648
Si Si4 0.858938 0.042139 0.231199
Si Si5 0.483985 0.125788 0.426947
Si Si6 0.703139 0.785346 0.295902
Si Si7 0.737016 0.188157 0.903293
O O1 0.834694 0.324834 0.303052
O O2 0.812104 0.775655 0.404658
O O3 0.989101 0.839774 0.639681
O O4 0.024646 0.556912 0.312609
O O5 0.106906 0.690359 0.002334
O O6 0.857206 0.745915 0.003273
O O7 0.000000 0.000000 0.000000
O O8 0.505927 0.458227 0.647655
O O9 0.476617 0.834300 0.684719
O O10 0.694913 0.926027 0.855131
O O11 0.500000 0.000000 0.000000
O O12 0.771489 0.960150 0.286636
O O13 0.417510 0.067085 0.608665
O O14 0.332337 0.948731 0.294213
O O15 0.664373 0.446748 0.069926
#
# Coordination Sequence:
#
# PCOD9007995 Si02
#       7
#     2   2   2   2   2   2   2
#     4   9  21  39  58  93 130 170 218 266 310 384
#     4   9  19  37  60  88 127 165 214 262 307 377
#     4   9  20  41  65  91 121 170 221 259 320 396
#     4  10  21  39  63  93 126 181 213 257 329 376
#     4   9  21  40  62  91 127 170 207 267 332 372
#     4  11  21  39  69  94 136 168 212 272 323 386
#     4   9  20  39  60  90 131 168 205 272 320 371
#
# _framework density 25.886441000000001
#
# number of rings (size 3 to 8) (size 9 to 14) (size 15 to 20)
#    0.857    1.714    0.000    0.857    0.000    9.143 
#    5.143    3.571    0.000    0.000    0.000    0.000 
#    0.000    0.000    0.000    0.000    0.000    0.000 
#
# Total GULP energy -78279.332395 kJ/mol
# GULP energy per Si atom -5591.380885 kJ/mol
# Density = 2.582752 g / cm^3
# Si number density = 25.886441 Si / 1000 Ang^3
#
#
#
# Elastic Constant Matrix: (Units=GPa)
#
#
# Indices 1 2 3 4 5 6 
#
# 1 53.4894 29.2976 22.4363 -3.2960 -15.7419 -16.8331
# 2 29.2976 110.6394 13.9408 1.3558 2.7622 -10.5064
# 3 22.4363 13.9408 148.0667 7.5953 -21.0771 -9.1758
# 4 -3.2960 1.3558 7.5953 34.6518 3.5586 -2.7657
# 5 -15.7419 2.7622 -21.0771 3.5586 34.4317 0.4627
# 6 -16.8331 -10.5064 -9.1758 -2.7657 0.4627 33.1423
#
#
#
# Elastic Compliance Matrix: (Units=1/GPa)
#
#
# Indices 1 2 3 4 5 6 
#
# 1 0.031836 -0.007339 -0.001517 0.003320 0.013690 0.013509
# 2 -0.007339 0.011142 -0.000575 -0.000569 -0.004538 -0.000338
# 3 -0.001517 -0.000575 0.007832 -0.002209 0.004362 0.000970
# 4 0.003320 -0.000569 -0.002209 0.030261 -0.002963 0.003461
# 5 0.013690 -0.004538 0.004362 -0.002963 0.038563 0.005937
# 6 0.013509 -0.000338 0.000970 0.003461 0.005937 0.037402
#
#
# Mechanical properties :
#
#
# Convention : Reuss Voigt Hill
#
# Bulk Modulus (GPa) = 31.30008 49.28277 40.29143
# Shear Modulus (GPa) = 26.80274 36.87988 31.84131
#
# Velocity S-wave (km/s) = 3.22125 3.77859 3.51099
# Velocity P-wave (km/s) = 5.09439 6.17384 5.65991
#
# Compressibility (1/GPa) = 0.03194880
#
# Stress axis : x y z
#
# Youngs Moduli (GPa) = 31.41050 89.74855 127.67917
#
# Poissons Ratio (x) = 0.65865 0.19375
# Poissons Ratio (y) = 0.23052 0.07338
# Poissons Ratio (z) = 0.04767 0.05158
#
# Static dielectric constant tensor:
#      x y z
#    x 2.030930 0.041310 -0.019680 
#    y 0.041310 2.095620 -0.081520 
#    z -0.019680 -0.081520 2.066550 
# 
# From -- ./inp_files/285383.got.cif
#   From: 2010.05.17/outbox.cif.g08.bks.cpg/sg2_143_cif.got.tgz:285383.got - 2010.06.03 11:33:40.
