data_PCOD9007803
_publ_section_title
;
Structure prediction by ZEFSAII (Michael W. Deem and Ramdas Pophale) SiO2 
 PCOD9007803
Probable space group: P -1
;
_chemical_formula_sum "Si O2"
_cell_formula_units_Z 14
_cell_length_a 10.816958
_cell_length_b 5.755000
_cell_length_c 11.621229
_cell_angle_alpha 61.424258
_cell_angle_beta 70.171821
_cell_angle_gamma 55.276397
_cell_volume 519.934011
_symmetry_space_group_name_H-M "P -1"
_symmetry_group_IT_number 2
_symmetry_cell_setting 'triclinic'
loop_
_space_group_symop_operation_xyz
x,y,z
-x,-y,-z
loop_
_atom_site_type_symbol
_atom_site_label
_atom_site_fract_x
_atom_site_fract_y
_atom_site_fract_z
Si Si1 0.434438 0.354313 0.467760
Si Si2 0.882085 0.877824 0.561246
Si Si3 0.922730 0.849726 0.303329
Si Si4 0.660233 0.687079 0.038888
Si Si5 0.304575 0.227927 0.739189
Si Si6 0.182937 0.997703 0.192909
Si Si7 0.463589 0.421893 0.180918
O O1 0.500000 0.500000 0.500000
O O2 0.293462 0.406413 0.582154
O O3 0.460957 0.458775 0.311095
O O4 0.500000 0.000000 0.500000
O O5 0.826642 0.942662 0.431335
O O6 0.957221 0.512531 0.637106
O O7 0.788001 0.019368 0.673589
O O8 0.000000 0.000000 0.500000
O O9 0.817453 0.879463 0.222828
O O10 0.020295 0.021050 0.224480
O O11 0.716699 0.614086 0.169684
O O12 0.594977 0.470088 0.073167
O O13 0.500000 0.000000 0.000000
O O14 0.784042 0.737489 0.921919
O O15 0.474022 0.935611 0.768882
O O16 0.294918 0.699437 0.152786
#
# Coordination Sequence:
#
# PCOD9007803 Si02
#       7
#     2   2   2   2   2   2   2
#     4  10  21  39  63 100 136 175 220 289 354 406
#     4   9  21  41  62  91 131 173 212 269 330 414
#     4  10  23  42  64  97 131 168 219 274 345 399
#     4  10  23  43  63  92 132 177 223 273 335 410
#     4  11  24  41  65  99 135 170 221 287 337 411
#     4  10  23  41  67  93 128 180 221 268 340 410
#     4  10  23  41  65  97 129 173 224 282 338 400
#
# _framework density 26.926494000000002
#
# number of rings (size 3 to 8) (size 9 to 14) (size 15 to 20)
#    0.000    2.000    1.429    0.000    6.000   10.857 
#    0.000    1.429    0.000    0.000    0.000    0.000 
#    0.000    0.000    0.000    0.000    0.000    0.000 
#
# Total GULP energy -78072.979060 kJ/mol
# GULP energy per Si atom -5576.641361 kJ/mol
# Density = 2.686521 g / cm^3
# Si number density = 26.926494 Si / 1000 Ang^3
#
#
#
# Elastic Constant Matrix: (Units=GPa)
#
#
# Indices 1 2 3 4 5 6 
#
# 1 134.9018 27.5009 49.4164 8.1866 -9.0289 28.4220
# 2 27.5009 99.3078 20.4530 15.6909 -9.0508 -5.1967
# 3 49.4164 20.4530 153.5791 21.4263 -24.1391 13.6521
# 4 8.1866 15.6909 21.4263 46.5223 18.0947 2.1561
# 5 -9.0289 -9.0508 -24.1391 18.0947 46.5551 -0.0140
# 6 28.4220 -5.1967 13.6521 2.1561 -0.0140 40.3034
#
#
#
# Elastic Compliance Matrix: (Units=1/GPa)
#
#
# Indices 1 2 3 4 5 6 
#
# 1 0.010264 -0.002796 -0.002409 0.000572 -0.000026 -0.006813
# 2 -0.002796 0.012233 0.000390 -0.005630 0.004228 0.003719
# 3 -0.002409 0.000390 0.009384 -0.006739 0.007094 -0.001067
# 4 0.000572 -0.005630 -0.006739 0.033185 -0.017376 -0.000628
# 5 -0.000026 0.004228 0.007094 -0.017376 0.032728 -0.000898
# 6 -0.006813 0.003719 -0.001067 -0.000628 -0.000898 0.030491
#
#
# Mechanical properties :
#
#
# Convention : Reuss Voigt Hill
#
# Bulk Modulus (GPa) = 44.93840 64.72549 54.83195
# Shear Modulus (GPa) = 34.40404 46.03738 40.22071
#
# Velocity S-wave (km/s) = 3.57837 4.13939 3.86906
# Velocity P-wave (km/s) = 5.81365 6.85099 6.35353
#
# Compressibility (1/GPa) = 0.02225268
#
# Stress axis : x y z
#
# Youngs Moduli (GPa) = 97.42767 81.74520 106.55989
#
# Poissons Ratio (x) = 0.22853 0.25665
# Poissons Ratio (y) = 0.27237 -0.04152
# Poissons Ratio (z) = 0.23466 -0.03185
#
# Static dielectric constant tensor:
#      x y z
#    x 2.148220 -0.067770 0.051130 
#    y -0.067770 2.282080 -0.100870 
#    z 0.051130 -0.100870 2.194700 
# 
# From -- ./inp_files/409979.got.cif
#   From: 2010.05.17/outbox.cif.g08.bks.cpg/sg2_205_cif.got.tgz:409979.got - 2010.06.03 11:33:40.
