data_PCOD9007647
_publ_section_title
;
Structure prediction by ZEFSAII (Michael W. Deem and Ramdas Pophale) SiO2 
 PCOD9007647
Probable space group: P -1
;
_chemical_formula_sum "Si O2"
_cell_formula_units_Z 15
_cell_length_a 14.649483
_cell_length_b 8.267176
_cell_length_c 10.837005
_cell_angle_alpha 77.673946
_cell_angle_beta 94.616896
_cell_angle_gamma 148.280516
_cell_volume 660.951419
_symmetry_space_group_name_H-M "P -1"
_symmetry_group_IT_number 2
_symmetry_cell_setting 'triclinic'
loop_
_space_group_symop_operation_xyz
x,y,z
-x,-y,-z
loop_
_atom_site_type_symbol
_atom_site_label
_atom_site_fract_x
_atom_site_fract_y
_atom_site_fract_z
Si Si1 0.359122 0.157090 0.487527
Si Si2 0.344928 0.395388 0.244610
Si Si3 0.083488 0.221761 0.356252
Si Si4 0.222566 0.387773 0.754148
Si Si5 0.000179 0.552436 0.635810
Si Si6 0.642327 0.721912 0.091297
Si Si7 0.059933 0.839147 0.121746
Si Si8 0.500000 0.000000 0.500000
O O1 0.500000 0.500000 0.500000
O O2 0.307245 0.167426 0.352410
O O3 0.427517 0.079012 0.489010
O O4 0.201949 0.921717 0.606833
O O5 0.273075 0.433598 0.312724
O O6 0.548110 0.705901 0.175466
O O7 0.212185 0.185267 0.148382
O O8 0.113287 0.459571 0.350343
O O9 0.000000 0.000000 0.500000
O O10 0.936845 0.954361 0.279799
O O11 0.347782 0.441996 0.817164
O O12 0.331642 0.672543 0.626043
O O13 0.120686 0.336067 0.857968
O O14 0.965678 0.358425 0.761856
O O15 0.000000 0.500000 0.500000
O O16 0.500000 0.500000 0.000000
O O17 0.841441 0.061280 0.009135
#
# Coordination Sequence:
#
# PCOD9007647 Si02
#       8
#     2   2   2   2   2   2   2   1
#     4  12  24  38  61  99 140 172 213 286 354 402
#     4  10  21  39  62  90 131 173 219 270 335 401
#     4  11  23  38  65  98 134 176 214 276 354 406
#     4  11  22  41  66  98 133 172 223 278 335 413
#     4  12  22  39  65  96 131 172 226 277 340 418
#     4  10  22  41  65  93 130 178 229 272 331 400
#     4  10  21  40  64  94 122 175 227 272 324 407
#     4  12  24  36  66 102 132 166 220 276 352 404
#
# _framework density 22.694557
#
# number of rings (size 3 to 8) (size 9 to 14) (size 15 to 20)
#    0.000    1.067    5.333    2.000    0.000    0.000 
#    0.000    1.333    0.000    0.000    0.000    0.000 
#    0.000    0.000    0.000    0.000    0.000    0.000 
#
# Total GULP energy -83514.917911 kJ/mol
# GULP energy per Si atom -5567.661194 kJ/mol
# Density = 2.264290 g / cm^3
# Si number density = 22.694557 Si / 1000 Ang^3
#
#
#
# Elastic Constant Matrix: (Units=GPa)
#
#
# Indices 1 2 3 4 5 6 
#
# 1 228.1373 18.2943 49.6236 -13.7727 -23.7904 13.3189
# 2 18.2943 54.3860 26.6614 -10.9479 1.3918 7.5652
# 3 49.6236 26.6614 88.4487 -24.3054 -14.5600 11.2355
# 4 -13.7727 -10.9479 -24.3054 34.0482 21.5503 -2.2297
# 5 -23.7904 1.3918 -14.5600 21.5503 48.3130 -15.8353
# 6 13.3189 7.5652 11.2355 -2.2297 -15.8353 27.5561
#
#
#
# Elastic Compliance Matrix: (Units=1/GPa)
#
#
# Indices 1 2 3 4 5 6 
#
# 1 0.005203 -0.000857 -0.002742 -0.001770 0.002615 0.000198
# 2 -0.000857 0.024519 -0.004628 0.009984 -0.010058 -0.009403
# 3 -0.002742 -0.004628 0.017559 0.011276 -0.002651 -0.005175
# 4 -0.001770 0.009984 0.011276 0.057360 -0.029508 -0.018799
# 5 0.002615 -0.010058 -0.002651 -0.029508 0.042755 0.024760
# 6 0.000198 -0.009403 -0.005175 -0.018799 0.024760 0.053593
#
#
# Mechanical properties :
#
#
# Convention : Reuss Voigt Hill
#
# Bulk Modulus (GPa) = 32.43838 62.23675 47.33756
# Shear Modulus (GPa) = 21.95707 40.40964 31.18336
#
# Velocity S-wave (km/s) = 3.11385 4.22428 3.71083
# Velocity P-wave (km/s) = 5.22040 7.16072 6.26612
#
# Compressibility (1/GPa) = 0.03082768
#
# Stress axis : x y z
#
# Youngs Moduli (GPa) = 192.20900 40.78445 56.95114
#
# Poissons Ratio (x) = 0.03494 0.15615
# Poissons Ratio (y) = 0.16467 0.26357
# Poissons Ratio (z) = 0.52701 0.18875
#
# Static dielectric constant tensor:
#      x y z
#    x 1.898860 -0.024890 -0.087840 
#    y -0.024890 2.107200 0.132250 
#    z -0.087840 0.132250 1.944060 
# 
# From -- ./inp_files/325860.got.cif
#   From: 2010.05.17/outbox.cif.g08.bks.cpg/sg2_163_cif.got.tgz:325860.got - 2010.06.03 11:33:40.
