data_PCOD9007267
_publ_section_title
;
Structure prediction by ZEFSAII (Michael W. Deem and Ramdas Pophale) SiO2 
 PCOD9007267
Probable space group: P -1
;
_chemical_formula_sum "Si O2"
_cell_formula_units_Z 16
_cell_length_a 19.034111
_cell_length_b 10.897370
_cell_length_c 10.157706
_cell_angle_alpha 124.456668
_cell_angle_beta 144.122204
_cell_angle_gamma 36.416896
_cell_volume 710.151824
_symmetry_space_group_name_H-M "P -1"
_symmetry_group_IT_number 2
_symmetry_cell_setting 'triclinic'
loop_
_space_group_symop_operation_xyz
x,y,z
-x,-y,-z
loop_
_atom_site_type_symbol
_atom_site_label
_atom_site_fract_x
_atom_site_fract_y
_atom_site_fract_z
Si Si1 0.902114 0.530139 0.000083
Si Si2 0.306671 0.490559 0.898351
Si Si3 0.556174 0.014496 0.735634
Si Si4 0.798109 0.723132 0.488300
Si Si5 0.184673 0.823512 0.116647
Si Si6 0.378282 0.736700 0.131472
Si Si7 0.361182 0.479598 0.367036
Si Si8 0.558101 0.109859 0.216828
O O1 0.040073 0.403108 0.249314
O O2 0.735803 0.786055 0.918379
O O3 0.813012 0.448312 0.809311
O O4 0.000000 0.500000 0.000000
O O5 0.208719 0.647914 0.969125
O O6 0.331992 0.617229 0.927242
O O7 0.494629 0.270919 0.099360
O O8 0.195638 0.447793 0.665277
O O9 0.500000 0.000000 0.500000
O O10 0.387083 0.127103 0.629504
O O11 0.586161 0.162804 0.851399
O O12 0.753461 0.899493 0.429435
O O13 0.230587 0.900921 0.118919
O O14 0.316591 0.674778 0.345659
O O15 0.000000 0.000000 0.000000
O O16 0.533767 0.585243 0.379806
O O17 0.458212 0.276415 0.291107
O O18 0.500000 0.000000 0.000000
#
# Coordination Sequence:
#
# PCOD9007267 Si02
#       8
#     2   2   2   2   2   2   2   2
#     4  12  25  37  61  96 121 159 216 255 299 371
#     4   8  21  39  64  90 124 165 207 246 318 375
#     4  12  22  40  62  91 120 168 207 254 317 358
#     4  11  21  42  65  89 131 162 203 263 306 366
#     4   9  21  37  58  90 122 158 204 255 309 363
#     4  10  21  39  61  83 124 158 210 252 306 371
#     4  11  20  38  60  91 120 161 206 256 314 364
#     4   9  18  37  63  88 121 160 200 248 312 371
#
# _framework density 22.530393
#
# number of rings (size 3 to 8) (size 9 to 14) (size 15 to 20)
#    0.750    1.000    3.750    0.375    1.750    0.500 
#    0.000    8.750    0.000    0.000    0.000    0.000 
#    0.000    0.000    0.000    0.000    0.000    0.000 
#
# Total GULP energy -89107.051950 kJ/mol
# GULP energy per Si atom -5569.190747 kJ/mol
# Density = 2.247911 g / cm^3
# Si number density = 22.530393 Si / 1000 Ang^3
#
#
#
# Elastic Constant Matrix: (Units=GPa)
#
#
# Indices 1 2 3 4 5 6 
#
# 1 39.4640 13.1770 4.7479 3.5665 14.6026 4.9996
# 2 13.1770 89.6243 29.2775 -11.0845 7.9153 13.1387
# 3 4.7479 29.2775 109.7065 -19.4202 -0.3667 -7.9451
# 4 3.5665 -11.0845 -19.4202 36.8903 5.7166 3.4745
# 5 14.6026 7.9153 -0.3667 5.7166 32.3762 0.6114
# 6 4.9996 13.1387 -7.9451 3.4745 0.6114 32.2588
#
#
#
# Elastic Compliance Matrix: (Units=1/GPa)
#
#
# Indices 1 2 3 4 5 6 
#
# 1 0.032037 -0.002844 -0.001334 -0.002250 -0.013303 -0.003641
# 2 -0.002844 0.014434 -0.003546 0.003812 -0.002833 -0.006668
# 3 -0.001334 -0.003546 0.011198 0.004476 0.000731 0.003913
# 4 -0.002250 0.003812 0.004476 0.031996 -0.005451 -0.003444
# 5 -0.013303 -0.002833 0.000731 -0.005451 0.038489 0.003253
# 6 -0.003641 -0.006668 0.003913 -0.003444 0.003253 0.035553
#
#
# Mechanical properties :
#
#
# Convention : Reuss Voigt Hill
#
# Bulk Modulus (GPa) = 23.68587 37.02220 30.35403
# Shear Modulus (GPa) = 25.87629 33.07789 29.47709
#
# Velocity S-wave (km/s) = 3.39264 3.83580 3.62100
# Velocity P-wave (km/s) = 5.08747 6.00713 5.56632
#
# Compressibility (1/GPa) = 0.04221927
#
# Stress axis : x y z
#
# Youngs Moduli (GPa) = 31.21416 69.28303 89.30476
#
# Poissons Ratio (x) = 0.19704 0.11912
# Poissons Ratio (y) = 0.08877 0.31671
# Poissons Ratio (z) = 0.04164 0.24571
#
# Static dielectric constant tensor:
#      x y z
#    x 1.938410 0.006360 0.001890 
#    y 0.006360 1.919920 0.007100 
#    z 0.001890 0.007100 1.873180 
# 
# From -- ./inp_files/471216.got.cif
#   From: 2010.05.17/outbox.cif.g08.bks.cpg/sg2_236_cif.got.tgz:471216.got - 2010.06.03 11:33:40.
