data_PCOD9007173
_publ_section_title
;
Structure prediction by ZEFSAII (Michael W. Deem and Ramdas Pophale) SiO2 
 PCOD9007173
Probable space group: P -1
;
_chemical_formula_sum "Si O2"
_cell_formula_units_Z 16
_cell_length_a 20.394746
_cell_length_b 5.104611
_cell_length_c 11.987114
_cell_angle_alpha 96.045582
_cell_angle_beta 34.677049
_cell_angle_gamma 97.056813
_cell_volume 704.619889
_symmetry_space_group_name_H-M "P -1"
_symmetry_group_IT_number 2
_symmetry_cell_setting 'triclinic'
loop_
_space_group_symop_operation_xyz
x,y,z
-x,-y,-z
loop_
_atom_site_type_symbol
_atom_site_label
_atom_site_fract_x
_atom_site_fract_y
_atom_site_fract_z
Si Si1 0.981717 0.783315 0.421132
Si Si2 0.369155 0.290180 0.014015
Si Si3 0.733624 0.623599 0.356180
Si Si4 0.091413 0.198349 0.050722
Si Si5 0.049753 0.306117 0.781207
Si Si6 0.627370 0.148478 0.845058
Si Si7 0.845567 0.593693 0.802280
Si Si8 0.376043 0.873154 0.401257
O O1 0.896335 0.583038 0.604772
O O2 0.921840 0.798902 0.386652
O O3 0.106932 0.667439 0.222893
O O4 0.000000 0.000000 0.500000
O O5 0.492496 0.204902 0.795952
O O6 0.382869 0.559121 0.079270
O O7 0.285750 0.354547 0.032289
O O8 0.317050 0.044387 0.151879
O O9 0.688003 0.327124 0.432008
O O10 0.842459 0.686252 0.288657
O O11 0.638333 0.826803 0.530550
O O12 0.786765 0.690184 0.164201
O O13 0.999067 0.406669 0.152077
O O14 0.100481 0.199699 0.172545
O O15 0.050933 0.909564 0.050069
O O16 0.677246 0.166207 0.651067
O O17 0.500000 0.000000 0.000000
#
# Coordination Sequence:
#
# PCOD9007173 Si02
#       8
#     2   2   2   2   2   2   2   2
#     4  10  21  40  59  94 125 154 204 257 304 369
#     4  11  23  40  64  90 126 169 199 244 315 374
#     4  12  24  40  65  89 124 165 206 262 298 352
#     4  11  23  44  61  90 123 165 210 250 304 367
#     4  11  23  39  65  90 124 160 204 254 317 368
#     4  10  21  39  60  88 127 160 198 252 303 362
#     4  10  24  39  63  89 127 164 200 250 309 369
#     4  11  23  40  58  94 123 157 212 252 298 362
#
# _framework density 22.707277999999999
#
# number of rings (size 3 to 8) (size 9 to 14) (size 15 to 20)
#    0.000    1.250    1.250    6.000    5.250    0.000 
#    0.000    1.250    0.000    0.000    0.000    0.000 
#    0.000    0.000    0.000    0.000    0.000    0.000 
#
# Total GULP energy -89349.973166 kJ/mol
# GULP energy per Si atom -5584.373323 kJ/mol
# Density = 2.265560 g / cm^3
# Si number density = 22.707278 Si / 1000 Ang^3
#
#
#
# Elastic Constant Matrix: (Units=GPa)
#
#
# Indices 1 2 3 4 5 6 
#
# 1 70.0996 7.5440 9.3919 14.2181 -3.4001 -11.0002
# 2 7.5440 85.4226 -2.4472 7.1404 -7.2211 -14.3682
# 3 9.3919 -2.4472 60.9923 4.6034 4.3102 -15.6435
# 4 14.2181 7.1404 4.6034 36.8956 -8.5922 6.1330
# 5 -3.4001 -7.2211 4.3102 -8.5922 31.7439 1.1330
# 6 -11.0002 -14.3682 -15.6435 6.1330 1.1330 23.2842
#
#
#
# Elastic Compliance Matrix: (Units=1/GPa)
#
#
# Indices 1 2 3 4 5 6 
#
# 1 0.017857 0.001336 0.001392 -0.009686 -0.001051 0.012798
# 2 0.001336 0.014687 0.004453 -0.006117 0.000715 0.014262
# 3 0.001392 0.004453 0.022896 -0.009014 -0.005151 0.021413
# 4 -0.009686 -0.006117 -0.009014 0.039806 0.010476 -0.025401
# 5 -0.001051 0.000715 -0.005151 0.010476 0.035372 -0.007997
# 6 0.012798 0.014262 0.021413 -0.025401 -0.007997 0.079261
#
#
# Mechanical properties :
#
#
# Convention : Reuss Voigt Hill
#
# Bulk Modulus (GPa) = 14.32637 27.27687 20.80162
# Shear Modulus (GPa) = 22.85349 31.85313 27.35331
#
# Velocity S-wave (km/s) = 3.17588 3.74942 3.47451
# Velocity P-wave (km/s) = 4.44648 5.54822 5.02762
#
# Compressibility (1/GPa) = 0.06980137
#
# Stress axis : x y z
#
# Youngs Moduli (GPa) = 56.00043 68.08872 43.67540
#
# Poissons Ratio (x) = -0.09099 -0.06078
# Poissons Ratio (y) = -0.07483 -0.19447
# Poissons Ratio (z) = -0.07794 -0.30318
#
# Static dielectric constant tensor:
#      x y z
#    x 1.873250 -0.025680 0.015260 
#    y -0.025680 1.925590 -0.050930 
#    z 0.015260 -0.050930 1.928030 
# 
# From -- ./inp_files/118707.got.cif
#   From: 2010.05.17/outbox.cif.g08.bks.cpg/sg2_60_cif.got.tgz:118707.got - 2010.06.03 11:33:40.
