data_PCOD9007249
_publ_section_title
;
Structure prediction by ZEFSAII (Michael W. Deem and Ramdas Pophale) SiO2 
 PCOD9007249
Probable space group: P -1
;
_chemical_formula_sum "Si O2"
_cell_formula_units_Z 15
_cell_length_a 7.760703
_cell_length_b 7.082130
_cell_length_c 18.013037
_cell_angle_alpha 124.050652
_cell_angle_beta 47.405401
_cell_angle_gamma 121.927595
_cell_volume 585.347913
_symmetry_space_group_name_H-M "P -1"
_symmetry_group_IT_number 2
_symmetry_cell_setting 'triclinic'
loop_
_space_group_symop_operation_xyz
x,y,z
-x,-y,-z
loop_
_atom_site_type_symbol
_atom_site_label
_atom_site_fract_x
_atom_site_fract_y
_atom_site_fract_z
Si Si1 0.500000 0.500000 0.500000
Si Si2 0.078913 0.642640 0.911713
Si Si3 0.421334 0.290305 0.143612
Si Si4 0.638197 0.232307 0.910667
Si Si5 0.738096 0.899576 0.137920
Si Si6 0.010844 0.436964 0.370092
Si Si7 0.100857 0.905917 0.543584
Si Si8 0.390182 0.084985 0.372761
O O1 0.769441 0.460824 0.408382
O O2 0.442926 0.362148 0.403111
O O3 0.889997 0.422032 0.884147
O O4 0.328534 0.606148 0.862850
O O5 0.943407 0.755392 0.041745
O O6 0.143187 0.847561 0.876958
O O7 0.220624 0.424298 0.249791
O O8 0.328193 0.027728 0.144669
O O9 0.479805 0.270540 0.036276
O O10 0.472343 0.225292 0.885592
O O11 0.593096 0.955052 0.263776
O O12 0.934166 0.194469 0.386379
O O13 0.105045 0.668621 0.444306
O O14 0.868919 0.004703 0.611229
O O15 0.334397 0.092016 0.480557
#
# Coordination Sequence:
#
# PCOD9007249 Si02
#       8
#     1   2   2   2   2   2   2   2
#     4  10  24  42  66  96 130 154 232 272 332 402
#     4  10  21  39  60  96 132 175 219 267 314 400
#     4  10  22  39  63  92 135 168 218 269 327 390
#     4  10  21  39  60  96 134 175 218 265 314 402
#     4  10  22  39  63  92 136 171 216 267 326 385
#     4  10  21  42  65  95 126 173 207 282 333 391
#     4   9  20  40  67  87 129 167 218 262 334 395
#     4  10  21  42  63  96 128 175 209 276 327 393
#
# _framework density 25.625785
#
# number of rings (size 3 to 8) (size 9 to 14) (size 15 to 20)
#    0.000    2.133    0.000    2.400    1.867    4.800 
#   12.000    0.000    0.000    0.000    0.000    0.000 
#    0.000    0.000    0.000    0.000    0.000    0.000 
#
# Total GULP energy -83722.474669 kJ/mol
# GULP energy per Si atom -5581.498311 kJ/mol
# Density = 2.556746 g / cm^3
# Si number density = 25.625785 Si / 1000 Ang^3
#
#
#
# Elastic Constant Matrix: (Units=GPa)
#
#
# Indices 1 2 3 4 5 6 
#
# 1 58.9113 52.1283 52.0005 -3.9305 -8.1102 24.4351
# 2 52.1283 32.4018 39.5576 -19.4093 -45.3057 -6.6179
# 3 52.0005 39.5576 151.6228 -8.5933 -43.5082 17.1057
# 4 -3.9305 -19.4093 -8.5933 25.8051 -6.1993 -0.1063
# 5 -8.1102 -45.3057 -43.5082 -6.1993 21.7930 -10.9689
# 6 24.4351 -6.6179 17.1057 -0.1063 -10.9689 39.3130
#
#
#
# Elastic Compliance Matrix: (Units=1/GPa)
#
#
# Indices 1 2 3 4 5 6 
#
# 1 0.017203 0.006385 -0.001007 0.011648 0.019051 -0.003833
# 2 0.006385 -0.000881 -0.006679 -0.006178 -0.017642 -0.006150
# 3 -0.001007 -0.006679 0.010184 -0.000866 0.003891 -0.003847
# 4 0.011648 -0.006178 -0.000866 0.034321 -0.005126 -0.009241
# 5 0.019051 -0.017642 0.003891 -0.005126 0.016630 -0.011878
# 6 -0.003833 -0.006150 -0.003847 -0.009241 -0.011878 0.025119
#
#
# Mechanical properties :
#
#
# Convention : Reuss Voigt Hill
#
# Bulk Modulus (GPa) = 41.83130 58.92320 50.37725
# Shear Modulus (GPa) = 44.19109 23.99887 34.09498
#
# Velocity S-wave (km/s) = 4.15719 3.06357 3.65155
# Velocity P-wave (km/s) = 6.27712 5.96302 6.12209
#
# Compressibility (1/GPa) = 0.02390554
#
# Stress axis : x y z
#
# Youngs Moduli (GPa) = 58.12953 -1134.66193 98.19100
#
# Poissons Ratio (x) = 7.24478 0.09883
# Poissons Ratio (y) = -0.37116 0.65578
# Poissons Ratio (z) = 0.05851 -7.57797
#
# Static dielectric constant tensor:
#      x y z
#    x 1.955460 0.111960 0.066110 
#    y 0.111960 1.563540 -0.121340 
#    z 0.066110 -0.121340 2.016790 
# 
# From -- ./inp_files/586874.got.cif
#   From: 2010.05.17/outbox.cif.g08.bks.cpg/sg2_294_cif.got.tgz:586874.got - 2010.06.03 11:33:40.
