data_PCOD9007415
_publ_section_title
;
Structure prediction by ZEFSAII (Michael W. Deem and Ramdas Pophale) SiO2 
 PCOD9007415
Probable space group: P -1
;
_chemical_formula_sum "Si O2"
_cell_formula_units_Z 14
_cell_length_a 25.363982
_cell_length_b 13.450496
_cell_length_c 8.299771
_cell_angle_alpha 139.373438
_cell_angle_beta 151.251472
_cell_angle_gamma 26.660239
_cell_volume 607.101582
_symmetry_space_group_name_H-M "P -1"
_symmetry_group_IT_number 2
_symmetry_cell_setting 'triclinic'
loop_
_space_group_symop_operation_xyz
x,y,z
-x,-y,-z
loop_
_atom_site_type_symbol
_atom_site_label
_atom_site_fract_x
_atom_site_fract_y
_atom_site_fract_z
Si Si1 0.977149 0.443801 0.614271
Si Si2 0.222987 0.368694 0.397929
Si Si3 0.654303 0.429690 0.508090
Si Si4 0.776235 0.855599 0.338883
Si Si5 0.331514 0.567361 0.803484
Si Si6 0.690851 0.269392 0.731663
Si Si7 0.493136 0.082593 0.262518
O O1 0.102130 0.220854 0.570166
O O2 0.863847 0.482267 0.489687
O O3 0.869012 0.648730 0.453588
O O4 0.087024 0.451503 0.015110
O O5 0.325562 0.397820 0.629914
O O6 0.333528 0.115816 0.438653
O O7 0.739030 0.344190 0.456077
O O8 0.752051 0.290349 0.759274
O O9 0.570808 0.680179 0.616513
O O10 0.513047 0.446531 0.135460
O O11 0.715263 0.065739 0.524668
O O12 0.628918 0.900601 0.943817
O O13 0.249799 0.738526 0.944062
O O14 0.500000 0.500000 0.500000
O O15 0.500000 0.000000 0.000000
#
# Coordination Sequence:
#
# PCOD9007415 Si02
#       7
#     2   2   2   2   2   2   2
#     4  10  25  43  67  95 140 175 219 274 341 407
#     4  11  23  43  67  99 132 175 226 275 334 394
#     4  10  22  37  63 103 136 160 219 286 338 378
#     4  11  23  45  69  97 133 178 224 274 338 398
#     4  10  21  39  61  91 134 171 211 270 331 397
#     4  10  21  39  65  97 130 170 217 280 327 384
#     4  12  21  37  74 103 126 173 232 284 321 389
#
# _framework density 23.060392
#
# number of rings (size 3 to 8) (size 9 to 14) (size 15 to 20)
#    0.000    1.429    1.429    5.143    0.000    5.714 
#    2.571    1.429    0.000    0.000    0.000    0.000 
#    0.000    0.000    0.000    0.000    0.000    0.000 
#
# Total GULP energy -78239.028017 kJ/mol
# GULP energy per Si atom -5588.502001 kJ/mol
# Density = 2.300791 g / cm^3
# Si number density = 23.060392 Si / 1000 Ang^3
#
#
#
# Elastic Constant Matrix: (Units=GPa)
#
#
# Indices 1 2 3 4 5 6 
#
# 1 152.3342 15.1315 20.9405 6.7849 -14.6212 -3.1597
# 2 15.1315 17.7832 16.4320 11.8196 23.6737 -29.6217
# 3 20.9405 16.4320 58.5502 9.6333 0.7621 0.7291
# 4 6.7849 11.8196 9.6333 32.9074 3.5325 0.4146
# 5 -14.6212 23.6737 0.7621 3.5325 26.2732 15.5665
# 6 -3.1597 -29.6217 0.7291 0.4146 15.5665 14.3935
#
#
#
# Elastic Compliance Matrix: (Units=1/GPa)
#
#
# Indices 1 2 3 4 5 6 
#
# 1 0.007038 0.001301 -0.002726 -0.001277 0.001086 0.003222
# 2 0.001301 -0.002391 0.000431 -0.000975 0.015978 -0.021910
# 3 -0.002726 0.000431 0.018706 -0.004668 -0.004203 0.004021
# 4 -0.001277 -0.000975 -0.004668 0.033022 -0.006567 0.004101
# 5 0.001086 0.015978 -0.004203 -0.006567 0.015063 0.017234
# 6 0.003222 -0.021910 0.004021 0.004101 0.017234 0.006133
#
#
# Mechanical properties :
#
#
# Convention : Reuss Voigt Hill
#
# Bulk Modulus (GPa) = 46.80730 37.07508 41.94119
# Shear Modulus (GPa) = 57.68329 26.45905 42.07117
#
# Velocity S-wave (km/s) = 5.00683 3.39098 4.27592
# Velocity P-wave (km/s) = 7.33254 5.60749 6.52725
#
# Compressibility (1/GPa) = 0.02136419
#
# Stress axis : x y z
#
# Youngs Moduli (GPa) = 142.08442 -418.19607 53.45840
#
# Poissons Ratio (x) = 0.54401 0.14575
# Poissons Ratio (y) = -0.18483 -0.02305
# Poissons Ratio (z) = 0.38737 0.18028
#
# Static dielectric constant tensor:
#      x y z
#    x 1.971670 -0.034250 -0.016010 
#    y -0.034250 1.818970 -0.026090 
#    z -0.016010 -0.026090 1.868760 
# 
# From -- ./inp_files/156801.got.cif
#   From: 2010.05.17/outbox.cif.g08.bks.cpg/sg2_79_cif.got.tgz:156801.got - 2010.06.03 11:33:40.
