data_PCOD9007783
_publ_section_title
;
Structure prediction by ZEFSAII (Michael W. Deem and Ramdas Pophale) SiO2 
 PCOD9007783
Probable space group: P -1
;
_chemical_formula_sum "Si O2"
_cell_formula_units_Z 13
_cell_length_a 24.055775
_cell_length_b 10.020939
_cell_length_c 9.301310
_cell_angle_alpha 149.936260
_cell_angle_beta 35.043681
_cell_angle_gamma 141.342758
_cell_volume 624.253183
_symmetry_space_group_name_H-M "P -1"
_symmetry_group_IT_number 2
_symmetry_cell_setting 'triclinic'
loop_
_space_group_symop_operation_xyz
x,y,z
-x,-y,-z
loop_
_atom_site_type_symbol
_atom_site_label
_atom_site_fract_x
_atom_site_fract_y
_atom_site_fract_z
Si Si1 0.000000 0.000000 0.000000
Si Si2 0.538015 0.978122 0.059701
Si Si3 0.458008 0.549250 0.291189
Si Si4 0.216123 0.393599 0.667679
Si Si5 0.071032 0.303618 0.628847
Si Si6 0.222851 0.859506 0.292302
Si Si7 0.080338 0.536591 0.523353
O O1 0.019980 0.263729 0.313536
O O2 0.976344 0.217232 0.123427
O O3 0.511226 0.161390 0.418446
O O4 0.658413 0.065061 0.879322
O O5 0.500000 0.000000 0.000000
O O6 0.507080 0.663485 0.878091
O O7 0.336418 0.460951 0.457325
O O8 0.500000 0.500000 0.000000
O O9 0.158992 0.320559 0.572794
O O10 0.186637 0.138838 0.607366
O O11 0.192602 0.663736 0.036620
O O12 0.111559 0.422028 0.498728
O O13 0.000000 0.000000 0.500000
O O14 0.000000 0.500000 0.000000
O O15 0.176415 0.686229 0.365641
#
# Coordination Sequence:
#
# PCOD9007783 Si02
#       7
#     1   2   2   2   2   2   2
#     4  10  24  36  62  84 112 148 208 252 290 364
#     4  10  21  39  62  97 125 159 209 258 306 369
#     4  10  21  40  65  93 125 170 203 248 324 382
#     4  10  23  41  60  90 124 161 207 255 307 371
#     4  12  27  40  59  90 124 160 205 260 310 356
#     4  10  22  39  65  85 121 164 205 250 309 368
#     4  11  24  40  60  88 115 156 211 243 315 351
#
# _framework density 20.824885999999999
#
# number of rings (size 3 to 8) (size 9 to 14) (size 15 to 20)
#    0.000    1.538    0.000    3.692   12.923    1.231 
#    0.000    3.077    0.000    0.000    0.000    0.000 
#    0.000    0.000    0.000    0.000    0.000    0.000 
#
# Total GULP energy -72381.780020 kJ/mol
# GULP energy per Si atom -5567.829232 kJ/mol
# Density = 2.077749 g / cm^3
# Si number density = 20.824886 Si / 1000 Ang^3
#
#
#
# Elastic Constant Matrix: (Units=GPa)
#
#
# Indices 1 2 3 4 5 6 
#
# 1 114.5918 3.1603 10.4034 12.4671 5.4120 -24.6472
# 2 3.1603 55.4171 15.5752 11.1451 -3.9559 -18.6826
# 3 10.4034 15.5752 119.4815 29.1328 -6.0181 1.6644
# 4 12.4671 11.1451 29.1328 42.7737 -9.9324 6.3150
# 5 5.4120 -3.9559 -6.0181 -9.9324 21.2166 6.4191
# 6 -24.6472 -18.6826 1.6644 6.3150 6.4191 32.4668
#
#
#
# Elastic Compliance Matrix: (Units=1/GPa)
#
#
# Indices 1 2 3 4 5 6 
#
# 1 0.015456 0.008224 -0.000255 -0.013317 -0.015407 0.022116
# 2 0.008224 0.030531 -0.001710 -0.016807 -0.013804 0.029898
# 3 -0.000255 -0.001710 0.010169 -0.006403 -0.000244 -0.000405
# 4 -0.013317 -0.016807 -0.006403 0.048593 0.031845 -0.035201
# 5 -0.015407 -0.013804 -0.000244 0.031845 0.075667 -0.040782
# 6 0.022116 0.029898 -0.000405 -0.035201 -0.040782 0.079725
#
#
# Mechanical properties :
#
#
# Convention : Reuss Voigt Hill
#
# Bulk Modulus (GPa) = 14.56117 38.64088 26.60103
# Shear Modulus (GPa) = 18.48340 36.64819 27.56580
#
# Velocity S-wave (km/s) = 2.98243 4.19958 3.64221
# Velocity P-wave (km/s) = 4.34364 6.48928 5.52168
#
# Compressibility (1/GPa) = 0.06867580
#
# Stress axis : x y z
#
# Youngs Moduli (GPa) = 64.69873 32.75396 98.33609
#
# Poissons Ratio (x) = -0.26938 0.02507
# Poissons Ratio (y) = -0.53211 0.16812
# Poissons Ratio (z) = 0.01649 0.05600
#
# Static dielectric constant tensor:
#      x y z
#    x 1.730910 0.002320 -0.019570 
#    y 0.002320 1.737520 0.012770 
#    z -0.019570 0.012770 1.701750 
# 
# From -- ./inp_files/201680.got.cif
#   From: 2010.05.17/outbox.cif.g08.bks.cpg/sg2_101_cif.got.tgz:201680.got - 2010.06.03 11:33:40.
