data_PCOD9007676
_publ_section_title
;
Structure prediction by ZEFSAII (Michael W. Deem and Ramdas Pophale) SiO2 
 PCOD9007676
Probable space group: P -1
;
_chemical_formula_sum "Si O2"
_cell_formula_units_Z 14
_cell_length_a 6.468252
_cell_length_b 11.414708
_cell_length_c 10.352917
_cell_angle_alpha 57.567804
_cell_angle_beta 85.070702
_cell_angle_gamma 74.199429
_cell_volume 619.085084
_symmetry_space_group_name_H-M "P -1"
_symmetry_group_IT_number 2
_symmetry_cell_setting 'triclinic'
loop_
_space_group_symop_operation_xyz
x,y,z
-x,-y,-z
loop_
_atom_site_type_symbol
_atom_site_label
_atom_site_fract_x
_atom_site_fract_y
_atom_site_fract_z
Si Si1 0.876693 0.199609 0.517990
Si Si2 0.304450 0.496547 0.107617
Si Si3 0.580530 0.189277 0.771934
Si Si4 0.373840 0.484502 0.710925
Si Si5 0.851585 0.681225 0.974465
Si Si6 0.296964 0.967087 0.596995
Si Si7 0.551941 0.081561 0.109917
O O1 0.772760 0.157690 0.678885
O O2 0.792868 0.370825 0.412386
O O3 0.787061 0.132767 0.438137
O O4 0.126252 0.119146 0.544932
O O5 0.418169 0.483028 0.248768
O O6 0.202071 0.370755 0.134343
O O7 0.500000 0.500000 0.000000
O O8 0.104346 0.637859 0.014990
O O9 0.459802 0.358291 0.677274
O O10 0.426599 0.087031 0.807921
O O11 0.642007 0.146455 0.943021
O O12 0.249308 0.413013 0.865454
O O13 0.705398 0.841277 0.912348
O O14 0.352138 0.889864 0.776887
O O15 0.500000 0.000000 0.500000
#
# Coordination Sequence:
#
# PCOD9007676 Si02
#       7
#     2   2   2   2   2   2   2
#     4  11  24  43  67  97 127 168 218 261 319 388
#     4   9  18  35  58  93 122 164 215 257 320 365
#     4  10  22  44  64  95 129 170 211 263 319 383
#     4  10  21  39  62  91 130 162 206 265 319 382
#     4   9  19  37  60  92 124 165 212 265 316 369
#     4  11  24  44  67  96 127 171 216 266 319 369
#     4  10  21  43  68  88 133 167 211 268 314 380
#
# _framework density 22.614017
#
# number of rings (size 3 to 8) (size 9 to 14) (size 15 to 20)
#    0.000    2.000    1.429    1.286    0.000    6.286 
#   15.429    0.714    0.000    0.000    0.000    0.000 
#    0.000    0.000    0.000    0.000    0.000    0.000 
#
# Total GULP energy -78224.092255 kJ/mol
# GULP energy per Si atom -5587.435161 kJ/mol
# Density = 2.256255 g / cm^3
# Si number density = 22.614017 Si / 1000 Ang^3
#
#
#
# Elastic Constant Matrix: (Units=GPa)
#
#
# Indices 1 2 3 4 5 6 
#
# 1 83.5788 32.8402 36.3449 4.6763 10.4049 -29.1192
# 2 32.8402 131.6229 56.5768 -4.9267 0.8820 -30.1547
# 3 36.3449 56.5768 97.6851 7.4898 3.2690 -11.5366
# 4 4.6763 -4.9267 7.4898 41.6101 1.1029 -1.6516
# 5 10.4049 0.8820 3.2690 1.1029 18.4679 -5.3846
# 6 -29.1192 -30.1547 -11.5366 -1.6516 -5.3846 27.4281
#
#
#
# Elastic Compliance Matrix: (Units=1/GPa)
#
#
# Indices 1 2 3 4 5 6 
#
# 1 0.022637 0.002745 -0.007129 0.000111 -0.004895 0.023097
# 2 0.002745 0.013909 -0.007565 0.003237 0.003577 0.015921
# 3 -0.007129 -0.007565 0.016460 -0.003401 -0.001066 -0.009376
# 4 0.000111 0.003237 -0.003401 0.025165 -0.000022 0.003757
# 5 -0.004895 0.003577 -0.001066 -0.000022 0.059851 0.010035
# 6 0.023097 0.015921 -0.009376 0.003757 0.010035 0.076737
#
#
# Mechanical properties :
#
#
# Convention : Reuss Voigt Hill
#
# Bulk Modulus (GPa) = 34.35456 62.71230 48.53343
# Shear Modulus (GPa) = 20.13217 29.97620 25.05419
#
# Velocity S-wave (km/s) = 2.98695 3.64477 3.33213
# Velocity P-wave (km/s) = 5.20773 6.74569 6.02598
#
# Compressibility (1/GPa) = 0.02910821
#
# Stress axis : x y z
#
# Youngs Moduli (GPa) = 44.17596 71.89657 60.75423
#
# Poissons Ratio (x) = -0.19735 0.43311
# Poissons Ratio (y) = -0.12126 0.45958
# Poissons Ratio (z) = 0.31493 0.54387
#
# Static dielectric constant tensor:
#      x y z
#    x 1.828880 0.007980 0.024020 
#    y 0.007980 1.882110 0.004490 
#    z 0.024020 0.004490 1.876670 
# 
# From -- ./inp_files/362649.got.cif
#   From: 2010.05.17/outbox.cif.g08.bks.cpg/sg2_182_cif.got.tgz:362649.got - 2010.06.03 11:33:40.
