data_PCOD9007651
_publ_section_title
;
Structure prediction by ZEFSAII (Michael W. Deem and Ramdas Pophale) SiO2 
 PCOD9007651
Probable space group: P -1
;
_chemical_formula_sum "Si O2"
_cell_formula_units_Z 16
_cell_length_a 12.205303
_cell_length_b 21.202728
_cell_length_c 9.152848
_cell_angle_alpha 115.619633
_cell_angle_beta 141.480112
_cell_angle_gamma 38.239660
_cell_volume 804.719055
_symmetry_space_group_name_H-M "P -1"
_symmetry_group_IT_number 2
_symmetry_cell_setting 'triclinic'
loop_
_space_group_symop_operation_xyz
x,y,z
-x,-y,-z
loop_
_atom_site_type_symbol
_atom_site_label
_atom_site_fract_x
_atom_site_fract_y
_atom_site_fract_z
Si Si1 0.070609 0.734890 0.164738
Si Si2 0.651076 0.983484 0.867085
Si Si3 0.567382 0.628030 0.395429
Si Si4 0.702159 0.737760 0.606727
Si Si5 0.245317 0.992078 0.309840
Si Si6 0.114022 0.230045 0.666076
Si Si7 0.144960 0.361773 0.657071
Si Si8 0.727657 0.247739 0.091497
O O1 0.398783 0.641019 0.359187
O O2 0.022550 0.731275 0.278390
O O3 0.910842 0.859773 0.090836
O O4 0.913094 0.724786 0.894880
O O5 0.458781 0.983832 0.589998
O O6 0.746816 0.002353 0.851608
O O7 0.433407 0.093351 0.856503
O O8 0.655496 0.679098 0.580010
O O9 0.851201 0.498058 0.506226
O O10 0.348965 0.704602 0.105676
O O11 0.392710 0.874076 0.396617
O O12 0.825490 0.679477 0.516687
O O13 0.931499 0.114537 0.162355
O O14 0.144749 0.298154 0.705661
O O15 0.908429 0.250549 0.363265
O O16 0.425351 0.322884 0.926543
#
# Coordination Sequence:
#
# PCOD9007651 Si02
#       8
#     2   2   2   2   2   2   2   2
#     4  11  23  39  61  88 122 159 189 233 297 355
#     4   9  17  35  59  90 121 147 188 238 291 353
#     4  11  24  40  61  87 114 155 204 247 287 333
#     4  10  21  39  62  91 118 147 195 249 290 345
#     4   9  16  32  64  92 113 147 188 243 300 340
#     4  11  23  39  61  88 122 159 189 233 297 355
#     4  11  24  40  61  87 114 155 204 247 287 333
#     4  10  21  39  62  91 118 147 195 249 290 345
#
# _framework density 19.882714
#
# number of rings (size 3 to 8) (size 9 to 14) (size 15 to 20)
#    0.000    1.750    2.500    2.625    0.000    7.500 
#    0.000    1.250    0.000    6.000    0.000    0.000 
#    0.000    0.000    0.000    0.000    0.000    0.000 
#
# Total GULP energy -89395.535954 kJ/mol
# GULP energy per Si atom -5587.220997 kJ/mol
# Density = 1.983746 g / cm^3
# Si number density = 19.882714 Si / 1000 Ang^3
#
#
#
# Elastic Constant Matrix: (Units=GPa)
#
#
# Indices 1 2 3 4 5 6 
#
# 1 17.6992 -91.9698 0.2011 -4.1390 -14.6245 -5.3599
# 2 -91.9698 -71.5848 9.3522 -18.8801 -24.6448 4.5611
# 3 0.2011 9.3522 15.9047 -12.3915 17.8071 -5.6236
# 4 -4.1390 -18.8801 -12.3915 13.9876 -6.1179 15.6104
# 5 -14.6245 -24.6448 17.8071 -6.1179 5.9075 -2.2553
# 6 -5.3599 4.5611 -5.6236 15.6104 -2.2553 26.0941
#
#
#
# Elastic Compliance Matrix: (Units=1/GPa)
#
#
# Indices 1 2 3 4 5 6 
#
# 1 0.015980 -0.005348 0.002499 -0.031800 -0.014622 0.022516
# 2 -0.005348 0.000132 -0.009415 -0.023493 -0.004631 0.010504
# 3 0.002499 -0.009415 -0.056185 -0.082403 0.068202 0.045242
# 4 -0.031800 -0.023493 -0.082403 0.051132 0.108815 -0.041368
# 5 -0.014622 -0.004631 0.068202 0.108815 0.000817 -0.052522
# 6 0.022516 0.010504 0.045242 -0.041368 -0.052522 0.071070
#
#
# Mechanical properties :
#
#
# Convention : Reuss Voigt Hill
#
# Bulk Modulus (GPa) = -15.47936 -22.53485 -19.00711
# Shear Modulus (GPa) = 58.17959 12.16019 35.16989
#
# Velocity S-wave (km/s) = 5.41525 2.47573 4.21035
# Velocity P-wave (km/s) = 5.59443 1.78499 3.74910
#
# Compressibility (1/GPa) = -0.06460215
#
# Stress axis : x y z
#
# Youngs Moduli (GPa) = 62.57794 7595.44030 -17.79836
#
# Poissons Ratio (x) = 40.62290 0.04448
# Poissons Ratio (y) = 0.33469 -0.16758
# Poissons Ratio (z) = -0.15639 71.51275
#
# Static dielectric constant tensor:
#      x y z
#    x 1.689360 0.006860 0.015560 
#    y 0.006860 1.699260 -0.007300 
#    z 0.015560 -0.007300 1.699180 
# 
# From -- ./inp_files/283151.got.cif
#   From: 2010.05.17/outbox.cif.g08.bks.cpg/sg2_142_cif.got.tgz:283151.got - 2010.06.03 11:33:40.
