data_PCOD9007186
_publ_section_title
;
Structure prediction by ZEFSAII (Michael W. Deem and Ramdas Pophale) SiO2 
 PCOD9007186
Probable space group: P -1
;
_chemical_formula_sum "Si O2"
_cell_formula_units_Z 16
_cell_length_a 13.935553
_cell_length_b 9.346172
_cell_length_c 19.894265
_cell_angle_alpha 58.286607
_cell_angle_beta 25.813395
_cell_angle_gamma 49.100028
_cell_volume 836.668364
_symmetry_space_group_name_H-M "P -1"
_symmetry_group_IT_number 2
_symmetry_cell_setting 'triclinic'
loop_
_space_group_symop_operation_xyz
x,y,z
-x,-y,-z
loop_
_atom_site_type_symbol
_atom_site_label
_atom_site_fract_x
_atom_site_fract_y
_atom_site_fract_z
Si Si1 0.068575 0.183723 0.860120
Si Si2 0.768574 0.453933 0.649599
Si Si3 0.200806 0.672636 0.726628
Si Si4 0.474096 0.756965 0.422557
Si Si5 0.761617 0.809044 0.867028
Si Si6 0.609082 0.485458 0.007383
Si Si7 0.015520 0.005629 0.568705
Si Si8 0.265184 0.737387 0.824667
O O1 0.286215 0.236011 0.703264
O O2 0.202896 0.954239 0.827058
O O3 0.854929 0.279449 0.915269
O O4 0.920713 0.279506 0.999401
O O5 0.603294 0.495173 0.811000
O O6 0.871101 0.229199 0.625167
O O7 0.557374 0.587823 0.694529
O O8 0.000000 0.500000 0.500000
O O9 0.300174 0.787301 0.589288
O O10 0.410795 0.451378 0.633964
O O11 0.195037 0.715723 0.798199
O O12 0.935530 0.727090 0.844509
O O13 0.302237 0.914121 0.437447
O O14 0.905990 0.877013 0.705612
O O15 0.696076 0.645846 0.924137
O O16 0.500000 0.000000 0.000000
O O17 0.500000 0.500000 0.000000
O O18 0.000000 0.000000 0.500000
#
# Coordination Sequence:
#
# PCOD9007186 Si02
#       8
#     2   2   2   2   2   2   2   2
#     4  10  22  42  60  91 124 158 210 248 299 373
#     4  11  24  43  60  94 131 162 212 256 301 375
#     4  10  22  39  63  90 123 158 199 254 309 358
#     4  10  21  39  60  89 124 155 202 252 297 369
#     4  11  23  43  63  93 127 158 213 260 303 379
#     4  11  25  42  66  91 125 168 206 256 314 368
#     4  11  24  39  65  94 124 166 205 253 317 364
#     4  10  23  40  63  90 123 164 203 252 307 362
#
# _framework density 19.123466000000001
#
# number of rings (size 3 to 8) (size 9 to 14) (size 15 to 20)
#    0.000    1.500    2.500    1.500    3.500    3.000 
#    0.000    0.000    0.000    0.000    0.000    0.000 
#    0.000    0.000    0.000    0.000    0.000    0.000 
#
# Total GULP energy -89266.353313 kJ/mol
# GULP energy per Si atom -5579.147082 kJ/mol
# Density = 1.907994 g / cm^3
# Si number density = 19.123466 Si / 1000 Ang^3
#
#
#
# Elastic Constant Matrix: (Units=GPa)
#
#
# Indices 1 2 3 4 5 6 
#
# 1 167.5953 25.7821 54.5821 4.3079 -4.4821 -25.7486
# 2 25.7821 72.0008 18.4502 10.0459 -5.9795 -16.3608
# 3 54.5821 18.4502 77.9952 -2.9568 -21.6496 -4.9711
# 4 4.3079 10.0459 -2.9568 36.7429 -1.9135 -12.5252
# 5 -4.4821 -5.9795 -21.6496 -1.9135 19.5013 -1.7103
# 6 -25.7486 -16.3608 -4.9711 -12.5252 -1.7103 28.8281
#
#
#
# Elastic Compliance Matrix: (Units=1/GPa)
#
#
# Indices 1 2 3 4 5 6 
#
# 1 0.009375 -0.000429 -0.007649 0.000354 -0.005853 0.006617
# 2 -0.000429 0.017047 -0.002463 -0.001847 0.002936 0.008239
# 3 -0.007649 -0.002463 0.026632 0.005245 0.027592 0.000279
# 4 0.000354 -0.001847 0.005245 0.033907 0.010024 0.015498
# 5 -0.005853 0.002936 0.027592 0.010024 0.083369 0.010498
# 6 0.006617 0.008239 0.000279 0.015498 0.010498 0.052679
#
#
# Mechanical properties :
#
#
# Convention : Reuss Voigt Hill
#
# Bulk Modulus (GPa) = 31.27557 57.24668 44.26113
# Shear Modulus (GPa) = 19.62735 31.59961 25.61348
#
# Velocity S-wave (km/s) = 3.20714 4.06938 3.66372
# Velocity P-wave (km/s) = 5.48675 7.21666 6.41033
#
# Compressibility (1/GPa) = 0.03197384
#
# Stress axis : x y z
#
# Youngs Moduli (GPa) = 106.66954 58.66172 37.54899
#
# Poissons Ratio (x) = 0.02515 0.28720
# Poissons Ratio (y) = 0.04573 0.09247
# Poissons Ratio (z) = 0.81587 0.14446
#
# Static dielectric constant tensor:
#      x y z
#    x 1.632250 -0.021960 -0.000520 
#    y -0.021960 1.689190 -0.028440 
#    z -0.000520 -0.028440 1.673780 
# 
# From -- ./inp_files/272389.got.cif
#   From: 2010.05.17/outbox.cif.g08.bks.cpg/sg2_137_cif.got.tgz:272389.got - 2010.06.03 11:33:40.
