data_PCOD9007709
_publ_section_title
;
Structure prediction by ZEFSAII (Michael W. Deem and Ramdas Pophale) SiO2 
 PCOD9007709
Probable space group: P -1
;
_chemical_formula_sum "Si O2"
_cell_formula_units_Z 16
_cell_length_a 9.542101
_cell_length_b 14.793475
_cell_length_c 13.345360
_cell_angle_alpha 58.520414
_cell_angle_beta 119.105696
_cell_angle_gamma 156.906435
_cell_volume 630.055065
_symmetry_space_group_name_H-M "P -1"
_symmetry_group_IT_number 2
_symmetry_cell_setting 'triclinic'
loop_
_space_group_symop_operation_xyz
x,y,z
-x,-y,-z
loop_
_atom_site_type_symbol
_atom_site_label
_atom_site_fract_x
_atom_site_fract_y
_atom_site_fract_z
Si Si1 0.707743 0.466981 0.638930
Si Si2 0.189327 0.222980 0.783162
Si Si3 0.796241 0.084086 0.556309
Si Si4 0.788754 0.993577 0.025567
Si Si5 0.816386 0.618765 0.909888
Si Si6 0.402340 0.750281 0.455392
Si Si7 0.543011 0.029775 0.798147
Si Si8 0.056356 0.579461 0.136007
O O1 0.428034 0.329589 0.706845
O O2 0.545926 0.302582 0.585913
O O3 0.000576 0.563172 0.741157
O O4 0.878979 0.671256 0.532359
O O5 0.463466 0.439835 0.829958
O O6 0.897644 0.118457 0.684974
O O7 0.077799 0.046826 0.896281
O O8 0.500000 0.000000 0.500000
O O9 0.656834 0.899099 0.554462
O O10 0.052893 0.219272 0.056852
O O11 0.398425 0.763676 0.076461
O O12 0.708575 0.011059 0.885686
O O13 0.147167 0.799883 0.842820
O O14 0.775273 0.480231 0.030879
O O15 0.463849 0.903156 0.341536
O O16 0.000000 0.500000 0.500000
O O17 0.796760 0.251484 0.829099
#
# Coordination Sequence:
#
# PCOD9007709 Si02
#       8
#     2   2   2   2   2   2   2   2
#     4  10  21  39  62  93 116 150 202 246 289 344
#     4  11  23  35  61  94 121 149 197 247 298 350
#     4  12  26  43  58  82 118 163 205 245 291 358
#     4   8  16  32  53  90 125 148 183 245 294 351
#     4   9  16  32  55  91 128 153 176 240 307 347
#     4  11  22  40  63  82 112 167 205 238 289 344
#     4   8  15  30  58  88 118 152 198 233 288 353
#     4   7  14  29  56  89 124 149 185 231 294 361
#
# _framework density 25.394607000000001
#
# number of rings (size 3 to 8) (size 9 to 14) (size 15 to 20)
#    0.000    2.500    1.250    3.375    0.000    7.000 
#    0.000    0.000    0.000    3.750    0.000    0.000 
#    0.000    0.000    0.000    0.000    0.000    0.000 
#
# Total GULP energy -89515.113879 kJ/mol
# GULP energy per Si atom -5594.694617 kJ/mol
# Density = 2.533681 g / cm^3
# Si number density = 25.394607 Si / 1000 Ang^3
#
#
#
# Elastic Constant Matrix: (Units=GPa)
#
#
# Indices 1 2 3 4 5 6 
#
# 1 42.0261 23.0560 1.1464 -2.3705 -10.3213 2.2396
# 2 23.0560 107.7013 57.8044 14.3854 1.8836 -12.3294
# 3 1.1464 57.8044 153.9764 9.3696 -4.0662 4.7588
# 4 -2.3705 14.3854 9.3696 47.6373 -7.1390 1.6289
# 5 -10.3213 1.8836 -4.0662 -7.1390 43.1953 11.4901
# 6 2.2396 -12.3294 4.7588 1.6289 11.4901 35.1483
#
#
#
# Elastic Compliance Matrix: (Units=1/GPa)
#
#
# Indices 1 2 3 4 5 6 
#
# 1 0.035044 -0.012660 0.004799 0.007105 0.013786 -0.012159
# 2 -0.012660 0.017910 -0.006808 -0.006342 -0.008438 0.011063
# 3 0.004799 -0.006808 0.009205 0.001253 0.003922 -0.005280
# 4 0.007105 -0.006342 0.001253 0.024418 0.007870 -0.006551
# 5 0.013786 -0.008438 0.003922 0.007870 0.032575 -0.015383
# 6 -0.012159 0.011063 -0.005280 -0.006551 -0.015383 0.039154
#
#
# Mechanical properties :
#
#
# Convention : Reuss Voigt Hill
#
# Bulk Modulus (GPa) = 30.46784 51.96862 41.21823
# Shear Modulus (GPa) = 25.17835 39.97595 32.57715
#
# Velocity S-wave (km/s) = 3.15220 3.97191 3.58556
# Velocity P-wave (km/s) = 5.02716 6.44544 5.77996
#
# Compressibility (1/GPa) = 0.03282149
#
# Stress axis : x y z
#
# Youngs Moduli (GPa) = 28.53593 55.83366 108.63386
#
# Poissons Ratio (x) = 0.70684 -0.52136
# Poissons Ratio (y) = 0.36126 0.73961
# Poissons Ratio (z) = -0.13695 0.38013
#
# Static dielectric constant tensor:
#      x y z
#    x 2.056210 0.034340 -0.013930 
#    y 0.034340 2.027330 0.028070 
#    z -0.013930 0.028070 2.045560 
# 
# From -- ./inp_files/273292.got.cif
#   From: 2010.05.17/outbox.cif.g08.bks.cpg/sg2_137_cif.got.tgz:273292.got - 2010.06.03 11:33:40.
