data_PCOD9007263
_publ_section_title
;
Structure prediction by ZEFSAII (Michael W. Deem and Ramdas Pophale) SiO2 
 PCOD9007263
Probable space group: P -1
;
_chemical_formula_sum "Si O2"
_cell_formula_units_Z 15
_cell_length_a 6.738019
_cell_length_b 13.811601
_cell_length_c 7.166687
_cell_angle_alpha 83.699083
_cell_angle_beta 61.929011
_cell_angle_gamma 67.260790
_cell_volume 540.617046
_symmetry_space_group_name_H-M "P -1"
_symmetry_group_IT_number 2
_symmetry_cell_setting 'triclinic'
loop_
_space_group_symop_operation_xyz
x,y,z
-x,-y,-z
loop_
_atom_site_type_symbol
_atom_site_label
_atom_site_fract_x
_atom_site_fract_y
_atom_site_fract_z
Si Si1 0.209479 0.367397 0.304533
Si Si2 0.211979 0.090688 0.784022
Si Si3 0.779799 0.161205 0.499773
Si Si4 0.500000 0.500000 0.000000
Si Si5 0.705554 0.691376 0.285904
Si Si6 0.695898 0.201690 0.131379
Si Si7 0.706714 0.962354 0.675931
Si Si8 0.145032 0.605647 0.848716
O O1 0.294939 0.459910 0.187030
O O2 0.226980 0.350970 0.523531
O O3 0.952641 0.384930 0.319698
O O4 0.428523 0.259797 0.152234
O O5 0.258319 0.197672 0.769724
O O6 0.258641 0.064507 0.552797
O O7 0.929445 0.120636 0.943618
O O8 0.418711 0.000751 0.833581
O O9 0.584693 0.272305 0.633662
O O10 0.062062 0.135928 0.330800
O O11 0.766754 0.067102 0.651445
O O12 0.671196 0.151600 0.348470
O O13 0.374081 0.508872 0.843279
O O14 0.906322 0.618821 0.072473
O O15 0.773212 0.299440 0.137638
#
# Coordination Sequence:
#
# PCOD9007263 Si02
#       8
#     2   2   2   1   2   2   2   2
#     4  10  21  39  61  83 111 148 171 226 276 319
#     4   9  18  33  49  75 108 142 184 232 263 326
#     4   9  18  33  49  75 108 142 184 232 263 326
#     4  10  22  42  58  88 120 128 186 220 258 350
#     4   9  20  37  56  83 110 138 194 221 262 337
#     4   9  20  35  52  82 108 136 196 224 260 335
#     4   9  18  30  50  71 106 150 178 225 290 302
#     4  10  21  39  61  83 111 148 171 226 276 319
#
# _framework density 27.746074
#
# number of rings (size 3 to 8) (size 9 to 14) (size 15 to 20)
#    0.000    2.667    0.000    0.400    3.733    1.600 
#    0.000    1.333    0.000    0.000    0.000    0.000 
#    0.000    0.000    0.000    0.000    0.000    0.000 
#
# Total GULP energy -83550.451684 kJ/mol
# GULP energy per Si atom -5570.030112 kJ/mol
# Density = 2.768292 g / cm^3
# Si number density = 27.746074 Si / 1000 Ang^3
#
#
#
# Elastic Constant Matrix: (Units=GPa)
#
#
# Indices 1 2 3 4 5 6 
#
# 1 149.2503 45.3515 7.4658 0.9692 -20.3774 -25.7011
# 2 45.3515 80.9162 21.4756 18.2023 -10.4769 -17.7552
# 3 7.4658 21.4756 76.8410 9.0963 -19.3558 -5.1519
# 4 0.9692 18.2023 9.0963 36.4527 -7.6379 -9.0637
# 5 -20.3774 -10.4769 -19.3558 -7.6379 44.7508 -5.1057
# 6 -25.7011 -17.7552 -5.1519 -9.0637 -5.1057 51.1271
#
#
#
# Elastic Compliance Matrix: (Units=1/GPa)
#
#
# Indices 1 2 3 4 5 6 
#
# 1 0.009594 -0.005078 0.001580 0.004051 0.005061 0.004442
# 2 -0.005078 0.018273 -0.003757 -0.007719 -0.000752 0.001971
# 3 0.001580 -0.003757 0.015771 -0.000247 0.006815 0.001716
# 4 0.004051 -0.007719 -0.000247 0.034085 0.006435 0.006016
# 5 0.005061 -0.000752 0.006815 0.006435 0.029324 0.007039
# 6 0.004442 0.001971 0.001716 0.006016 0.007039 0.024419
#
#
# Mechanical properties :
#
#
# Convention : Reuss Voigt Hill
#
# Bulk Modulus (GPa) = 34.32972 50.62148 42.47560
# Shear Modulus (GPa) = 32.11609 41.98041 37.04825
#
# Velocity S-wave (km/s) = 3.40590 3.89398 3.65809
# Velocity P-wave (km/s) = 5.27888 6.20496 5.76056
#
# Compressibility (1/GPa) = 0.02912928
#
# Stress axis : x y z
#
# Youngs Moduli (GPa) = 104.23488 54.72484 63.40625
#
# Poissons Ratio (x) = 0.27787 -0.10020
# Poissons Ratio (y) = 0.52927 0.23822
# Poissons Ratio (z) = -0.16471 0.20560
#
# Static dielectric constant tensor:
#      x y z
#    x 2.226060 -0.050970 -0.018350 
#    y -0.050970 2.368770 0.049050 
#    z -0.018350 0.049050 2.219790 
# 
# From -- ./inp_files/212420.got.cif
#   From: 2010.05.17/outbox.cif.g08.bks.cpg/sg2_107_cif.got.tgz:212420.got - 2010.06.03 11:33:40.
