data_PCOD9007957
_publ_section_title
;
Structure prediction by ZEFSAII (Michael W. Deem and Ramdas Pophale) SiO2 
 PCOD9007957
Probable space group: P -1
;
_chemical_formula_sum "Si O2"
_cell_formula_units_Z 16
_cell_length_a 7.758924
_cell_length_b 7.853293
_cell_length_c 16.492256
_cell_angle_alpha 58.738089
_cell_angle_beta 90.144941
_cell_angle_gamma 56.523255
_cell_volume 655.110740
_symmetry_space_group_name_H-M "P -1"
_symmetry_group_IT_number 2
_symmetry_cell_setting 'triclinic'
loop_
_space_group_symop_operation_xyz
x,y,z
-x,-y,-z
loop_
_atom_site_type_symbol
_atom_site_label
_atom_site_fract_x
_atom_site_fract_y
_atom_site_fract_z
Si Si1 0.032966 0.252661 0.899563
Si Si2 0.077385 0.273206 0.494261
Si Si3 0.371769 0.720746 0.701644
Si Si4 0.562804 0.607486 0.903540
Si Si5 0.157621 0.806880 0.231927
Si Si6 0.975409 0.690776 0.694036
Si Si7 0.749337 0.240946 0.576385
Si Si8 0.779437 0.808195 0.927078
O O1 0.807136 0.368527 0.922391
O O2 0.030144 0.124080 0.849829
O O3 0.004099 0.498236 0.806656
O O4 0.233696 0.102675 0.002306
O O5 0.071365 0.360557 0.382214
O O6 0.000000 0.500000 0.500000
O O7 0.889824 0.238819 0.506245
O O8 0.295518 0.984578 0.594291
O O9 0.398599 0.729139 0.796163
O O10 0.609970 0.471161 0.727696
O O11 0.189952 0.679475 0.699154
O O12 0.585235 0.810060 0.893140
O O13 0.500000 0.500000 0.000000
O O14 0.137046 0.779933 0.333545
O O15 0.185884 0.022587 0.168120
O O16 0.765201 0.992657 0.635304
O O17 0.500000 0.500000 0.500000
O O18 0.000000 0.500000 0.000000
#
# Coordination Sequence:
#
# PCOD9007957 Si02
#       8
#     2   2   2   2   2   2   2   2
#     4  10  22  39  62  90 122 164 211 259 312 374
#     4  11  24  41  63  93 128 170 209 258 317 372
#     4  10  23  42  62  94 131 167 213 261 312 378
#     4  10  21  39  63  92 123 163 210 261 314 372
#     4  11  22  40  64  95 127 168 213 260 314 375
#     4  11  22  43  65  91 129 169 209 261 315 375
#     4  11  22  38  64  94 125 167 212 260 313 372
#     4  10  21  40  63  91 124 164 207 258 314 370
#
# _framework density 24.423351
#
# number of rings (size 3 to 8) (size 9 to 14) (size 15 to 20)
#    0.000    1.500    0.000    6.375    0.000    7.000 
#    0.000   15.000    0.000    0.000    0.000    0.000 
#    0.000    0.000    0.000    0.000    0.000    0.000 
#
# Total GULP energy -89585.349497 kJ/mol
# GULP energy per Si atom -5599.084344 kJ/mol
# Density = 2.436776 g / cm^3
# Si number density = 24.423351 Si / 1000 Ang^3
#
#
#
# Elastic Constant Matrix: (Units=GPa)
#
#
# Indices 1 2 3 4 5 6 
#
# 1 70.6155 22.6247 28.7021 7.0518 0.5015 22.6790
# 2 22.6247 89.9009 26.5236 18.9455 12.0743 22.3625
# 3 28.7021 26.5236 119.4099 24.9310 -1.5794 6.5108
# 4 7.0518 18.9455 24.9310 55.5482 6.5557 6.0861
# 5 0.5015 12.0743 -1.5794 6.5557 42.9845 2.2924
# 6 22.6790 22.3625 6.5108 6.0861 2.2924 41.6180
#
#
#
# Elastic Compliance Matrix: (Units=1/GPa)
#
#
# Indices 1 2 3 4 5 6 
#
# 1 0.019095 -0.001635 -0.003898 0.000823 0.000451 -0.009062
# 2 -0.001635 0.014696 -0.001992 -0.002839 -0.003424 -0.006090
# 3 -0.003898 -0.001992 0.010482 -0.003930 0.001480 0.002048
# 4 0.000823 -0.002839 -0.003930 0.021062 -0.002502 -0.001250
# 5 0.000451 -0.003424 0.001480 -0.002502 0.024637 0.000371
# 6 -0.009062 -0.006090 0.002048 -0.001250 0.000371 0.032080
#
#
# Mechanical properties :
#
#
# Convention : Reuss Voigt Hill
#
# Bulk Modulus (GPa) = 34.22035 48.40302 41.31169
# Shear Modulus (GPa) = 34.05003 41.50186 37.77595
#
# Velocity S-wave (km/s) = 3.73789 4.12669 3.93710
# Velocity P-wave (km/s) = 5.71584 6.52438 6.13345
#
# Compressibility (1/GPa) = 0.02922237
#
# Stress axis : x y z
#
# Youngs Moduli (GPa) = 52.37101 68.04787 95.39941
#
# Poissons Ratio (x) = 0.11127 0.37189
# Poissons Ratio (y) = 0.08564 0.19000
# Poissons Ratio (z) = 0.20415 0.13552
#
# Static dielectric constant tensor:
#      x y z
#    x 1.949330 0.011790 0.045180 
#    y 0.011790 2.004920 0.008650 
#    z 0.045180 0.008650 1.894100 
# 
# From -- ./inp_files/555938.got.cif
#   From: 2010.05.17/outbox.cif.g08.bks.cpg/sg2_278_cif.got.tgz:555938.got - 2010.06.03 11:33:40.
