data_PCOD9007514
_publ_section_title
;
Structure prediction by ZEFSAII (Michael W. Deem and Ramdas Pophale) SiO2 
 PCOD9007514
Probable space group: P -1
;
_chemical_formula_sum "Si O2"
_cell_formula_units_Z 15
_cell_length_a 13.922719
_cell_length_b 17.788937
_cell_length_c 7.623530
_cell_angle_alpha 56.220160
_cell_angle_beta 54.999011
_cell_angle_gamma 22.230147
_cell_volume 583.223145
_symmetry_space_group_name_H-M "P -1"
_symmetry_group_IT_number 2
_symmetry_cell_setting 'triclinic'
loop_
_space_group_symop_operation_xyz
x,y,z
-x,-y,-z
loop_
_atom_site_type_symbol
_atom_site_label
_atom_site_fract_x
_atom_site_fract_y
_atom_site_fract_z
Si Si1 0.464761 0.224860 0.640401
Si Si2 0.238594 0.384126 0.299423
Si Si3 0.500000 0.000000 0.000000
Si Si4 0.037590 0.874881 0.450444
Si Si5 0.585512 0.898226 0.724425
Si Si6 0.785225 0.225190 0.232627
Si Si7 0.017276 0.261666 0.886604
Si Si8 0.776606 0.424403 0.574040
O O1 0.446406 0.242163 0.423076
O O2 0.375247 0.190063 0.846616
O O3 0.298071 0.425888 0.618468
O O4 0.764043 0.034847 0.615442
O O5 0.315903 0.266771 0.213397
O O6 0.165016 0.534018 0.118420
O O7 0.000000 0.500000 0.500000
O O8 0.713214 0.869517 0.776211
O O9 0.222641 0.774184 0.547255
O O10 0.152351 0.712614 0.433620
O O11 0.958940 0.022493 0.244777
O O12 0.500000 0.000000 0.500000
O O13 0.308173 0.079943 0.890263
O O14 0.486308 0.420399 0.242542
O O15 0.916628 0.230475 0.053203
O O16 0.000424 0.288745 0.658843
#
# Coordination Sequence:
#
# PCOD9007514 Si02
#       8
#     2   2   1   2   2   2   2   2
#     4  10  22  39  59  93 123 167 216 259 320 385
#     4  11  22  41  64  88 130 171 209 270 322 373
#     4  12  24  40  68  96 126 170 224 256 318 392
#     4  10  21  39  62  84 129 164 202 268 323 367
#     4  12  24  43  67  92 133 172 213 270 321 379
#     4  10  22  39  59  93 124 159 214 263 312 387
#     4  11  23  40  64  94 124 166 217 260 320 388
#     4  10  22  38  64  88 125 166 205 265 320 373
#
# _framework density 25.719145000000001
#
# number of rings (size 3 to 8) (size 9 to 14) (size 15 to 20)
#    0.000    1.333    2.667    2.400    0.000    2.667 
#    0.000    3.333    0.000    0.000    0.000    0.000 
#    0.000    0.000    0.000    0.000    0.000    0.000 
#
# Total GULP energy -83700.322871 kJ/mol
# GULP energy per Si atom -5580.021525 kJ/mol
# Density = 2.566061 g / cm^3
# Si number density = 25.719145 Si / 1000 Ang^3
#
#
#
# Elastic Constant Matrix: (Units=GPa)
#
#
# Indices 1 2 3 4 5 6 
#
# 1 125.3574 59.4197 25.3322 -13.7235 -12.0308 39.8224
# 2 59.4197 134.7644 40.8932 -30.7122 -12.4465 45.2209
# 3 25.3322 40.8932 94.4643 -30.6527 -26.6602 27.3764
# 4 -13.7235 -30.7122 -30.6527 30.7063 16.7759 -12.2990
# 5 -12.0308 -12.4465 -26.6602 16.7759 66.0970 -2.8694
# 6 39.8224 45.2209 27.3764 -12.2990 -2.8694 85.3095
#
#
#
# Elastic Compliance Matrix: (Units=1/GPa)
#
#
# Indices 1 2 3 4 5 6 
#
# 1 0.010809 -0.003795 -0.000444 -0.001323 0.001278 -0.003039
# 2 -0.003795 0.012434 -0.000703 0.009350 -0.001149 -0.003284
# 3 -0.000444 -0.000703 0.017024 0.013206 0.003177 -0.002872
# 4 -0.001323 0.009350 0.013206 0.058779 -0.008088 -0.000375
# 5 0.001278 -0.001149 0.003177 -0.008088 0.018412 -0.001554
# 6 -0.003039 -0.003284 -0.002872 -0.000375 -0.001554 0.015697
#
#
# Mechanical properties :
#
#
# Convention : Reuss Voigt Hill
#
# Bulk Modulus (GPa) = 32.91305 67.31957 50.11631
# Shear Modulus (GPa) = 32.64421 51.68531 42.16476
#
# Velocity S-wave (km/s) = 3.56653 4.48772 4.05338
# Velocity P-wave (km/s) = 5.45757 7.28592 6.43699
#
# Compressibility (1/GPa) = 0.03038309
#
# Stress axis : x y z
#
# Youngs Moduli (GPa) = 92.51619 80.42568 58.74151
#
# Poissons Ratio (x) = 0.30520 0.02606
# Poissons Ratio (y) = 0.35108 0.04131
# Poissons Ratio (z) = 0.04105 0.05655
#
# Static dielectric constant tensor:
#      x y z
#    x 3.282960 0.062010 0.652830 
#    y 0.062010 2.054120 0.042410 
#    z 0.652830 0.042410 2.459620 
# 
# From -- ./inp_files/318011.got.cif
#   From: 2010.05.17/outbox.cif.g08.bks.cpg/sg2_160_cif.got.tgz:318011.got - 2010.06.03 11:33:40.
