data_PCOD9007419
_publ_section_title
;
Structure prediction by ZEFSAII (Michael W. Deem and Ramdas Pophale) SiO2 
 PCOD9007419
Probable space group: P -1
;
_chemical_formula_sum "Si O2"
_cell_formula_units_Z 16
_cell_length_a 15.904490
_cell_length_b 11.007553
_cell_length_c 8.967669
_cell_angle_alpha 65.157099
_cell_angle_beta 63.495755
_cell_angle_gamma 117.573217
_cell_volume 763.505567
_symmetry_space_group_name_H-M "P -1"
_symmetry_group_IT_number 2
_symmetry_cell_setting 'triclinic'
loop_
_space_group_symop_operation_xyz
x,y,z
-x,-y,-z
loop_
_atom_site_type_symbol
_atom_site_label
_atom_site_fract_x
_atom_site_fract_y
_atom_site_fract_z
Si Si1 0.123342 0.139271 0.197218
Si Si2 0.751190 0.412709 0.828113
Si Si3 0.438888 0.779381 0.650708
Si Si4 0.063937 0.208641 0.917800
Si Si5 0.521840 0.454205 0.166719
Si Si6 0.377650 0.548634 0.324380
Si Si7 0.595118 0.961695 0.125510
Si Si8 0.078138 0.812858 0.217480
O O1 0.110503 0.989082 0.187475
O O2 0.071352 0.196769 0.093945
O O3 0.300327 0.345522 0.014102
O O4 0.000000 0.000000 0.500000
O O5 0.697099 0.489441 0.753484
O O6 0.925844 0.582153 0.544615
O O7 0.723632 0.395738 0.035839
O O8 0.633093 0.162898 0.990673
O O9 0.528263 0.758227 0.673829
O O10 0.473974 0.790568 0.444113
O O11 0.500000 0.000000 0.500000
O O12 0.240589 0.423130 0.612030
O O13 0.968891 0.214427 0.903540
O O14 0.000000 0.000000 0.000000
O O15 0.422724 0.444595 0.350692
O O16 0.500000 0.500000 0.000000
O O17 0.524550 0.809113 0.115403
O O18 0.764904 0.092512 0.953156
#
# Coordination Sequence:
#
# PCOD9007419 Si02
#       8
#     2   2   2   2   2   2   2   2
#     4  11  23  38  59  90 127 164 207 263 325 376
#     4  10  21  42  61  87 133 173 205 254 332 382
#     4  10  23  39  60  89 125 166 205 254 325 376
#     4   9  22  38  57  83 128 158 199 258 323 376
#     4  12  24  38  66  94 125 162 217 268 311 378
#     4  11  22  39  62  93 122 162 219 264 313 376
#     4  11  22  38  64  95 125 166 215 268 308 383
#     4  10  21  39  61  92 123 166 216 258 313 386
#
# _framework density 20.955971999999999
#
# number of rings (size 3 to 8) (size 9 to 14) (size 15 to 20)
#    0.000    1.500    2.500    2.250    7.000    1.000 
#    0.000    0.000    0.000    0.000    0.000   16.625 
#    0.000    0.000    0.000    0.000    0.000    0.000 
#
# Total GULP energy -89170.261559 kJ/mol
# GULP energy per Si atom -5573.141347 kJ/mol
# Density = 2.090828 g / cm^3
# Si number density = 20.955972 Si / 1000 Ang^3
#
#
#
# Elastic Constant Matrix: (Units=GPa)
#
#
# Indices 1 2 3 4 5 6 
#
# 1 120.3771 39.8595 45.0847 2.8086 -3.4591 4.6294
# 2 39.8595 61.6055 14.9614 -2.4707 5.9281 7.9496
# 3 45.0847 14.9614 93.1635 8.5586 6.0929 25.7759
# 4 2.8086 -2.4707 8.5586 33.8681 2.2323 5.1768
# 5 -3.4591 5.9281 6.0929 2.2323 31.4610 -3.0367
# 6 4.6294 7.9496 25.7759 5.1768 -3.0367 39.3963
#
#
#
# Elastic Compliance Matrix: (Units=1/GPa)
#
#
# Indices 1 2 3 4 5 6 
#
# 1 0.013614 -0.008318 -0.006892 -0.001104 0.004971 0.005116
# 2 -0.008318 0.022589 0.002160 0.003113 -0.006379 -0.005894
# 3 -0.006892 0.002160 0.017317 -0.001578 -0.005485 -0.011171
# 4 -0.001104 0.003113 -0.001578 0.031016 -0.002967 -0.003770
# 5 0.004971 -0.006379 -0.005485 -0.002967 0.035523 0.007420
# 6 0.005116 -0.005894 -0.011171 -0.003770 0.007420 0.034348
#
#
# Mechanical properties :
#
#
# Convention : Reuss Voigt Hill
#
# Bulk Modulus (GPa) = 36.46979 52.77301 44.62140
# Shear Modulus (GPa) = 26.36494 32.62778 29.49636
#
# Velocity S-wave (km/s) = 3.55083 3.95012 3.75579
# Velocity P-wave (km/s) = 5.85253 6.78543 6.33617
#
# Compressibility (1/GPa) = 0.02741995
#
# Stress axis : x y z
#
# Youngs Moduli (GPa) = 73.45124 44.26967 57.74814
#
# Poissons Ratio (x) = 0.36822 0.39799
# Poissons Ratio (y) = 0.61095 -0.12472
# Poissons Ratio (z) = 0.50621 -0.09561
#
# Static dielectric constant tensor:
#      x y z
#    x 1.741730 -0.026320 0.061900 
#    y -0.026320 1.859750 -0.031350 
#    z 0.061900 -0.031350 1.863890 
# 
# From -- ./inp_files/306722.got.cif
#   From: 2010.05.17/outbox.cif.g08.bks.cpg/sg2_154_cif.got.tgz:306722.got - 2010.06.03 11:33:40.
