data_PCOD9007632
_publ_section_title
;
Structure prediction by ZEFSAII (Michael W. Deem and Ramdas Pophale) SiO2 
 PCOD9007632
Probable space group: P -1
;
_chemical_formula_sum "Si O2"
_cell_formula_units_Z 16
_cell_length_a 26.866772
_cell_length_b 7.740687
_cell_length_c 6.992944
_cell_angle_alpha 87.319996
_cell_angle_beta 74.950620
_cell_angle_gamma 142.902598
_cell_volume 762.426711
_symmetry_space_group_name_H-M "P -1"
_symmetry_group_IT_number 2
_symmetry_cell_setting 'triclinic'
loop_
_space_group_symop_operation_xyz
x,y,z
-x,-y,-z
loop_
_atom_site_type_symbol
_atom_site_label
_atom_site_fract_x
_atom_site_fract_y
_atom_site_fract_z
Si Si1 0.072753 0.096342 0.792826
Si Si2 0.783507 0.348234 0.137654
Si Si3 0.911736 0.406719 0.065054
Si Si4 0.471808 0.826256 0.739069
Si Si5 0.166451 0.365986 0.302634
Si Si6 0.044341 0.721308 0.265553
Si Si7 0.580238 0.709305 0.250436
Si Si8 0.613806 0.114475 0.914381
O O1 0.167293 0.356763 0.812948
O O2 0.109223 0.268729 0.547793
O O3 0.006165 0.745801 0.843067
O O4 0.000000 0.000000 0.000000
O O5 0.672894 0.037541 0.251610
O O6 0.825690 0.293509 0.184182
O O7 0.819494 0.448341 0.878672
O O8 0.885931 0.181314 0.958448
O O9 0.956201 0.510844 0.223889
O O10 0.416177 0.486092 0.789227
O O11 0.500000 0.000000 0.500000
O O12 0.561835 0.020466 0.772425
O O13 0.412544 0.802679 0.919098
O O14 0.272250 0.592736 0.233976
O O15 0.102257 0.042647 0.279548
O O16 0.000000 0.500000 0.500000
O O17 0.500000 0.500000 0.500000
O O18 0.573922 0.823486 0.068863
#
# Coordination Sequence:
#
# PCOD9007632 Si02
#       8
#     2   2   2   2   2   2   2   2
#     4  10  21  39  62  90 124 168 217 269 323 393
#     4  10  24  42  63  95 127 169 226 269 332 403
#     4  10  22  40  60  91 129 168 216 270 319 400
#     4  11  23  46  71  98 137 181 224 290 347 408
#     4  11  23  40  67  94 130 176 218 280 335 401
#     4  11  22  39  60  90 129 173 211 267 334 383
#     4  11  23  44  71 100 139 183 220 289 347 410
#     4  10  25  44  68 104 135 180 235 278 349 419
#
# _framework density 20.985621999999999
#
# number of rings (size 3 to 8) (size 9 to 14) (size 15 to 20)
#    0.000    1.500    3.750    0.375    3.500    4.000 
#    2.250    0.000    0.000    0.000    0.000    0.000 
#    0.000    0.000    0.000    0.000    0.000    0.000 
#
# Total GULP energy -89100.509189 kJ/mol
# GULP energy per Si atom -5568.781824 kJ/mol
# Density = 2.093786 g / cm^3
# Si number density = 20.985622 Si / 1000 Ang^3
#
#
#
# Elastic Constant Matrix: (Units=GPa)
#
#
# Indices 1 2 3 4 5 6 
#
# 1 72.9641 17.9585 18.9847 -2.5055 9.5220 -6.2967
# 2 17.9585 87.1595 31.2328 1.5918 -4.6604 -1.4363
# 3 18.9847 31.2328 123.8946 -3.7477 8.6408 2.2868
# 4 -2.5055 1.5918 -3.7477 25.8841 -5.9420 1.1792
# 5 9.5220 -4.6604 8.6408 -5.9420 28.0294 7.6973
# 6 -6.2967 -1.4363 2.2868 1.1792 7.6973 36.1703
#
#
#
# Elastic Compliance Matrix: (Units=1/GPa)
#
#
# Indices 1 2 3 4 5 6 
#
# 1 0.016050 -0.003138 -0.001279 -0.000184 -0.006772 0.004197
# 2 -0.003138 0.013512 -0.003235 -0.000563 0.004389 -0.000721
# 3 -0.001279 -0.003235 0.009303 0.000823 -0.002689 -0.000394
# 4 -0.000184 -0.000563 0.000823 0.041077 0.009368 -0.003439
# 5 -0.006772 0.004389 -0.002689 0.009368 0.044431 -0.010595
# 6 0.004197 -0.000721 -0.000394 -0.003439 -0.010595 0.030741
#
#
# Mechanical properties :
#
#
# Convention : Reuss Voigt Hill
#
# Bulk Modulus (GPa) = 42.44486 46.70780 44.57633
# Shear Modulus (GPa) = 28.04700 32.40625 30.22662
#
# Velocity S-wave (km/s) = 3.65976 3.93391 3.79931
# Velocity P-wave (km/s) = 6.17480 6.55283 6.36662
#
# Compressibility (1/GPa) = 0.02355998
#
# Stress axis : x y z
#
# Youngs Moduli (GPa) = 62.30455 74.00719 107.49668
#
# Poissons Ratio (x) = 0.23225 0.13750
# Poissons Ratio (y) = 0.19552 0.34778
# Poissons Ratio (z) = 0.07969 0.23943
#
# Static dielectric constant tensor:
#      x y z
#    x 1.905440 -0.051240 0.025700 
#    y -0.051240 1.812240 0.006060 
#    z 0.025700 0.006060 1.758210 
# 
# From -- ./inp_files/128269.got.cif
#   From: 2010.05.17/outbox.cif.g08.bks.cpg/sg2_65_cif.got.tgz:128269.got - 2010.06.03 11:33:40.
