data_PCOD9007158
_publ_section_title
;
Structure prediction by ZEFSAII (Michael W. Deem and Ramdas Pophale) SiO2 
 PCOD9007158
Probable space group: P -1
;
_chemical_formula_sum "Si O2"
_cell_formula_units_Z 16
_cell_length_a 15.309348
_cell_length_b 12.635977
_cell_length_c 10.437779
_cell_angle_alpha 101.502339
_cell_angle_beta 65.817791
_cell_angle_gamma 151.522724
_cell_volume 816.164947
_symmetry_space_group_name_H-M "P -1"
_symmetry_group_IT_number 2
_symmetry_cell_setting 'triclinic'
loop_
_space_group_symop_operation_xyz
x,y,z
-x,-y,-z
loop_
_atom_site_type_symbol
_atom_site_label
_atom_site_fract_x
_atom_site_fract_y
_atom_site_fract_z
Si Si1 0.329448 0.363457 0.677556
Si Si2 0.489550 0.360620 0.779729
Si Si3 0.095093 0.098373 0.324679
Si Si4 0.753727 0.226135 0.565033
Si Si5 0.522434 0.181655 0.551708
Si Si6 0.213062 0.495998 0.777366
Si Si7 0.263067 0.053079 0.096712
Si Si8 0.491062 0.095106 0.117857
O O1 0.500000 0.500000 0.500000
O O2 0.390926 0.366076 0.771712
O O3 0.313601 0.476890 0.727002
O O4 0.100308 0.092991 0.701595
O O5 0.733579 0.635179 0.727896
O O6 0.480555 0.254047 0.658448
O O7 0.365748 0.202883 0.942568
O O8 0.211797 0.102573 0.230353
O O9 0.000000 0.000000 0.500000
O O10 0.618272 0.196687 0.603178
O O11 0.000000 0.500000 0.500000
O O12 0.685555 0.077196 0.454326
O O13 0.670381 0.090876 0.713877
O O14 0.695935 0.368506 0.379358
O O15 0.293205 0.654432 0.879761
O O16 0.962340 0.229911 0.862887
O O17 0.413875 0.118757 0.088032
O O18 0.500000 0.000000 0.000000
#
# Coordination Sequence:
#
# PCOD9007158 Si02
#       8
#     2   2   2   2   2   2   2   2
#     4  11  21  39  64  90 120 162 201 244 304 362
#     4  12  23  38  61  91 126 157 202 251 300 363
#     4  11  23  39  64  91 123 164 203 246 302 367
#     4  10  22  39  62  86 115 153 207 257 303 356
#     4  10  21  39  60  88 117 154 203 257 300 358
#     4  10  22  41  62  87 124 160 205 249 301 368
#     4  11  25  40  60  91 126 162 202 252 306 359
#     4  11  24  41  63  86 123 163 203 251 309 364
#
# _framework density 19.60388
#
# number of rings (size 3 to 8) (size 9 to 14) (size 15 to 20)
#    0.000    1.250    2.500    3.375    0.000    5.500 
#    0.000    0.000    0.000    0.000    0.000    0.000 
#    0.000    0.000    0.000    0.000    0.000    0.000 
#
# Total GULP energy -89449.153516 kJ/mol
# GULP energy per Si atom -5590.572095 kJ/mol
# Density = 1.955926 g / cm^3
# Si number density = 19.603880 Si / 1000 Ang^3
#
#
#
# Elastic Constant Matrix: (Units=GPa)
#
#
# Indices 1 2 3 4 5 6 
#
# 1 43.2037 -11.3531 6.7265 2.1327 22.0179 2.6604
# 2 -11.3531 126.0635 22.2580 2.5443 -3.3920 4.3696
# 3 6.7265 22.2580 81.6331 -0.3485 14.7719 1.9445
# 4 2.1327 2.5443 -0.3485 33.1504 -12.8463 -1.4076
# 5 22.0179 -3.3920 14.7719 -12.8463 37.2221 0.2749
# 6 2.6604 4.3696 1.9445 -1.4076 0.2749 20.7642
#
#
#
# Elastic Compliance Matrix: (Units=1/GPa)
#
#
# Indices 1 2 3 4 5 6 
#
# 1 0.039166 0.003077 0.001106 -0.013893 -0.028074 -0.006339
# 2 0.003077 0.008738 -0.002519 -0.001139 -0.000402 -0.002069
# 3 0.001106 -0.002519 0.014203 -0.002650 -0.007427 -0.001023
# 4 -0.013893 -0.001139 -0.002650 0.040238 0.023018 0.004691
# 5 -0.028074 -0.000402 -0.007427 0.023018 0.054289 0.005219
# 6 -0.006339 -0.002069 -0.001023 0.004691 0.005219 0.049752
#
#
# Mechanical properties :
#
#
# Convention : Reuss Voigt Hill
#
# Bulk Modulus (GPa) = 15.28256 31.79587 23.53922
# Shear Modulus (GPa) = 22.23502 33.77858 28.00680
#
# Velocity S-wave (km/s) = 3.37147 4.15547 3.78383
# Velocity P-wave (km/s) = 4.79253 6.26724 5.57883
#
# Compressibility (1/GPa) = 0.06543406
#
# Stress axis : x y z
#
# Youngs Moduli (GPa) = 25.53226 114.43945 70.40927
#
# Poissons Ratio (x) = -0.35210 -0.07785
# Poissons Ratio (y) = -0.07856 0.17736
# Poissons Ratio (z) = -0.02823 0.28827
#
# Static dielectric constant tensor:
#      x y z
#    x 1.650200 0.041740 -0.005120 
#    y 0.041740 1.591570 0.021020 
#    z -0.005120 0.021020 1.655360 
# 
# From -- ./inp_files/307695.got.cif
#   From: 2010.05.17/outbox.cif.g08.bks.cpg/sg2_154_cif.got.tgz:307695.got - 2010.06.03 11:33:40.
