data_PCOD9007033
_publ_section_title
;
Structure prediction by ZEFSAII (Michael W. Deem and Ramdas Pophale) SiO2 
 PCOD9007033
Probable space group: P -1
;
_chemical_formula_sum "Si O2"
_cell_formula_units_Z 14
_cell_length_a 18.345887
_cell_length_b 15.625502
_cell_length_c 18.526593
_cell_angle_alpha 22.622391
_cell_angle_beta 158.428197
_cell_angle_gamma 157.014936
_cell_volume 674.552846
_symmetry_space_group_name_H-M "P -1"
_symmetry_group_IT_number 2
_symmetry_cell_setting 'triclinic'
loop_
_space_group_symop_operation_xyz
x,y,z
-x,-y,-z
loop_
_atom_site_type_symbol
_atom_site_label
_atom_site_fract_x
_atom_site_fract_y
_atom_site_fract_z
Si Si1 0.971711 0.842047 0.429110
Si Si2 0.649019 0.060114 0.391686
Si Si3 0.245124 0.568979 0.691081
Si Si4 0.469883 0.472585 0.272857
Si Si5 0.323858 0.901188 0.831329
Si Si6 0.181172 0.783543 0.949769
Si Si7 0.429222 0.514480 0.044695
O O1 0.145434 0.869571 0.630940
O O2 0.732970 0.618371 0.393757
O O3 0.094985 0.816083 0.492020
O O4 0.921056 0.078989 0.199932
O O5 0.574997 0.774139 0.533263
O O6 0.631204 0.145076 0.390513
O O7 0.529932 0.199138 0.129445
O O8 0.259551 0.431385 0.885812
O O9 0.000000 0.500000 0.500000
O O10 0.365525 0.507641 0.784503
O O11 0.377945 0.661986 0.069466
O O12 0.368126 0.393650 0.160217
O O13 0.219501 0.904536 0.810549
O O14 0.562113 0.138166 0.853795
O O15 0.000000 0.500000 0.000000
#
# Coordination Sequence:
#
# PCOD9007033 Si02
#       7
#     2   2   2   2   2   2   2
#     4  11  22  39  60  85 120 154 192 246 287 343
#     4  10  21  39  59  87 115 156 196 237 294 349
#     4   9  18  38  60  82 120 153 190 247 289 336
#     4  11  22  39  60  85 120 154 195 240 292 346
#     4  10  21  40  56  85 123 147 194 248 279 343
#     4  10  22  37  60  86 115 157 193 234 295 346
#     4   9  20  38  57  83 122 147 191 251 279 341
#
# _framework density 20.754490000000001
#
# number of rings (size 3 to 8) (size 9 to 14) (size 15 to 20)
#    0.857    1.143    1.429    2.143    0.000    2.286 
#    5.143    0.714    0.000    0.000    0.000    0.000 
#    0.000    0.000    0.000    0.000    0.000    0.000 
#
# Total GULP energy -77954.571539 kJ/mol
# GULP energy per Si atom -5568.183681 kJ/mol
# Density = 2.070725 g / cm^3
# Si number density = 20.754490 Si / 1000 Ang^3
#
#
#
# Elastic Constant Matrix: (Units=GPa)
#
#
# Indices 1 2 3 4 5 6 
#
# 1 59.8698 -21.1160 1.8175 4.3482 17.8829 -5.5362
# 2 -21.1160 52.7957 14.4638 0.3461 8.0003 9.3977
# 3 1.8175 14.4638 56.9303 5.1200 16.9950 6.9139
# 4 4.3482 0.3461 5.1200 29.8573 -2.4033 -1.6251
# 5 17.8829 8.0003 16.9950 -2.4033 35.5396 7.2178
# 6 -5.5362 9.3977 6.9139 -1.6251 7.2178 17.8962
#
#
#
# Elastic Compliance Matrix: (Units=1/GPa)
#
#
# Indices 1 2 3 4 5 6 
#
# 1 0.028187 0.012321 0.001261 -0.005555 -0.019814 0.009249
# 2 0.012321 0.027300 -0.003530 -0.002586 -0.009720 -0.005475
# 3 0.001261 -0.003530 0.022256 -0.004931 -0.010276 -0.002658
# 4 -0.005555 -0.002586 -0.004931 0.035897 0.007829 0.001647
# 5 -0.019814 -0.009720 -0.010276 0.007829 0.049011 -0.016111
# 6 0.009249 -0.005475 -0.002658 0.001647 -0.016111 0.069288
#
#
# Mechanical properties :
#
#
# Convention : Reuss Voigt Hill
#
# Bulk Modulus (GPa) = 10.22004 17.76959 13.99481
# Shear Modulus (GPa) = 20.45387 28.28732 24.37059
#
# Velocity S-wave (km/s) = 3.14270 3.69582 3.43042
# Velocity P-wave (km/s) = 4.25484 5.17615 4.73794
#
# Compressibility (1/GPa) = 0.09784696
#
# Stress axis : x y z
#
# Youngs Moduli (GPa) = 35.47693 36.62968 44.93183
#
# Poissons Ratio (x) = -0.45130 -0.05667
# Poissons Ratio (y) = -0.43710 0.15862
# Poissons Ratio (z) = -0.04474 0.12931
#
# Static dielectric constant tensor:
#      x y z
#    x 1.750160 -0.045690 -0.005310 
#    y -0.045690 1.770610 -0.017480 
#    z -0.005310 -0.017480 1.746980 
# 
# From -- ./inp_files/600425.got.cif
#   From: 2010.05.17/outbox.cif.g08.bks.cpg/sg2_301_cif.got.tgz:600425.got - 2010.06.03 11:33:40.
