data_PCOD9007292
_publ_section_title
;
Structure prediction by ZEFSAII (Michael W. Deem and Ramdas Pophale) SiO2 
 PCOD9007292
Probable space group: P -1
;
_chemical_formula_sum "Si O2"
_cell_formula_units_Z 16
_cell_length_a 8.861172
_cell_length_b 11.328866
_cell_length_c 16.243068
_cell_angle_alpha 43.621731
_cell_angle_beta 124.465260
_cell_angle_gamma 140.342005
_cell_volume 717.802020
_symmetry_space_group_name_H-M "P -1"
_symmetry_group_IT_number 2
_symmetry_cell_setting 'triclinic'
loop_
_space_group_symop_operation_xyz
x,y,z
-x,-y,-z
loop_
_atom_site_type_symbol
_atom_site_label
_atom_site_fract_x
_atom_site_fract_y
_atom_site_fract_z
Si Si1 0.668779 0.851440 0.385279
Si Si2 0.566418 0.736578 0.757271
Si Si3 0.758728 0.153933 0.138340
Si Si4 0.116351 0.623652 0.607602
Si Si5 0.143026 0.788060 0.354966
Si Si6 0.691121 0.461673 0.882932
Si Si7 0.673669 0.728958 0.278511
Si Si8 0.197946 0.050623 0.453976
O O1 0.623787 0.009295 0.251204
O O2 0.956944 0.014180 0.396688
O O3 0.603350 0.681728 0.377582
O O4 0.619222 0.801557 0.490937
O O5 0.293464 0.613272 0.719986
O O6 0.624715 0.572968 0.870732
O O7 0.685665 0.850456 0.647946
O O8 0.684754 0.951965 0.740865
O O9 0.028630 0.364954 0.133936
O O10 0.766117 0.981546 0.174903
O O11 0.639754 0.242710 0.011961
O O12 0.888314 0.375267 0.641521
O O13 0.207784 0.731695 0.489416
O O14 0.107740 0.801331 0.558881
O O15 0.885132 0.724017 0.324969
O O16 0.540589 0.411262 0.780082
#
# Coordination Sequence:
#
# PCOD9007292 Si02
#       8
#     2   2   2   2   2   2   2   2
#     4   9  18  32  51  66 105 130 155 196 234 298
#     4  11  18  31  48  74 100 121 164 204 238 278
#     4   9  19  33  48  72  97 128 159 203 239 287
#     4  10  19  29  50  68  97 131 164 194 237 282
#     4  10  17  29  45  72  99 121 156 205 236 283
#     4  11  18  29  53  74  96 125 161 203 249 275
#     4  10  17  32  48  75  98 123 160 201 244 282
#     4  10  17  32  50  70  98 139 154 187 249 286
#
# _framework density 22.290267
#
# number of rings (size 3 to 8) (size 9 to 14) (size 15 to 20)
#    0.750    1.250    6.250    1.875    0.000    0.000 
#    0.000    0.625   11.000    0.750    0.000    0.875 
#    0.000    0.125    0.000    0.000    0.000    0.000 
#
# Total GULP energy -89194.743782 kJ/mol
# GULP energy per Si atom -5574.671486 kJ/mol
# Density = 2.223953 g / cm^3
# Si number density = 22.290267 Si / 1000 Ang^3
#
#
#
# Elastic Constant Matrix: (Units=GPa)
#
#
# Indices 1 2 3 4 5 6 
#
# 1 41.1853 10.1045 14.6947 1.5314 10.5460 -6.7049
# 2 10.1045 124.1859 19.1678 0.0329 7.7417 -18.9161
# 3 14.6947 19.1678 90.2220 -10.1986 22.2563 -6.8602
# 4 1.5314 0.0329 -10.1986 39.3770 -0.8163 10.2866
# 5 10.5460 7.7417 22.2563 -0.8163 17.0626 -0.7177
# 6 -6.7049 -18.9161 -6.8602 10.2866 -0.7177 25.9098
#
#
#
# Elastic Compliance Matrix: (Units=1/GPa)
#
#
# Indices 1 2 3 4 5 6 
#
# 1 0.030702 0.000062 -0.000203 -0.003983 -0.018552 0.009004
# 2 0.000062 0.009530 -0.001028 -0.002304 -0.002815 0.007539
# 3 -0.000203 -0.001028 0.017198 0.003561 -0.021597 0.001739
# 4 -0.003983 -0.002304 0.003561 0.030050 -0.000276 -0.013708
# 5 -0.018552 -0.002815 -0.021597 -0.000276 0.099100 -0.009720
# 6 0.009004 0.007539 0.001739 -0.013708 -0.009720 0.052063
#
#
# Mechanical properties :
#
#
# Convention : Reuss Voigt Hill
#
# Bulk Modulus (GPa) = 18.15102 38.16969 28.16036
# Shear Modulus (GPa) = 19.27939 30.57831 24.92885
#
# Velocity S-wave (km/s) = 2.94415 3.70783 3.34784
# Velocity P-wave (km/s) = 4.44050 5.95750 5.25404
#
# Compressibility (1/GPa) = 0.05509331
#
# Stress axis : x y z
#
# Youngs Moduli (GPa) = 32.57117 104.92707 58.14784
#
# Poissons Ratio (x) = -0.00654 0.01181
# Poissons Ratio (y) = -0.00203 0.05976
# Poissons Ratio (z) = 0.00661 0.10783
#
# Static dielectric constant tensor:
#      x y z
#    x 1.909240 -0.026890 -0.026840 
#    y -0.026890 1.891800 -0.018170 
#    z -0.026840 -0.018170 1.835820 
# 
# From -- ./inp_files/594721.got.cif
#   From: 2010.05.17/outbox.cif.g08.bks.cpg/sg2_298_cif.got.tgz:594721.got - 2010.06.03 11:33:40.
