data_PCOD9007739
_publ_section_title
;
Structure prediction by ZEFSAII (Michael W. Deem and Ramdas Pophale) SiO2 
 PCOD9007739
Probable space group: P -1
;
_chemical_formula_sum "Si O2"
_cell_formula_units_Z 16
_cell_length_a 11.973270
_cell_length_b 11.264412
_cell_length_c 9.738755
_cell_angle_alpha 69.599330
_cell_angle_beta 54.726766
_cell_angle_gamma 47.247768
_cell_volume 785.345044
_symmetry_space_group_name_H-M "P -1"
_symmetry_group_IT_number 2
_symmetry_cell_setting 'triclinic'
loop_
_space_group_symop_operation_xyz
x,y,z
-x,-y,-z
loop_
_atom_site_type_symbol
_atom_site_label
_atom_site_fract_x
_atom_site_fract_y
_atom_site_fract_z
Si Si1 0.294620 0.149689 0.585863
Si Si2 0.077016 0.348562 0.409886
Si Si3 0.115296 0.334921 0.077868
Si Si4 0.970353 0.161237 0.904392
Si Si5 0.366154 0.283489 0.722608
Si Si6 0.105992 0.798614 0.362596
Si Si7 0.815416 0.350324 0.210630
Si Si8 0.258160 0.843439 0.481378
O O1 0.235103 0.206754 0.448960
O O2 0.155415 0.126817 0.754900
O O3 0.282276 0.279861 0.642522
O O4 0.500000 0.000000 0.500000
O O5 0.127242 0.363995 0.216220
O O6 0.000000 0.500000 0.500000
O O7 0.932756 0.321082 0.512349
O O8 0.008035 0.266839 0.171417
O O9 0.297893 0.230260 0.912299
O O10 0.000000 0.500000 0.000000
O O11 0.865286 0.218394 0.813081
O O12 0.859828 0.301868 0.039626
O O13 0.000000 0.000000 0.000000
O O14 0.301694 0.461477 0.739934
O O15 0.573520 0.168186 0.614713
O O16 0.247306 0.785001 0.362903
O O17 0.921976 0.978047 0.441556
O O18 0.736387 0.271059 0.364673
#
# Coordination Sequence:
#
# PCOD9007739 Si02
#       8
#     2   2   2   2   2   2   2   2
#     4  11  25  44  65  98 135 169 212 272 331 384
#     4  11  22  40  68  95 125 169 219 264 319 392
#     4  10  21  39  62  94 125 162 214 267 317 377
#     4  11  22  41  64  92 123 170 213 261 317 390
#     4  11  23  40  64  95 128 163 215 269 323 378
#     4  10  23  39  65  88 125 166 216 255 324 385
#     4  11  21  39  66  90 122 170 218 256 320 385
#     4  11  22  43  61  90 128 168 212 261 320 391
#
# _framework density 20.373211000000001
#
# number of rings (size 3 to 8) (size 9 to 14) (size 15 to 20)
#    0.000    1.250    3.750    3.375    5.250    0.000 
#    2.250    1.875    0.000    0.000    0.000    0.000 
#    0.000    0.000    0.000    0.000    0.000    0.000 
#
# Total GULP energy -89319.089301 kJ/mol
# GULP energy per Si atom -5582.443081 kJ/mol
# Density = 2.032684 g / cm^3
# Si number density = 20.373211 Si / 1000 Ang^3
#
#
#
# Elastic Constant Matrix: (Units=GPa)
#
#
# Indices 1 2 3 4 5 6 
#
# 1 113.4848 8.5666 51.3641 -4.1642 19.4796 -1.0311
# 2 8.5666 54.7246 17.7674 2.5025 5.7053 9.6141
# 3 51.3641 17.7674 131.6405 -7.6313 33.9609 -8.4829
# 4 -4.1642 2.5025 -7.6313 23.9442 -0.2069 6.9831
# 5 19.4796 5.7053 33.9609 -0.2069 37.2472 13.1377
# 6 -1.0311 9.6141 -8.4829 6.9831 13.1377 26.3221
#
#
#
# Elastic Compliance Matrix: (Units=1/GPa)
#
#
# Indices 1 2 3 4 5 6 
#
# 1 0.010886 -0.000475 -0.003377 0.000626 -0.002800 0.000743
# 2 -0.000475 0.021574 -0.005083 -0.000278 0.005965 -0.012440
# 3 -0.003377 -0.005083 0.014610 0.000313 -0.015795 0.014233
# 4 0.000626 -0.000278 0.000313 0.046250 0.004776 -0.014427
# 5 -0.002800 0.005965 -0.015795 0.004776 0.054464 -0.035829
# 6 0.000743 -0.012440 0.014233 -0.014427 -0.035829 0.068861
#
#
# Mechanical properties :
#
#
# Convention : Reuss Voigt Hill
#
# Bulk Modulus (GPa) = 34.24534 50.58289 42.41412
# Shear Modulus (GPa) = 20.47080 32.31283 26.39181
#
# Velocity S-wave (km/s) = 3.17328 3.98684 3.60310
# Velocity P-wave (km/s) = 5.50198 6.78787 6.17847
#
# Compressibility (1/GPa) = 0.02920105
#
# Stress axis : x y z
#
# Youngs Moduli (GPa) = 91.85732 46.35139 68.44450
#
# Poissons Ratio (x) = 0.02202 0.23114
# Poissons Ratio (y) = 0.04363 0.34791
# Poissons Ratio (z) = 0.31020 0.23561
#
# Static dielectric constant tensor:
#      x y z
#    x 1.748030 0.017030 0.011160 
#    y 0.017030 1.782300 0.008080 
#    z 0.011160 0.008080 1.755660 
# 
# From -- ./inp_files/257953.got.cif
#   From: 2010.05.17/outbox.cif.g08.bks.cpg/sg2_129_cif.got.tgz:257953.got - 2010.06.03 11:33:40.
