data_PCOD9007560
_publ_section_title
;
Structure prediction by ZEFSAII (Michael W. Deem and Ramdas Pophale) SiO2 
 PCOD9007560
Probable space group: P -1
;
_chemical_formula_sum "Si O2"
_cell_formula_units_Z 16
_cell_length_a 9.665818
_cell_length_b 6.412389
_cell_length_c 25.693783
_cell_angle_alpha 113.505757
_cell_angle_beta 41.459294
_cell_angle_gamma 135.042756
_cell_volume 714.982804
_symmetry_space_group_name_H-M "P -1"
_symmetry_group_IT_number 2
_symmetry_cell_setting 'triclinic'
loop_
_space_group_symop_operation_xyz
x,y,z
-x,-y,-z
loop_
_atom_site_type_symbol
_atom_site_label
_atom_site_fract_x
_atom_site_fract_y
_atom_site_fract_z
Si Si1 0.666755 0.181506 0.297178
Si Si2 0.853764 0.045162 0.627033
Si Si3 0.110353 0.109974 0.807564
Si Si4 0.211766 0.423528 0.069987
Si Si5 0.167347 0.436493 0.478177
Si Si6 0.357875 0.425349 0.588517
Si Si7 0.841146 0.385330 0.089678
Si Si8 0.223474 0.852020 0.171442
O O1 0.467642 0.103530 0.296733
O O2 0.558731 0.263145 0.382725
O O3 0.972750 0.524089 0.236539
O O4 0.657191 0.903114 0.279923
O O5 0.867720 0.811795 0.572476
O O6 0.012502 0.315294 0.566061
O O7 0.025661 0.164726 0.643986
O O8 0.159508 0.379279 0.852769
O O9 0.916542 0.032287 0.804994
O O10 0.970205 0.841929 0.862475
O O11 0.303856 0.745578 0.090647
O O12 0.010859 0.314931 0.066465
O O13 0.500000 0.500000 0.000000
O O14 0.499490 0.658218 0.422627
O O15 0.000000 0.500000 0.500000
O O16 0.500000 0.500000 0.500000
O O17 0.509731 0.095387 0.145916
O O18 0.000000 0.500000 0.000000
#
# Coordination Sequence:
#
# PCOD9007560 Si02
#       8
#     2   2   2   2   2   2   2   2
#     4  10  22  39  61  85 122 164 199 249 308 360
#     4   9  19  36  56  81 116 153 196 244 295 359
#     4  10  23  40  59  86 122 160 199 244 302 359
#     4  10  21  39  62  88 121 158 196 245 303 359
#     4   9  18  34  57  85 116 149 191 247 303 354
#     4   9  19  37  60  87 116 151 199 250 297 353
#     4  11  23  39  64  95 122 155 204 252 295 356
#     4  10  23  40  58  88 124 158 204 251 298 362
#
# _framework density 22.378160000000001
#
# number of rings (size 3 to 8) (size 9 to 14) (size 15 to 20)
#    0.000    2.250    0.000    2.250    0.000   12.500 
#    0.000    2.500    0.000    1.500    0.000    0.000 
#    0.000    0.000    0.000    0.000    0.000    0.000 
#
# Total GULP energy -89073.593738 kJ/mol
# GULP energy per Si atom -5567.099609 kJ/mol
# Density = 2.232723 g / cm^3
# Si number density = 22.378160 Si / 1000 Ang^3
#
#
#
# Elastic Constant Matrix: (Units=GPa)
#
#
# Indices 1 2 3 4 5 6 
#
# 1 170.0156 61.2846 48.4565 1.6199 -46.7221 8.1478
# 2 61.2846 59.3866 37.8787 1.4792 -24.1594 13.6154
# 3 48.4565 37.8787 79.4467 11.2020 -31.3276 4.9250
# 4 1.6199 1.4792 11.2020 34.3105 -4.0723 -11.7373
# 5 -46.7221 -24.1594 -31.3276 -4.0723 45.6368 -4.5503
# 6 8.1478 13.6154 4.9250 -11.7373 -4.5503 42.8836
#
#
#
# Elastic Compliance Matrix: (Units=1/GPa)
#
#
# Indices 1 2 3 4 5 6 
#
# 1 0.010826 -0.008897 -0.000037 0.001301 0.006647 0.001833
# 2 -0.008897 0.034988 -0.010027 -0.000423 0.001675 -0.008205
# 3 -0.000037 -0.010027 0.021753 -0.005539 0.009107 0.000143
# 4 0.001301 -0.000423 -0.005539 0.034540 0.001398 0.010125
# 5 0.006647 0.001675 0.009107 0.001398 0.036117 0.001374
# 6 0.001833 -0.008205 0.000143 0.010125 0.001374 0.028476
#
#
# Mechanical properties :
#
#
# Convention : Reuss Voigt Hill
#
# Bulk Modulus (GPa) = 33.73096 67.12096 50.42596
# Shear Modulus (GPa) = 23.30960 35.31478 29.31219
#
# Velocity S-wave (km/s) = 3.23092 3.97683 3.62312
# Velocity P-wave (km/s) = 5.38742 7.15164 6.33128
#
# Compressibility (1/GPa) = 0.02964636
#
# Stress axis : x y z
#
# Youngs Moduli (GPa) = 92.37289 28.58090 45.97010
#
# Poissons Ratio (x) = 0.25428 0.00171
# Poissons Ratio (y) = 0.82182 0.46092
# Poissons Ratio (z) = 0.00343 0.28657
#
# Static dielectric constant tensor:
#      x y z
#    x 1.869210 0.031120 0.003040 
#    y 0.031120 1.837350 -0.041840 
#    z 0.003040 -0.041840 1.684090 
# 
# From -- ./inp_files/141226.got.cif
#   From: 2010.05.17/outbox.cif.g08.bks.cpg/sg2_71_cif.got.tgz:141226.got - 2010.06.03 11:33:40.
