data_PCOD9007789
_publ_section_title
;
Structure prediction by ZEFSAII (Michael W. Deem and Ramdas Pophale) SiO2 
 PCOD9007789
Probable space group: P -1
;
_chemical_formula_sum "Si O2"
_cell_formula_units_Z 16
_cell_length_a 14.999615
_cell_length_b 9.789758
_cell_length_c 12.023887
_cell_angle_alpha 65.618120
_cell_angle_beta 121.804057
_cell_angle_gamma 64.893534
_cell_volume 763.886967
_symmetry_space_group_name_H-M "P -1"
_symmetry_group_IT_number 2
_symmetry_cell_setting 'triclinic'
loop_
_space_group_symop_operation_xyz
x,y,z
-x,-y,-z
loop_
_atom_site_type_symbol
_atom_site_label
_atom_site_fract_x
_atom_site_fract_y
_atom_site_fract_z
Si Si1 0.304560 0.368562 0.062866
Si Si2 0.055720 0.282634 0.673026
Si Si3 0.828639 0.333379 0.895110
Si Si4 0.007221 0.170426 0.469618
Si Si5 0.437818 0.742235 0.870629
Si Si6 0.509502 0.158524 0.910543
Si Si7 0.130183 0.055556 0.011127
Si Si8 0.505678 0.180417 0.651337
O O1 0.209117 0.545678 0.051872
O O2 0.475428 0.274885 0.170970
O O3 0.392440 0.098502 0.214973
O O4 0.147240 0.566547 0.796702
O O5 0.980183 0.240300 0.558615
O O6 0.013943 0.301536 0.767886
O O7 0.000000 0.500000 0.500000
O O8 0.280098 0.030376 0.907025
O O9 0.656667 0.586605 0.618670
O O10 0.016442 0.164538 0.012667
O O11 0.841724 0.136757 0.968843
O O12 0.211711 0.002814 0.636046
O O13 0.000000 0.000000 0.500000
O O14 0.500000 0.500000 0.000000
O O15 0.540430 0.690937 0.063357
O O16 0.424682 0.270447 0.694379
O O17 0.500000 0.000000 0.000000
O O18 0.331468 0.888381 0.223978
#
# Coordination Sequence:
#
# PCOD9007789 Si02
#       8
#     2   2   2   2   2   2   2   2
#     4  12  25  42  65  99 135 173 227 272 332 399
#     4  10  22  37  66  97 127 163 210 274 329 392
#     4  11  26  45  67  92 133 183 225 273 324 396
#     4  11  22  39  62  95 135 172 211 269 338 391
#     4  11  24  40  64 100 136 172 214 271 339 400
#     4  10  21  39  62  98 128 162 215 266 332 398
#     4  10  24  46  65  96 131 170 231 272 329 398
#     4  11  24  43  69  94 130 174 225 277 329 397
#
# _framework density 20.945508
#
# number of rings (size 3 to 8) (size 9 to 14) (size 15 to 20)
#    0.000    1.250    2.500    3.000    5.250    2.500 
#    4.500    0.000    0.000    0.000    0.000    0.000 
#    0.000    0.000    0.000    0.000    0.000    0.000 
#
# Total GULP energy -89342.274231 kJ/mol
# GULP energy per Si atom -5583.892139 kJ/mol
# Density = 2.089784 g / cm^3
# Si number density = 20.945508 Si / 1000 Ang^3
#
#
#
# Elastic Constant Matrix: (Units=GPa)
#
#
# Indices 1 2 3 4 5 6 
#
# 1 99.5265 30.4898 10.5972 7.0835 8.8306 0.0013
# 2 30.4898 109.6951 -8.9370 10.9670 -3.4836 1.4860
# 3 10.5972 -8.9370 89.6945 2.5997 3.9811 -6.4813
# 4 7.0835 10.9670 2.5997 29.6160 5.7964 -6.3220
# 5 8.8306 -3.4836 3.9811 5.7964 29.3569 -0.0025
# 6 0.0013 1.4860 -6.4813 -6.3220 -0.0025 37.9165
#
#
#
# Elastic Compliance Matrix: (Units=1/GPa)
#
#
# Indices 1 2 3 4 5 6 
#
# 1 0.011618 -0.003390 -0.001550 -0.000750 -0.003539 -0.000258
# 2 -0.003390 0.010676 0.001391 -0.004012 0.002890 -0.000849
# 3 -0.001550 0.001391 0.011658 -0.000614 -0.000828 0.001836
# 4 -0.000750 -0.004012 -0.000614 0.038377 -0.007744 0.006451
# 5 -0.003539 0.002890 -0.000828 -0.007744 0.037112 -0.001544
# 6 -0.000258 -0.000849 0.001836 0.006451 -0.001544 0.027796
#
#
# Mechanical properties :
#
#
# Convention : Reuss Voigt Hill
#
# Bulk Modulus (GPa) = 37.23783 40.35734 38.79759
# Shear Modulus (GPa) = 32.61851 37.16227 34.89039
#
# Velocity S-wave (km/s) = 3.95055 4.21674 4.08581
# Velocity P-wave (km/s) = 6.21499 6.55877 6.38919
#
# Compressibility (1/GPa) = 0.02685441
#
# Stress axis : x y z
#
# Youngs Moduli (GPa) = 86.07046 93.66837 85.77872
#
# Poissons Ratio (x) = 0.31749 0.13298
# Poissons Ratio (y) = 0.29174 -0.11930
# Poissons Ratio (z) = 0.13343 -0.13028
#
# Static dielectric constant tensor:
#      x y z
#    x 1.759080 -0.018790 -0.002590 
#    y -0.018790 1.779510 0.000270 
#    z -0.002590 0.000270 1.762910 
# 
# From -- ./inp_files/332059.got.cif
#   From: 2010.05.17/outbox.cif.g08.bks.cpg/sg2_167_cif.got.tgz:332059.got - 2010.06.03 11:33:40.
