data_PCOD9007453
_publ_section_title
;
Structure prediction by ZEFSAII (Michael W. Deem and Ramdas Pophale) SiO2 
 PCOD9007453
Probable space group: P -1
;
_chemical_formula_sum "Si O2"
_cell_formula_units_Z 14
_cell_length_a 25.907891
_cell_length_b 32.246543
_cell_length_c 15.098494
_cell_angle_alpha 160.005542
_cell_angle_beta 158.366296
_cell_angle_gamma 9.244449
_cell_volume 692.401609
_symmetry_space_group_name_H-M "P -1"
_symmetry_group_IT_number 2
_symmetry_cell_setting 'triclinic'
loop_
_space_group_symop_operation_xyz
x,y,z
-x,-y,-z
loop_
_atom_site_type_symbol
_atom_site_label
_atom_site_fract_x
_atom_site_fract_y
_atom_site_fract_z
Si Si1 0.942186 0.200636 0.676189
Si Si2 0.107730 0.552392 0.761978
Si Si3 0.353570 0.468539 0.294121
Si Si4 0.578039 0.560323 0.458208
Si Si5 0.703871 0.207622 0.007684
Si Si6 0.853440 0.270916 0.133566
Si Si7 0.291287 0.046494 0.234386
O O1 0.651635 0.331379 0.488366
O O2 0.925029 0.259081 0.664858
O O3 0.897080 0.355420 0.975429
O O4 0.265871 0.880684 0.578835
O O5 0.000000 0.500000 0.500000
O O6 0.888096 0.782573 0.799243
O O7 0.479240 0.268524 0.754873
O O8 0.269972 0.514075 0.355641
O O9 0.481062 0.245829 0.007095
O O10 0.490101 0.490640 0.206909
O O11 0.793523 0.383961 0.359457
O O12 0.000000 0.000000 0.000000
O O13 0.888518 0.038491 0.055156
O O14 0.026432 0.217697 0.229438
O O15 0.500000 0.500000 0.000000
O O16 0.500000 0.000000 0.500000
#
# Coordination Sequence:
#
# PCOD9007453 Si02
#       7
#     2   2   2   2   2   2   2
#     4  11  22  38  65  97 133 170 229 272 333 386
#     4  12  23  41  68  96 133 175 223 276 332 399
#     4  11  22  38  67  95 130 175 224 278 323 397
#     4  11  22  39  64  95 134 168 220 276 327 383
#     4  10  21  39  61  94 131 169 216 266 327 387
#     4  11  24  40  66 101 135 176 221 275 334 398
#     4  12  25  44  67  99 134 177 226 274 335 404
#
# _framework density 20.219480000000001
#
# number of rings (size 3 to 8) (size 9 to 14) (size 15 to 20)
#    0.000    0.857    2.857    6.429    4.000    0.000 
#    0.000    0.714    3.143    1.714    0.000    0.000 
#    0.000    0.000    0.000    0.000    0.000    0.000 
#
# Total GULP energy -78102.484424 kJ/mol
# GULP energy per Si atom -5578.748887 kJ/mol
# Density = 2.017346 g / cm^3
# Si number density = 20.219480 Si / 1000 Ang^3
#
#
#
# Elastic Constant Matrix: (Units=GPa)
#
#
# Indices 1 2 3 4 5 6 
#
# 1 137.0544 41.1123 47.0850 5.5814 -4.8633 16.8376
# 2 41.1123 88.2037 43.0928 -2.7655 11.1736 27.7685
# 3 47.0850 43.0928 139.3973 -7.5225 4.9224 -5.1610
# 4 5.5814 -2.7655 -7.5225 31.4149 1.5892 7.4201
# 5 -4.8633 11.1736 4.9224 1.5892 37.4550 1.7643
# 6 16.8376 27.7685 -5.1610 7.4201 1.7643 45.9919
#
#
#
# Elastic Compliance Matrix: (Units=1/GPa)
#
#
# Indices 1 2 3 4 5 6 
#
# 1 0.009476 -0.003081 -0.002527 -0.002311 0.002656 -0.001622
# 2 -0.003081 0.019802 -0.005112 0.004135 -0.005252 -0.011867
# 3 -0.002527 -0.005112 0.009869 0.001216 -0.000384 0.004938
# 4 -0.002311 0.004135 0.001216 0.034695 -0.002836 -0.007003
# 5 0.002656 -0.005252 -0.000384 -0.002836 0.028710 0.001512
# 6 -0.001622 -0.011867 0.004938 -0.007003 0.001512 0.031128
#
#
# Mechanical properties :
#
#
# Convention : Reuss Voigt Hill
#
# Bulk Modulus (GPa) = 56.46939 69.69285 63.08112
# Shear Modulus (GPa) = 31.05175 38.53005 34.79090
#
# Velocity S-wave (km/s) = 3.92310 4.37004 4.15259
# Velocity P-wave (km/s) = 6.96489 7.74636 7.36600
#
# Compressibility (1/GPa) = 0.01770871
#
# Stress axis : x y z
#
# Youngs Moduli (GPa) = 105.52666 50.50107 101.32255
#
# Poissons Ratio (x) = 0.15558 0.25605
# Poissons Ratio (y) = 0.32509 0.51792
# Poissons Ratio (z) = 0.26667 0.25814
#
# Static dielectric constant tensor:
#      x y z
#    x 1.764210 -0.013410 -0.066600 
#    y -0.013410 1.758900 0.043010 
#    z -0.066600 0.043010 1.736760 
# 
# From -- ./inp_files/543482.got.cif
#   From: 2010.05.17/outbox.cif.g08.bks.cpg/sg2_272_cif.got.tgz:543482.got - 2010.06.03 11:33:40.
