data_PCOD9007201
_publ_section_title
;
Structure prediction by ZEFSAII (Michael W. Deem and Ramdas Pophale) SiO2 
 PCOD9007201
Probable space group: P -1
;
_chemical_formula_sum "Si O2"
_cell_formula_units_Z 16
_cell_length_a 7.584952
_cell_length_b 11.815450
_cell_length_c 11.804920
_cell_angle_alpha 38.898207
_cell_angle_beta 80.171298
_cell_angle_gamma 78.848027
_cell_volume 651.435508
_symmetry_space_group_name_H-M "P -1"
_symmetry_group_IT_number 2
_symmetry_cell_setting 'triclinic'
loop_
_space_group_symop_operation_xyz
x,y,z
-x,-y,-z
loop_
_atom_site_type_symbol
_atom_site_label
_atom_site_fract_x
_atom_site_fract_y
_atom_site_fract_z
Si Si1 0.111532 0.396404 0.735642
Si Si2 0.900012 0.015319 0.701417
Si Si3 0.479679 0.249399 0.809924
Si Si4 0.347192 0.392291 0.500050
Si Si5 0.732207 0.879737 0.466714
Si Si6 0.591456 0.851777 0.749717
Si Si7 0.120351 0.393417 0.975314
Si Si8 0.855889 0.150138 0.852084
O O1 0.275793 0.240639 0.875027
O O2 0.207334 0.463544 0.560227
O O3 0.928497 0.324677 0.769328
O O4 0.100362 0.499637 0.775100
O O5 0.065630 0.079774 0.564636
O O6 0.875670 0.130017 0.730277
O O7 0.716990 0.005169 0.660017
O O8 0.956243 0.801080 0.886995
O O9 0.474731 0.252003 0.672138
O O10 0.538421 0.449438 0.676251
O O11 0.651396 0.125088 0.929176
O O12 0.263345 0.279799 0.501033
O O13 0.637348 0.821848 0.636174
O O14 0.612313 0.058164 0.291702
O O15 0.677292 0.673958 0.947968
O O16 0.000000 0.500000 0.000000
O O17 0.000000 0.000000 0.000000
#
# Coordination Sequence:
#
# PCOD9007201 Si02
#       8
#     2   2   2   2   2   2   2   2
#     4  10  21  41  62  88 121 161 200 245 313 342
#     4  10  21  39  60  90 120 159 202 246 303 349
#     4   9  22  40  56  95 125 151 199 249 307 362
#     4   9  20  41  61  91 122 153 201 256 302 353
#     4  11  19  41  63  90 120 155 207 254 295 359
#     4   9  23  38  61  86 122 159 205 244 299 360
#     4  10  23  44  58  87 126 162 205 243 297 370
#     4  12  21  36  63  94 122 155 198 250 296 368
#
# _framework density 24.561140999999999
#
# number of rings (size 3 to 8) (size 9 to 14) (size 15 to 20)
#    1.500    0.500    2.500    1.125    0.000    3.000 
#    6.750    0.625    0.000    0.000    0.000    0.000 
#    0.000    0.000    0.000    0.000    0.000    0.000 
#
# Total GULP energy -89173.950989 kJ/mol
# GULP energy per Si atom -5573.371937 kJ/mol
# Density = 2.450524 g / cm^3
# Si number density = 24.561141 Si / 1000 Ang^3
#
#
#
# Elastic Constant Matrix: (Units=GPa)
#
#
# Indices 1 2 3 4 5 6 
#
# 1 101.2937 18.7004 9.3794 -0.0642 19.9227 6.9988
# 2 18.7004 126.8330 34.6475 22.6999 -0.8133 -7.3366
# 3 9.3794 34.6475 64.3796 6.1141 18.4800 -8.2003
# 4 -0.0642 22.6999 6.1141 31.7647 2.6926 4.6102
# 5 19.9227 -0.8133 18.4800 2.6926 36.1829 0.0216
# 6 6.9988 -7.3366 -8.2003 4.6102 0.0216 22.1185
#
#
#
# Elastic Compliance Matrix: (Units=1/GPa)
#
#
# Indices 1 2 3 4 5 6 
#
# 1 0.012182 -0.003036 0.001049 0.003383 -0.007560 -0.005170
# 2 -0.003036 0.011813 -0.006217 -0.008363 0.005732 0.004312
# 3 0.001049 -0.006217 0.023088 0.000172 -0.012526 0.006142
# 4 0.003383 -0.008363 0.000172 0.039609 -0.005079 -0.012032
# 5 -0.007560 0.005732 -0.012526 -0.005079 0.038704 0.000671
# 6 -0.005170 0.004312 0.006142 -0.012032 0.000671 0.053061
#
#
# Mechanical properties :
#
#
# Convention : Reuss Voigt Hill
#
# Bulk Modulus (GPa) = 32.59989 46.44012 39.52001
# Shear Modulus (GPa) = 24.37957 33.33183 28.85570
#
# Velocity S-wave (km/s) = 3.15399 3.68787 3.43133
# Velocity P-wave (km/s) = 5.15415 6.08957 5.64128
#
# Compressibility (1/GPa) = 0.03067495
#
# Stress axis : x y z
#
# Youngs Moduli (GPa) = 82.08841 84.64950 43.31347
#
# Poissons Ratio (x) = 0.25699 -0.04545
# Poissons Ratio (y) = 0.24921 0.26930
# Poissons Ratio (z) = -0.08614 0.52630
#
# Static dielectric constant tensor:
#      x y z
#    x 1.929210 -0.046590 0.076080 
#    y -0.046590 2.023200 -0.078200 
#    z 0.076080 -0.078200 2.194760 
# 
# From -- ./inp_files/386696.got.cif
#   From: 2010.05.17/outbox.cif.g08.bks.cpg/sg2_194_cif.got.tgz:386696.got - 2010.06.03 11:33:40.
