data_PCOD9007942
_publ_section_title
;
Structure prediction by ZEFSAII (Michael W. Deem and Ramdas Pophale) SiO2 
 PCOD9007942
Probable space group: P -1
;
_chemical_formula_sum "Si O2"
_cell_formula_units_Z 16
_cell_length_a 21.243055
_cell_length_b 8.637695
_cell_length_c 15.408913
_cell_angle_alpha 136.916353
_cell_angle_beta 23.385594
_cell_angle_gamma 137.219961
_cell_volume 745.171583
_symmetry_space_group_name_H-M "P -1"
_symmetry_group_IT_number 2
_symmetry_cell_setting 'triclinic'
loop_
_space_group_symop_operation_xyz
x,y,z
-x,-y,-z
loop_
_atom_site_type_symbol
_atom_site_label
_atom_site_fract_x
_atom_site_fract_y
_atom_site_fract_z
Si Si1 0.826448 0.358274 0.584826
Si Si2 0.883777 0.493869 0.846631
Si Si3 0.210708 0.135194 0.094960
Si Si4 0.536873 0.300085 0.810372
Si Si5 0.688590 0.837956 0.223489
Si Si6 0.911148 0.744011 0.378451
Si Si7 0.650575 0.343969 0.494532
Si Si8 0.307321 0.917626 0.188458
O O1 0.811609 0.616306 0.739147
O O2 0.693635 0.246383 0.634532
O O3 0.782885 0.194140 0.655420
O O4 0.000918 0.395730 0.334694
O O5 0.740258 0.285608 0.905654
O O6 0.002247 0.392602 0.718086
O O7 0.798510 0.689864 0.071728
O O8 0.372627 0.100827 0.926397
O O9 0.254634 0.145760 0.942444
O O10 0.055079 0.933450 0.230049
O O11 0.578698 0.395367 0.699698
O O12 0.500000 0.500000 0.000000
O O13 0.496783 0.707154 0.408517
O O14 0.702221 0.100721 0.343522
O O15 0.802768 0.557689 0.373731
O O16 0.785145 0.881072 0.637264
O O17 0.500000 0.000000 0.000000
#
# Coordination Sequence:
#
# PCOD9007942 Si02
#       8
#     2   2   2   2   2   2   2   2
#     4  11  21  40  61  90 129 167 212 251 319 387
#     4  12  23  40  64  94 129 169 207 263 320 377
#     4  10  21  39  63  91 129 167 207 257 320 374
#     4   9  20  36  65  91 121 164 203 256 317 374
#     4  10  22  43  71  84 123 177 215 252 313 389
#     4  12  25  38  60  98 133 157 212 276 314 364
#     4  10  22  44  65  95 122 164 222 259 307 382
#     4  12  26  37  62  95 132 163 209 265 325 373
#
# _framework density 21.471564000000001
#
# number of rings (size 3 to 8) (size 9 to 14) (size 15 to 20)
#    0.000    1.250    3.750    2.250    5.250    1.000 
#    0.000    0.000    0.000    2.250    0.000    0.000 
#    0.000    0.000    0.000    0.000    0.000    0.000 
#
# Total GULP energy -89377.488879 kJ/mol
# GULP energy per Si atom -5586.093055 kJ/mol
# Density = 2.142269 g / cm^3
# Si number density = 21.471564 Si / 1000 Ang^3
#
#
#
# Elastic Constant Matrix: (Units=GPa)
#
#
# Indices 1 2 3 4 5 6 
#
# 1 32.0048 14.8428 15.4221 -11.1040 -14.2591 -0.0916
# 2 14.8428 116.4347 60.3498 -18.5532 -15.7029 13.7091
# 3 15.4221 60.3498 90.8550 -8.9922 -32.0752 8.1312
# 4 -11.1040 -18.5532 -8.9922 34.7223 3.4134 -8.8682
# 5 -14.2591 -15.7029 -32.0752 3.4134 30.1248 0.2985
# 6 -0.0916 13.7091 8.1312 -8.8682 0.2985 30.7467
#
#
#
# Elastic Compliance Matrix: (Units=1/GPa)
#
#
# Indices 1 2 3 4 5 6 
#
# 1 0.045074 -0.002629 0.002413 0.012611 0.021064 0.004101
# 2 -0.002629 0.014591 -0.010452 0.004120 -0.005210 -0.002510
# 3 0.002413 -0.010452 0.025974 -0.001099 0.023501 -0.002746
# 4 0.012611 0.004120 -0.001099 0.036805 0.002687 0.009081
# 5 0.021064 -0.005210 0.023501 0.002687 0.065204 -0.003687
# 6 0.004101 -0.002510 -0.002746 0.009081 -0.003687 0.037037
#
#
# Mechanical properties :
#
#
# Convention : Reuss Voigt Hill
#
# Bulk Modulus (GPa) = 15.55195 46.72490 31.13842
# Shear Modulus (GPa) = 18.69479 29.03073 23.86276
#
# Velocity S-wave (km/s) = 2.95392 3.68102 3.33733
# Velocity P-wave (km/s) = 4.34661 6.31467 5.42070
#
# Compressibility (1/GPa) = 0.06430063
#
# Stress axis : x y z
#
# Youngs Moduli (GPa) = 22.18587 68.53696 38.50069
#
# Poissons Ratio (x) = 0.18019 -0.09290
# Poissons Ratio (y) = 0.05833 0.40242
# Poissons Ratio (z) = -0.05353 0.71637
#
# Static dielectric constant tensor:
#      x y z
#    x 1.805150 -0.011320 -0.059650 
#    y -0.011320 1.786310 0.004760 
#    z -0.059650 0.004760 1.837290 
# 
# From -- ./inp_files/216554.got.cif
#   From: 2010.05.17/outbox.cif.g08.bks.cpg/sg2_109_cif.got.tgz:216554.got - 2010.06.03 11:33:40.
