data_PCOD9007573
_publ_section_title
;
Structure prediction by ZEFSAII (Michael W. Deem and Ramdas Pophale) SiO2 
 PCOD9007573
Probable space group: P -1
;
_chemical_formula_sum "Si O2"
_cell_formula_units_Z 14
_cell_length_a 15.656878
_cell_length_b 11.760873
_cell_length_c 9.229867
_cell_angle_alpha 29.977765
_cell_angle_beta 127.682576
_cell_angle_gamma 136.844001
_cell_volume 579.795004
_symmetry_space_group_name_H-M "P -1"
_symmetry_group_IT_number 2
_symmetry_cell_setting 'triclinic'
loop_
_space_group_symop_operation_xyz
x,y,z
-x,-y,-z
loop_
_atom_site_type_symbol
_atom_site_label
_atom_site_fract_x
_atom_site_fract_y
_atom_site_fract_z
Si Si1 0.781409 0.627215 0.105547
Si Si2 0.603131 0.792764 0.832516
Si Si3 0.842824 0.044196 0.266236
Si Si4 0.233335 0.592178 0.385329
Si Si5 0.384120 0.539427 0.371908
Si Si6 0.416188 0.794536 0.841126
Si Si7 0.012305 0.963331 0.322743
O O1 0.764265 0.395787 0.451644
O O2 0.689696 0.479400 0.038922
O O3 0.731124 0.790638 0.963648
O O4 0.915195 0.832245 0.955102
O O5 0.549906 0.839869 0.874666
O O6 0.601768 0.983719 0.497706
O O7 0.500000 0.500000 0.000000
O O8 0.893196 0.101906 0.419028
O O9 0.739620 0.736492 0.490084
O O10 0.786874 0.206764 0.953803
O O11 0.961890 0.099219 0.231807
O O12 0.356102 0.599780 0.437414
O O13 0.108496 0.307900 0.547444
O O14 0.500000 0.500000 0.500000
O O15 0.399573 0.763877 0.028348
#
# Coordination Sequence:
#
# PCOD9007573 Si02
#       7
#     2   2   2   2   2   2   2
#     4  11  22  39  63  93 125 162 210 259 312 371
#     4   9  21  37  61  90 124 159 214 253 302 373
#     4  10  23  43  63  92 128 163 212 262 310 376
#     4  11  25  39  65  96 126 165 211 261 314 368
#     4  11  24  41  64  93 128 164 209 260 313 375
#     4  10  21  39  62  88 125 172 204 251 318 368
#     4  10  22  42  64  89 129 166 212 260 311 369
#
# _framework density 24.146467000000001
#
# number of rings (size 3 to 8) (size 9 to 14) (size 15 to 20)
#    0.000    1.714    1.429    1.714    2.000    8.000 
#    0.000    0.000    0.000    0.000    0.000    0.000 
#    0.000    0.000    0.000    0.000    0.000    0.000 
#
# Total GULP energy -78328.887641 kJ/mol
# GULP energy per Si atom -5594.920546 kJ/mol
# Density = 2.409151 g / cm^3
# Si number density = 24.146467 Si / 1000 Ang^3
#
#
#
# Elastic Constant Matrix: (Units=GPa)
#
#
# Indices 1 2 3 4 5 6 
#
# 1 102.0437 14.8047 59.6636 6.0178 -28.3429 16.6334
# 2 14.8047 50.9332 8.1962 5.9120 -16.3998 7.8010
# 3 59.6636 8.1962 139.6016 3.4931 -29.5644 -0.4908
# 4 6.0178 5.9120 3.4931 37.3945 2.0957 -7.4090
# 5 -28.3429 -16.3998 -29.5644 2.0957 49.0377 3.3022
# 6 16.6334 7.8010 -0.4908 -7.4090 3.3022 25.5940
#
#
#
# Elastic Compliance Matrix: (Units=1/GPa)
#
#
# Indices 1 2 3 4 5 6 
#
# 1 0.018440 0.001565 -0.005991 -0.006229 0.008881 -0.015525
# 2 0.001565 0.025278 0.000239 -0.007283 0.010635 -0.012197
# 3 -0.005991 0.000239 0.010239 0.000596 0.002504 0.003866
# 4 -0.006229 -0.007283 0.000596 0.032625 -0.008201 0.016782
# 5 0.008881 0.010635 0.002504 -0.008201 0.031984 -0.015466
# 6 -0.015525 -0.012197 0.003866 0.016782 -0.015466 0.059807
#
#
# Mechanical properties :
#
#
# Convention : Reuss Voigt Hill
#
# Bulk Modulus (GPa) = 21.93851 50.87860 36.40855
# Shear Modulus (GPa) = 24.75967 36.39952 30.57959
#
# Velocity S-wave (km/s) = 3.20565 3.88680 3.56254
# Velocity P-wave (km/s) = 4.77566 6.42336 5.65979
#
# Compressibility (1/GPa) = 0.04558196
#
# Stress axis : x y z
#
# Youngs Moduli (GPa) = 54.22926 39.55988 97.66920
#
# Poissons Ratio (x) = -0.06189 0.58512
# Poissons Ratio (y) = -0.08484 -0.02332
# Poissons Ratio (z) = 0.32488 -0.00945
#
# Static dielectric constant tensor:
#      x y z
#    x 1.940510 -0.018830 0.041630 
#    y -0.018830 1.941150 0.031500 
#    z 0.041630 0.031500 1.911250 
# 
# From -- ./inp_files/55459.got.cif
#   From: 2010.05.17/outbox.cif.g08.bks.cpg/sg2_28_cif.got.tgz:55459.got - 2010.06.03 11:33:40.
