data_PCOD9007543
_publ_section_title
;
Structure prediction by ZEFSAII (Michael W. Deem and Ramdas Pophale) SiO2 
 PCOD9007543
Probable space group: P -1
;
_chemical_formula_sum "Si O2"
_cell_formula_units_Z 16
_cell_length_a 6.107856
_cell_length_b 19.598809
_cell_length_c 19.728198
_cell_angle_alpha 158.161462
_cell_angle_beta 123.024457
_cell_angle_gamma 69.026437
_cell_volume 648.421417
_symmetry_space_group_name_H-M "P -1"
_symmetry_group_IT_number 2
_symmetry_cell_setting 'triclinic'
loop_
_space_group_symop_operation_xyz
x,y,z
-x,-y,-z
loop_
_atom_site_type_symbol
_atom_site_label
_atom_site_fract_x
_atom_site_fract_y
_atom_site_fract_z
Si Si1 0.802642 0.708291 0.653693
Si Si2 0.897198 0.039831 0.189307
Si Si3 0.854434 0.079637 0.639581
Si Si4 0.845240 0.668642 0.210846
Si Si5 0.244751 0.708704 0.508632
Si Si6 0.057182 0.643027 0.971549
Si Si7 0.626737 0.112973 0.858705
Si Si8 0.265161 0.696070 0.807764
O O1 0.499365 0.719568 0.612522
O O2 0.751885 0.504317 0.415565
O O3 0.966895 0.707795 0.749449
O O4 0.025402 0.892631 0.812667
O O5 0.092878 0.931095 0.143011
O O6 0.970526 0.237678 0.432823
O O7 0.552769 0.887606 0.001117
O O8 0.016077 0.244781 0.759127
O O9 0.500000 0.000000 0.500000
O O10 0.891720 0.875173 0.448457
O O11 0.986019 0.194501 0.838894
O O12 0.979328 0.537116 0.148928
O O13 0.500000 0.500000 0.000000
O O14 0.132649 0.495909 0.251723
O O15 0.384715 0.895414 0.649014
O O16 0.379889 0.787399 0.122959
O O17 0.685028 0.278326 0.080362
#
# Coordination Sequence:
#
# PCOD9007543 Si02
#       8
#     2   2   2   2   2   2   2   2
#     4  10  21  39  62  87 125 174 223 280 328 392
#     4  10  21  40  59  89 127 167 230 269 330 391
#     4  11  26  48  73 107 136 173 230 271 333 413
#     4  11  26  48  73 108 134 177 225 274 335 408
#     4  10  24  41  60  97 131 172 224 270 341 395
#     4  12  25  44  72  95 141 177 211 281 335 397
#     4  10  24  41  61  98 130 172 224 272 334 402
#     4  10  21  39  62  88 126 170 227 278 327 392
#
# _framework density 24.675311000000001
#
# number of rings (size 3 to 8) (size 9 to 14) (size 15 to 20)
#    0.000    1.500    1.250    2.250    3.500    5.500 
#    6.750    3.125    0.000    0.000    0.000    0.000 
#    0.000    0.000    0.000    0.000    0.000    0.000 
#
# Total GULP energy -89476.805785 kJ/mol
# GULP energy per Si atom -5592.300362 kJ/mol
# Density = 2.461915 g / cm^3
# Si number density = 24.675311 Si / 1000 Ang^3
#
#
#
# Elastic Constant Matrix: (Units=GPa)
#
#
# Indices 1 2 3 4 5 6 
#
# 1 48.5870 1.1596 24.2059 -4.6424 -8.6195 1.8452
# 2 1.1596 45.1023 8.2879 16.2379 8.6747 10.3588
# 3 24.2059 8.2879 116.2933 12.9635 -11.0322 15.7283
# 4 -4.6424 16.2379 12.9635 35.3858 2.0369 4.8389
# 5 -8.6195 8.6747 -11.0322 2.0369 38.8463 -0.7524
# 6 1.8452 10.3588 15.7283 4.8389 -0.7524 39.3794
#
#
#
# Elastic Compliance Matrix: (Units=1/GPa)
#
#
# Indices 1 2 3 4 5 6 
#
# 1 0.024619 -0.002937 -0.005337 0.006138 0.004302 0.001079
# 2 -0.002937 0.029526 0.000142 -0.012749 -0.006658 -0.006246
# 3 -0.005337 0.000142 0.010860 -0.004375 0.002029 -0.003548
# 4 0.006138 -0.012749 -0.004375 0.036408 0.001064 0.000360
# 5 0.004302 -0.006658 0.002029 0.001064 0.028727 0.001157
# 6 0.001079 -0.006246 -0.003548 0.000360 0.001157 0.028382
#
#
# Mechanical properties :
#
#
# Convention : Reuss Voigt Hill
#
# Bulk Modulus (GPa) = 20.51698 30.80992 25.66345
# Shear Modulus (GPa) = 26.17339 34.47756 30.32547
#
# Velocity S-wave (km/s) = 3.26039 3.74204 3.50948
# Velocity P-wave (km/s) = 4.74409 5.58423 5.18122
#
# Compressibility (1/GPa) = 0.04874013
#
# Stress axis : x y z
#
# Youngs Moduli (GPa) = 40.61849 33.86797 92.08249
#
# Poissons Ratio (x) = 0.09948 0.49145
# Poissons Ratio (y) = 0.11930 -0.01303
# Poissons Ratio (z) = 0.21678 -0.00479
#
# Static dielectric constant tensor:
#      x y z
#    x 1.948540 -0.031800 0.040310 
#    y -0.031800 2.015580 0.003410 
#    z 0.040310 0.003410 1.994060 
# 
# From -- ./inp_files/584345.got.cif
#   From: 2010.05.17/outbox.cif.g08.bks.cpg/sg2_293_cif.got.tgz:584345.got - 2010.06.03 11:33:40.
