data_PCOD9007322
_publ_section_title
;
Structure prediction by ZEFSAII (Michael W. Deem and Ramdas Pophale) SiO2 
 PCOD9007322
Probable space group: P -1
;
_chemical_formula_sum "Si O2"
_cell_formula_units_Z 16
_cell_length_a 15.637352
_cell_length_b 18.776239
_cell_length_c 8.706974
_cell_angle_alpha 56.118735
_cell_angle_beta 113.532386
_cell_angle_gamma 158.121148
_cell_volume 731.040259
_symmetry_space_group_name_H-M "P -1"
_symmetry_group_IT_number 2
_symmetry_cell_setting 'triclinic'
loop_
_space_group_symop_operation_xyz
x,y,z
-x,-y,-z
loop_
_atom_site_type_symbol
_atom_site_label
_atom_site_fract_x
_atom_site_fract_y
_atom_site_fract_z
Si Si1 0.926577 0.687531 0.817204
Si Si2 0.753971 0.166453 0.976952
Si Si3 0.862642 0.813430 0.730087
Si Si4 0.435316 0.664935 0.747503
Si Si5 0.984375 0.182905 0.595695
Si Si6 0.246580 0.678312 0.644099
Si Si7 0.709970 0.091267 0.701107
Si Si8 0.303445 0.372369 0.843959
O O1 0.994293 0.835950 0.762535
O O2 0.865717 0.654112 0.638286
O O3 0.702346 0.462138 0.033075
O O4 0.156914 0.818659 0.839619
O O5 0.738715 0.096869 0.894606
O O6 0.974377 0.422880 0.812430
O O7 0.500000 0.000000 0.000000
O O8 0.571616 0.559931 0.777388
O O9 0.835003 0.796892 0.914872
O O10 0.000000 0.000000 0.500000
O O11 0.334589 0.672008 0.611640
O O12 0.363139 0.519358 0.775528
O O13 0.729234 0.923042 0.665402
O O14 0.897092 0.189574 0.626236
O O15 0.136875 0.245791 0.729379
O O16 0.243715 0.767696 0.454186
O O17 0.442286 0.849425 0.719872
#
# Coordination Sequence:
#
# PCOD9007322 Si02
#       8
#     2   2   2   2   2   2   2   2
#     4  10  23  42  60  92 128 161 210 258 305 376
#     4  11  24  40  62  91 125 166 210 259 313 366
#     4  10  21  42  65  92 128 159 205 256 310 372
#     4   9  20  41  62  86 129 162 200 259 305 363
#     4  11  22  40  66  91 126 166 207 252 313 363
#     4   9  20  38  61  85 123 162 209 255 307 365
#     4  10  21  39  61  87 123 165 207 255 311 372
#     4  10  22  40  66  93 120 165 206 249 311 376
#
# _framework density 21.886620000000001
#
# number of rings (size 3 to 8) (size 9 to 14) (size 15 to 20)
#    0.000    2.000    0.000    3.375    5.250    2.000 
#    6.750    8.750    0.000    0.000    0.000    0.000 
#    0.000    0.000    0.000    0.000    0.000    0.000 
#
# Total GULP energy -89383.194516 kJ/mol
# GULP energy per Si atom -5586.449657 kJ/mol
# Density = 2.183680 g / cm^3
# Si number density = 21.886620 Si / 1000 Ang^3
#
#
#
# Elastic Constant Matrix: (Units=GPa)
#
#
# Indices 1 2 3 4 5 6 
#
# 1 57.6713 9.1293 16.4579 -11.8628 12.2447 7.3001
# 2 9.1293 67.0407 28.5035 5.9936 6.1835 27.3410
# 3 16.4579 28.5035 84.2404 5.9118 6.6223 7.9894
# 4 -11.8628 5.9936 5.9118 32.2706 -1.3395 4.8908
# 5 12.2447 6.1835 6.6223 -1.3395 39.2286 0.7080
# 6 7.3001 27.3410 7.9894 4.8908 0.7080 36.1100
#
#
#
# Elastic Compliance Matrix: (Units=1/GPa)
#
#
# Indices 1 2 3 4 5 6 
#
# 1 0.022311 0.000588 -0.004262 0.009411 -0.005922 -0.005171
# 2 0.000588 0.025146 -0.006699 -0.000683 -0.002723 -0.017530
# 3 -0.004262 -0.006699 0.014948 -0.003546 -0.000315 0.003113
# 4 0.009411 -0.000683 -0.003546 0.036014 -0.000903 -0.005461
# 5 -0.005922 -0.002723 -0.000315 -0.000903 0.027739 0.002907
# 6 -0.005171 -0.017530 0.003113 -0.005461 0.002907 0.042006
#
#
# Mechanical properties :
#
#
# Convention : Reuss Voigt Hill
#
# Bulk Modulus (GPa) = 24.00441 35.23707 29.62074
# Shear Modulus (GPa) = 24.65532 31.84598 28.25065
#
# Velocity S-wave (km/s) = 3.35998 3.81864 3.59663
# Velocity P-wave (km/s) = 5.10334 5.96469 5.55074
#
# Compressibility (1/GPa) = 0.04165901
#
# Stress axis : x y z
#
# Youngs Moduli (GPa) = 44.82153 39.76803 66.89707
#
# Poissons Ratio (x) = -0.02337 0.28512
# Poissons Ratio (y) = -0.02634 0.44811
# Poissons Ratio (z) = 0.19103 0.26639
#
# Static dielectric constant tensor:
#      x y z
#    x 1.839300 -0.002250 0.000010 
#    y -0.002250 1.799840 0.014370 
#    z 0.000010 0.014370 1.823770 
# 
# From -- ./inp_files/337601.got.cif
#   From: 2010.05.17/outbox.cif.g08.bks.cpg/sg2_169_cif.got.tgz:337601.got - 2010.06.03 11:33:40.
