data_PCOD9007316
_publ_section_title
;
Structure prediction by ZEFSAII (Michael W. Deem and Ramdas Pophale) SiO2 
 PCOD9007316
Probable space group: P -1
;
_chemical_formula_sum "Si O2"
_cell_formula_units_Z 16
_cell_length_a 14.443154
_cell_length_b 14.443034
_cell_length_c 10.677742
_cell_angle_alpha 77.676990
_cell_angle_beta 78.837480
_cell_angle_gamma 148.162403
_cell_volume 787.638356
_symmetry_space_group_name_H-M "P -1"
_symmetry_group_IT_number 2
_symmetry_cell_setting 'triclinic'
loop_
_space_group_symop_operation_xyz
x,y,z
-x,-y,-z
loop_
_atom_site_type_symbol
_atom_site_label
_atom_site_fract_x
_atom_site_fract_y
_atom_site_fract_z
Si Si1 0.971769 0.576890 0.426714
Si Si2 0.272294 0.494714 0.308831
Si Si3 0.311567 0.225232 0.731609
Si Si4 0.309142 0.570384 0.869349
Si Si5 0.116635 0.243995 0.819677
Si Si6 0.887609 0.110033 0.308837
Si Si7 0.569690 0.174810 0.426710
Si Si8 0.309079 0.047844 0.130659
O O1 0.866385 0.552863 0.563060
O O2 0.772711 0.385270 0.421011
O O3 0.000000 0.500000 0.500000
O O4 0.232954 0.867868 0.224179
O O5 0.423779 0.564348 0.339184
O O6 0.069607 0.257586 0.336398
O O7 0.487128 0.744728 0.092556
O O8 0.277149 0.305647 0.708606
O O9 0.242722 0.102150 0.660825
O O10 0.093660 0.990624 0.957873
O O11 0.284433 0.474969 0.787695
O O12 0.316221 0.681314 0.775825
O O13 0.560312 0.790983 0.824344
O O14 0.070145 0.327753 0.092565
O O15 0.949643 0.140170 0.787678
O O16 0.678970 0.992490 0.436959
O O17 0.500000 0.000000 0.500000
#
# Coordination Sequence:
#
# PCOD9007316 Si02
#       8
#     2   2   2   2   2   2   2   2
#     4  12  24  40  62  86 117 155 200 250 298 353
#     4  10  21  39  61  87 122 157 195 245 295 350
#     4   9  18  35  61  91 122 159 199 240 295 355
#     4  10  21  39  61  87 122 157 195 245 295 350
#     4   9  18  35  61  91 122 159 199 240 295 355
#     4  10  21  39  61  87 122 157 195 245 295 350
#     4  12  24  40  62  86 117 155 200 250 298 353
#     4  10  21  39  61  87 122 157 195 245 295 350
#
# _framework density 20.313890000000001
#
# number of rings (size 3 to 8) (size 9 to 14) (size 15 to 20)
#    0.000    1.750    2.500    2.250    0.000    2.000 
#    0.000    7.500    0.000    3.000    0.000    0.000 
#    0.000    0.000    0.000    0.000    0.000    0.000 
#
# Total GULP energy -89422.663289 kJ/mol
# GULP energy per Si atom -5588.916456 kJ/mol
# Density = 2.026765 g / cm^3
# Si number density = 20.313890 Si / 1000 Ang^3
#
#
#
# Elastic Constant Matrix: (Units=GPa)
#
#
# Indices 1 2 3 4 5 6 
#
# 1 75.7695 38.8601 10.8124 3.4206 10.0117 2.3866
# 2 38.8601 158.7234 23.0100 8.0195 8.2203 18.2491
# 3 10.8124 23.0100 61.1905 -0.1025 4.5497 4.1411
# 4 3.4206 8.0195 -0.1025 24.2973 -1.1690 6.2022
# 5 10.0117 8.2203 4.5497 -1.1690 30.9649 -0.1437
# 6 2.3866 18.2491 4.1411 6.2022 -0.1437 29.4466
#
#
#
# Elastic Compliance Matrix: (Units=1/GPa)
#
#
# Indices 1 2 3 4 5 6 
#
# 1 0.015756 -0.003550 -0.001249 -0.001607 -0.004023 0.001418
# 2 -0.003550 0.008044 -0.002062 -0.001135 -0.000747 -0.004172
# 3 -0.001249 -0.002062 0.017550 0.001198 -0.001589 -0.001349
# 4 -0.001607 -0.001135 0.001198 0.044069 0.002269 -0.008606
# 5 -0.004023 -0.000747 -0.001589 0.002269 0.034116 0.000701
# 6 0.001418 -0.004172 -0.001349 -0.008606 0.000701 0.038436
#
#
# Mechanical properties :
#
#
# Convention : Reuss Voigt Hill
#
# Bulk Modulus (GPa) = 36.19345 49.00540 42.59942
# Shear Modulus (GPa) = 27.63941 31.80848 29.72395
#
# Velocity S-wave (km/s) = 3.69266 3.96137 3.82937
# Velocity P-wave (km/s) = 6.00306 6.71564 6.36932
#
# Compressibility (1/GPa) = 0.02762931
#
# Stress axis : x y z
#
# Youngs Moduli (GPa) = 63.46691 124.31649 56.98088
#
# Poissons Ratio (x) = 0.44132 0.07115
# Poissons Ratio (y) = 0.22531 0.11747
# Poissons Ratio (z) = 0.07925 0.25629
#
# Static dielectric constant tensor:
#      x y z
#    x 1.674580 0.005140 0.024820 
#    y 0.005140 1.706380 -0.015310 
#    z 0.024820 -0.015310 1.771950 
# 
# From -- ./inp_files/315074.got.cif
#   From: 2010.05.17/outbox.cif.g08.bks.cpg/sg2_158_cif.got.tgz:315074.got - 2010.06.03 11:33:40.
