data_PCOD9007132
_publ_section_title
;
Structure prediction by ZEFSAII (Michael W. Deem and Ramdas Pophale) SiO2 
 PCOD9007132
Probable space group: P -1
;
_chemical_formula_sum "Si O2"
_cell_formula_units_Z 16
_cell_length_a 6.212366
_cell_length_b 12.375507
_cell_length_c 25.449963
_cell_angle_alpha 23.467903
_cell_angle_beta 70.379555
_cell_angle_gamma 66.213293
_cell_volume 709.862274
_symmetry_space_group_name_H-M "P -1"
_symmetry_group_IT_number 2
_symmetry_cell_setting 'triclinic'
loop_
_space_group_symop_operation_xyz
x,y,z
-x,-y,-z
loop_
_atom_site_type_symbol
_atom_site_label
_atom_site_fract_x
_atom_site_fract_y
_atom_site_fract_z
Si Si1 0.399490 0.671611 0.122392
Si Si2 0.208055 0.028196 0.070333
Si Si3 0.467562 0.920317 0.815661
Si Si4 0.157471 0.752734 0.531150
Si Si5 0.416832 0.509806 0.442551
Si Si6 0.316015 0.804801 0.611241
Si Si7 0.718565 0.470415 0.916975
Si Si8 0.977630 0.299437 0.682377
O O1 0.559704 0.447497 0.248790
O O2 0.331554 0.514409 0.147700
O O3 0.194887 0.858400 0.092949
O O4 0.551321 0.877163 0.995976
O O5 0.188056 0.827311 0.209534
O O6 0.991533 0.300628 0.973969
O O7 0.640728 0.752038 0.831945
O O8 0.557118 0.180349 0.712876
O O9 0.203151 0.055032 0.754779
O O10 0.430710 0.721655 0.955061
O O11 0.399134 0.750419 0.483051
O O12 0.235738 0.706133 0.605915
O O13 0.078450 0.498081 0.624211
O O14 0.932948 0.013116 0.427109
O O15 0.500000 0.500000 0.500000
O O16 0.162913 0.525143 0.432218
O O17 0.500000 0.000000 0.500000
#
# Coordination Sequence:
#
# PCOD9007132 Si02
#       8
#     2   2   2   2   2   2   2   2
#     4  11  23  37  61  91 119 155 201 244 298 359
#     4  10  22  38  60  89 119 156 197 245 301 356
#     4   9  22  39  59  87 118 159 203 239 297 360
#     4  10  23  41  62  88 119 160 204 240 298 365
#     4  11  23  38  61  89 120 157 201 249 296 350
#     4  11  24  41  62  89 123 160 198 247 300 354
#     4  10  21  39  60  86 121 156 196 250 294 349
#     4  10  21  42  65  84 120 162 197 246 302 356
#
# _framework density 22.539583
#
# number of rings (size 3 to 8) (size 9 to 14) (size 15 to 20)
#    0.000    1.750    0.000    3.375    0.000   15.000 
#    0.000    3.750    0.000    0.000    0.000    0.000 
#    0.000    0.000    0.000    0.000    0.000    0.000 
#
# Total GULP energy -89336.943973 kJ/mol
# GULP energy per Si atom -5583.558998 kJ/mol
# Density = 2.248828 g / cm^3
# Si number density = 22.539583 Si / 1000 Ang^3
#
#
#
# Elastic Constant Matrix: (Units=GPa)
#
#
# Indices 1 2 3 4 5 6 
#
# 1 73.0432 40.5720 28.3762 3.2031 18.3040 14.8008
# 2 40.5720 165.9503 19.8118 -18.6938 29.2421 -16.0488
# 3 28.3762 19.8118 50.9679 -0.1144 13.6465 -1.6132
# 4 3.2031 -18.6938 -0.1144 27.3907 -2.6448 2.2790
# 5 18.3040 29.2421 13.6465 -2.6448 35.3707 4.1050
# 6 14.8008 -16.0488 -1.6132 2.2790 4.1050 30.1710
#
#
#
# Elastic Compliance Matrix: (Units=1/GPa)
#
#
# Indices 1 2 3 4 5 6 
#
# 1 0.026385 -0.007074 -0.012012 -0.006751 -0.001749 -0.016601
# 2 -0.007074 0.010244 0.001915 0.006453 -0.006152 0.009372
# 3 -0.012012 0.001915 0.027745 0.001378 -0.007042 0.009249
# 4 -0.006751 0.006453 0.001378 0.041434 0.000302 0.003647
# 5 -0.001749 -0.006152 -0.007042 0.000302 0.037928 -0.007974
# 6 -0.016601 0.009372 0.009249 0.003647 -0.007974 0.047577
#
#
# Mechanical properties :
#
#
# Convention : Reuss Voigt Hill
#
# Bulk Modulus (GPa) = 33.29922 51.94239 42.62080
# Shear Modulus (GPa) = 21.21653 31.99990 26.60821
#
# Velocity S-wave (km/s) = 3.07139 3.77200 3.43958
# Velocity P-wave (km/s) = 5.23294 6.48581 5.89276
#
# Compressibility (1/GPa) = 0.03003074
#
# Stress axis : x y z
#
# Youngs Moduli (GPa) = 37.90085 97.61695 36.04293
#
# Poissons Ratio (x) = 0.69057 0.43295
# Poissons Ratio (y) = 0.26812 -0.06902
# Poissons Ratio (z) = 0.45526 -0.18693
#
# Static dielectric constant tensor:
#      x y z
#    x 1.880120 -0.024640 -0.003630 
#    y -0.024640 1.862140 0.016130 
#    z -0.003630 0.016130 1.853490 
# 
# From -- ./inp_files/108923.got.cif
#   From: 2010.05.17/outbox.cif.g08.bks.cpg/sg2_55_cif.got.tgz:108923.got - 2010.06.03 11:33:40.
