data_PCOD9007426
_publ_section_title
;
Structure prediction by ZEFSAII (Michael W. Deem and Ramdas Pophale) SiO2 
 PCOD9007426
Probable space group: P -1
;
_chemical_formula_sum "Si O2"
_cell_formula_units_Z 14
_cell_length_a 9.156369
_cell_length_b 9.555729
_cell_length_c 27.631989
_cell_angle_alpha 152.232602
_cell_angle_beta 141.718486
_cell_angle_gamma 45.964499
_cell_volume 697.806520
_symmetry_space_group_name_H-M "P -1"
_symmetry_group_IT_number 2
_symmetry_cell_setting 'triclinic'
loop_
_space_group_symop_operation_xyz
x,y,z
-x,-y,-z
loop_
_atom_site_type_symbol
_atom_site_label
_atom_site_fract_x
_atom_site_fract_y
_atom_site_fract_z
Si Si1 0.025000 0.739091 0.835159
Si Si2 0.791714 0.366470 0.297664
Si Si3 0.719437 0.868180 0.048015
Si Si4 0.442080 0.452244 0.913440
Si Si5 0.678318 0.402578 0.474888
Si Si6 0.825507 0.793278 0.360194
Si Si7 0.482467 0.752836 0.713995
O O1 0.763809 0.751736 0.791503
O O2 0.217777 0.655776 0.900768
O O3 0.053039 0.460063 0.718943
O O4 0.077655 0.042996 0.910737
O O5 0.682395 0.610020 0.306752
O O6 0.647929 0.359753 0.306933
O O7 0.064005 0.454214 0.405595
O O8 0.774303 0.061551 0.169480
O O9 0.636537 0.556001 0.955179
O O10 0.500000 0.000000 0.000000
O O11 0.401049 0.097388 0.791252
O O12 0.500000 0.500000 0.000000
O O13 0.500000 0.500000 0.500000
O O14 0.586227 0.454497 0.412911
O O15 0.688747 0.041434 0.371189
O O16 0.000000 0.000000 0.500000
#
# Coordination Sequence:
#
# PCOD9007426 Si02
#       7
#     2   2   2   2   2   2   2
#     4  10  22  41  62  91 128 162 210 252 311 374
#     4  10  21  39  61  92 130 162 205 264 311 364
#     4   9  19  39  64  86 125 168 206 257 303 362
#     4  11  22  41  64  91 129 164 206 265 307 358
#     4  11  22  41  66  92 124 164 214 254 311 383
#     4   9  18  38  61  84 121 161 198 254 301 363
#     4  12  23  40  65  97 124 167 206 257 320 368
#
# _framework density 20.062868999999999
#
# number of rings (size 3 to 8) (size 9 to 14) (size 15 to 20)
#    0.000    1.714    2.857    3.000    0.000    1.143 
#    2.571    3.571    0.000    0.000    0.000    0.000 
#    0.000    0.000    0.000    0.000    0.000    0.000 
#
# Total GULP energy -77970.701864 kJ/mol
# GULP energy per Si atom -5569.335847 kJ/mol
# Density = 2.001720 g / cm^3
# Si number density = 20.062869 Si / 1000 Ang^3
#
#
#
# Elastic Constant Matrix: (Units=GPa)
#
#
# Indices 1 2 3 4 5 6 
#
# 1 159.2502 46.5973 27.1225 -19.1046 20.6821 18.5671
# 2 46.5973 53.0743 -2.4928 -16.7189 4.4310 16.0165
# 3 27.1225 -2.4928 40.8105 -19.3446 3.7394 14.1565
# 4 -19.1046 -16.7189 -19.3446 35.9430 10.0212 -0.0400
# 5 20.6821 4.4310 3.7394 10.0212 33.9020 -7.6142
# 6 18.5671 16.0165 14.1565 -0.0400 -7.6142 29.4033
#
#
#
# Elastic Compliance Matrix: (Units=1/GPa)
#
#
# Indices 1 2 3 4 5 6 
#
# 1 0.008970 0.012807 0.020573 0.028547 -0.024323 -0.028805
# 2 0.012807 -0.224922 -0.308374 -0.325848 0.223885 0.320435
# 3 0.020573 -0.308374 -0.366273 -0.406965 0.278966 0.403017
# 4 0.028547 -0.325848 -0.406965 -0.407080 0.286768 0.429113
# 5 -0.024323 0.223885 0.278966 0.286768 -0.164022 -0.282990
# 6 -0.028805 0.320435 0.403017 0.429113 -0.282990 -0.389082
#
#
# Mechanical properties :
#
#
# Convention : Reuss Voigt Hill
#
# Bulk Modulus (GPa) = -0.88323 43.95433 21.53555
# Shear Modulus (GPa) = -3.65010 31.97686 14.16338
#
# Velocity S-wave (km/s) = -1.35029 3.99661 2.65985
# Velocity P-wave (km/s) = 1.69477 6.57671 4.49338
#
# Compressibility (1/GPa) = -1.13221212
#
# Stress axis : x y z
#
# Youngs Moduli (GPa) = 111.47924 -4.44599 -2.73021
#
# Poissons Ratio (x) = 0.05694 0.05617
# Poissons Ratio (y) = -1.42767 -0.84192
# Poissons Ratio (z) = -2.29346 -1.37103
#
# Static dielectric constant tensor:
#      x y z
#    x 1.717500 0.027810 -0.016960 
#    y 0.027810 1.763650 -0.030570 
#    z -0.016960 -0.030570 1.830170 
# 
# From -- ./inp_files/177245.got.cif
#   From: 2010.05.17/outbox.cif.g08.bks.cpg/sg2_89_cif.got.tgz:177245.got - 2010.06.03 11:33:40.
