data_PCOD9007465
_publ_section_title
;
Structure prediction by ZEFSAII (Michael W. Deem and Ramdas Pophale) SiO2 
 PCOD9007465
Probable space group: P -1
;
_chemical_formula_sum "Si O2"
_cell_formula_units_Z 16
_cell_length_a 13.786417
_cell_length_b 8.084269
_cell_length_c 11.756429
_cell_angle_alpha 134.454199
_cell_angle_beta 104.062099
_cell_angle_gamma 109.973400
_cell_volume 611.162391
_symmetry_space_group_name_H-M "P -1"
_symmetry_group_IT_number 2
_symmetry_cell_setting 'triclinic'
loop_
_space_group_symop_operation_xyz
x,y,z
-x,-y,-z
loop_
_atom_site_type_symbol
_atom_site_label
_atom_site_fract_x
_atom_site_fract_y
_atom_site_fract_z
Si Si1 0.055457 0.833481 0.914272
Si Si2 0.203588 0.088878 0.866881
Si Si3 0.672613 0.726946 0.637485
Si Si4 0.405526 0.891878 0.632861
Si Si5 0.802372 0.081927 0.481923
Si Si6 0.612051 0.001091 0.086310
Si Si7 0.282330 0.721591 0.143121
Si Si8 0.827937 0.634165 0.306049
O O1 0.954482 0.453540 0.749049
O O2 0.063268 0.798487 0.765650
O O3 0.217772 0.084413 0.133344
O O4 0.000000 0.000000 0.000000
O O5 0.190068 0.983214 0.681522
O O6 0.348511 0.205619 0.016300
O O7 0.209751 0.378862 0.017605
O O8 0.500000 0.500000 0.500000
O O9 0.670187 0.448572 0.482121
O O10 0.738881 0.042218 0.727861
O O11 0.304136 0.879623 0.522974
O O12 0.451299 0.124102 0.864130
O O13 0.543401 0.027786 0.672498
O O14 0.759924 0.771103 0.378877
O O15 0.773397 0.379591 0.271639
O O16 0.500000 0.000000 0.000000
O O17 0.240993 0.602870 0.940765
O O18 0.000000 0.000000 0.500000
#
# Coordination Sequence:
#
# PCOD9007465 Si02
#       8
#     2   2   2   2   2   2   2   2
#     4  12  23  44  68  94 132 176 218 268 333 397
#     4  10  24  39  66  98 128 169 218 273 331 390
#     4  10  22  42  64  88 130 174 216 262 326 388
#     4  10  21  39  61  95 126 174 211 271 322 399
#     4  10  22  40  66  94 132 161 215 267 331 387
#     4  11  22  38  66  96 130 171 225 270 334 389
#     4  10  21  40  64  88 133 166 212 271 336 379
#     4  11  22  38  62  94 126 168 216 272 327 388
#
# _framework density 26.17962
#
# number of rings (size 3 to 8) (size 9 to 14) (size 15 to 20)
#    0.000    1.500    2.500    2.625    3.500    4.500 
#    2.250    3.125    0.000    0.000    0.000    0.000 
#    0.000    0.000    0.000    0.000    0.000    0.000 
#
# Total GULP energy -89147.113706 kJ/mol
# GULP energy per Si atom -5571.694607 kJ/mol
# Density = 2.612003 g / cm^3
# Si number density = 26.179620 Si / 1000 Ang^3
#
#
#
# Elastic Constant Matrix: (Units=GPa)
#
#
# Indices 1 2 3 4 5 6 
#
# 1 86.0454 28.5246 23.1149 -1.6483 -12.8576 -31.8044
# 2 28.5246 66.1974 10.2108 21.5301 -1.7463 -20.7576
# 3 23.1149 10.2108 90.5470 10.8001 7.8370 -12.8974
# 4 -1.6483 21.5301 10.8001 44.5736 -16.5117 -9.5467
# 5 -12.8576 -1.7463 7.8370 -16.5117 34.6064 8.1038
# 6 -31.8044 -20.7576 -12.8974 -9.5467 8.1038 45.3241
#
#
#
# Elastic Compliance Matrix: (Units=1/GPa)
#
#
# Indices 1 2 3 4 5 6 
#
# 1 0.022673 -0.009964 -0.006133 0.014433 0.013814 0.010171
# 2 -0.009964 0.025458 0.003392 -0.017162 -0.012364 0.004229
# 3 -0.006133 0.003392 0.014284 -0.008683 -0.009774 0.001234
# 4 0.014433 -0.017162 -0.008683 0.044106 0.026488 0.004351
# 5 0.013814 -0.012364 -0.009774 0.026488 0.048696 -0.001878
# 6 0.010171 0.004229 0.001234 0.004351 -0.001878 0.032741
#
#
# Mechanical properties :
#
#
# Convention : Reuss Voigt Hill
#
# Bulk Modulus (GPa) = 27.02264 40.72115 33.87190
# Shear Modulus (GPa) = 22.15303 36.96344 29.55823
#
# Velocity S-wave (km/s) = 2.91210 3.76162 3.36379
# Velocity P-wave (km/s) = 4.65312 5.86981 5.29652
#
# Compressibility (1/GPa) = 0.03700601
#
# Stress axis : x y z
#
# Youngs Moduli (GPa) = 44.10593 39.28003 70.00696
#
# Poissons Ratio (x) = 0.39139 0.42933
# Poissons Ratio (y) = 0.43948 -0.23748
# Poissons Ratio (z) = 0.27049 -0.13325
#
# Static dielectric constant tensor:
#      x y z
#    x 2.166200 -0.014110 -0.023870 
#    y -0.014110 2.076300 0.016670 
#    z -0.023870 0.016670 2.167040 
# 
# From -- ./inp_files/319211.got.cif
#   From: 2010.05.17/outbox.cif.g08.bks.cpg/sg2_160_cif.got.tgz:319211.got - 2010.06.03 11:33:40.
