data_PCOD9007541
_publ_section_title
;
Structure prediction by ZEFSAII (Michael W. Deem and Ramdas Pophale) SiO2 
 PCOD9007541
Probable space group: P -1
;
_chemical_formula_sum "Si O2"
_cell_formula_units_Z 16
_cell_length_a 8.217109
_cell_length_b 15.586290
_cell_length_c 13.995191
_cell_angle_alpha 36.522219
_cell_angle_beta 68.022529
_cell_angle_gamma 95.270215
_cell_volume 695.223155
_symmetry_space_group_name_H-M "P -1"
_symmetry_group_IT_number 2
_symmetry_cell_setting 'triclinic'
loop_
_space_group_symop_operation_xyz
x,y,z
-x,-y,-z
loop_
_atom_site_type_symbol
_atom_site_label
_atom_site_fract_x
_atom_site_fract_y
_atom_site_fract_z
Si Si1 0.679557 0.405925 0.324420
Si Si2 0.164059 0.809300 0.943049
Si Si3 0.403797 0.321009 0.973950
Si Si4 0.356257 0.040364 0.870723
Si Si5 0.849646 0.998025 0.402264
Si Si6 0.841405 0.686515 0.652729
Si Si7 0.723689 0.987335 0.873600
Si Si8 0.710867 0.136235 0.465780
O O1 0.604241 0.519599 0.204859
O O2 0.490174 0.233271 0.599428
O O3 0.692113 0.298752 0.330314
O O4 0.951365 0.578616 0.159541
O O5 0.133143 0.932026 0.772202
O O6 0.146356 0.842853 0.027425
O O7 0.452046 0.932078 0.753185
O O8 0.634122 0.452140 0.877633
O O9 0.407287 0.213215 0.981281
O O10 0.136237 0.138872 0.245277
O O11 0.563454 0.039257 0.848813
O O12 0.264456 0.043153 0.990089
O O13 0.740104 0.066239 0.424715
O O14 0.722974 0.768761 0.639789
O O15 0.045682 0.754900 0.622408
O O16 0.006805 0.824420 0.399956
#
# Coordination Sequence:
#
# PCOD9007541 Si02
#       8
#     2   2   2   2   2   2   2   2
#     4  10  22  40  60  91 121 161 198 249 293 357
#     4  10  21  39  62  87 123 155 200 251 293 354
#     4  10  24  40  60  88 128 157 198 246 302 352
#     4  10  21  40  64  90 120 154 204 243 303 359
#     4  10  23  40  59  90 125 161 198 247 301 352
#     4  11  21  39  61  88 126 158 195 252 297 353
#     4  10  22  40  62  91 121 157 196 251 300 359
#     4  11  22  37  63  91 120 161 206 244 296 352
#
# _framework density 23.014192999999999
#
# number of rings (size 3 to 8) (size 9 to 14) (size 15 to 20)
#    0.000    1.750    2.500    2.250    1.750    5.000 
#    0.000   11.250    0.000    0.000    0.000    0.000 
#    0.000    0.000    0.000    0.000    0.000    0.000 
#
# Total GULP energy -89470.893326 kJ/mol
# GULP energy per Si atom -5591.930833 kJ/mol
# Density = 2.296181 g / cm^3
# Si number density = 23.014193 Si / 1000 Ang^3
#
#
#
# Elastic Constant Matrix: (Units=GPa)
#
#
# Indices 1 2 3 4 5 6 
#
# 1 62.9627 12.9563 11.3770 -7.8489 -6.5857 3.0876
# 2 12.9563 106.3843 20.6268 -7.6782 -9.1224 -3.6651
# 3 11.3770 20.6268 47.4500 -30.7373 -5.9822 0.9821
# 4 -7.8489 -7.6782 -30.7373 35.7005 6.5111 0.1018
# 5 -6.5857 -9.1224 -5.9822 6.5111 39.2832 -16.8833
# 6 3.0876 -3.6651 0.9821 0.1018 -16.8833 28.1920
#
#
#
# Elastic Compliance Matrix: (Units=1/GPa)
#
#
# Indices 1 2 3 4 5 6 
#
# 1 0.016972 -0.001383 -0.002732 0.000805 0.001533 -0.001029
# 2 -0.001383 0.011095 -0.007249 -0.004870 0.003836 0.004161
# 3 -0.002732 -0.007249 0.053272 0.044338 -0.003394 -0.004692
# 4 0.000805 -0.004870 0.044338 0.066911 -0.008634 -0.007679
# 5 0.001533 0.003836 -0.003394 -0.008634 0.037334 0.022838
# 6 -0.001029 0.004161 -0.004692 -0.007679 0.022838 0.049993
#
#
# Mechanical properties :
#
#
# Convention : Reuss Voigt Hill
#
# Bulk Modulus (GPa) = 17.06181 34.07967 25.57074
# Shear Modulus (GPa) = 17.99592 32.09093 25.04343
#
# Velocity S-wave (km/s) = 2.79937 3.73821 3.30233
# Velocity P-wave (km/s) = 4.22828 5.78555 5.06709
#
# Compressibility (1/GPa) = 0.05861044
#
# Stress axis : x y z
#
# Youngs Moduli (GPa) = 58.92133 90.13403 18.77169
#
# Poissons Ratio (x) = 0.12467 0.05128
# Poissons Ratio (y) = 0.08150 0.13607
# Poissons Ratio (z) = 0.16097 0.65335
#
# Static dielectric constant tensor:
#      x y z
#    x 1.933550 0.004040 -0.018440 
#    y 0.004040 1.883200 -0.010930 
#    z -0.018440 -0.010930 1.837080 
# 
# From -- ./inp_files/46323.got.cif
#   From: 2010.05.17/outbox.cif.g08.bks.cpg/sg2_24_cif.got.tgz:46323.got - 2010.06.03 11:33:40.
