data_PCOD9007755
_publ_section_title
;
Structure prediction by ZEFSAII (Michael W. Deem and Ramdas Pophale) SiO2 
 PCOD9007755
Probable space group: P -1
;
_chemical_formula_sum "Si O2"
_cell_formula_units_Z 12
_cell_length_a 16.984542
_cell_length_b 9.830884
_cell_length_c 5.566997
_cell_angle_alpha 50.369740
_cell_angle_beta 102.804547
_cell_angle_gamma 135.025599
_cell_volume 458.790393
_symmetry_space_group_name_H-M "P -1"
_symmetry_group_IT_number 2
_symmetry_cell_setting 'triclinic'
loop_
_space_group_symop_operation_xyz
x,y,z
-x,-y,-z
loop_
_atom_site_type_symbol
_atom_site_label
_atom_site_fract_x
_atom_site_fract_y
_atom_site_fract_z
Si Si1 0.692815 0.374247 0.174464
Si Si2 0.501900 0.843896 0.365771
Si Si3 0.180248 0.183250 0.605216
Si Si4 0.284750 0.003857 0.805558
Si Si5 0.083169 0.785775 0.610800
Si Si6 0.879457 0.575330 0.418061
O O1 0.629068 0.377500 0.344324
O O2 0.821750 0.504838 0.197756
O O3 0.599316 0.066959 0.384238
O O4 0.715353 0.540455 0.783187
O O5 0.571514 0.795319 0.347549
O O6 0.500000 0.000000 0.000000
O O7 0.125488 0.238305 0.680679
O O8 0.243607 0.105089 0.820019
O O9 0.083953 0.957271 0.592741
O O10 0.221706 0.947912 0.567223
O O11 0.216440 0.716040 0.184837
O O12 0.014390 0.718355 0.393512
O O13 0.000000 0.500000 0.000000
#
# Coordination Sequence:
#
# PCOD9007755 Si02
#       6
#     2   2   2   2   2   2
#     4  11  23  36  67  93 116 165 207 250 305 354
#     4  11  21  43  65  85 125 166 199 254 311 358
#     4  10  21  39  62  95 122 159 205 247 303 363
#     4   9  20  39  63  86 122 161 203 241 305 362
#     4   8  19  37  65  89 121 168 196 239 313 363
#     4  11  19  42  63  89 128 161 198 251 304 361
#
# _framework density 26.155736000000001
#
# number of rings (size 3 to 8) (size 9 to 14) (size 15 to 20)
#    1.000    1.000    3.333    0.500    0.000    1.333 
#    3.000    4.167    0.000    0.000    0.000    0.000 
#    0.000    0.000    0.000    0.000    0.000    0.000 
#
# Total GULP energy -67056.370210 kJ/mol
# GULP energy per Si atom -5588.030851 kJ/mol
# Density = 2.609620 g / cm^3
# Si number density = 26.155736 Si / 1000 Ang^3
#
#
#
# Elastic Constant Matrix: (Units=GPa)
#
#
# Indices 1 2 3 4 5 6 
#
# 1 155.0158 12.0550 43.8382 7.8318 14.7709 3.0879
# 2 12.0550 85.8508 1.2572 -7.3503 21.5347 -4.0997
# 3 43.8382 1.2572 72.0791 -9.0721 7.5100 -6.9332
# 4 7.8318 -7.3503 -9.0721 32.8122 2.7700 16.5745
# 5 14.7709 21.5347 7.5100 2.7700 44.3730 -0.5502
# 6 3.0879 -4.0997 -6.9332 16.5745 -0.5502 45.9455
#
#
#
# Elastic Compliance Matrix: (Units=1/GPa)
#
#
# Indices 1 2 3 4 5 6 
#
# 1 0.008359 -0.001133 -0.005417 -0.003546 -0.001097 -0.000214
# 2 -0.001133 0.013905 0.001726 0.004517 -0.006947 -0.000135
# 3 -0.005417 0.001726 0.018306 0.006496 -0.002527 0.000907
# 4 -0.003546 0.004517 0.006496 0.041271 -0.004853 -0.013325
# 5 -0.001097 -0.006947 -0.002527 -0.004853 0.027018 0.001147
# 6 -0.000214 -0.000135 0.000907 -0.013325 0.001147 0.026725
#
#
# Mechanical properties :
#
#
# Convention : Reuss Voigt Hill
#
# Bulk Modulus (GPa) = 32.33923 47.47183 39.90553
# Shear Modulus (GPa) = 32.14647 41.67915 36.91281
#
# Velocity S-wave (km/s) = 3.50957 3.99620 3.76076
# Velocity P-wave (km/s) = 5.36784 6.28346 5.84361
#
# Compressibility (1/GPa) = 0.03092220
#
# Stress axis : x y z
#
# Youngs Moduli (GPa) = 119.63395 71.91790 54.62673
#
# Poissons Ratio (x) = 0.08148 0.29589
# Poissons Ratio (y) = 0.13554 -0.09428
# Poissons Ratio (z) = 0.64801 -0.12412
#
# Static dielectric constant tensor:
#      x y z
#    x 2.078930 -0.038810 -0.025920 
#    y -0.038810 2.101990 0.018120 
#    z -0.025920 0.018120 2.026400 
# 
# From -- ./inp_files/29247.got.cif
#   From: 2010.05.17/outbox.cif.g08.bks.cpg/sg2_15_cif.got.tgz:29247.got - 2010.06.03 11:33:40.
