data_PCOD9007691
_publ_section_title
;
Structure prediction by ZEFSAII (Michael W. Deem and Ramdas Pophale) SiO2 
 PCOD9007691
Probable space group: P -1
;
_chemical_formula_sum "Si O2"
_cell_formula_units_Z 14
_cell_length_a 19.342431
_cell_length_b 8.178986
_cell_length_c 8.888954
_cell_angle_alpha 77.141462
_cell_angle_beta 146.933272
_cell_angle_gamma 115.213087
_cell_volume 667.928306
_symmetry_space_group_name_H-M "P -1"
_symmetry_group_IT_number 2
_symmetry_cell_setting 'triclinic'
loop_
_space_group_symop_operation_xyz
x,y,z
-x,-y,-z
loop_
_atom_site_type_symbol
_atom_site_label
_atom_site_fract_x
_atom_site_fract_y
_atom_site_fract_z
Si Si1 0.799480 0.740192 0.158578
Si Si2 0.146579 0.622199 0.159677
Si Si3 0.891138 0.179623 0.237946
Si Si4 0.555398 0.152759 0.203064
Si Si5 0.625362 0.192879 0.875818
Si Si6 0.668658 0.501518 0.672727
Si Si7 0.436317 0.557127 0.047085
O O1 0.945674 0.723743 0.435357
O O2 0.838010 0.957454 0.184129
O O3 0.720255 0.640565 0.880811
O O4 0.701202 0.641486 0.143811
O O5 0.276553 0.751320 0.479107
O O6 0.204306 0.495656 0.197642
O O7 0.122851 0.751846 0.967038
O O8 0.000000 0.500000 0.000000
O O9 0.784757 0.221390 0.139841
O O10 0.475835 0.024645 0.227896
O O11 0.524835 0.327249 0.061785
O O12 0.500000 0.000000 0.000000
O O13 0.594926 0.292660 0.655384
O O14 0.611836 0.313459 0.963669
O O15 0.564872 0.546589 0.370772
#
# Coordination Sequence:
#
# PCOD9007691 Si02
#       7
#     2   2   2   2   2   2   2
#     4  10  21  40  61  93 125 159 205 256 306 362
#     4  11  25  43  63  90 125 166 207 252 310 374
#     4  10  23  38  65  91 122 164 208 254 303 366
#     4  10  23  39  64  92 125 162 203 254 305 361
#     4   9  20  39  62  92 116 162 205 247 298 365
#     4  10  23  39  66  90 123 162 205 255 307 363
#     4  10  21  39  62  92 125 162 199 254 304 367
#
# _framework density 20.960334
#
# number of rings (size 3 to 8) (size 9 to 14) (size 15 to 20)
#    0.000    2.000    0.000    2.571    8.000    9.143 
#    5.143    0.714    0.000    0.000    0.000    0.000 
#    0.000    0.000    0.000    0.000    0.000    0.000 
#
# Total GULP energy -78171.411329 kJ/mol
# GULP energy per Si atom -5583.672238 kJ/mol
# Density = 2.091263 g / cm^3
# Si number density = 20.960334 Si / 1000 Ang^3
#
#
#
# Elastic Constant Matrix: (Units=GPa)
#
#
# Indices 1 2 3 4 5 6 
#
# 1 94.4115 33.9683 32.6521 0.8833 16.5379 17.1530
# 2 33.9683 109.1925 56.9581 -23.5533 20.5854 35.9823
# 3 32.6521 56.9581 130.4838 -16.3933 14.7653 14.5213
# 4 0.8833 -23.5533 -16.3933 36.6474 -4.7782 0.0008
# 5 16.5379 20.5854 14.7653 -4.7782 31.5433 11.5268
# 6 17.1530 35.9823 14.5213 0.0008 11.5268 39.0870
#
#
#
# Elastic Compliance Matrix: (Units=1/GPa)
#
#
# Indices 1 2 3 4 5 6 
#
# 1 0.013244 -0.002503 -0.001989 -0.003384 -0.004349 -0.001487
# 2 -0.002503 0.020127 -0.004905 0.010475 -0.002507 -0.014869
# 3 -0.001989 -0.004905 0.010397 0.001405 -0.001084 0.001846
# 4 -0.003384 0.010475 0.001405 0.035135 0.003110 -0.009598
# 5 -0.004349 -0.002507 -0.001084 0.003110 0.039126 -0.006919
# 6 -0.001487 -0.014869 0.001846 -0.009598 -0.006919 0.041279
#
#
# Mechanical properties :
#
#
# Convention : Reuss Voigt Hill
#
# Bulk Modulus (GPa) = 40.04265 64.58276 52.31271
# Shear Modulus (GPa) = 26.82024 35.48949 31.15486
#
# Velocity S-wave (km/s) = 3.58099 4.11928 3.85953
# Velocity P-wave (km/s) = 6.02026 7.31461 6.69877
#
# Compressibility (1/GPa) = 0.02497337
#
# Stress axis : x y z
#
# Youngs Moduli (GPa) = 75.50664 49.68381 96.18612
#
# Poissons Ratio (x) = 0.12434 0.19135
# Poissons Ratio (y) = 0.18896 0.47181
# Poissons Ratio (z) = 0.15021 0.24371
#
# Static dielectric constant tensor:
#      x y z
#    x 1.800130 0.016030 -0.012550 
#    y 0.016030 1.792130 -0.018790 
#    z -0.012550 -0.018790 1.725430 
# 
# From -- ./inp_files/224392.got.cif
#   From: 2010.05.17/outbox.cif.g08.bks.cpg/sg2_113_cif.got.tgz:224392.got - 2010.06.03 11:33:40.
