data_PCOD9007698
_publ_section_title
;
Structure prediction by ZEFSAII (Michael W. Deem and Ramdas Pophale) SiO2 
 PCOD9007698
Probable space group: P -1
;
_chemical_formula_sum "Si O2"
_cell_formula_units_Z 14
_cell_length_a 16.090247
_cell_length_b 18.998444
_cell_length_c 8.792325
_cell_angle_alpha 141.356965
_cell_angle_beta 31.203155
_cell_angle_gamma 157.920736
_cell_volume 522.479965
_symmetry_space_group_name_H-M "P -1"
_symmetry_group_IT_number 2
_symmetry_cell_setting 'triclinic'
loop_
_space_group_symop_operation_xyz
x,y,z
-x,-y,-z
loop_
_atom_site_type_symbol
_atom_site_label
_atom_site_fract_x
_atom_site_fract_y
_atom_site_fract_z
Si Si1 0.943677 0.006580 0.929568
Si Si2 0.754483 0.443049 0.329700
Si Si3 0.749563 0.517647 0.118577
Si Si4 0.120052 0.177017 0.527515
Si Si5 0.322901 0.736288 0.398008
Si Si6 0.028596 0.746118 0.654704
Si Si7 0.468648 0.085334 0.309954
O O1 0.642179 0.879062 0.136789
O O2 0.101602 0.213005 0.001876
O O3 0.989415 0.913861 0.618110
O O4 0.000000 0.000000 0.000000
O O5 0.738005 0.494702 0.280775
O O6 0.512044 0.224587 0.381992
O O7 0.819764 0.552776 0.562378
O O8 0.000000 0.500000 0.000000
O O9 0.435387 0.357763 0.314408
O O10 0.931316 0.729828 0.166995
O O11 0.808243 0.448385 0.791166
O O12 0.000000 0.000000 0.500000
O O13 0.315785 0.768987 0.643119
O O14 0.779672 0.220911 0.480432
O O15 0.217267 0.902344 0.491536
O O16 0.500000 0.000000 0.000000
#
# Coordination Sequence:
#
# PCOD9007698 Si02
#       7
#     2   2   2   2   2   2   2
#     4  10  21  39  62  92 126 165 212 266 319 373
#     4  12  23  39  61  97 129 168 207 263 323 375
#     4  10  22  44  64  92 136 159 215 273 312 383
#     4  10  23  43  68  92 121 176 215 258 322 385
#     4  10  22  42  65  93 131 172 210 272 326 377
#     4  11  23  44  64  93 136 169 213 271 320 387
#     4  11  22  38  62  92 126 171 211 257 324 386
#
# _framework density 26.795286000000001
#
# number of rings (size 3 to 8) (size 9 to 14) (size 15 to 20)
#    0.000    1.429    2.857    2.571    0.000    6.286 
#    7.714    0.000    0.000   12.000    0.000    0.000 
#    0.000    0.000    0.000    0.000    0.000    0.000 
#
# Total GULP energy -78047.937723 kJ/mol
# GULP energy per Si atom -5574.852695 kJ/mol
# Density = 2.673430 g / cm^3
# Si number density = 26.795286 Si / 1000 Ang^3
#
#
#
# Elastic Constant Matrix: (Units=GPa)
#
#
# Indices 1 2 3 4 5 6 
#
# 1 162.4594 65.8889 47.7458 20.6333 18.3678 -14.2907
# 2 65.8889 164.2140 60.5823 56.0528 0.9082 -10.7274
# 3 47.7458 60.5823 145.2374 61.2356 1.6684 -5.7358
# 4 20.6333 56.0528 61.2356 69.4803 -0.9934 4.5181
# 5 18.3678 0.9082 1.6684 -0.9934 49.7081 5.2503
# 6 -14.2907 -10.7274 -5.7358 4.5181 5.2503 57.5781
#
#
#
# Elastic Compliance Matrix: (Units=1/GPa)
#
#
# Indices 1 2 3 4 5 6 
#
# 1 0.008237 -0.002999 -0.002064 0.001656 -0.003037 0.001427
# 2 -0.002999 0.009834 -0.000083 -0.007064 0.000623 0.001577
# 3 -0.002064 -0.000083 0.011785 -0.009798 0.000024 0.001413
# 4 0.001656 -0.007064 -0.009798 0.028520 0.000859 -0.004197
# 5 -0.003037 0.000623 0.000024 0.000859 0.021526 -0.002666
# 6 0.001427 0.001577 0.001413 -0.004197 -0.002666 0.018729
#
#
# Mechanical properties :
#
#
# Convention : Reuss Voigt Hill
#
# Bulk Modulus (GPa) = 51.11166 91.14940 71.13053
# Shear Modulus (GPa) = 43.31106 55.19958 49.25532
#
# Velocity S-wave (km/s) = 4.02477 4.54370 4.29208
# Velocity P-wave (km/s) = 6.38080 7.84970 7.15305
#
# Compressibility (1/GPa) = 0.01956501
#
# Stress axis : x y z
#
# Youngs Moduli (GPa) = 121.40752 101.68742 84.85263
#
# Poissons Ratio (x) = 0.30493 0.17512
# Poissons Ratio (y) = 0.36406 0.00704
# Poissons Ratio (z) = 0.25057 0.00843
#
# Static dielectric constant tensor:
#      x y z
#    x 2.135940 0.106990 -0.028220 
#    y 0.106990 1.924860 0.382550 
#    z -0.028220 0.382550 1.941910 
# 
# From -- ./inp_files/337879.got.cif
#   From: 2010.05.17/outbox.cif.g08.bks.cpg/sg2_169_cif.got.tgz:337879.got - 2010.06.03 11:33:40.
