data_PCOD9007756
_publ_section_title
;
Structure prediction by ZEFSAII (Michael W. Deem and Ramdas Pophale) SiO2 
 PCOD9007756
Probable space group: P -1
;
_chemical_formula_sum "Si O2"
_cell_formula_units_Z 16
_cell_length_a 5.068405
_cell_length_b 11.449066
_cell_length_c 11.972771
_cell_angle_alpha 62.998123
_cell_angle_beta 102.548622
_cell_angle_gamma 87.164347
_cell_volume 595.412733
_symmetry_space_group_name_H-M "P -1"
_symmetry_group_IT_number 2
_symmetry_cell_setting 'triclinic'
loop_
_space_group_symop_operation_xyz
x,y,z
-x,-y,-z
loop_
_atom_site_type_symbol
_atom_site_label
_atom_site_fract_x
_atom_site_fract_y
_atom_site_fract_z
Si Si1 0.365377 0.415653 0.613156
Si Si2 0.058018 0.215624 0.610960
Si Si3 0.189472 0.856124 0.580726
Si Si4 0.439680 0.492721 0.832126
Si Si5 0.807640 0.210580 0.042498
Si Si6 0.800304 0.144455 0.819260
Si Si7 0.072518 0.337928 0.194452
Si Si8 0.481245 0.963850 0.738354
O O1 0.500000 0.500000 0.500000
O O2 0.113915 0.363126 0.553513
O O3 0.320079 0.480638 0.702241
O O4 0.576887 0.277082 0.716730
O O5 0.795279 0.196710 0.521573
O O6 0.053459 0.175238 0.757574
O O7 0.296091 0.106237 0.631174
O O8 0.026678 0.757691 0.677872
O O9 0.467500 0.879945 0.658965
O O10 0.000000 0.000000 0.500000
O O11 0.191771 0.542615 0.872322
O O12 0.658755 0.594260 0.800001
O O13 0.596866 0.347633 0.942916
O O14 0.058368 0.258737 0.111089
O O15 0.676911 0.117066 0.155188
O O16 0.850207 0.141730 0.955961
O O17 0.720940 0.015384 0.806661
#
# Coordination Sequence:
#
# PCOD9007756 Si02
#       8
#     2   2   2   2   2   2   2   2
#     4  10  23  39  62  89 131 172 212 270 325 395
#     4  10  21  39  62  95 124 167 216 268 331 390
#     4   9  20  42  66  93 132 165 219 269 326 394
#     4  11  25  43  68  96 134 172 224 269 328 386
#     4  10  22  43  63  91 131 169 219 270 321 393
#     4  10  22  38  61  92 127 163 216 272 325 389
#     4  11  24  46  66 100 130 177 217 275 324 387
#     4   9  20  42  59  92 126 167 216 268 329 384
#
# _framework density 26.872115999999998
#
# number of rings (size 3 to 8) (size 9 to 14) (size 15 to 20)
#    0.000    2.000    0.000    1.875    5.250    1.500 
#   20.250    0.000    0.000    0.000    0.000    0.000 
#    0.000    0.000    0.000    0.000    0.000    0.000 
#
# Total GULP energy -89597.471845 kJ/mol
# GULP energy per Si atom -5599.841990 kJ/mol
# Density = 2.681095 g / cm^3
# Si number density = 26.872116 Si / 1000 Ang^3
#
#
#
# Elastic Constant Matrix: (Units=GPa)
#
#
# Indices 1 2 3 4 5 6 
#
# 1 84.4646 51.4518 17.2469 10.7828 -5.6597 22.9261
# 2 51.4518 205.0502 67.9655 13.3883 -6.8903 24.9750
# 3 17.2469 67.9655 124.9185 26.1668 7.6197 22.7551
# 4 10.7828 13.3883 26.1668 62.1120 -5.1551 2.4817
# 5 -5.6597 -6.8903 7.6197 -5.1551 42.0485 -3.2469
# 6 22.9261 24.9750 22.7551 2.4817 -3.2469 43.3127
#
#
#
# Elastic Compliance Matrix: (Units=1/GPa)
#
#
# Indices 1 2 3 4 5 6 
#
# 1 0.015862 -0.003425 0.001393 -0.002282 0.000502 -0.006985
# 2 -0.003425 0.006922 -0.003467 0.000688 0.001363 -0.000294
# 3 0.001393 -0.003467 0.011754 -0.004536 -0.003446 -0.004912
# 4 -0.002282 0.000688 -0.004536 0.018419 0.003069 0.002369
# 5 0.000502 0.001363 -0.003446 0.003069 0.025265 0.002477
# 6 -0.006985 -0.000294 -0.004912 0.002369 0.002477 0.029585
#
#
# Mechanical properties :
#
#
# Convention : Reuss Voigt Hill
#
# Bulk Modulus (GPa) = 42.48012 76.41797 59.44904
# Shear Modulus (GPa) = 39.47801 48.01258 43.74530
#
# Velocity S-wave (km/s) = 3.83705 4.23153 4.03911
# Velocity P-wave (km/s) = 5.95594 7.23698 6.62748
#
# Compressibility (1/GPa) = 0.02354042
#
# Stress axis : x y z
#
# Youngs Moduli (GPa) = 63.04335 144.46175 85.07459
#
# Poissons Ratio (x) = 0.49484 -0.11853
# Poissons Ratio (y) = 0.21595 0.29495
# Poissons Ratio (z) = -0.08784 0.50085
#
# Static dielectric constant tensor:
#      x y z
#    x 2.113420 -0.017330 0.082650 
#    y -0.017330 2.104890 0.001950 
#    z 0.082650 0.001950 2.094730 
# 
# From -- ./inp_files/84519.got.cif
#   From: 2010.05.17/outbox.cif.g08.bks.cpg/sg2_43_cif.got.tgz:84519.got - 2010.06.03 11:33:40.
