data_PCOD9007747
_publ_section_title
;
Structure prediction by ZEFSAII (Michael W. Deem and Ramdas Pophale) SiO2 
 PCOD9007747
Probable space group: P -1
;
_chemical_formula_sum "Si O2"
_cell_formula_units_Z 16
_cell_length_a 8.951060
_cell_length_b 20.231353
_cell_length_c 12.926886
_cell_angle_alpha 140.695197
_cell_angle_beta 109.634983
_cell_angle_gamma 40.461815
_cell_volume 758.990660
_symmetry_space_group_name_H-M "P -1"
_symmetry_group_IT_number 2
_symmetry_cell_setting 'triclinic'
loop_
_space_group_symop_operation_xyz
x,y,z
-x,-y,-z
loop_
_atom_site_type_symbol
_atom_site_label
_atom_site_fract_x
_atom_site_fract_y
_atom_site_fract_z
Si Si1 0.417831 0.683348 0.247484
Si Si2 0.659366 0.072338 0.052242
Si Si3 0.367172 0.184525 0.674307
Si Si4 0.191609 0.007283 0.631600
Si Si5 0.293139 0.705443 0.648659
Si Si6 0.202048 0.151683 0.994624
Si Si7 0.295216 0.432637 0.037898
Si Si8 0.463041 0.503676 0.752497
O O1 0.488135 0.553553 0.185956
O O2 0.133579 0.822182 0.279343
O O3 0.315210 0.828817 0.482955
O O4 0.664058 0.568303 0.078327
O O5 0.612752 0.223913 0.229113
O O6 0.389766 0.153553 0.042955
O O7 0.696496 0.993454 0.076232
O O8 0.964020 0.882857 0.832461
O O9 0.041052 0.356986 0.762962
O O10 0.500000 0.000000 0.500000
O O11 0.600183 0.100177 0.547503
O O12 0.351612 0.278371 0.875588
O O13 0.226074 0.083995 0.807398
O O14 0.500000 0.500000 0.500000
O O15 0.313814 0.665965 0.484095
O O16 0.858601 0.356742 0.183810
O O17 0.500496 0.390941 0.105503
#
# Coordination Sequence:
#
# PCOD9007747 Si02
#       8
#     2   2   2   2   2   2   2   2
#     4  10  21  39  63  91 135 170 214 262 313 392
#     4  10  25  49  70  95 137 165 222 291 325 402
#     4  10  22  39  57  84 132 175 208 259 313 373
#     4  10  21  39  62  94 128 175 213 259 324 388
#     4  11  24  49  71  97 129 175 221 274 346 393
#     4  11  23  43  69 101 129 172 223 277 336 384
#     4  10  22  40  58  91 129 169 216 261 309 387
#     4  12  23  39  68  98 128 172 219 270 330 396
#
# _framework density 21.080628000000001
#
# number of rings (size 3 to 8) (size 9 to 14) (size 15 to 20)
#    0.000    1.500    2.500    1.875    3.500    0.500 
#    6.750    0.000    0.000    0.000    0.000    0.000 
#    0.000    0.000    0.000    0.000    0.000    0.000 
#
# Total GULP energy -89138.919300 kJ/mol
# GULP energy per Si atom -5571.182456 kJ/mol
# Density = 2.103265 g / cm^3
# Si number density = 21.080628 Si / 1000 Ang^3
#
#
#
# Elastic Constant Matrix: (Units=GPa)
#
#
# Indices 1 2 3 4 5 6 
#
# 1 119.2826 52.5423 55.3662 2.5684 11.4405 -19.6140
# 2 52.5423 156.8810 79.1342 -47.1915 -62.3331 21.9177
# 3 55.3662 79.1342 143.4017 -11.2695 -13.3520 5.4071
# 4 2.5684 -47.1915 -11.2695 50.3677 23.1468 -9.7879
# 5 11.4405 -62.3331 -13.3520 23.1468 78.0155 -13.0531
# 6 -19.6140 21.9177 5.4071 -9.7879 -13.0531 46.9885
#
#
#
# Elastic Compliance Matrix: (Units=1/GPa)
#
#
# Indices 1 2 3 4 5 6 
#
# 1 0.016249 -0.010589 -0.001957 -0.005850 -0.008020 0.008501
# 2 -0.010589 0.024082 -0.006502 0.013490 0.014321 -0.008117
# 3 -0.001957 -0.006502 0.010910 -0.002522 -0.002328 -0.000212
# 4 -0.005850 0.013490 -0.002522 0.031152 0.001715 -0.001479
# 5 -0.008020 0.014321 -0.002328 0.001715 0.024075 -0.002715
# 6 0.008501 -0.008117 -0.000212 -0.001479 -0.002715 0.027578
#
#
# Mechanical properties :
#
#
# Convention : Reuss Voigt Hill
#
# Bulk Modulus (GPa) = 76.06938 88.18342 82.12640
# Shear Modulus (GPa) = 28.32472 50.57584 39.45028
#
# Velocity S-wave (km/s) = 3.66954 4.90344 4.33066
# Velocity P-wave (km/s) = 7.35645 8.60120 8.00306
#
# Compressibility (1/GPa) = 0.01314589
#
# Stress axis : x y z
#
# Youngs Moduli (GPa) = 61.54177 41.52445 91.65865
#
# Poissons Ratio (x) = 0.43969 0.17941
# Poissons Ratio (y) = 0.65165 0.59593
# Poissons Ratio (z) = 0.12046 0.26998
#
# Static dielectric constant tensor:
#      x y z
#    x 1.559040 -0.112810 -0.199650 
#    y -0.112810 1.689670 -0.134130 
#    z -0.199650 -0.134130 1.525590 
# 
# From -- ./inp_files/405599.got.cif
#   From: 2010.05.17/outbox.cif.g08.bks.cpg/sg2_203_cif.got.tgz:405599.got - 2010.06.03 11:33:40.
