data_PCOD9007496
_publ_section_title
;
Structure prediction by ZEFSAII (Michael W. Deem and Ramdas Pophale) SiO2 
 PCOD9007496
Probable space group: P -1
;
_chemical_formula_sum "Si O2"
_cell_formula_units_Z 16
_cell_length_a 7.608859
_cell_length_b 21.284168
_cell_length_c 13.450106
_cell_angle_alpha 157.628924
_cell_angle_beta 70.523806
_cell_angle_gamma 101.960871
_cell_volume 749.950261
_symmetry_space_group_name_H-M "P -1"
_symmetry_group_IT_number 2
_symmetry_cell_setting 'triclinic'
loop_
_space_group_symop_operation_xyz
x,y,z
-x,-y,-z
loop_
_atom_site_type_symbol
_atom_site_label
_atom_site_fract_x
_atom_site_fract_y
_atom_site_fract_z
Si Si1 0.880589 0.308754 0.281098
Si Si2 0.390288 0.181684 0.416204
Si Si3 0.213039 0.437874 0.145805
Si Si4 0.268855 0.149288 0.871924
Si Si5 0.657308 0.601530 0.633493
Si Si6 0.580362 0.242887 0.677941
Si Si7 0.040842 0.631751 0.264846
Si Si8 0.500633 0.793209 0.771529
O O1 0.839030 0.411957 0.542750
O O2 0.843707 0.458713 0.425167
O O3 0.708234 0.220565 0.174979
O O4 0.086519 0.181271 0.029356
O O5 0.457925 0.227636 0.578151
O O6 0.161454 0.217092 0.486815
O O7 0.466910 0.271187 0.441106
O O8 0.497385 0.984555 0.081732
O O9 0.082876 0.523158 0.200513
O O10 0.204705 0.260050 0.944575
O O11 0.432973 0.380358 0.976911
O O12 0.361751 0.944697 0.553078
O O13 0.400029 0.251119 0.055982
O O14 0.500000 0.500000 0.500000
O O15 0.673582 0.679073 0.637959
O O16 0.228115 0.699206 0.302467
O O17 0.000000 0.500000 0.000000
#
# Coordination Sequence:
#
# PCOD9007496 Si02
#       8
#     2   2   2   2   2   2   2   2
#     4  10  22  38  67  98 130 171 224 272 335 392
#     4  11  24  41  68  96 137 172 225 272 341 393
#     4  11  24  44  69  99 136 178 227 275 338 401
#     4  11  23  43  69  99 133 178 222 276 339 396
#     4   9  18  35  59  93 130 167 210 270 324 389
#     4  12  25  47  70  97 141 179 221 279 341 399
#     4  12  27  44  69  97 132 182 228 274 329 408
#     4  10  21  39  62 100 131 172 215 281 330 399
#
# _framework density 21.334745999999999
#
# number of rings (size 3 to 8) (size 9 to 14) (size 15 to 20)
#    0.000    1.250    2.500    3.750    5.250    0.000 
#    0.000    3.750    0.000    0.000    0.000    0.000 
#    0.000    0.000    0.000    0.000    0.000    0.000 
#
# Total GULP energy -89149.926335 kJ/mol
# GULP energy per Si atom -5571.870396 kJ/mol
# Density = 2.128619 g / cm^3
# Si number density = 21.334746 Si / 1000 Ang^3
#
#
#
# Elastic Constant Matrix: (Units=GPa)
#
#
# Indices 1 2 3 4 5 6 
#
# 1 114.4335 35.6417 12.0510 -3.9822 -3.4341 2.4686
# 2 35.6417 110.7477 12.5988 3.5425 1.5965 -17.5174
# 3 12.0510 12.5988 49.1415 -9.0589 -0.0723 -6.4548
# 4 -3.9822 3.5425 -9.0589 25.8978 6.3764 -10.4483
# 5 -3.4341 1.5965 -0.0723 6.3764 32.4120 -4.1644
# 6 2.4686 -17.5174 -6.4548 -10.4483 -4.1644 31.8682
#
#
#
# Elastic Compliance Matrix: (Units=1/GPa)
#
#
# Indices 1 2 3 4 5 6 
#
# 1 0.010136 -0.003526 -0.002000 -0.000103 0.000872 -0.003048
# 2 -0.003526 0.011287 -0.001204 0.000040 -0.000140 0.006229
# 3 -0.002000 -0.001204 0.024452 0.012076 -0.001418 0.008220
# 4 -0.000103 0.000040 0.012076 0.052251 -0.007878 0.018577
# 5 0.000872 -0.000140 -0.001418 -0.007878 0.032660 0.001253
# 6 -0.003048 0.006229 0.008220 0.018577 0.001253 0.042958
#
#
# Mechanical properties :
#
#
# Convention : Reuss Voigt Hill
#
# Bulk Modulus (GPa) = 30.84886 43.87841 37.36364
# Shear Modulus (GPa) = 25.25149 32.30435 28.77792
#
# Velocity S-wave (km/s) = 3.44406 3.89545 3.67669
# Velocity P-wave (km/s) = 5.50511 6.39093 5.96449
#
# Compressibility (1/GPa) = 0.03241611
#
# Stress axis : x y z
#
# Youngs Moduli (GPa) = 98.66003 88.59636 40.89635
#
# Poissons Ratio (x) = 0.31238 0.08178
# Poissons Ratio (y) = 0.34787 0.04923
# Poissons Ratio (z) = 0.19729 0.10665
#
# Static dielectric constant tensor:
#      x y z
#    x 1.832080 0.001610 -0.022850 
#    y 0.001610 1.878150 0.052770 
#    z -0.022850 0.052770 1.799750 
# 
# From -- ./inp_files/508494.got.cif
#   From: 2010.05.17/outbox.cif.g08.bks.cpg/sg2_255_cif.got.tgz:508494.got - 2010.06.03 11:33:40.
