data_PCOD9007092
_publ_section_title
;
Structure prediction by ZEFSAII (Michael W. Deem and Ramdas Pophale) SiO2 
 PCOD9007092
Probable space group: P -1
;
_chemical_formula_sum "Si O2"
_cell_formula_units_Z 16
_cell_length_a 10.331031
_cell_length_b 5.278989
_cell_length_c 19.344662
_cell_angle_alpha 95.762716
_cell_angle_beta 39.223499
_cell_angle_gamma 95.309614
_cell_volume 663.576941
_symmetry_space_group_name_H-M "P -1"
_symmetry_group_IT_number 2
_symmetry_cell_setting 'triclinic'
loop_
_space_group_symop_operation_xyz
x,y,z
-x,-y,-z
loop_
_atom_site_type_symbol
_atom_site_label
_atom_site_fract_x
_atom_site_fract_y
_atom_site_fract_z
Si Si1 0.012091 0.059397 0.115878
Si Si2 0.758097 0.687028 0.542816
Si Si3 0.119629 0.851808 0.302708
Si Si4 0.190786 0.699500 0.922720
Si Si5 0.404852 0.576456 0.278089
Si Si6 0.400419 0.052613 0.677985
Si Si7 0.641950 0.297315 0.470074
Si Si8 0.062290 0.310220 0.238185
O O1 0.851637 0.183790 0.131986
O O2 0.117439 0.241719 0.134192
O O3 0.841668 0.888956 0.221289
O O4 0.160589 0.906488 0.001026
O O5 0.768090 0.601220 0.616532
O O6 0.763641 0.437027 0.486529
O O7 0.927069 0.863005 0.437378
O O8 0.530353 0.801300 0.635838
O O9 0.306754 0.769600 0.270666
O O10 0.092728 0.604134 0.256114
O O11 0.150224 0.106955 0.251513
O O12 0.411519 0.580706 0.834296
O O13 0.000000 0.500000 0.000000
O O14 0.510654 0.744514 0.298408
O O15 0.494965 0.104737 0.565375
O O16 0.500000 0.500000 0.500000
O O17 0.819877 0.245944 0.341517
#
# Coordination Sequence:
#
# PCOD9007092 Si02
#       8
#     2   2   2   2   2   2   2   2
#     4  11  25  41  69  97 129 169 226 286 348 398
#     4  10  21  39  59  98 134 178 219 266 328 395
#     4  11  26  45  66 100 141 186 221 264 328 412
#     4  11  24  45  68  98 124 167 225 295 349 386
#     4  11  24  41  68  95 133 176 230 277 327 398
#     4  11  21  37  66  97 131 174 222 278 338 390
#     4  10  22  35  59  98 140 178 218 266 334 411
#     4  11  26  44  67  98 141 182 217 273 336 405
#
# _framework density 24.111751000000002
#
# number of rings (size 3 to 8) (size 9 to 14) (size 15 to 20)
#    0.000    1.250    3.750    1.125    8.750    1.500 
#    0.000    1.250    0.000    0.000    0.000    0.000 
#    0.000    0.000    0.000    0.000    0.000    0.000 
#
# Total GULP energy -89331.260337 kJ/mol
# GULP energy per Si atom -5583.203771 kJ/mol
# Density = 2.405687 g / cm^3
# Si number density = 24.111751 Si / 1000 Ang^3
#
#
#
# Elastic Constant Matrix: (Units=GPa)
#
#
# Indices 1 2 3 4 5 6 
#
# 1 67.6672 6.5482 35.2849 17.0351 6.9087 -18.0630
# 2 6.5482 54.0829 5.7178 15.0975 1.2458 -15.6249
# 3 35.2849 5.7178 100.7891 37.1352 2.7020 -10.1489
# 4 17.0351 15.0975 37.1352 26.8597 1.0551 -5.7308
# 5 6.9087 1.2458 2.7020 1.0551 30.1124 4.8046
# 6 -18.0630 -15.6249 -10.1489 -5.7308 4.8046 41.8252
#
#
#
# Elastic Compliance Matrix: (Units=1/GPa)
#
#
# Indices 1 2 3 4 5 6 
#
# 1 0.021408 0.002712 -0.003698 -0.007848 -0.005846 0.008958
# 2 0.002712 0.027756 0.008409 -0.026621 -0.003237 0.010305
# 3 -0.003698 0.008409 0.023820 -0.034711 -0.000846 0.002665
# 4 -0.007848 -0.026621 -0.034711 0.103306 0.003677 -0.008025
# 5 -0.005846 -0.003237 -0.000846 0.003677 0.035836 -0.007552
# 6 0.008958 0.010305 0.002665 -0.008025 -0.007552 0.032042
#
#
# Mechanical properties :
#
#
# Convention : Reuss Voigt Hill
#
# Bulk Modulus (GPa) = 11.38571 35.29346 23.33959
# Shear Modulus (GPa) = 19.33509 31.42534 25.38021
#
# Velocity S-wave (km/s) = 2.83485 3.61407 3.24791
# Velocity P-wave (km/s) = 3.93032 5.66432 4.87504
#
# Compressibility (1/GPa) = 0.08782936
#
# Stress axis : x y z
#
# Youngs Moduli (GPa) = 46.71170 36.02836 41.98239
#
# Poissons Ratio (x) = -0.09772 0.15526
# Poissons Ratio (y) = -0.12670 -0.35302
# Poissons Ratio (z) = 0.17275 -0.30295
#
# Static dielectric constant tensor:
#      x y z
#    x 2.037840 -0.145370 0.507470 
#    y -0.145370 2.508970 -1.021750 
#    z 0.507470 -1.021750 5.184830 
# 
# From -- ./inp_files/66732.got.cif
#   From: 2010.05.17/outbox.cif.g08.bks.cpg/sg2_34_cif.got.tgz:66732.got - 2010.06.03 11:33:40.
