data_PCOD9007795
_publ_section_title
;
Structure prediction by ZEFSAII (Michael W. Deem and Ramdas Pophale) SiO2 
 PCOD9007795
Probable space group: P -1
;
_chemical_formula_sum "Si O2"
_cell_formula_units_Z 16
_cell_length_a 13.952250
_cell_length_b 11.411326
_cell_length_c 7.464390
_cell_angle_alpha 127.334334
_cell_angle_beta 117.969889
_cell_angle_gamma 41.034063
_cell_volume 620.205521
_symmetry_space_group_name_H-M "P -1"
_symmetry_group_IT_number 2
_symmetry_cell_setting 'triclinic'
loop_
_space_group_symop_operation_xyz
x,y,z
-x,-y,-z
loop_
_atom_site_type_symbol
_atom_site_label
_atom_site_fract_x
_atom_site_fract_y
_atom_site_fract_z
Si Si1 0.986014 0.165088 0.253766
Si Si2 0.630498 0.715334 0.010491
Si Si3 0.293006 0.790180 0.280734
Si Si4 0.834670 0.191737 0.469716
Si Si5 0.513694 0.841251 0.625712
Si Si6 0.641938 0.198785 0.023406
Si Si7 0.071484 0.527018 0.795417
Si Si8 0.778232 0.758001 0.650334
O O1 0.870124 0.273132 0.415166
O O2 0.949745 0.314029 0.206792
O O3 0.144798 0.022038 0.352630
O O4 0.000000 0.000000 0.000000
O O5 0.527013 0.686241 0.985298
O O6 0.804278 0.547877 0.025364
O O7 0.582219 0.921979 0.231748
O O8 0.580117 0.759162 0.803136
O O9 0.254680 0.711558 0.333755
O O10 0.423588 0.779827 0.439630
O O11 0.329040 0.716841 0.038328
O O12 0.734867 0.164736 0.246262
O O13 0.000000 0.000000 0.500000
O O14 0.651048 0.753993 0.541475
O O15 0.706963 0.981195 0.821938
O O16 0.139568 0.340960 0.555100
O O17 0.906913 0.629596 0.793580
#
# Coordination Sequence:
#
# PCOD9007795 Si02
#       8
#     2   2   2   2   2   2   2   2
#     4  11  22  42  66  92 125 177 224 271 327 380
#     4  10  22  37  64  96 137 169 216 263 326 402
#     4  11  20  36  69  92 123 167 219 273 312 389
#     4  10  22  37  63  97 122 163 231 273 305 377
#     4  10  21  39  62  99 132 174 211 261 332 403
#     4  11  19  41  67  97 128 175 217 264 333 392
#     4  11  22  40  62  98 132 171 216 273 327 390
#     4  10  22  38  63  96 132 167 211 264 337 397
#
# _framework density 25.797899000000001
#
# number of rings (size 3 to 8) (size 9 to 14) (size 15 to 20)
#    0.000    1.500    3.750    1.500    1.750    2.500 
#    0.000    6.875    0.000    2.250    0.000    0.000 
#    0.000    0.000    0.000    0.000    0.000    0.000 
#
# Total GULP energy -89438.295576 kJ/mol
# GULP energy per Si atom -5589.893473 kJ/mol
# Density = 2.573918 g / cm^3
# Si number density = 25.797899 Si / 1000 Ang^3
#
#
#
# Elastic Constant Matrix: (Units=GPa)
#
#
# Indices 1 2 3 4 5 6 
#
# 1 126.7900 35.8473 28.9157 -22.1270 -6.4939 -13.3259
# 2 35.8473 108.6168 44.6803 -22.1070 5.9224 -13.7671
# 3 28.9157 44.6803 90.5860 -20.1089 7.9894 -7.6114
# 4 -22.1270 -22.1070 -20.1089 45.6590 -9.1618 6.6106
# 5 -6.4939 5.9224 7.9894 -9.1618 44.5590 -13.6663
# 6 -13.3259 -13.7671 -7.6114 6.6106 -13.6663 36.3328
#
#
#
# Elastic Compliance Matrix: (Units=1/GPa)
#
#
# Indices 1 2 3 4 5 6 
#
# 1 0.009887 -0.001656 -0.001594 0.003539 0.003724 0.003421
# 2 -0.001656 0.012680 -0.004891 0.002857 0.000397 0.002802
# 3 -0.001594 -0.004891 0.014753 0.003085 -0.001769 -0.000574
# 4 0.003539 0.002857 0.003085 0.027405 0.005219 0.000004
# 5 0.003724 0.000397 -0.001769 0.005219 0.027562 0.010563
# 6 0.003421 0.002802 -0.000574 0.000004 0.010563 0.033692
#
#
# Mechanical properties :
#
#
# Convention : Reuss Voigt Hill
#
# Bulk Modulus (GPa) = 47.53530 60.54216 54.03873
# Shear Modulus (GPa) = 33.49506 39.74679 36.62092
#
# Velocity S-wave (km/s) = 3.60719 3.92943 3.77175
# Velocity P-wave (km/s) = 5.98457 6.64124 6.32144
#
# Compressibility (1/GPa) = 0.02103700
#
# Stress axis : x y z
#
# Youngs Moduli (GPa) = 101.14387 78.86281 67.78178
#
# Poissons Ratio (x) = 0.13061 0.10807
# Poissons Ratio (y) = 0.16752 0.33153
# Poissons Ratio (z) = 0.16126 0.38573
#
# Static dielectric constant tensor:
#      x y z
#    x 2.127750 0.001510 0.038150 
#    y 0.001510 2.049080 -0.007190 
#    z 0.038150 -0.007190 2.047970 
# 
# From -- ./inp_files/308367.got.cif
#   From: 2010.05.17/outbox.cif.g08.bks.cpg/sg2_155_cif.got.tgz:308367.got - 2010.06.03 11:33:40.
