data_PCOD9007661
_publ_section_title
;
Structure prediction by ZEFSAII (Michael W. Deem and Ramdas Pophale) SiO2 
 PCOD9007661
Probable space group: P -1
;
_chemical_formula_sum "Si O2"
_cell_formula_units_Z 16
_cell_length_a 13.281052
_cell_length_b 9.704644
_cell_length_c 13.995257
_cell_angle_alpha 57.418563
_cell_angle_beta 149.636802
_cell_angle_gamma 112.333013
_cell_volume 752.976841
_symmetry_space_group_name_H-M "P -1"
_symmetry_group_IT_number 2
_symmetry_cell_setting 'triclinic'
loop_
_space_group_symop_operation_xyz
x,y,z
-x,-y,-z
loop_
_atom_site_type_symbol
_atom_site_label
_atom_site_fract_x
_atom_site_fract_y
_atom_site_fract_z
Si Si1 0.737421 0.363550 0.315673
Si Si2 0.070859 0.373173 0.019333
Si Si3 0.562485 0.498144 0.816191
Si Si4 0.599820 0.914996 0.518904
Si Si5 0.404958 0.172540 0.805730
Si Si6 0.634817 0.363288 0.592874
Si Si7 0.427063 0.927408 0.756763
Si Si8 0.827254 0.714426 0.240963
O O1 0.544743 0.429308 0.201303
O O2 0.684306 0.225313 0.251692
O O3 0.791362 0.531054 0.252404
O O4 0.935716 0.285289 0.570048
O O5 0.222809 0.450446 0.046733
O O6 0.196726 0.207831 0.234295
O O7 0.000000 0.500000 0.000000
O O8 0.870877 0.345762 0.812582
O O9 0.556346 0.301939 0.875544
O O10 0.422256 0.581931 0.582338
O O11 0.446074 0.804734 0.392654
O O12 0.500000 0.000000 0.500000
O O13 0.620867 0.041181 0.405233
O O14 0.229312 0.260555 0.701190
O O15 0.352077 0.100397 0.687621
O O16 0.500000 0.000000 0.000000
O O17 0.500000 0.500000 0.500000
O O18 0.665233 0.854241 0.001105
#
# Coordination Sequence:
#
# PCOD9007661 Si02
#       8
#     2   2   2   2   2   2   2   2
#     4  10  21  39  62  91 124 162 211 256 308 392
#     4  11  23  41  67  90 124 171 221 261 312 381
#     4  10  21  39  63  89 122 162 213 254 308 381
#     4  11  25  41  61  98 135 161 213 271 317 378
#     4   9  20  39  60  91 123 157 203 263 309 370
#     4  11  21  41  65  88 123 169 215 261 311 379
#     4  11  21  37  64  89 128 163 204 259 328 363
#     4   9  21  41  62  87 124 167 208 257 316 376
#
# _framework density 21.248992999999999
#
# number of rings (size 3 to 8) (size 9 to 14) (size 15 to 20)
#    0.000    1.750    2.500    2.625    0.000    4.000 
#    2.250    6.250    0.000    0.000    0.000    0.000 
#    0.000    0.000    0.000    0.000    0.000    0.000 
#
# Total GULP energy -89349.918165 kJ/mol
# GULP energy per Si atom -5584.369885 kJ/mol
# Density = 2.120063 g / cm^3
# Si number density = 21.248993 Si / 1000 Ang^3
#
#
#
# Elastic Constant Matrix: (Units=GPa)
#
#
# Indices 1 2 3 4 5 6 
#
# 1 57.0185 13.8534 27.2947 6.5134 8.9366 0.1165
# 2 13.8534 115.1392 32.2813 6.7506 15.1369 1.7327
# 3 27.2947 32.2813 111.9891 10.2461 24.7225 10.9724
# 4 6.5134 6.7506 10.2461 38.2800 6.8522 5.3459
# 5 8.9366 15.1369 24.7225 6.8522 31.5682 2.2922
# 6 0.1165 1.7327 10.9724 5.3459 2.2922 36.2111
#
#
#
# Elastic Compliance Matrix: (Units=1/GPa)
#
#
# Indices 1 2 3 4 5 6 
#
# 1 0.020310 -0.000929 -0.004303 -0.002090 -0.001603 0.001693
# 2 -0.000929 0.009738 -0.001951 -0.000594 -0.002778 0.000392
# 3 -0.004303 -0.001951 0.012508 -0.000526 -0.007299 -0.003143
# 4 -0.002090 -0.000594 -0.000526 0.028047 -0.004534 -0.003659
# 5 -0.001603 -0.002778 -0.007299 -0.004534 0.040129 0.000479
# 6 0.001693 0.000392 -0.003143 -0.003659 0.000479 0.029054
#
#
# Mechanical properties :
#
#
# Convention : Reuss Voigt Hill
#
# Bulk Modulus (GPa) = 35.47470 47.88952 41.68211
# Shear Modulus (GPa) = 30.57157 35.25970 32.91564
#
# Velocity S-wave (km/s) = 3.79717 4.07794 3.94006
# Velocity P-wave (km/s) = 5.99631 6.69022 6.35275
#
# Compressibility (1/GPa) = 0.02818911
#
# Stress axis : x y z
#
# Youngs Moduli (GPa) = 49.23594 102.68860 79.94753
#
# Poissons Ratio (x) = 0.09544 0.34401
# Poissons Ratio (y) = 0.04576 0.15601
# Poissons Ratio (z) = 0.21186 0.20039
#
# Static dielectric constant tensor:
#      x y z
#    x 1.805330 0.012000 -0.034800 
#    y 0.012000 1.834440 0.018770 
#    z -0.034800 0.018770 1.767640 
# 
# From -- ./inp_files/529484.got.cif
#   From: 2010.05.17/outbox.cif.g08.bks.cpg/sg2_265_cif.got.tgz:529484.got - 2010.06.03 11:33:40.
