data_PCOD9007813
_publ_section_title
;
Structure prediction by ZEFSAII (Michael W. Deem and Ramdas Pophale) SiO2 
 PCOD9007813
Probable space group: P -1
;
_chemical_formula_sum "Si O2"
_cell_formula_units_Z 14
_cell_length_a 8.013406
_cell_length_b 9.725426
_cell_length_c 9.929200
_cell_angle_alpha 106.288746
_cell_angle_beta 91.823492
_cell_angle_gamma 132.523958
_cell_volume 519.910405
_symmetry_space_group_name_H-M "P -1"
_symmetry_group_IT_number 2
_symmetry_cell_setting 'triclinic'
loop_
_space_group_symop_operation_xyz
x,y,z
-x,-y,-z
loop_
_atom_site_type_symbol
_atom_site_label
_atom_site_fract_x
_atom_site_fract_y
_atom_site_fract_z
Si Si1 0.081295 0.141436 0.739968
Si Si2 0.534024 0.302311 0.934405
Si Si3 0.781103 0.964652 0.927706
Si Si4 0.977715 0.623870 0.378955
Si Si5 0.327498 0.041385 0.613801
Si Si6 0.630474 0.449294 0.560499
Si Si7 0.047580 0.381492 0.146544
O O1 0.328912 0.285974 0.871437
O O2 0.104147 0.288079 0.683050
O O3 0.092224 0.990821 0.633058
O O4 0.842433 0.007671 0.784858
O O5 0.797070 0.504808 0.953356
O O6 0.475244 0.133077 0.782835
O O7 0.464924 0.236426 0.068816
O O8 0.825874 0.149081 0.040622
O O9 0.000000 0.000000 0.000000
O O10 0.805647 0.492905 0.464355
O O11 0.235249 0.836431 0.498672
O O12 0.997083 0.499779 0.249483
O O13 0.459174 0.226690 0.563296
O O14 0.500000 0.500000 0.500000
O O15 0.787400 0.597905 0.733334
#
# Coordination Sequence:
#
# PCOD9007813 Si02
#       7
#     2   2   2   2   2   2   2
#     4   9  20  38  59  84 110 161 193 234 278 340
#     4   8  19  39  58  84 111 145 202 234 281 341
#     4  10  21  39  63  81 114 154 201 237 278 342
#     4  12  22  37  59  86 126 147 187 244 289 344
#     4   9  20  37  60  83 116 149 193 231 292 335
#     4  11  22  38  61  88 117 152 195 232 285 355
#     4  11  24  37  58  92 114 152 191 239 297 333
#
# _framework density 26.927717000000001
#
# number of rings (size 3 to 8) (size 9 to 14) (size 15 to 20)
#    0.857    1.143    1.429    1.714    0.000    6.286 
#    0.000    2.143    0.000    0.000    0.000    0.000 
#    0.000    0.000    0.000    0.000    0.000    0.000 
#
# Total GULP energy -78425.195316 kJ/mol
# GULP energy per Si atom -5601.799665 kJ/mol
# Density = 2.686643 g / cm^3
# Si number density = 26.927717 Si / 1000 Ang^3
#
#
#
# Elastic Constant Matrix: (Units=GPa)
#
#
# Indices 1 2 3 4 5 6 
#
# 1 79.0755 37.4306 29.9401 -1.8759 -12.5633 0.4449
# 2 37.4306 160.4141 58.9406 -40.8516 -28.5389 21.7034
# 3 29.9401 58.9406 94.5638 -12.0592 -23.2699 4.1550
# 4 -1.8759 -40.8516 -12.0592 57.2879 3.1074 -25.5761
# 5 -12.5633 -28.5389 -23.2699 3.1074 44.0070 -3.1991
# 6 0.4449 21.7034 4.1550 -25.5761 -3.1991 33.7811
#
#
#
# Elastic Compliance Matrix: (Units=1/GPa)
#
#
# Indices 1 2 3 4 5 6 
#
# 1 0.015270 -0.002813 -0.003089 -0.001937 0.001084 0.000622
# 2 -0.002813 0.010707 -0.004133 0.005747 0.003428 -0.001658
# 3 -0.003089 -0.004133 0.015272 0.000720 0.004593 0.001798
# 4 -0.001937 0.005747 0.000720 0.030108 0.002832 0.019309
# 5 0.001084 0.003428 0.004593 0.002832 0.027629 0.001979
# 6 0.000622 -0.001658 0.001798 0.019309 0.001979 0.045244
#
#
# Mechanical properties :
#
#
# Convention : Reuss Voigt Hill
#
# Bulk Modulus (GPa) = 47.21845 65.18623 56.20234
# Shear Modulus (GPa) = 29.17831 40.86466 35.02148
#
# Velocity S-wave (km/s) = 3.29535 3.89982 3.61026
# Velocity P-wave (km/s) = 5.66148 6.67372 6.18834
#
# Compressibility (1/GPa) = 0.02117816
#
# Stress axis : x y z
#
# Youngs Moduli (GPa) = 65.48839 93.40078 65.47797
#
# Poissons Ratio (x) = 0.26270 0.20228
# Poissons Ratio (y) = 0.18419 0.27065
# Poissons Ratio (z) = 0.20231 0.38607
#
# Static dielectric constant tensor:
#      x y z
#    x 2.138980 -0.007910 0.023810 
#    y -0.007910 2.053610 0.015550 
#    z 0.023810 0.015550 2.139310 
# 
# From -- ./inp_files/379939.got.cif
#   From: 2010.05.17/outbox.cif.g08.bks.cpg/sg2_190_cif.got.tgz:379939.got - 2010.06.03 11:33:40.
