data_PCOD9007022
_publ_section_title
;
Structure prediction by ZEFSAII (Michael W. Deem and Ramdas Pophale) SiO2 
 PCOD9007022
Probable space group: P -1
;
_chemical_formula_sum "Si O2"
_cell_formula_units_Z 15
_cell_length_a 14.144030
_cell_length_b 6.568167
_cell_length_c 9.047682
_cell_angle_alpha 86.757240
_cell_angle_beta 94.779031
_cell_angle_gamma 54.302178
_cell_volume 674.458834
_symmetry_space_group_name_H-M "P -1"
_symmetry_group_IT_number 2
_symmetry_cell_setting 'triclinic'
loop_
_space_group_symop_operation_xyz
x,y,z
-x,-y,-z
loop_
_atom_site_type_symbol
_atom_site_label
_atom_site_fract_x
_atom_site_fract_y
_atom_site_fract_z
Si Si1 0.120704 0.673279 0.203508
Si Si2 0.136798 0.038252 0.744267
Si Si3 0.000000 0.500000 0.500000
Si Si4 0.385906 0.061105 0.569531
Si Si5 0.176708 0.640824 0.529472
Si Si6 0.463269 0.180087 0.128724
Si Si7 0.280187 0.103866 0.263843
Si Si8 0.279331 0.749429 0.041369
O O1 0.174686 0.713035 0.354887
O O2 0.157433 0.386708 0.240161
O O3 0.181667 0.701695 0.071968
O O4 0.981764 0.865116 0.183940
O O5 0.101803 0.280796 0.636851
O O6 0.168937 0.822151 0.642186
O O7 0.239836 0.915837 0.882687
O O8 0.059070 0.652260 0.516917
O O9 0.294751 0.359122 0.575961
O O10 0.319804 0.006537 0.440651
O O11 0.500000 0.000000 0.500000
O O12 0.433878 0.911733 0.734908
O O13 0.368640 0.159966 0.205142
O O14 0.399318 0.469066 0.060916
O O15 0.500000 0.000000 0.000000
O O16 0.281474 0.911256 0.165670
#
# Coordination Sequence:
#
# PCOD9007022 Si02
#       8
#     2   2   1   2   2   2   2   2
#     4   9  20  38  58  84 118 155 197 248 298 357
#     4  11  23  38  60  89 121 159 199 247 305 360
#     4  10  22  38  60  90 120 152 196 246 300 360
#     4   9  19  39  62  83 118 162 198 244 296 348
#     4  10  21  40  64  89 119 157 203 248 299 360
#     4  10  21  39  59  85 120 155 199 254 300 347
#     4   9  21  38  56  85 118 155 202 243 296 365
#     4  11  23  38  60  88 120 159 201 247 303 360
#
# _framework density 22.240051000000001
#
# number of rings (size 3 to 8) (size 9 to 14) (size 15 to 20)
#    0.000    2.133    0.000    3.600    0.000   11.200 
#    0.000    2.667    0.000    0.000    0.000    0.000 
#    0.000    0.000    0.000    0.000    0.000    0.000 
#
# Total GULP energy -83549.944931 kJ/mol
# GULP energy per Si atom -5569.996329 kJ/mol
# Density = 2.218943 g / cm^3
# Si number density = 22.240051 Si / 1000 Ang^3
#
#
#
# Elastic Constant Matrix: (Units=GPa)
#
#
# Indices 1 2 3 4 5 6 
#
# 1 48.2022 26.9165 19.9739 -8.3859 -3.7740 -7.5176
# 2 26.9165 137.0618 94.4508 3.6372 29.4036 -21.2750
# 3 19.9739 94.4508 163.4143 -22.6337 30.2907 -8.6409
# 4 -8.3859 3.6372 -22.6337 47.1112 -8.8957 4.9002
# 5 -3.7740 29.4036 30.2907 -8.8957 20.4166 -1.4269
# 6 -7.5176 -21.2750 -8.6409 4.9002 -1.4269 34.3590
#
#
#
# Elastic Compliance Matrix: (Units=1/GPa)
#
#
# Indices 1 2 3 4 5 6 
#
# 1 0.033026 -0.013778 -0.000285 0.013030 0.031915 -0.001910
# 2 -0.013778 0.024575 -0.008190 -0.015424 -0.031738 0.011024
# 3 -0.000285 -0.008190 0.012328 0.006044 -0.004129 -0.003067
# 4 0.013030 -0.015424 0.006044 0.034212 0.029946 -0.008815
# 5 0.031915 -0.031738 -0.004129 0.029946 0.118850 -0.013043
# 6 -0.001910 0.011024 -0.003067 -0.008815 -0.013043 0.035457
#
#
# Mechanical properties :
#
#
# Convention : Reuss Voigt Hill
#
# Bulk Modulus (GPa) = 39.33591 70.15118 54.74355
# Shear Modulus (GPa) = 16.05507 34.19983 25.12745
#
# Velocity S-wave (km/s) = 2.68973 3.92568 3.36494
# Velocity P-wave (km/s) = 5.23179 7.22213 6.30598
#
# Compressibility (1/GPa) = 0.02542206
#
# Stress axis : x y z
#
# Youngs Moduli (GPa) = 30.27951 40.69204 81.11346
#
# Poissons Ratio (x) = 0.56065 0.02314
# Poissons Ratio (y) = 0.41719 0.66434
# Poissons Ratio (z) = 0.00864 0.33328
#
# Static dielectric constant tensor:
#      x y z
#    x 1.858520 -0.052300 -0.061470 
#    y -0.052300 1.809240 -0.031780 
#    z -0.061470 -0.031780 1.684970 
# 
# From -- ./inp_files/82510.got.cif
#   From: 2010.05.17/outbox.cif.g08.bks.cpg/sg2_42_cif.got.tgz:82510.got - 2010.06.03 11:33:40.
