data_PCOD9007437
_publ_section_title
;
Structure prediction by ZEFSAII (Michael W. Deem and Ramdas Pophale) SiO2 
 PCOD9007437
Probable space group: P -1
;
_chemical_formula_sum "Si O2"
_cell_formula_units_Z 12
_cell_length_a 14.044718
_cell_length_b 16.514813
_cell_length_c 19.798593
_cell_angle_alpha 19.273057
_cell_angle_beta 158.279073
_cell_angle_gamma 154.603036
_cell_volume 547.675586
_symmetry_space_group_name_H-M "P -1"
_symmetry_group_IT_number 2
_symmetry_cell_setting 'triclinic'
loop_
_space_group_symop_operation_xyz
x,y,z
-x,-y,-z
loop_
_atom_site_type_symbol
_atom_site_label
_atom_site_fract_x
_atom_site_fract_y
_atom_site_fract_z
Si Si1 0.972992 0.246380 0.001237
Si Si2 0.271102 0.768055 0.362386
Si Si3 0.271652 0.254230 0.051474
Si Si4 0.920086 0.351498 0.134386
Si Si5 0.372768 0.260365 0.800743
Si Si6 0.512739 0.676631 0.460462
O O1 0.149761 0.245533 0.052531
O O2 0.108703 0.443988 0.989786
O O3 0.700924 0.321104 0.739329
O O4 0.873899 0.968025 0.184463
O O5 0.315112 0.491181 0.625971
O O6 0.437778 0.836916 0.348486
O O7 0.966775 0.732611 0.167770
O O8 0.349390 0.991002 0.291533
O O9 0.500000 0.500000 0.000000
O O10 0.176509 0.250448 0.403630
O O11 0.632344 0.183732 0.062151
O O12 0.000000 0.500000 0.000000
O O13 0.444352 0.393703 0.670570
#
# Coordination Sequence:
#
# PCOD9007437 Si02
#       6
#     2   2   2   2   2   2
#     4  11  22  38  64  92 120 165 207 244 309 357
#     4   8  19  40  58  85 123 157 195 252 304 343
#     4  10  21  39  64  88 118 161 206 252 298 366
#     4  10  21  39  61  93 128 159 204 246 300 368
#     4   9  21  40  60  91 124 160 195 256 299 361
#     4   8  19  40  59  86 127 163 197 246 298 360
#
# _framework density 21.910782000000001
#
# number of rings (size 3 to 8) (size 9 to 14) (size 15 to 20)
#    1.000    1.667    0.000    0.500    0.000    9.333 
#    0.000    5.000    0.000    0.000    0.000    0.000 
#    0.000    0.000    0.000    0.000    0.000    0.000 
#
# Total GULP energy -66924.849001 kJ/mol
# GULP energy per Si atom -5577.070750 kJ/mol
# Density = 2.186091 g / cm^3
# Si number density = 21.910782 Si / 1000 Ang^3
#
#
#
# Elastic Constant Matrix: (Units=GPa)
#
#
# Indices 1 2 3 4 5 6 
#
# 1 53.9677 24.8492 -3.4710 -9.0465 3.9294 -6.3029
# 2 24.8492 78.5428 -0.9711 -15.0268 8.3102 15.2837
# 3 -3.4710 -0.9711 50.9487 8.1003 -1.0726 0.7435
# 4 -9.0465 -15.0268 8.1003 16.6205 3.6988 -2.6244
# 5 3.9294 8.3102 -1.0726 3.6988 24.4797 -3.0267
# 6 -6.3029 15.2837 0.7435 -2.6244 -3.0267 33.6787
#
#
#
# Elastic Compliance Matrix: (Units=1/GPa)
#
#
# Indices 1 2 3 4 5 6 
#
# 1 0.024560 -0.007765 0.000101 0.007979 -0.001443 0.008610
# 2 -0.007765 0.021642 -0.002929 0.017332 -0.010180 -0.010774
# 3 0.000101 -0.002929 0.021915 -0.014165 0.004095 0.000129
# 4 0.007979 0.017332 -0.014165 0.091790 -0.021761 -0.000862
# 5 -0.001443 -0.010180 0.004095 -0.021761 0.048865 0.006955
# 6 0.008610 -0.010774 0.000129 -0.000862 0.006955 0.036748
#
#
# Mechanical properties :
#
#
# Convention : Reuss Voigt Hill
#
# Bulk Modulus (GPa) = 21.30871 24.91926 23.11398
# Shear Modulus (GPa) = 17.70851 25.82592 21.76721
#
# Velocity S-wave (km/s) = 2.84599 3.43692 3.15532
# Velocity P-wave (km/s) = 4.53275 5.21034 4.88331
#
# Compressibility (1/GPa) = 0.04692917
#
# Stress axis : x y z
#
# Youngs Moduli (GPa) = 40.71734 46.20647 45.63068
#
# Poissons Ratio (x) = 0.35880 -0.00459
# Poissons Ratio (y) = 0.31618 0.13366
# Poissons Ratio (z) = -0.00410 0.13535
#
# Static dielectric constant tensor:
#      x y z
#    x 1.785850 -0.002880 0.000650 
#    y -0.002880 1.763590 0.018470 
#    z 0.000650 0.018470 1.878830 
# 
# From -- ./inp_files/595598.got.cif
#   From: 2010.05.17/outbox.cif.g08.bks.cpg/sg2_298_cif.got.tgz:595598.got - 2010.06.03 11:33:40.
