data_PCOD9007351
_publ_section_title
;
Structure prediction by ZEFSAII (Michael W. Deem and Ramdas Pophale) SiO2 
 PCOD9007351
Probable space group: P -1
;
_chemical_formula_sum "Si O2"
_cell_formula_units_Z 12
_cell_length_a 12.253765
_cell_length_b 9.076922
_cell_length_c 11.547662
_cell_angle_alpha 128.845626
_cell_angle_beta 113.492145
_cell_angle_gamma 109.419085
_cell_volume 530.965150
_symmetry_space_group_name_H-M "P -1"
_symmetry_group_IT_number 2
_symmetry_cell_setting 'triclinic'
loop_
_space_group_symop_operation_xyz
x,y,z
-x,-y,-z
loop_
_atom_site_type_symbol
_atom_site_label
_atom_site_fract_x
_atom_site_fract_y
_atom_site_fract_z
Si Si1 0.915605 0.146893 0.883181
Si Si2 0.001049 0.560652 0.698974
Si Si3 0.979221 0.849093 0.651440
Si Si4 0.310446 0.650653 0.899928
Si Si5 0.684278 0.206518 0.768161
Si Si6 0.348216 0.177147 0.855117
O O1 0.722185 0.032294 0.720981
O O2 0.891591 0.898387 0.719590
O O3 0.985948 0.283493 0.109961
O O4 0.103086 0.449576 0.028474
O O5 0.944647 0.609001 0.587305
O O6 0.221195 0.740530 0.872279
O O7 0.831178 0.176545 0.459803
O O8 0.862800 0.705992 0.408717
O O9 0.221956 0.151198 0.874574
O O10 0.337335 0.711121 0.078971
O O11 0.515924 0.813202 0.025650
O O12 0.500000 0.000000 0.500000
O O13 0.500000 0.500000 0.000000
#
# Coordination Sequence:
#
# PCOD9007351 Si02
#       6
#     2   2   2   2   2   2
#     4  10  22  39  63  89 122 163 204 249 306 366
#     4  10  23  43  63  88 126 165 203 251 307 368
#     4  11  24  40  62  94 126 161 204 252 308 367
#     4  10  22  39  62  89 122 161 204 253 306 360
#     4  10  21  39  61  89 123 160 204 256 305 356
#     4  11  23  39  63  91 122 160 206 255 304 361
#
# _framework density 22.600353999999999
#
# number of rings (size 3 to 8) (size 9 to 14) (size 15 to 20)
#    0.000    1.667    0.000    4.500    0.000   15.333 
#    0.000    0.000    0.000    8.000    0.000    0.000 
#    0.000    0.000    0.000    0.000    0.000    0.000 
#
# Total GULP energy -66914.211123 kJ/mol
# GULP energy per Si atom -5576.184260 kJ/mol
# Density = 2.254891 g / cm^3
# Si number density = 22.600354 Si / 1000 Ang^3
#
#
#
# Elastic Constant Matrix: (Units=GPa)
#
#
# Indices 1 2 3 4 5 6 
#
# 1 147.1912 27.2475 51.6930 -9.4109 -6.2793 -20.8181
# 2 27.2475 79.2200 42.2162 -1.3307 -9.0977 -1.8972
# 3 51.6930 42.2162 100.4306 -26.4892 4.5275 -9.6530
# 4 -9.4109 -1.3307 -26.4892 30.7657 2.2967 0.5440
# 5 -6.2793 -9.0977 4.5275 2.2967 39.6181 -0.1284
# 6 -20.8181 -1.8972 -9.6530 0.5440 -0.1284 36.6333
#
#
#
# Elastic Compliance Matrix: (Units=1/GPa)
#
#
# Indices 1 2 3 4 5 6 
#
# 1 0.009016 -0.000373 -0.004565 -0.001404 0.001959 0.003929
# 2 -0.000373 0.018823 -0.010468 -0.008725 0.005959 -0.001845
# 3 -0.004565 -0.010468 0.021815 0.017387 -0.006621 0.002331
# 4 -0.001404 -0.008725 0.017387 0.047139 -0.006937 0.002607
# 5 0.001959 0.005959 -0.006621 -0.006937 0.028078 -0.000121
# 6 0.003929 -0.001845 0.002331 0.002607 -0.000121 0.030010
#
#
# Mechanical properties :
#
#
# Convention : Reuss Voigt Hill
#
# Bulk Modulus (GPa) = 53.06928 63.23947 58.15437
# Shear Modulus (GPa) = 26.04544 35.11576 30.58060
#
# Velocity S-wave (km/s) = 3.39844 3.94607 3.68245
# Velocity P-wave (km/s) = 6.23953 6.98601 6.62329
#
# Compressibility (1/GPa) = 0.01884329
#
# Stress axis : x y z
#
# Youngs Moduli (GPa) = 110.91985 53.12610 45.83965
#
# Poissons Ratio (x) = 0.01981 0.20925
# Poissons Ratio (y) = 0.04135 0.47983
# Poissons Ratio (z) = 0.50633 0.55611
#
# Static dielectric constant tensor:
#      x y z
#    x 1.938380 0.000590 -0.044090 
#    y 0.000590 1.900720 0.008050 
#    z -0.044090 0.008050 1.858940 
# 
# From -- ./inp_files/418479.got.cif
#   From: 2010.05.17/outbox.cif.g08.bks.cpg/sg2_210_cif.got.tgz:418479.got - 2010.06.03 11:33:40.
