data_PCOD9007947
_publ_section_title
;
Structure prediction by ZEFSAII (Michael W. Deem and Ramdas Pophale) SiO2 
 PCOD9007947
Probable space group: P -1
;
_chemical_formula_sum "Si O2"
_cell_formula_units_Z 14
_cell_length_a 13.525297
_cell_length_b 9.655531
_cell_length_c 9.645598
_cell_angle_alpha 68.648087
_cell_angle_beta 137.534381
_cell_angle_gamma 140.514773
_cell_volume 474.985342
_symmetry_space_group_name_H-M "P -1"
_symmetry_group_IT_number 2
_symmetry_cell_setting 'triclinic'
loop_
_space_group_symop_operation_xyz
x,y,z
-x,-y,-z
loop_
_atom_site_type_symbol
_atom_site_label
_atom_site_fract_x
_atom_site_fract_y
_atom_site_fract_z
Si Si1 0.501403 0.336120 0.244467
Si Si2 0.408101 0.943869 0.268665
Si Si3 0.489976 0.677625 0.409163
Si Si4 0.371010 0.247554 0.773153
Si Si5 0.060433 0.377234 0.750770
Si Si6 0.026218 0.838128 0.986712
Si Si7 0.212327 0.813649 0.755869
O O1 0.520585 0.337815 0.429540
O O2 0.651126 0.600470 0.255335
O O3 0.547453 0.210785 0.271468
O O4 0.204250 0.108118 0.012183
O O5 0.435229 0.808225 0.276368
O O6 0.130520 0.775288 0.044238
O O7 0.500000 0.000000 0.500000
O O8 0.661254 0.779482 0.417354
O O9 0.258406 0.382666 0.242402
O O10 0.210190 0.978430 0.757517
O O11 0.656149 0.441206 0.029037
O O12 0.070896 0.553873 0.759388
O O13 0.932202 0.162814 0.806288
O O14 0.911025 0.267141 0.494237
O O15 0.500000 0.000000 0.000000
#
# Coordination Sequence:
#
# PCOD9007947 Si02
#       7
#     2   2   2   2   2   2   2
#     4   9  19  29  42  71 104 126 153 185 236 276
#     4   8  17  31  44  65 100 129 158 186 222 278
#     4  10  17  29  47  68  99 133 158 183 224 277
#     4  10  19  29  47  73 100 124 153 192 236 277
#     4   9  18  31  47  71  92 124 157 199 235 268
#     4   9  18  29  48  67  98 121 160 190 227 275
#     4   9  18  32  48  67  96 120 158 197 239 277
#
# _framework density 29.474592999999999
#
# number of rings (size 3 to 8) (size 9 to 14) (size 15 to 20)
#    0.857    2.000    0.000    1.714    0.000    3.429 
#    0.000    0.000    0.000    0.000    0.000   20.000 
#    0.000    0.714    0.000    0.000    0.000    0.000 
#
# Total GULP energy -78154.307217 kJ/mol
# GULP energy per Si atom -5582.450515 kJ/mol
# Density = 2.940751 g / cm^3
# Si number density = 29.474593 Si / 1000 Ang^3
#
#
#
# Elastic Constant Matrix: (Units=GPa)
#
#
# Indices 1 2 3 4 5 6 
#
# 1 54.7294 29.1067 20.9616 -10.9951 -18.2690 -16.0158
# 2 29.1067 198.3747 -10.5040 -2.8351 -8.1141 -47.9457
# 3 20.9616 -10.5040 127.3457 -1.3967 -32.6120 22.6961
# 4 -10.9951 -2.8351 -1.3967 34.6946 11.3348 2.2376
# 5 -18.2690 -8.1141 -32.6120 11.3348 64.1318 5.6349
# 6 -16.0158 -47.9457 22.6961 2.2376 5.6349 46.8708
#
#
#
# Elastic Compliance Matrix: (Units=1/GPa)
#
#
# Indices 1 2 3 4 5 6 
#
# 1 0.026038 -0.001701 -0.005329 0.006478 0.002546 0.009122
# 2 -0.001701 0.006873 -0.000454 -0.000305 -0.000383 0.006730
# 3 -0.005329 -0.000454 0.011575 -0.002512 0.005495 -0.008431
# 4 0.006478 -0.000305 -0.002512 0.032366 -0.005386 0.002221
# 5 0.002546 -0.000383 0.005495 -0.005386 0.020401 -0.004379
# 6 0.009122 0.006730 -0.008431 0.002221 -0.004379 0.035839
#
#
# Mechanical properties :
#
#
# Convention : Reuss Voigt Hill
#
# Bulk Modulus (GPa) = 33.87836 51.06427 42.47132
# Shear Modulus (GPa) = 31.66559 51.86512 41.76536
#
# Velocity S-wave (km/s) = 3.28126 4.19938 3.76838
# Velocity P-wave (km/s) = 5.08671 6.39339 5.77711
#
# Compressibility (1/GPa) = 0.02951737
#
# Stress axis : x y z
#
# Youngs Moduli (GPa) = 38.40499 145.49566 86.39561
#
# Poissons Ratio (x) = 0.24751 0.46041
# Poissons Ratio (y) = 0.06533 0.03923
# Poissons Ratio (z) = 0.20467 0.06606
#
# Static dielectric constant tensor:
#      x y z
#    x 2.269330 0.003700 0.015130 
#    y 0.003700 2.274150 -0.067850 
#    z 0.015130 -0.067850 2.369740 
# 
# From -- ./inp_files/466950.got.cif
#   From: 2010.05.17/outbox.cif.g08.bks.cpg/sg2_234_cif.got.tgz:466950.got - 2010.06.03 11:33:40.
