data_PCOD9007949
_publ_section_title
;
Structure prediction by ZEFSAII (Michael W. Deem and Ramdas Pophale) SiO2 
 PCOD9007949
Probable space group: P -1
;
_chemical_formula_sum "Si O2"
_cell_formula_units_Z 16
_cell_length_a 14.468194
_cell_length_b 6.625106
_cell_length_c 16.073706
_cell_angle_alpha 70.585130
_cell_angle_beta 148.768532
_cell_angle_gamma 95.303308
_cell_volume 693.056905
_symmetry_space_group_name_H-M "P -1"
_symmetry_group_IT_number 2
_symmetry_cell_setting 'triclinic'
loop_
_space_group_symop_operation_xyz
x,y,z
-x,-y,-z
loop_
_atom_site_type_symbol
_atom_site_label
_atom_site_fract_x
_atom_site_fract_y
_atom_site_fract_z
Si Si1 0.119077 0.857716 0.003991
Si Si2 0.296290 0.988483 0.265275
Si Si3 0.287564 0.685653 0.826853
Si Si4 0.363123 0.821945 0.039233
Si Si5 0.026477 0.493880 0.421148
Si Si6 0.670166 0.337856 0.403662
Si Si7 0.429014 0.387978 0.368512
Si Si8 0.339855 0.995164 0.689551
O O1 0.207891 0.014431 0.101984
O O2 0.197995 0.832421 0.975715
O O3 0.228882 0.612285 0.171229
O O4 0.889837 0.959383 0.825209
O O5 0.461855 0.731723 0.445695
O O6 0.379486 0.178716 0.321843
O O7 0.244778 0.852915 0.691595
O O8 0.159732 0.533181 0.756568
O O9 0.500000 0.500000 0.000000
O O10 0.286154 0.840473 0.884354
O O11 0.530518 0.560530 0.211779
O O12 0.464122 0.997129 0.120630
O O13 0.109055 0.685409 0.432021
O O14 0.000000 0.500000 0.500000
O O15 0.193716 0.259326 0.547701
O O16 0.588528 0.403560 0.424778
O O17 0.642158 0.116940 0.372203
#
# Coordination Sequence:
#
# PCOD9007949 Si02
#       8
#     2   2   2   2   2   2   2   2
#     4  10  21  40  61  89 127 156 198 256 305 358
#     4  10  21  39  63  92 117 161 206 239 316 374
#     4  12  22  40  59  87 120 159 203 246 298 356
#     4  10  22  38  59  91 120 156 201 249 297 360
#     4  11  23  40  59  85 118 162 205 246 297 360
#     4  10  21  40  61  87 121 158 201 243 303 356
#     4  10  21  39  64  90 122 159 199 255 301 366
#     4  11  21  40  62  81 120 166 194 246 304 349
#
# _framework density 23.086126
#
# number of rings (size 3 to 8) (size 9 to 14) (size 15 to 20)
#    0.000    1.500    2.500    3.000    0.000    1.000 
#    2.250    6.250    0.000    0.000    0.000    0.000 
#    0.000    0.000    0.000    0.000    0.000    0.000 
#
# Total GULP energy -89345.684529 kJ/mol
# GULP energy per Si atom -5584.105283 kJ/mol
# Density = 2.303358 g / cm^3
# Si number density = 23.086126 Si / 1000 Ang^3
#
#
#
# Elastic Constant Matrix: (Units=GPa)
#
#
# Indices 1 2 3 4 5 6 
#
# 1 54.5877 -12.5696 11.1357 15.2381 6.0249 -19.1495
# 2 -12.5696 58.5847 13.8700 7.1594 11.0773 -5.6240
# 3 11.1357 13.8700 59.7522 2.9083 17.2080 6.3784
# 4 15.2381 7.1594 2.9083 41.2479 4.1003 6.4514
# 5 6.0249 11.0773 17.2080 4.1003 24.1599 -1.4127
# 6 -19.1495 -5.6240 6.3784 6.4514 -1.4127 27.1265
#
#
#
# Elastic Compliance Matrix: (Units=1/GPa)
#
#
# Indices 1 2 3 4 5 6 
#
# 1 0.063949 0.030715 -0.023305 -0.037261 -0.003267 0.065683
# 2 0.030715 0.034668 -0.014548 -0.021388 -0.007400 0.036992
# 3 -0.023305 -0.014548 0.031088 0.015209 -0.014062 -0.031127
# 4 -0.037261 -0.021388 0.015209 0.048082 -0.002577 -0.045884
# 5 -0.003267 -0.007400 -0.014062 -0.002577 0.056227 0.003007
# 6 0.065683 0.036992 -0.031127 -0.045884 0.003007 0.109290
#
#
# Mechanical properties :
#
#
# Convention : Reuss Voigt Hill
#
# Bulk Modulus (GPa) = 8.66334 21.97742 15.32038
# Shear Modulus (GPa) = 12.62447 29.20608 20.91528
#
# Velocity S-wave (km/s) = 2.34100 3.56067 3.01319
# Velocity P-wave (km/s) = 3.32683 5.14246 4.33086
#
# Compressibility (1/GPa) = 0.11542895
#
# Stress axis : x y z
#
# Youngs Moduli (GPa) = 15.63735 28.84538 32.16664
#
# Poissons Ratio (x) = -0.88597 0.74963
# Poissons Ratio (y) = -0.48030 0.46796
# Poissons Ratio (z) = 0.36442 0.41964
#
# Static dielectric constant tensor:
#      x y z
#    x 1.891680 -0.012140 -0.027420 
#    y -0.012140 2.028410 -0.039580 
#    z -0.027420 -0.039580 1.925990 
# 
# From -- ./inp_files/48513.got.cif
#   From: 2010.05.17/outbox.cif.g08.bks.cpg/sg2_25_cif.got.tgz:48513.got - 2010.06.03 11:33:40.
