data_PCOD9007409
_publ_section_title
;
Structure prediction by ZEFSAII (Michael W. Deem and Ramdas Pophale) SiO2 
 PCOD9007409
Probable space group: P -1
;
_chemical_formula_sum "Si O2"
_cell_formula_units_Z 16
_cell_length_a 6.404393
_cell_length_b 18.983451
_cell_length_c 18.596228
_cell_angle_alpha 158.277106
_cell_angle_beta 70.683699
_cell_angle_gamma 120.375106
_cell_volume 649.975970
_symmetry_space_group_name_H-M "P -1"
_symmetry_group_IT_number 2
_symmetry_cell_setting 'triclinic'
loop_
_space_group_symop_operation_xyz
x,y,z
-x,-y,-z
loop_
_atom_site_type_symbol
_atom_site_label
_atom_site_fract_x
_atom_site_fract_y
_atom_site_fract_z
Si Si1 0.035381 0.477680 0.864368
Si Si2 0.431722 0.593449 0.335441
Si Si3 0.984976 0.888445 0.562294
Si Si4 0.945110 0.415632 0.531796
Si Si5 0.779683 0.110747 0.118198
Si Si6 0.092466 0.802862 0.056860
Si Si7 0.444929 0.663682 0.118067
Si Si8 0.445869 0.665234 0.803656
O O1 0.995643 0.328535 0.656734
O O2 0.094188 0.716657 0.054974
O O3 0.770320 0.328638 0.801361
O O4 0.287459 0.550245 0.954217
O O5 0.291441 0.700690 0.493666
O O6 0.202129 0.393863 0.124020
O O7 0.503328 0.466340 0.266134
O O8 0.711172 0.792716 0.457362
O O9 0.270274 0.101624 0.706273
O O10 0.907139 0.968332 0.719077
O O11 0.839916 0.256607 0.323159
O O12 0.012402 0.671235 0.749182
O O13 0.225125 0.482482 0.597959
O O14 0.500000 0.000000 0.000000
O O15 0.718395 0.867201 0.923587
O O16 0.310385 0.789581 0.973517
O O17 0.500000 0.500000 0.000000
#
# Coordination Sequence:
#
# PCOD9007409 Si02
#       8
#     2   2   2   2   2   2   2   2
#     4  11  25  47  66  96 128 167 216 266 322 386
#     4  11  24  41  62  97 130 165 221 261 319 392
#     4  12  24  42  69  92 126 174 205 263 329 375
#     4   9  20  39  61  90 126 168 216 260 316 380
#     4   9  18  38  64  87 126 172 210 267 315 366
#     4  11  24  44  64  94 135 164 215 271 313 387
#     4  11  25  47  67  95 131 165 217 270 316 388
#     4  10  21  39  61  91 129 166 211 267 317 373
#
# _framework density 24.616292999999999
#
# number of rings (size 3 to 8) (size 9 to 14) (size 15 to 20)
#    0.000    1.500    2.500    1.875    0.000    3.000 
#    0.000    5.625    0.000    0.000    0.000    0.000 
#    0.000    0.000    0.000    0.000    0.000    0.000 
#
# Total GULP energy -89217.206141 kJ/mol
# GULP energy per Si atom -5576.075384 kJ/mol
# Density = 2.456027 g / cm^3
# Si number density = 24.616293 Si / 1000 Ang^3
#
#
#
# Elastic Constant Matrix: (Units=GPa)
#
#
# Indices 1 2 3 4 5 6 
#
# 1 106.9675 37.4771 51.4515 9.1963 30.2778 -12.5337
# 2 37.4771 73.2368 27.2821 8.7665 20.3737 3.9948
# 3 51.4515 27.2821 125.3449 1.0841 16.3577 -4.2569
# 4 9.1963 8.7665 1.0841 50.6271 7.3512 5.0659
# 5 30.2778 20.3737 16.3577 7.3512 34.2222 9.8625
# 6 -12.5337 3.9948 -4.2569 5.0659 9.8625 58.4962
#
#
#
# Elastic Compliance Matrix: (Units=1/GPa)
#
#
# Indices 1 2 3 4 5 6 
#
# 1 0.016976 -0.003898 -0.004347 -0.001142 -0.012022 0.005713
# 2 -0.003898 0.018132 -0.001590 -0.001424 -0.005975 -0.001059
# 3 -0.004347 -0.001590 0.010122 0.000890 -0.000200 -0.000130
# 4 -0.001142 -0.001424 0.000890 0.020709 -0.002602 -0.001437
# 5 -0.012022 -0.005975 -0.000200 -0.002602 0.046911 -0.009866
# 6 0.005713 -0.001059 -0.000130 -0.001437 -0.009866 0.020170
#
#
# Mechanical properties :
#
#
# Convention : Reuss Voigt Hill
#
# Bulk Modulus (GPa) = 39.12531 59.77453 49.44992
# Shear Modulus (GPa) = 31.01536 41.29168 36.15352
#
# Velocity S-wave (km/s) = 3.55343 4.10007 3.83650
# Velocity P-wave (km/s) = 5.72402 6.83734 6.30530
#
# Compressibility (1/GPa) = 0.02555891
#
# Stress axis : x y z
#
# Youngs Moduli (GPa) = 58.90795 55.15164 98.79084
#
# Poissons Ratio (x) = 0.21499 0.42944
# Poissons Ratio (y) = 0.22964 0.15711
# Poissons Ratio (z) = 0.25607 0.08771
#
# Static dielectric constant tensor:
#      x y z
#    x 1.983290 0.042880 -0.028940 
#    y 0.042880 2.009280 -0.020030 
#    z -0.028940 -0.020030 1.949960 
# 
# From -- ./inp_files/584336.got.cif
#   From: 2010.05.17/outbox.cif.g08.bks.cpg/sg2_293_cif.got.tgz:584336.got - 2010.06.03 11:33:40.
