data_PCOD9007290
_publ_section_title
;
Structure prediction by ZEFSAII (Michael W. Deem and Ramdas Pophale) SiO2 
 PCOD9007290
Probable space group: P -1
;
_chemical_formula_sum "Si O2"
_cell_formula_units_Z 16
_cell_length_a 10.900998
_cell_length_b 18.812774
_cell_length_c 10.991286
_cell_angle_alpha 149.356679
_cell_angle_beta 139.693667
_cell_angle_gamma 32.586881
_cell_volume 612.905365
_symmetry_space_group_name_H-M "P -1"
_symmetry_group_IT_number 2
_symmetry_cell_setting 'triclinic'
loop_
_space_group_symop_operation_xyz
x,y,z
-x,-y,-z
loop_
_atom_site_type_symbol
_atom_site_label
_atom_site_fract_x
_atom_site_fract_y
_atom_site_fract_z
Si Si1 0.785358 0.766251 0.772011
Si Si2 0.512549 0.084681 0.900455
Si Si3 0.649345 0.248999 0.598594
Si Si4 0.958489 0.548013 0.341549
Si Si5 0.891439 0.951473 0.503590
Si Si6 0.780113 0.527035 0.797769
Si Si7 0.790247 0.036011 0.816264
Si Si8 0.547470 0.581101 0.937987
O O1 0.550292 0.776246 0.620630
O O2 0.911441 0.658981 0.587705
O O3 0.934709 0.645371 0.818220
O O4 0.697602 0.958344 0.955484
O O5 0.627823 0.013429 0.749440
O O6 0.284736 0.086302 0.742835
O O7 0.413320 0.280475 0.106473
O O8 0.773750 0.147682 0.667243
O O9 0.524876 0.448974 0.800153
O O10 0.860607 0.160056 0.533169
O O11 0.115915 0.562538 0.383981
O O12 0.727270 0.603030 0.178709
O O13 0.880741 0.927731 0.603132
O O14 0.653143 0.493758 0.757170
O O15 0.000000 0.500000 0.000000
O O16 0.660813 0.230981 0.967766
O O17 0.000000 0.000000 0.000000
#
# Coordination Sequence:
#
# PCOD9007290 Si02
#       8
#     2   2   2   2   2   2   2   2
#     4  10  23  38  58  91 122 155 196 245 296 346
#     4  10  21  40  62  87 119 157 200 241 294 355
#     4  10  22  39  61  89 120 155 199 246 292 343
#     4  10  21  39  61  86 117 155 199 242 295 357
#     4  10  21  40  63  87 119 159 198 240 293 353
#     4   9  19  36  60  86 111 150 201 241 283 343
#     4  11  25  40  60  91 122 153 194 247 298 348
#     4  10  21  40  61  84 116 156 197 241 295 353
#
# _framework density 26.105172
#
# number of rings (size 3 to 8) (size 9 to 14) (size 15 to 20)
#    0.000    2.000    0.000    3.375    0.000   10.500 
#    0.000    1.250    0.000    0.000    0.000    0.000 
#    0.000    0.000    0.000    0.000    0.000    0.000 
#
# Total GULP energy -89576.679654 kJ/mol
# GULP energy per Si atom -5598.542478 kJ/mol
# Density = 2.604576 g / cm^3
# Si number density = 26.105172 Si / 1000 Ang^3
#
#
#
# Elastic Constant Matrix: (Units=GPa)
#
#
# Indices 1 2 3 4 5 6 
#
# 1 122.0747 18.3827 19.6005 5.6064 -31.3983 -7.0499
# 2 18.3827 171.3994 9.7998 2.7949 -3.5640 25.9481
# 3 19.6005 9.7998 27.2381 2.4567 -12.7505 8.5862
# 4 5.6064 2.7949 2.4567 22.5456 8.8440 15.2545
# 5 -31.3983 -3.5640 -12.7505 8.8440 40.2116 10.3049
# 6 -7.0499 25.9481 8.5862 15.2545 10.3049 44.4179
#
#
#
# Elastic Compliance Matrix: (Units=1/GPa)
#
#
# Indices 1 2 3 4 5 6 
#
# 1 0.012043 -0.001411 -0.004910 -0.008812 0.008441 0.004753
# 2 -0.001411 0.006730 0.000074 0.002972 0.000207 -0.005239
# 3 -0.004910 0.000074 0.052848 -0.001389 0.016950 -0.014494
# 4 -0.008812 0.002972 -0.001389 0.067858 -0.016241 -0.022403
# 5 0.008441 0.000207 0.016950 -0.016241 0.042021 -0.006229
# 6 0.004753 -0.005239 -0.014494 -0.022403 -0.006229 0.038269
#
#
# Mechanical properties :
#
#
# Convention : Reuss Voigt Hill
#
# Bulk Modulus (GPa) = 16.91261 46.25312 31.58286
# Shear Modulus (GPa) = 19.84345 39.63030 29.73688
#
# Velocity S-wave (km/s) = 2.76005 3.90051 3.37874
# Velocity P-wave (km/s) = 4.08042 6.16780 5.22932
#
# Compressibility (1/GPa) = 0.05912749
#
# Stress axis : x y z
#
# Youngs Moduli (GPa) = 83.03595 148.58028 18.92205
#
# Poissons Ratio (x) = 0.20967 0.09291
# Poissons Ratio (y) = 0.11718 -0.00141
# Poissons Ratio (z) = 0.40773 -0.01104
#
# Static dielectric constant tensor:
#      x y z
#    x 2.053870 0.005530 -0.011810 
#    y 0.005530 2.024340 0.038980 
#    z -0.011810 0.038980 2.040850 
# 
# From -- ./inp_files/438749.got.cif
#   From: 2010.05.17/outbox.cif.g08.bks.cpg/sg2_220_cif.got.tgz:438749.got - 2010.06.03 11:33:40.
