data_PCOD9007142
_publ_section_title
;
Structure prediction by ZEFSAII (Michael W. Deem and Ramdas Pophale) SiO2 
 PCOD9007142
Probable space group: P -1
;
_chemical_formula_sum "Si O2"
_cell_formula_units_Z 16
_cell_length_a 10.014278
_cell_length_b 12.971420
_cell_length_c 15.083303
_cell_angle_alpha 109.255187
_cell_angle_beta 94.060284
_cell_angle_gamma 144.285158
_cell_volume 851.980095
_symmetry_space_group_name_H-M "P -1"
_symmetry_group_IT_number 2
_symmetry_cell_setting 'triclinic'
loop_
_space_group_symop_operation_xyz
x,y,z
-x,-y,-z
loop_
_atom_site_type_symbol
_atom_site_label
_atom_site_fract_x
_atom_site_fract_y
_atom_site_fract_z
Si Si1 0.085552 0.115538 0.631529
Si Si2 0.479410 0.239064 0.769011
Si Si3 0.330446 0.736410 0.050609
Si Si4 0.618339 0.165250 0.257855
Si Si5 0.194583 0.870062 0.393387
Si Si6 0.451749 0.222030 0.390069
Si Si7 0.022888 0.501767 0.795901
Si Si8 0.908718 0.238948 0.444327
O O1 0.377226 0.278431 0.733203
O O2 0.073993 0.237985 0.652039
O O3 0.000000 0.000000 0.500000
O O4 0.828184 0.910223 0.633639
O O5 0.518471 0.248313 0.878916
O O6 0.778273 0.411349 0.788472
O O7 0.222706 0.970779 0.652642
O O8 0.464522 0.950007 0.144605
O O9 0.289736 0.691727 0.931588
O O10 0.000000 0.500000 0.000000
O O11 0.420435 0.119652 0.274509
O O12 0.843712 0.375275 0.257708
O O13 0.787955 0.241358 0.372164
O O14 0.211031 0.836348 0.483104
O O15 0.137122 0.730717 0.283510
O O16 0.450145 0.136252 0.449778
O O17 0.745443 0.500436 0.469815
#
# Coordination Sequence:
#
# PCOD9007142 Si02
#       8
#     2   2   2   2   2   2   2   2
#     4  10  22  39  58  85 126 163 190 234 298 362
#     4  10  21  39  60  87 119 157 201 238 302 348
#     4   9  20  39  61  86 116 152 199 255 295 334
#     4  11  22  34  61  94 114 151 206 243 301 347
#     4  10  22  37  59  84 124 156 190 240 294 348
#     4  10  22  36  55  86 126 154 194 236 294 358
#     4  11  22  38  65  85 119 154 199 259 287 343
#     4  11  21  35  56  91 116 159 192 243 292 354
#
# _framework density 18.779782999999998
#
# number of rings (size 3 to 8) (size 9 to 14) (size 15 to 20)
#    0.750    1.000    2.500    3.000    3.500    1.500 
#    0.000    0.625    0.000    0.750    0.000    0.000 
#    0.000    0.000    0.000    0.000    0.000    0.000 
#
# Total GULP energy -89119.401481 kJ/mol
# GULP energy per Si atom -5569.962593 kJ/mol
# Density = 1.873704 g / cm^3
# Si number density = 18.779783 Si / 1000 Ang^3
#
#
#
# Elastic Constant Matrix: (Units=GPa)
#
#
# Indices 1 2 3 4 5 6 
#
# 1 73.8881 0.8434 15.6571 -16.6070 11.5895 8.8571
# 2 0.8434 92.6841 12.9292 -11.7290 2.4902 4.2842
# 3 15.6571 12.9292 71.5579 -11.1098 9.9394 -3.2612
# 4 -16.6070 -11.7290 -11.1098 29.7720 -3.5768 -0.8503
# 5 11.5895 2.4902 9.9394 -3.5768 15.9796 -4.5120
# 6 8.8571 4.2842 -3.2612 -0.8503 -4.5120 22.7646
#
#
#
# Elastic Compliance Matrix: (Units=1/GPa)
#
#
# Indices 1 2 3 4 5 6 
#
# 1 0.019431 0.002082 -0.001727 0.008984 -0.014356 -0.010709
# 2 0.002082 0.011841 -0.001699 0.004824 -0.002218 -0.003541
# 3 -0.001727 -0.001699 0.016325 0.003646 -0.007247 0.002030
# 4 0.008984 0.004824 0.003646 0.041680 -0.000914 -0.002505
# 5 -0.014356 -0.002218 -0.007247 -0.000914 0.083718 0.021524
# 6 -0.010709 -0.003541 0.002030 -0.002505 0.021524 0.053224
#
#
# Mechanical properties :
#
#
# Convention : Reuss Voigt Hill
#
# Bulk Modulus (GPa) = 22.26779 32.99883 27.63331
# Shear Modulus (GPa) = 20.50213 27.61661 24.05937
#
# Velocity S-wave (km/s) = 3.30769 3.83894 3.58317
# Velocity P-wave (km/s) = 5.14498 6.10406 5.64492
#
# Compressibility (1/GPa) = 0.04490792
#
# Stress axis : x y z
#
# Youngs Moduli (GPa) = 51.46478 84.45065 61.25616
#
# Poissons Ratio (x) = -0.17580 0.10578
# Poissons Ratio (y) = -0.10713 0.10409
# Poissons Ratio (z) = 0.08888 0.14350
#
# Static dielectric constant tensor:
#      x y z
#    x 1.721550 -0.006950 -0.019440 
#    y -0.006950 1.680820 -0.022010 
#    z -0.019440 -0.022010 1.732900 
# 
# From -- ./inp_files/521624.got.cif
#   From: 2010.05.17/outbox.cif.g08.bks.cpg/sg2_261_cif.got.tgz:521624.got - 2010.06.03 11:33:40.
