data_PCOD9007448
_publ_section_title
;
Structure prediction by ZEFSAII (Michael W. Deem and Ramdas Pophale) SiO2 
 PCOD9007448
Probable space group: P -1
;
_chemical_formula_sum "Si O2"
_cell_formula_units_Z 13
_cell_length_a 6.139012
_cell_length_b 9.801904
_cell_length_c 15.611085
_cell_angle_alpha 110.903135
_cell_angle_beta 120.165644
_cell_angle_gamma 36.645908
_cell_volume 482.793892
_symmetry_space_group_name_H-M "P -1"
_symmetry_group_IT_number 2
_symmetry_cell_setting 'triclinic'
loop_
_space_group_symop_operation_xyz
x,y,z
-x,-y,-z
loop_
_atom_site_type_symbol
_atom_site_label
_atom_site_fract_x
_atom_site_fract_y
_atom_site_fract_z
Si Si1 0.269538 0.582515 0.853201
Si Si2 0.767145 0.404721 0.648072
Si Si3 0.500000 0.000000 0.500000
Si Si4 0.884299 0.856620 0.171635
Si Si5 0.664576 0.658890 0.041198
Si Si6 0.665081 0.649857 0.540137
Si Si7 0.966713 0.145571 0.288440
O O1 0.694823 0.356459 0.841691
O O2 0.171722 0.486536 0.870885
O O3 0.986458 0.769080 0.764560
O O4 0.331737 0.694910 0.952994
O O5 0.055074 0.217986 0.734797
O O6 0.866346 0.501290 0.632739
O O7 0.662407 0.322433 0.543232
O O8 0.361462 0.630150 0.666438
O O9 0.493641 0.885789 0.551239
O O10 0.687270 0.036227 0.615007
O O11 0.583547 0.867870 0.080086
O O12 0.806159 0.063329 0.201810
O O13 0.000000 0.500000 0.000000
O O14 0.000000 0.500000 0.500000
#
# Coordination Sequence:
#
# PCOD9007448 Si02
#       7
#     2   2   1   2   2   2   2
#     4   9  21  42  65  90 121 159 200 255 308 367
#     4  10  23  40  61  86 122 167 206 254 301 363
#     4  12  24  38  62  92 124 170 206 252 300 360
#     4  10  21  39  61  94 122 157 204 251 305 368
#     4   9  19  41  68  88 120 159 200 249 314 368
#     4  11  23  41  61  83 121 169 213 252 303 351
#     4  11  23  41  59  94 129 158 212 252 303 361
#
# _framework density 26.926604000000001
#
# number of rings (size 3 to 8) (size 9 to 14) (size 15 to 20)
#    0.000    1.846    3.077    0.000    2.154    2.462 
#    2.769    6.923    0.000    0.000    0.000    0.000 
#    0.000    0.000    0.000    0.000    0.000    0.000 
#
# Total GULP energy -72519.374776 kJ/mol
# GULP energy per Si atom -5578.413444 kJ/mol
# Density = 2.686532 g / cm^3
# Si number density = 26.926604 Si / 1000 Ang^3
#
#
#
# Elastic Constant Matrix: (Units=GPa)
#
#
# Indices 1 2 3 4 5 6 
#
# 1 109.3093 53.9987 32.5857 -10.2945 -27.9963 32.4423
# 2 53.9987 79.4730 18.6456 0.4032 3.1541 18.0074
# 3 32.5857 18.6456 102.4449 -13.3191 -20.7310 10.4643
# 4 -10.2945 0.4032 -13.3191 38.4629 31.4613 0.4000
# 5 -27.9963 3.1541 -20.7310 31.4613 59.2516 -0.3716
# 6 32.4423 18.0074 10.4643 0.4000 -0.3716 70.8908
#
#
#
# Elastic Compliance Matrix: (Units=1/GPa)
#
#
# Indices 1 2 3 4 5 6 
#
# 1 0.020178 -0.012464 -0.001746 -0.004996 0.012204 -0.005718
# 2 -0.012464 0.021676 -0.001460 0.003721 -0.009527 0.000343
# 3 -0.001746 -0.001460 0.011316 0.001497 0.002414 -0.000497
# 4 -0.004996 0.003721 0.001497 0.047367 -0.027181 0.000710
# 5 0.012204 -0.009527 0.002414 -0.027181 0.038408 -0.003166
# 6 -0.005718 0.000343 -0.000497 0.000710 -0.003166 0.016689
#
#
# Mechanical properties :
#
#
# Convention : Reuss Voigt Hill
#
# Bulk Modulus (GPa) = 45.80564 55.74302 50.77433
# Shear Modulus (GPa) = 25.73990 46.12088 35.93039
#
# Velocity S-wave (km/s) = 3.09516 4.14313 3.65688
# Velocity P-wave (km/s) = 5.46092 6.60562 6.06035
#
# Compressibility (1/GPa) = 0.02183137
#
# Stress axis : x y z
#
# Youngs Moduli (GPa) = 49.55812 46.13429 88.36904
#
# Poissons Ratio (x) = 0.57502 0.15426
# Poissons Ratio (y) = 0.61770 0.12900
# Poissons Ratio (z) = 0.08651 0.06735
#
# Static dielectric constant tensor:
#      x y z
#    x 2.055830 -0.013740 0.018380 
#    y -0.013740 2.148490 0.025720 
#    z 0.018380 0.025720 2.100760 
# 
# From -- ./inp_files/88336.got.cif
#   From: 2010.05.17/outbox.cif.g08.bks.cpg/sg2_45_cif.got.tgz:88336.got - 2010.06.03 11:33:40.
