data_PCOD9007880
_publ_section_title
;
Structure prediction by ZEFSAII (Michael W. Deem and Ramdas Pophale) SiO2 
 PCOD9007880
Probable space group: P -1
;
_chemical_formula_sum "Si O2"
_cell_formula_units_Z 16
_cell_length_a 16.939302
_cell_length_b 6.974925
_cell_length_c 12.445441
_cell_angle_alpha 45.348640
_cell_angle_beta 130.274955
_cell_angle_gamma 110.508222
_cell_volume 783.310160
_symmetry_space_group_name_H-M "P -1"
_symmetry_group_IT_number 2
_symmetry_cell_setting 'triclinic'
loop_
_space_group_symop_operation_xyz
x,y,z
-x,-y,-z
loop_
_atom_site_type_symbol
_atom_site_label
_atom_site_fract_x
_atom_site_fract_y
_atom_site_fract_z
Si Si1 0.521437 0.446316 0.839778
Si Si2 0.774759 0.601230 0.533665
Si Si3 0.414386 0.635470 0.458561
Si Si4 0.057495 0.084000 0.352901
Si Si5 0.046665 0.842483 0.209810
Si Si6 0.682821 0.765644 0.948033
Si Si7 0.659297 0.871291 0.126055
Si Si8 0.900087 0.402198 0.252850
O O1 0.471781 0.638413 0.622495
O O2 0.586884 0.603784 0.913914
O O3 0.428030 0.320805 0.860719
O O4 0.599336 0.183992 0.960729
O O5 0.672185 0.555519 0.524797
O O6 0.857379 0.723146 0.629800
O O7 0.835210 0.313730 0.651145
O O8 0.739004 0.799983 0.323078
O O9 0.500000 0.500000 0.500000
O O10 0.355297 0.935662 0.253799
O O11 0.951008 0.224178 0.265855
O O12 0.042049 0.030331 0.236074
O O13 0.099930 0.801912 0.566276
O O14 0.978999 0.608343 0.266341
O O15 0.000000 0.000000 0.000000
O O16 0.709347 0.808553 0.078740
O O17 0.785846 0.581856 0.058951
#
# Coordination Sequence:
#
# PCOD9007880 Si02
#       8
#     2   2   2   2   2   2   2   2
#     4  10  22  40  61  89 124 169 212 255 317 370
#     4  10  23  42  64  91 123 168 209 254 318 373
#     4  11  23  45  59  90 131 167 205 269 312 366
#     4  10  22  45  67  93 128 163 210 262 316 380
#     4  11  23  43  64  95 130 165 204 260 317 381
#     4  12  22  39  64  94 122 171 211 255 317 378
#     4  10  21  39  63  89 129 157 216 265 303 369
#     4  10  23  39  66  99 125 163 213 260 315 372
#
# _framework density 20.426136
#
# number of rings (size 3 to 8) (size 9 to 14) (size 15 to 20)
#    0.000    1.500    1.250    3.375    0.000    5.000 
#   13.500    0.000    0.000    0.000    0.000    0.000 
#    0.000    0.000    0.000    0.000    0.000    0.000 
#
# Total GULP energy -89470.028341 kJ/mol
# GULP energy per Si atom -5591.876771 kJ/mol
# Density = 2.037964 g / cm^3
# Si number density = 20.426136 Si / 1000 Ang^3
#
#
#
# Elastic Constant Matrix: (Units=GPa)
#
#
# Indices 1 2 3 4 5 6 
#
# 1 66.9678 18.4581 49.8596 6.9479 -0.8355 -17.9823
# 2 18.4581 77.8521 37.2190 14.2063 -18.6482 -18.3168
# 3 49.8596 37.2190 119.3429 -9.4555 8.6100 -25.3574
# 4 6.9479 14.2063 -9.4555 26.0624 -4.2557 -3.1180
# 5 -0.8355 -18.6482 8.6100 -4.2557 27.4055 -0.9113
# 6 -17.9823 -18.3168 -25.3574 -3.1180 -0.9113 22.5168
#
#
#
# Elastic Compliance Matrix: (Units=1/GPa)
#
#
# Indices 1 2 3 4 5 6 
#
# 1 0.026688 0.006115 -0.012192 -0.012353 0.007257 0.011141
# 2 0.006115 0.027620 -0.010993 -0.015705 0.020449 0.013625
# 3 -0.012192 -0.010993 0.020161 0.015340 -0.011615 0.005679
# 4 -0.012353 -0.015705 0.015340 0.054827 -0.007304 0.001930
# 5 0.007257 0.020449 -0.011615 -0.007304 0.053489 0.010503
# 6 0.011141 0.013625 0.005679 0.001930 0.010503 0.071480
#
#
# Mechanical properties :
#
#
# Convention : Reuss Voigt Hill
#
# Bulk Modulus (GPa) = 24.79603 52.80402 38.80002
# Shear Modulus (GPa) = 16.56456 25.77201 21.16829
#
# Velocity S-wave (km/s) = 2.85081 3.55592 3.22271
# Velocity P-wave (km/s) = 4.79602 6.53963 5.73448
#
# Compressibility (1/GPa) = 0.04032904
#
# Stress axis : x y z
#
# Youngs Moduli (GPa) = 37.46949 36.20558 49.59980
#
# Poissons Ratio (x) = -0.22139 0.60473
# Poissons Ratio (y) = -0.22912 0.54526
# Poissons Ratio (z) = 0.45683 0.39801
#
# Static dielectric constant tensor:
#      x y z
#    x 1.722640 0.006670 0.009070 
#    y 0.006670 1.700210 -0.011800 
#    z 0.009070 -0.011800 1.723860 
# 
# From -- ./inp_files/111582.got.cif
#   From: 2010.05.17/outbox.cif.g08.bks.cpg/sg2_56_cif.got.tgz:111582.got - 2010.06.03 11:33:40.
