data_PCOD9007271
_publ_section_title
;
Structure prediction by ZEFSAII (Michael W. Deem and Ramdas Pophale) SiO2 
 PCOD9007271
Probable space group: P -1
;
_chemical_formula_sum "Si O2"
_cell_formula_units_Z 14
_cell_length_a 7.604657
_cell_length_b 20.251287
_cell_length_c 5.872264
_cell_angle_alpha 113.915048
_cell_angle_beta 40.734912
_cell_angle_gamma 120.807354
_cell_volume 506.630118
_symmetry_space_group_name_H-M "P -1"
_symmetry_group_IT_number 2
_symmetry_cell_setting 'triclinic'
loop_
_space_group_symop_operation_xyz
x,y,z
-x,-y,-z
loop_
_atom_site_type_symbol
_atom_site_label
_atom_site_fract_x
_atom_site_fract_y
_atom_site_fract_z
Si Si1 0.245032 0.333195 0.493050
Si Si2 0.904291 0.190115 0.377115
Si Si3 0.342883 0.479690 0.371514
Si Si4 0.443325 0.096237 0.213949
Si Si5 0.875941 0.047636 0.444671
Si Si6 0.539284 0.761753 0.353138
Si Si7 0.185009 0.620366 0.748910
O O1 0.212599 0.387778 0.395771
O O2 0.577896 0.350333 0.241112
O O3 0.077911 0.244482 0.485342
O O4 0.094967 0.360665 0.888379
O O5 0.856308 0.101005 0.332170
O O6 0.613654 0.207181 0.652961
O O7 0.129157 0.221406 0.995444
O O8 0.500000 0.500000 0.500000
O O9 0.136336 0.530634 0.646700
O O10 0.500000 0.500000 0.000000
O O11 0.491589 0.184274 0.336011
O O12 0.204062 0.064308 0.209567
O O13 0.298968 0.042723 0.497850
O O14 0.727117 0.080961 0.839114
O O15 0.357948 0.673390 0.449380
#
# Coordination Sequence:
#
# PCOD9007271 Si02
#       7
#     2   2   2   2   2   2   2
#     4  11  23  43  66  93 128 173 220 270 329 398
#     4  12  24  38  60  92 126 163 208 268 331 396
#     4  10  23  44  70 102 138 180 228 282 342 406
#     4  10  21  39  61  84 116 162 211 261 323 398
#     4  10  21  39  61  84 116 162 211 261 323 398
#     4  12  24  38  60  92 126 163 208 268 331 396
#     4  11  23  43  66  93 128 173 220 270 329 398
#
# _framework density 27.633573999999999
#
# number of rings (size 3 to 8) (size 9 to 14) (size 15 to 20)
#    0.000    1.143    0.000    6.429    0.000    3.429 
#    0.000    6.429    0.000    0.000    0.000    0.000 
#    0.000    0.000    0.000    0.000    0.000    0.000 
#
# Total GULP energy -78412.173695 kJ/mol
# GULP energy per Si atom -5600.869550 kJ/mol
# Density = 2.757068 g / cm^3
# Si number density = 27.633574 Si / 1000 Ang^3
#
#
#
# Elastic Constant Matrix: (Units=GPa)
#
#
# Indices 1 2 3 4 5 6 
#
# 1 99.4440 45.5135 17.4975 -1.3791 1.1574 0.9994
# 2 45.5135 90.9405 18.3004 -16.6203 2.6977 -31.8578
# 3 17.4975 18.3004 120.7790 0.4061 1.8374 -6.8376
# 4 -1.3791 -16.6203 0.4061 54.0632 -8.2408 8.5456
# 5 1.1574 2.6977 1.8374 -8.2408 27.0865 -1.8939
# 6 0.9994 -31.8578 -6.8376 8.5456 -1.8939 44.9585
#
#
#
# Elastic Compliance Matrix: (Units=1/GPa)
#
#
# Indices 1 2 3 4 5 6 
#
# 1 0.014935 -0.010138 -0.001031 -0.001649 -0.000576 -0.007384
# 2 -0.010138 0.022352 -0.001088 0.004334 0.000655 0.015103
# 3 -0.001031 -0.001088 0.008642 -0.000618 -0.000576 0.000660
# 4 -0.001649 0.004334 -0.000618 0.020810 0.005964 -0.000691
# 5 -0.000576 0.000655 -0.000576 0.005964 0.038794 0.000890
# 6 -0.007384 0.015103 0.000660 -0.000691 0.000890 0.033378
#
#
# Mechanical properties :
#
#
# Convention : Reuss Voigt Hill
#
# Bulk Modulus (GPa) = 46.69494 52.64293 49.66894
# Shear Modulus (GPa) = 29.31454 40.54511 34.92983
#
# Velocity S-wave (km/s) = 3.26057 3.83461 3.55919
# Velocity P-wave (km/s) = 5.57761 6.22072 5.90792
#
# Compressibility (1/GPa) = 0.02141560
#
# Stress axis : x y z
#
# Youngs Moduli (GPa) = 66.95490 44.73822 115.71438
#
# Poissons Ratio (x) = 0.45356 0.11934
# Poissons Ratio (y) = 0.67880 0.12585
# Poissons Ratio (z) = 0.06905 0.04866
#
# Static dielectric constant tensor:
#      x y z
#    x 2.161630 0.002820 0.100030 
#    y 0.002820 2.117090 -0.036000 
#    z 0.100030 -0.036000 2.107670 
# 
# From -- ./inp_files/9674.got.cif
#   From: 2010.05.17/outbox.cif.g08.bks.cpg/sg2_5_cif.got.tgz:9674.got - 2010.06.03 11:33:40.
