data_PCOD9007187
_publ_section_title
;
Structure prediction by ZEFSAII (Michael W. Deem and Ramdas Pophale) SiO2 
 PCOD9007187
Probable space group: P -1
;
_chemical_formula_sum "Si O2"
_cell_formula_units_Z 16
_cell_length_a 8.379659
_cell_length_b 14.233106
_cell_length_c 13.645316
_cell_angle_alpha 49.359793
_cell_angle_beta 123.662881
_cell_angle_gamma 85.907380
_cell_volume 749.195853
_symmetry_space_group_name_H-M "P -1"
_symmetry_group_IT_number 2
_symmetry_cell_setting 'triclinic'
loop_
_space_group_symop_operation_xyz
x,y,z
-x,-y,-z
loop_
_atom_site_type_symbol
_atom_site_label
_atom_site_fract_x
_atom_site_fract_y
_atom_site_fract_z
Si Si1 0.189064 0.647790 0.792401
Si Si2 0.534807 0.177329 0.742645
Si Si3 0.250141 0.070768 0.668384
Si Si4 0.739978 0.465439 0.656207
Si Si5 0.472285 0.920415 0.636842
Si Si6 0.994228 0.535995 0.086546
Si Si7 0.040443 0.905062 0.737169
Si Si8 0.987726 0.895274 0.951427
O O1 0.055890 0.572793 0.806482
O O2 0.126528 0.759408 0.790866
O O3 0.052085 0.760286 0.571449
O O4 0.500000 0.500000 0.000000
O O5 0.401117 0.103110 0.764252
O O6 0.301655 0.381858 0.512807
O O7 0.755007 0.133182 0.921135
O O8 0.725364 0.076779 0.779814
O O9 0.380066 0.022975 0.636763
O O10 0.240754 0.931318 0.789412
O O11 0.500000 0.500000 0.500000
O O12 0.765004 0.498619 0.756015
O O13 0.963244 0.258074 0.871598
O O14 0.500000 0.000000 0.500000
O O15 0.735628 0.732412 0.876842
O O16 0.238195 0.932605 0.516084
O O17 0.000000 0.500000 0.000000
O O18 0.985467 0.881485 0.843472
#
# Coordination Sequence:
#
# PCOD9007187 Si02
#       8
#     2   2   2   2   2   2   2   2
#     4  11  22  38  56  87 120 160 201 241 313 374
#     4  10  21  40  67  89 118 166 210 258 304 378
#     4  11  21  39  59  84 124 162 201 246 316 372
#     4  10  21  39  60  89 124 157 205 259 308 365
#     4  11  22  37  60  88 122 157 205 254 310 369
#     4  12  22  34  60  93 118 154 201 259 311 362
#     4  11  23  39  58  89 127 162 195 261 312 375
#     4  10  22  40  64  92 122 160 211 257 313 363
#
# _framework density 21.356231000000001
#
# number of rings (size 3 to 8) (size 9 to 14) (size 15 to 20)
#    0.000    1.250    1.250    7.500    1.750    0.500 
#    2.250    0.000    0.000    0.750    0.000    0.000 
#    0.000    0.000    0.000    0.000    0.000    0.000 
#
# Total GULP energy -89103.282835 kJ/mol
# GULP energy per Si atom -5568.955177 kJ/mol
# Density = 2.130762 g / cm^3
# Si number density = 21.356231 Si / 1000 Ang^3
#
#
#
# Elastic Constant Matrix: (Units=GPa)
#
#
# Indices 1 2 3 4 5 6 
#
# 1 39.8472 30.5868 9.5632 1.2501 0.1377 22.5553
# 2 30.5868 106.9201 42.7017 20.3660 10.3149 34.2109
# 3 9.5632 42.7017 79.7671 3.2537 10.5015 6.9444
# 4 1.2501 20.3660 3.2537 42.3234 11.3056 2.9152
# 5 0.1377 10.3149 10.5015 11.3056 23.6906 -0.7424
# 6 22.5553 34.2109 6.9444 2.9152 -0.7424 41.5505
#
#
#
# Elastic Compliance Matrix: (Units=1/GPa)
#
#
# Indices 1 2 3 4 5 6 
#
# 1 0.039196 -0.006826 0.000114 0.003008 0.000761 -0.015874
# 2 -0.006826 0.019498 -0.008192 -0.007397 -0.001618 -0.010490
# 3 0.000114 -0.008192 0.017218 0.003939 -0.005839 0.003425
# 4 0.003008 -0.007397 0.003939 0.030135 -0.012878 0.001454
# 5 0.000761 -0.001618 -0.005839 -0.012878 0.051761 0.003723
# 6 -0.015874 -0.010490 0.003425 0.001454 0.003723 0.040713
#
#
# Mechanical properties :
#
#
# Convention : Reuss Voigt Hill
#
# Bulk Modulus (GPa) = 21.68944 43.58199 32.63572
# Shear Modulus (GPa) = 20.51720 31.09174 25.80447
#
# Velocity S-wave (km/s) = 3.10290 3.81972 3.47981
# Velocity P-wave (km/s) = 4.79743 6.31705 5.60894
#
# Compressibility (1/GPa) = 0.04610538
#
# Stress axis : x y z
#
# Youngs Moduli (GPa) = 25.51259 51.28622 58.07859
#
# Poissons Ratio (x) = 0.35007 -0.00661
# Poissons Ratio (y) = 0.17414 0.47577
# Poissons Ratio (z) = -0.00291 0.42013
#
# Static dielectric constant tensor:
#      x y z
#    x 1.692080 0.402220 -0.123630 
#    y 0.402220 0.660570 0.380040 
#    z -0.123630 0.380040 1.677740 
# 
# From -- ./inp_files/223657.got.cif
#   From: 2010.05.17/outbox.cif.g08.bks.cpg/sg2_112_cif.got.tgz:223657.got - 2010.06.03 11:33:40.
