data_PCOD9007242
_publ_section_title
;
Structure prediction by ZEFSAII (Michael W. Deem and Ramdas Pophale) SiO2 
 PCOD9007242
Probable space group: P -1
;
_chemical_formula_sum "Si O2"
_cell_formula_units_Z 16
_cell_length_a 12.426663
_cell_length_b 11.117034
_cell_length_c 8.935261
_cell_angle_alpha 106.155725
_cell_angle_beta 52.741982
_cell_angle_gamma 75.822704
_cell_volume 793.814442
_symmetry_space_group_name_H-M "P -1"
_symmetry_group_IT_number 2
_symmetry_cell_setting 'triclinic'
loop_
_space_group_symop_operation_xyz
x,y,z
-x,-y,-z
loop_
_atom_site_type_symbol
_atom_site_label
_atom_site_fract_x
_atom_site_fract_y
_atom_site_fract_z
Si Si1 0.991380 0.366207 0.037139
Si Si2 0.331922 0.605422 0.754191
Si Si3 0.317463 0.518560 0.071000
Si Si4 0.876266 0.615288 0.762299
Si Si5 0.306229 0.096560 0.168570
Si Si6 0.196444 0.897544 0.103454
Si Si7 0.665847 0.241455 0.740611
Si Si8 0.142716 0.078136 0.601963
O O1 0.095183 0.208966 0.805835
O O2 0.048827 0.343667 0.151992
O O3 0.000000 0.500000 0.000000
O O4 0.808290 0.409937 0.198841
O O5 0.500000 0.500000 0.500000
O O6 0.348917 0.565259 0.901250
O O7 0.273878 0.778112 0.864358
O O8 0.479712 0.368394 0.931455
O O9 0.190146 0.476134 0.136763
O O10 0.260265 0.654297 0.283256
O O11 0.743008 0.753076 0.823826
O O12 0.000000 0.500000 0.500000
O O13 0.211496 0.118693 0.413012
O O14 0.229032 0.027485 0.102043
O O15 0.500000 0.000000 0.000000
O O16 0.289589 0.831545 0.158746
O O17 0.020389 0.923569 0.286793
O O18 0.729210 0.098181 0.531915
#
# Coordination Sequence:
#
# PCOD9007242 Si02
#       8
#     2   2   2   2   2   2   2   2
#     4  11  23  44  66  94 133 171 216 268 338 394
#     4  10  22  42  64  90 124 176 217 264 327 386
#     4  10  21  39  60  94 129 164 217 268 321 390
#     4  12  26  39  67  98 130 170 222 265 332 398
#     4  11  23  41  64  98 131 168 221 268 325 392
#     4   9  20  38  64  87 126 164 219 260 323 380
#     4   9  18  35  66  88 120 165 214 262 323 375
#     4  10  21  41  68  88 126 176 210 271 330 376
#
# _framework density 20.155843999999998
#
# number of rings (size 3 to 8) (size 9 to 14) (size 15 to 20)
#    0.000    1.750    1.250    3.750    5.250    5.000 
#    2.250    2.500    0.000    0.000    0.000    0.000 
#    0.000    0.000    0.000    0.000    0.000    0.000 
#
# Total GULP energy -89101.085861 kJ/mol
# GULP energy per Si atom -5568.817866 kJ/mol
# Density = 2.010997 g / cm^3
# Si number density = 20.155844 Si / 1000 Ang^3
#
#
#
# Elastic Constant Matrix: (Units=GPa)
#
#
# Indices 1 2 3 4 5 6 
#
# 1 89.6454 23.5426 50.2865 6.9554 12.6979 13.3966
# 2 23.5426 73.9836 42.9869 19.0087 9.0816 7.4984
# 3 50.2865 42.9869 127.4084 10.3679 10.8044 16.3261
# 4 6.9554 19.0087 10.3679 27.0591 8.0427 -1.2507
# 5 12.6979 9.0816 10.8044 8.0427 20.6719 4.3338
# 6 13.3966 7.4984 16.3261 -1.2507 4.3338 37.2985
#
#
#
# Elastic Compliance Matrix: (Units=1/GPa)
#
#
# Indices 1 2 3 4 5 6 
#
# 1 0.015393 -0.001180 -0.004888 0.000427 -0.006038 -0.002436
# 2 -0.001180 0.020127 -0.005100 -0.011815 -0.000492 -0.001729
# 3 -0.004888 -0.005100 0.011814 0.000383 -0.000597 -0.002308
# 4 0.000427 -0.011815 0.000383 0.049979 -0.015886 0.005576
# 5 -0.006038 -0.000492 -0.000597 -0.015886 0.059831 -0.004956
# 6 -0.002436 -0.001729 -0.002308 0.005576 -0.004956 0.029806
#
#
# Mechanical properties :
#
#
# Convention : Reuss Voigt Hill
#
# Bulk Modulus (GPa) = 40.00387 58.29659 49.15023
# Shear Modulus (GPa) = 22.97599 28.62065 25.79832
#
# Velocity S-wave (km/s) = 3.37993 3.77233 3.58151
# Velocity P-wave (km/s) = 5.92640 6.92530 6.44523
#
# Compressibility (1/GPa) = 0.02499758
#
# Stress axis : x y z
#
# Youngs Moduli (GPa) = 64.96490 49.68541 84.64605
#
# Poissons Ratio (x) = 0.05862 0.41374
# Poissons Ratio (y) = 0.07665 0.43171
# Poissons Ratio (z) = 0.31754 0.25340
#
# Static dielectric constant tensor:
#      x y z
#    x 1.749190 0.064320 0.004890 
#    y 0.064320 1.793700 0.049290 
#    z 0.004890 0.049290 1.738950 
# 
# From -- ./inp_files/259390.got.cif
#   From: 2010.05.17/outbox.cif.g08.bks.cpg/sg2_130_cif.got.tgz:259390.got - 2010.06.03 11:33:40.
