data_PCOD9007397
_publ_section_title
;
Structure prediction by ZEFSAII (Michael W. Deem and Ramdas Pophale) SiO2 
 PCOD9007397
Probable space group: P -1
;
_chemical_formula_sum "Si O2"
_cell_formula_units_Z 16
_cell_length_a 11.297170
_cell_length_b 14.199882
_cell_length_c 9.339016
_cell_angle_alpha 103.875607
_cell_angle_beta 144.605081
_cell_angle_gamma 93.646671
_cell_volume 747.663521
_symmetry_space_group_name_H-M "P -1"
_symmetry_group_IT_number 2
_symmetry_cell_setting 'triclinic'
loop_
_space_group_symop_operation_xyz
x,y,z
-x,-y,-z
loop_
_atom_site_type_symbol
_atom_site_label
_atom_site_fract_x
_atom_site_fract_y
_atom_site_fract_z
Si Si1 0.252246 0.264614 0.301836
Si Si2 0.427720 0.677060 0.614392
Si Si3 0.203011 0.165660 0.788275
Si Si4 0.000979 0.817180 0.692829
Si Si5 0.122447 0.775850 0.312822
Si Si6 0.132983 0.428037 0.617675
Si Si7 0.407233 0.023386 0.066286
Si Si8 0.505393 0.500754 0.763856
O O1 0.410872 0.250282 0.330901
O O2 0.127332 0.189549 0.287027
O O3 0.428879 0.380712 0.584801
O O4 0.034890 0.257001 0.994694
O O5 0.186509 0.677792 0.368509
O O6 0.456017 0.568509 0.616158
O O7 0.544047 0.736073 0.898812
O O8 0.142171 0.158226 0.561351
O O9 0.023876 0.197010 0.703896
O O10 0.228567 0.067739 0.853689
O O11 0.990601 0.700035 0.597674
O O12 0.259910 0.914190 0.971255
O O13 0.370932 0.884317 0.599696
O O14 0.331666 0.483336 0.715655
O O15 0.000000 0.500000 0.500000
O O16 0.247698 0.442562 0.893768
O O17 0.500000 0.000000 0.000000
#
# Coordination Sequence:
#
# PCOD9007397 Si02
#       8
#     2   2   2   2   2   2   2   2
#     4  10  24  41  58  92 132 166 209 256 320 372
#     4  10  21  40  66  86 126 173 210 254 309 379
#     4  10  21  41  66  93 124 156 215 270 306 369
#     4  11  22  42  63  93 128 162 202 270 318 358
#     4  10  23  42  60  94 126 163 217 254 310 379
#     4  10  23  38  61  98 130 158 204 263 320 366
#     4  11  23  40  68  98 116 164 219 259 317 375
#     4  10  21  39  61  91 124 168 213 255 310 373
#
# _framework density 21.400002000000001
#
# number of rings (size 3 to 8) (size 9 to 14) (size 15 to 20)
#    0.000    1.750    2.500    0.750    1.750    3.000 
#    2.250    5.625    0.000    0.000    0.000    0.000 
#    0.000    0.000    0.000    0.000    0.000    0.000 
#
# Total GULP energy -89188.427888 kJ/mol
# GULP energy per Si atom -5574.276743 kJ/mol
# Density = 2.135129 g / cm^3
# Si number density = 21.400002 Si / 1000 Ang^3
#
#
#
# Elastic Constant Matrix: (Units=GPa)
#
#
# Indices 1 2 3 4 5 6 
#
# 1 84.0164 27.3213 28.4692 -17.4444 0.6914 7.4884
# 2 27.3213 88.1378 13.9581 -5.5201 15.2247 4.9704
# 3 28.4692 13.9581 80.8181 -18.5097 -2.1631 -3.9758
# 4 -17.4444 -5.5201 -18.5097 30.8794 -5.5989 6.2910
# 5 0.6914 15.2247 -2.1631 -5.5989 23.1472 -5.3894
# 6 7.4884 4.9704 -3.9758 6.2910 -5.3894 31.1019
#
#
#
# Elastic Compliance Matrix: (Units=1/GPa)
#
#
# Indices 1 2 3 4 5 6 
#
# 1 0.016531 -0.004295 -0.003406 0.008033 0.002824 -0.004865
# 2 -0.004295 0.014964 -0.002072 -0.002398 -0.011205 -0.003079
# 3 -0.003406 -0.002072 0.015976 0.007743 0.005428 0.002568
# 4 0.008033 -0.002398 0.007743 0.044710 0.011086 -0.007683
# 5 0.002824 -0.011205 0.005428 0.011086 0.055826 0.009236
# 6 -0.004865 -0.003079 0.002568 -0.007683 0.009236 0.037299
#
#
# Mechanical properties :
#
#
# Convention : Reuss Voigt Hill
#
# Bulk Modulus (GPa) = 35.80885 43.60772 39.70828
# Shear Modulus (GPa) = 23.34687 29.24060 26.29373
#
# Velocity S-wave (km/s) = 3.30657 3.70047 3.50905
# Velocity P-wave (km/s) = 5.59887 6.21930 5.91722
#
# Compressibility (1/GPa) = 0.02792606
#
# Stress axis : x y z
#
# Youngs Moduli (GPa) = 60.49067 66.82515 62.59405
#
# Poissons Ratio (x) = 0.28704 0.21317
# Poissons Ratio (y) = 0.25984 0.12969
# Poissons Ratio (z) = 0.20600 0.13845
#
# Static dielectric constant tensor:
#      x y z
#    x 1.790190 -0.015230 -0.004310 
#    y -0.015230 1.895800 0.029760 
#    z -0.004310 0.029760 1.782830 
# 
# From -- ./inp_files/273277.got.cif
#   From: 2010.05.17/outbox.cif.g08.bks.cpg/sg2_137_cif.got.tgz:273277.got - 2010.06.03 11:33:40.
