data_PCOD9007945
_publ_section_title
;
Structure prediction by ZEFSAII (Michael W. Deem and Ramdas Pophale) SiO2 
 PCOD9007945
Probable space group: P -1
;
_chemical_formula_sum "Si O2"
_cell_formula_units_Z 16
_cell_length_a 13.611229
_cell_length_b 14.520537
_cell_length_c 9.193585
_cell_angle_alpha 88.580499
_cell_angle_beta 114.937713
_cell_angle_gamma 148.759945
_cell_volume 598.368880
_symmetry_space_group_name_H-M "P -1"
_symmetry_group_IT_number 2
_symmetry_cell_setting 'triclinic'
loop_
_space_group_symop_operation_xyz
x,y,z
-x,-y,-z
loop_
_atom_site_type_symbol
_atom_site_label
_atom_site_fract_x
_atom_site_fract_y
_atom_site_fract_z
Si Si1 0.196667 0.901355 0.654944
Si Si2 0.091756 0.675849 0.008769
Si Si3 0.020946 0.670773 0.293263
Si Si4 0.284881 0.393440 0.964501
Si Si5 0.303380 0.595233 0.496836
Si Si6 0.814792 0.876781 0.749897
Si Si7 0.195768 0.232522 0.535125
Si Si8 0.579415 0.190861 0.165216
O O1 0.264974 0.918062 0.534969
O O2 0.004157 0.664654 0.603118
O O3 0.967788 0.805372 0.511073
O O4 0.421701 0.097760 0.918662
O O5 0.812646 0.479476 0.736395
O O6 0.110810 0.734189 0.179617
O O7 0.000000 0.500000 0.000000
O O8 0.392480 0.948809 0.099945
O O9 0.914962 0.488922 0.305635
O O10 0.751091 0.532461 0.121605
O O11 0.462517 0.523534 0.221811
O O12 0.500000 0.500000 0.000000
O O13 0.966809 0.091630 0.779483
O O14 0.486392 0.645693 0.596821
O O15 0.466269 0.788216 0.712387
O O16 0.840636 0.815385 0.655282
O O17 0.000000 0.000000 0.000000
O O18 0.000000 0.000000 0.500000
#
# Coordination Sequence:
#
# PCOD9007945 Si02
#       8
#     2   2   2   2   2   2   2   2
#     4  10  21  39  63  91 131 178 222 270 333 395
#     4  11  26  48  74 102 130 170 229 291 349 412
#     4  11  23  42  68  96 134 177 223 280 341 402
#     4  12  23  39  60  95 134 178 230 267 319 397
#     4  10  23  44  64  97 135 176 223 278 339 403
#     4  12  25  37  61  96 134 181 227 272 328 389
#     4  12  22  35  56  86 128 178 226 268 312 384
#     4  10  23  43  70  96 135 175 213 281 345 408
#
# _framework density 26.739356000000001
#
# number of rings (size 3 to 8) (size 9 to 14) (size 15 to 20)
#    0.000    1.000    2.500    3.750    1.750    7.000 
#    0.000    5.625    0.000    0.000    0.000    0.000 
#    0.000    0.000    0.000    0.000    0.000    0.000 
#
# Total GULP energy -89252.891680 kJ/mol
# GULP energy per Si atom -5578.305730 kJ/mol
# Density = 2.667850 g / cm^3
# Si number density = 26.739356 Si / 1000 Ang^3
#
#
#
# Elastic Constant Matrix: (Units=GPa)
#
#
# Indices 1 2 3 4 5 6 
#
# 1 81.2604 24.5837 66.5165 -18.7405 -16.2334 -0.1433
# 2 24.5837 135.7376 24.5791 4.7207 -13.8330 -4.7839
# 3 66.5165 24.5791 163.3451 -33.6171 -39.3049 1.7780
# 4 -18.7405 4.7207 -33.6171 57.0855 1.6714 -4.5623
# 5 -16.2334 -13.8330 -39.3049 1.6714 44.9379 -7.2282
# 6 -0.1433 -4.7839 1.7780 -4.5623 -7.2282 44.1803
#
#
#
# Elastic Compliance Matrix: (Units=1/GPa)
#
#
# Indices 1 2 3 4 5 6 
#
# 1 0.019309 -0.002290 -0.006991 0.002437 0.000124 0.000368
# 2 -0.002290 0.008078 -0.000192 -0.001503 0.001708 0.000999
# 3 -0.006991 -0.000192 0.011781 0.004529 0.007747 0.001217
# 4 0.002437 -0.001503 0.004529 0.021192 0.003993 0.002505
# 5 0.000124 0.001708 0.007747 0.003993 0.030294 0.005242
# 6 0.000368 0.000999 0.001217 0.002505 0.005242 0.023811
#
#
# Mechanical properties :
#
#
# Convention : Reuss Voigt Hill
#
# Bulk Modulus (GPa) = 49.45319 67.96686 58.71003
# Shear Modulus (GPa) = 35.67554 46.88500 41.28027
#
# Velocity S-wave (km/s) = 3.65663 4.19191 3.93339
# Velocity P-wave (km/s) = 6.03014 6.99307 6.52938
#
# Compressibility (1/GPa) = 0.02022114
#
# Stress axis : x y z
#
# Youngs Moduli (GPa) = 51.78953 123.78824 84.88596
#
# Poissons Ratio (x) = 0.28352 0.59342
# Poissons Ratio (y) = 0.11862 0.01632
# Poissons Ratio (z) = 0.36205 0.02379
#
# Static dielectric constant tensor:
#      x y z
#    x 2.089020 0.000160 -0.035410 
#    y 0.000160 2.183210 0.018400 
#    z -0.035410 0.018400 2.290060 
# 
# From -- ./inp_files/315335.got.cif
#   From: 2010.05.17/outbox.cif.g08.bks.cpg/sg2_158_cif.got.tgz:315335.got - 2010.06.03 11:33:40.
