data_PCOD9007265
_publ_section_title
;
Structure prediction by ZEFSAII (Michael W. Deem and Ramdas Pophale) SiO2 
 PCOD9007265
Probable space group: P -1
;
_chemical_formula_sum "Si O2"
_cell_formula_units_Z 16
_cell_length_a 8.316094
_cell_length_b 28.186614
_cell_length_c 14.163671
_cell_angle_alpha 22.135162
_cell_angle_beta 53.532744
_cell_angle_gamma 42.869027
_cell_volume 803.451054
_symmetry_space_group_name_H-M "P -1"
_symmetry_group_IT_number 2
_symmetry_cell_setting 'triclinic'
loop_
_space_group_symop_operation_xyz
x,y,z
-x,-y,-z
loop_
_atom_site_type_symbol
_atom_site_label
_atom_site_fract_x
_atom_site_fract_y
_atom_site_fract_z
Si Si1 0.547379 0.368706 0.924006
Si Si2 0.523045 0.602486 0.881885
Si Si3 0.815299 0.771434 0.875101
Si Si4 0.729688 0.082956 0.255350
Si Si5 0.016792 0.468402 0.239703
Si Si6 0.755871 0.070997 0.727733
Si Si7 0.996257 0.353839 0.760461
Si Si8 0.639350 0.830170 0.196440
O O1 0.257072 0.474427 0.799833
O O2 0.717684 0.407731 0.739443
O O3 0.545777 0.394080 0.990991
O O4 0.672831 0.190189 0.170423
O O5 0.346482 0.780525 0.576513
O O6 0.806717 0.547343 0.876576
O O7 0.500000 0.500000 0.000000
O O8 0.532753 0.825964 0.875295
O O9 0.802483 0.912461 0.571130
O O10 0.973094 0.606312 0.068458
O O11 0.923825 0.744111 0.990932
O O12 0.951793 0.051601 0.170051
O O13 0.176616 0.300826 0.546853
O O14 0.629512 0.136010 0.755588
O O15 0.626945 0.986170 0.908424
O O16 0.000000 0.500000 0.500000
O O17 0.210628 0.251689 0.799064
#
# Coordination Sequence:
#
# PCOD9007265 Si02
#       8
#     2   2   2   2   2   2   2   2
#     4  11  24  37  65  90 115 160 202 248 298 356
#     4  11  23  39  65  90 121 155 195 254 302 351
#     4  10  22  38  62  89 123 153 194 255 296 352
#     4  10  21  40  61  89 120 154 198 247 304 349
#     4  10  21  42  60  89 122 158 201 240 299 356
#     4  10  21  39  61  83 117 157 196 239 299 353
#     4  12  23  38  59  90 120 158 205 246 294 353
#     4  10  22  38  61  84 119 160 197 242 289 359
#
# _framework density 19.914095
#
# number of rings (size 3 to 8) (size 9 to 14) (size 15 to 20)
#    0.000    1.500    2.500    2.625    3.500    2.500 
#    0.000    0.625    0.000    0.000    0.000    0.000 
#    0.000    0.000    0.000    0.000    0.000    0.000 
#
# Total GULP energy -89126.482523 kJ/mol
# GULP energy per Si atom -5570.405158 kJ/mol
# Density = 1.986877 g / cm^3
# Si number density = 19.914095 Si / 1000 Ang^3
#
#
#
# Elastic Constant Matrix: (Units=GPa)
#
#
# Indices 1 2 3 4 5 6 
#
# 1 61.3122 40.2804 7.2593 -6.7627 -4.6705 -8.3648
# 2 40.2804 158.2720 3.4086 -8.0243 9.5996 -22.9049
# 3 7.2593 3.4086 76.4162 -24.3804 -8.1145 1.6451
# 4 -6.7627 -8.0243 -24.3804 20.9615 3.9808 0.9069
# 5 -4.6705 9.5996 -8.1145 3.9808 19.2525 -3.2891
# 6 -8.3648 -22.9049 1.6451 0.9069 -3.2891 32.8486
#
#
#
# Elastic Compliance Matrix: (Units=1/GPa)
#
#
# Indices 1 2 3 4 5 6 
#
# 1 0.021040 -0.005309 0.000024 0.003262 0.007482 0.002314
# 2 -0.005309 0.008728 0.000389 0.002925 -0.005381 0.004095
# 3 0.000024 0.000389 0.021175 0.024157 0.003555 -0.001094
# 4 0.003262 0.002925 0.024157 0.079380 -0.007111 -0.001243
# 5 0.007482 -0.005381 0.003555 -0.007111 0.060124 0.004191
# 6 0.002314 0.004095 -0.001094 -0.001243 0.004191 0.034396
#
#
# Mechanical properties :
#
#
# Convention : Reuss Voigt Hill
#
# Bulk Modulus (GPa) = 24.30096 44.21077 34.25586
# Shear Modulus (GPa) = 20.13247 30.94931 25.54089
#
# Velocity S-wave (km/s) = 3.18302 3.94654 3.58516
# Velocity P-wave (km/s) = 5.07328 6.55864 5.86319
#
# Compressibility (1/GPa) = 0.04115064
#
# Stress axis : x y z
#
# Youngs Moduli (GPa) = 47.52753 114.56936 47.22546
#
# Poissons Ratio (x) = 0.60823 -0.00111
# Poissons Ratio (y) = 0.25232 -0.01836
# Poissons Ratio (z) = -0.00112 -0.04454
#
# Static dielectric constant tensor:
#      x y z
#    x 1.706340 0.047420 -0.048130 
#    y 0.047420 3.035280 -0.658940 
#    z -0.048130 -0.658940 2.015010 
# 
# From -- ./inp_files/269539.got.cif
#   From: 2010.05.17/outbox.cif.g08.bks.cpg/sg2_135_cif.got.tgz:269539.got - 2010.06.03 11:33:40.
