data_PCOD9007960
_publ_section_title
;
Structure prediction by ZEFSAII (Michael W. Deem and Ramdas Pophale) SiO2 
 PCOD9007960
Probable space group: P -1
;
_chemical_formula_sum "Si O2"
_cell_formula_units_Z 16
_cell_length_a 15.418707
_cell_length_b 12.958924
_cell_length_c 8.519438
_cell_angle_alpha 140.752402
_cell_angle_beta 113.810037
_cell_angle_gamma 43.867408
_cell_volume 698.393272
_symmetry_space_group_name_H-M "P -1"
_symmetry_group_IT_number 2
_symmetry_cell_setting 'triclinic'
loop_
_space_group_symop_operation_xyz
x,y,z
-x,-y,-z
loop_
_atom_site_type_symbol
_atom_site_label
_atom_site_fract_x
_atom_site_fract_y
_atom_site_fract_z
Si Si1 0.557466 0.230479 0.811999
Si Si2 0.809778 0.964402 0.168504
Si Si3 0.852286 0.616690 0.992013
Si Si4 0.401067 0.512004 0.338310
Si Si5 0.694817 0.390820 0.097002
Si Si6 0.873973 0.424014 0.097027
Si Si7 0.714825 0.572246 0.612194
Si Si8 0.721196 0.832462 0.683845
O O1 0.465058 0.411283 0.098144
O O2 0.671439 0.228008 0.863678
O O3 0.452890 0.350741 0.735942
O O4 0.624749 0.992615 0.658145
O O5 0.736406 0.221165 0.453653
O O6 0.778281 0.866906 0.165569
O O7 0.759187 0.945289 0.945460
O O8 0.969196 0.791542 0.069421
O O9 0.842291 0.498735 0.704217
O O10 0.809742 0.577393 0.072942
O O11 0.000000 0.500000 0.000000
O O12 0.500000 0.500000 0.500000
O O13 0.380119 0.370067 0.249629
O O14 0.797968 0.353532 0.012549
O O15 0.738975 0.387464 0.300616
O O16 0.846812 0.587318 0.408617
O O17 0.661968 0.776585 0.699154
#
# Coordination Sequence:
#
# PCOD9007960 Si02
#       8
#     2   2   2   2   2   2   2   2
#     4  11  23  41  62  90 131 168 214 255 313 369
#     4  10  21  41  65  92 126 166 207 260 317 372
#     4   9  20  40  63  92 127 161 206 257 310 373
#     4  12  22  41  64  92 130 166 213 257 311 372
#     4  10  22  40  61  94 128 169 209 260 312 375
#     4  10  21  40  62  92 126 159 213 256 319 372
#     4  10  21  39  63  93 122 163 213 254 310 371
#     4  10  21  39  63  92 124 165 205 262 313 372
#
# _framework density 22.909728000000001
#
# number of rings (size 3 to 8) (size 9 to 14) (size 15 to 20)
#    0.000    1.750    2.500    1.125    0.000    5.500 
#    2.250   15.000    0.000    0.000    0.000    0.000 
#    0.000    0.000    0.000    0.000    0.000    0.000 
#
# Total GULP energy -89380.391543 kJ/mol
# GULP energy per Si atom -5586.274471 kJ/mol
# Density = 2.285758 g / cm^3
# Si number density = 22.909728 Si / 1000 Ang^3
#
#
#
# Elastic Constant Matrix: (Units=GPa)
#
#
# Indices 1 2 3 4 5 6 
#
# 1 112.4254 26.5049 24.9468 -1.8793 5.9545 18.8085
# 2 26.5049 84.7596 21.0169 -6.6619 3.3355 8.8850
# 3 24.9468 21.0169 73.7928 -1.0275 -10.0481 -8.2769
# 4 -1.8793 -6.6619 -1.0275 42.8019 -11.0692 4.7398
# 5 5.9545 3.3355 -10.0481 -11.0692 25.2208 -7.6733
# 6 18.8085 8.8850 -8.2769 4.7398 -7.6733 41.1642
#
#
#
# Elastic Compliance Matrix: (Units=1/GPa)
#
#
# Indices 1 2 3 4 5 6 
#
# 1 0.012154 -0.001362 -0.005650 -0.000952 -0.007708 -0.007723
# 2 -0.001362 0.014068 -0.004547 0.001455 -0.004003 -0.004242
# 3 -0.005650 -0.004547 0.019750 0.001960 0.013662 0.009855
# 4 -0.000952 0.001455 0.001960 0.026862 0.012529 -0.000242
# 5 -0.007708 -0.004003 0.013662 0.012529 0.057959 0.016494
# 6 -0.007723 -0.004242 0.009855 -0.000242 0.016494 0.033821
#
#
# Mechanical properties :
#
#
# Convention : Reuss Voigt Hill
#
# Bulk Modulus (GPa) = 43.75555 46.21276 44.98416
# Shear Modulus (GPa) = 25.59516 35.07131 30.33324
#
# Velocity S-wave (km/s) = 3.34611 3.91685 3.64267
# Velocity P-wave (km/s) = 5.83688 6.37739 6.11311
#
# Compressibility (1/GPa) = 0.02285424
#
# Stress axis : x y z
#
# Youngs Moduli (GPa) = 82.27886 71.08380 50.63399
#
# Poissons Ratio (x) = 0.09679 0.28608
# Poissons Ratio (y) = 0.11203 0.23023
# Poissons Ratio (z) = 0.46487 0.32321
#
# Static dielectric constant tensor:
#      x y z
#    x 1.856900 0.024780 0.025310 
#    y 0.024780 1.900410 -0.002690 
#    z 0.025310 -0.002690 1.862360 
# 
# From -- ./inp_files/308831.got.cif
#   From: 2010.05.17/outbox.cif.g08.bks.cpg/sg2_155_cif.got.tgz:308831.got - 2010.06.03 11:33:40.
