data_PCOD9007266
_publ_section_title
;
Structure prediction by ZEFSAII (Michael W. Deem and Ramdas Pophale) SiO2 
 PCOD9007266
Probable space group: P -1
;
_chemical_formula_sum "Si O2"
_cell_formula_units_Z 14
_cell_length_a 13.128648
_cell_length_b 17.641511
_cell_length_c 6.666593
_cell_angle_alpha 92.118908
_cell_angle_beta 88.070459
_cell_angle_gamma 159.990192
_cell_volume 527.978735
_symmetry_space_group_name_H-M "P -1"
_symmetry_group_IT_number 2
_symmetry_cell_setting 'triclinic'
loop_
_space_group_symop_operation_xyz
x,y,z
-x,-y,-z
loop_
_atom_site_type_symbol
_atom_site_label
_atom_site_fract_x
_atom_site_fract_y
_atom_site_fract_z
Si Si1 0.027231 0.318364 0.684621
Si Si2 0.149022 0.260232 0.225080
Si Si3 0.682478 0.958327 0.903754
Si Si4 0.144108 0.017709 0.445699
Si Si5 0.723876 0.439268 0.692636
Si Si6 0.779475 0.255094 0.998652
Si Si7 0.538681 0.639342 0.993780
O O1 0.120561 0.393409 0.456918
O O2 0.301548 0.479099 0.813420
O O3 0.765134 0.077356 0.735657
O O4 0.941799 0.339962 0.792924
O O5 0.180145 0.198684 0.116595
O O6 0.440040 0.509286 0.160724
O O7 0.085283 0.200224 0.453531
O O8 0.887795 0.115925 0.100075
O O9 0.779311 0.948766 0.785219
O O10 0.359649 0.758264 0.980754
O O11 0.465559 0.224968 0.547692
O O12 0.000000 0.000000 0.500000
O O13 0.004969 0.603583 0.810479
O O14 0.510835 0.320588 0.872498
O O15 0.500000 0.000000 0.000000
#
# Coordination Sequence:
#
# PCOD9007266 Si02
#       7
#     2   2   2   2   2   2   2
#     4   9  19  38  64  90 114 148 200 251 294 347
#     4  10  21  39  61  83 118 158 200 251 294 340
#     4  10  22  39  60  86 117 156 199 243 294 350
#     4  12  26  39  57  89 126 162 195 235 299 365
#     4  11  22  37  61  90 123 156 192 243 300 353
#     4   9  21  40  63  91 115 150 204 251 294 343
#     4   9  19  37  62  89 112 153 206 248 292 344
#
# _framework density 26.516221999999999
#
# number of rings (size 3 to 8) (size 9 to 14) (size 15 to 20)
#    0.000    2.000    0.000    3.429    0.000    8.571 
#    0.000    7.143    0.000    0.000    0.000    0.000 
#    0.000    0.000    0.000    0.000    0.000    0.000 
#
# Total GULP energy -78162.802299 kJ/mol
# GULP energy per Si atom -5583.057307 kJ/mol
# Density = 2.645587 g / cm^3
# Si number density = 26.516222 Si / 1000 Ang^3
#
#
#
# Elastic Constant Matrix: (Units=GPa)
#
#
# Indices 1 2 3 4 5 6 
#
# 1 99.3139 23.9328 34.8554 -14.5397 -19.8246 18.6155
# 2 23.9328 79.6529 27.3971 -4.0966 16.4210 13.9527
# 3 34.8554 27.3971 143.3851 -18.6734 5.0441 13.0183
# 4 -14.5397 -4.0966 -18.6734 52.6695 -6.3333 3.2930
# 5 -19.8246 16.4210 5.0441 -6.3333 39.9968 -12.9919
# 6 18.6155 13.9527 13.0183 3.2930 -12.9919 45.1790
#
#
#
# Elastic Compliance Matrix: (Units=1/GPa)
#
#
# Indices 1 2 3 4 5 6 
#
# 1 0.015093 -0.005417 -0.002333 0.004230 0.010269 -0.001229
# 2 -0.005417 0.018242 -0.001363 -0.001643 -0.012355 -0.006442
# 3 -0.002333 -0.001363 0.008291 0.002071 -0.001864 -0.001694
# 4 0.004230 -0.001643 0.002071 0.021516 0.005308 -0.001874
# 5 0.010269 -0.012355 -0.001864 0.005308 0.039879 0.011202
# 6 -0.001229 -0.006442 -0.001694 -0.001874 0.011202 0.028476
#
#
# Mechanical properties :
#
#
# Convention : Reuss Voigt Hill
#
# Bulk Modulus (GPa) = 42.73483 54.96918 48.85201
# Shear Modulus (GPa) = 31.74163 43.31348 37.52756
#
# Velocity S-wave (km/s) = 3.46362 4.04601 3.76609
# Velocity P-wave (km/s) = 5.66983 6.52704 6.11348
#
# Compressibility (1/GPa) = 0.02340011
#
# Stress axis : x y z
#
# Youngs Moduli (GPa) = 66.25753 54.81873 120.61456
#
# Poissons Ratio (x) = 0.29694 0.28136
# Poissons Ratio (y) = 0.35890 0.16442
# Poissons Ratio (z) = 0.15456 0.07473
#
# Static dielectric constant tensor:
#      x y z
#    x 2.291460 -0.105500 -0.066400 
#    y -0.105500 2.132510 0.010040 
#    z -0.066400 0.010040 2.008080 
# 
# From -- ./inp_files/90429.got.cif
#   From: 2010.05.17/outbox.cif.g08.bks.cpg/sg2_46_cif.got.tgz:90429.got - 2010.06.03 11:33:40.
