data_PCOD9007317
_publ_section_title
;
Structure prediction by ZEFSAII (Michael W. Deem and Ramdas Pophale) SiO2 
 PCOD9007317
Probable space group: P -1
;
_chemical_formula_sum "Si O2"
_cell_formula_units_Z 10
_cell_length_a 8.753076
_cell_length_b 5.477736
_cell_length_c 8.539646
_cell_angle_alpha 118.773199
_cell_angle_beta 89.809070
_cell_angle_gamma 84.041203
_cell_volume 356.289653
_symmetry_space_group_name_H-M "P -1"
_symmetry_group_IT_number 2
_symmetry_cell_setting 'triclinic'
loop_
_space_group_symop_operation_xyz
x,y,z
-x,-y,-z
loop_
_atom_site_type_symbol
_atom_site_label
_atom_site_fract_x
_atom_site_fract_y
_atom_site_fract_z
Si Si1 0.756989 0.339253 0.891367
Si Si2 0.620479 0.189609 0.134957
Si Si3 0.841629 0.484410 0.616177
Si Si4 0.066593 0.937463 0.744467
Si Si5 0.585601 0.848732 0.600170
O O1 0.750236 0.520126 0.790412
O O2 0.658834 0.094003 0.765960
O O3 0.676132 0.418329 0.082719
O O4 0.935655 0.198329 0.852037
O O5 0.784912 0.030317 0.142188
O O6 0.532463 0.279685 0.322880
O O7 0.500000 0.000000 0.000000
O O8 0.878061 0.160657 0.461879
O O9 0.739023 0.630752 0.521436
O O10 0.983664 0.660702 0.698344
O O11 0.500000 0.000000 0.500000
#
# Coordination Sequence:
#
# PCOD9007317 Si02
#       5
#     2   2   2   2   2
#     4  10  21  39  61  87 122 157 196 245 295 351
#     4  10  22  39  61  88 121 160 195 241 301 350
#     4  10  22  39  63  91 116 156 202 243 295 349
#     4  10  21  39  61  89 121 156 200 242 290 354
#     4  10  22  40  61  87 120 157 199 245 294 352
#
# _framework density 28.067052
#
# number of rings (size 3 to 8) (size 9 to 14) (size 15 to 20)
#    0.000    2.000    0.000    2.400    0.000    8.000 
#    0.000    8.000    0.000    0.000    0.000    0.000 
#    0.000    0.000    0.000    0.000    0.000    0.000 
#
# Total GULP energy -55878.186406 kJ/mol
# GULP energy per Si atom -5587.818641 kJ/mol
# Density = 2.800317 g / cm^3
# Si number density = 28.067052 Si / 1000 Ang^3
#
#
#
# Elastic Constant Matrix: (Units=GPa)
#
#
# Indices 1 2 3 4 5 6 
#
# 1 193.7639 63.9520 60.7307 -22.3896 12.4369 -25.8076
# 2 63.9520 88.0288 54.4572 -25.8839 -9.0299 -33.1461
# 3 60.7307 54.4572 130.3259 -13.8004 -19.8849 2.0218
# 4 -22.3896 -25.8839 -13.8004 44.7693 11.3998 7.8595
# 5 12.4369 -9.0299 -19.8849 11.3998 65.5477 -4.2901
# 6 -25.8076 -33.1461 2.0218 7.8595 -4.2901 52.4981
#
#
#
# Elastic Compliance Matrix: (Units=1/GPa)
#
#
# Indices 1 2 3 4 5 6 
#
# 1 0.007548 -0.003374 -0.002388 0.001595 -0.002820 0.001203
# 2 -0.003374 0.027835 -0.009201 0.008625 0.001170 0.015075
# 3 -0.002388 -0.009201 0.012981 -0.002068 0.003030 -0.006926
# 4 0.001595 0.008625 -0.002068 0.028348 -0.004561 0.001693
# 5 -0.002820 0.001170 0.003030 -0.004561 0.017754 0.001369
# 6 0.001203 0.015075 -0.006926 0.001693 0.001369 0.029283
#
#
# Mechanical properties :
#
#
# Convention : Reuss Voigt Hill
#
# Bulk Modulus (GPa) = 54.23021 85.59980 69.91501
# Shear Modulus (GPa) = 31.28481 48.09495 39.68988
#
# Velocity S-wave (km/s) = 3.34225 4.14402 3.76454
# Velocity P-wave (km/s) = 5.85302 7.31176 6.62267
#
# Compressibility (1/GPa) = 0.01843991
#
# Stress axis : x y z
#
# Youngs Moduli (GPa) = 132.47741 35.92550 77.03490
#
# Poissons Ratio (x) = 0.12121 0.18394
# Poissons Ratio (y) = 0.44697 0.70879
# Poissons Ratio (z) = 0.31632 0.33055
#
# Static dielectric constant tensor:
#      x y z
#    x 2.141880 -0.016010 -0.087750 
#    y -0.016010 2.333230 -0.033890 
#    z -0.087750 -0.033890 2.387240 
# 
# From -- ./inp_files/16552.got.cif
#   From: 2010.05.17/outbox.cif.g08.bks.cpg/sg2_9_cif.got.tgz:16552.got - 2010.06.03 11:33:40.
