data_PCOD9007477
_publ_section_title
;
Structure prediction by ZEFSAII (Michael W. Deem and Ramdas Pophale) SiO2 
 PCOD9007477
Probable space group: P -1
;
_chemical_formula_sum "Si O2"
_cell_formula_units_Z 16
_cell_length_a 11.328342
_cell_length_b 22.886220
_cell_length_c 11.962576
_cell_angle_alpha 26.325134
_cell_angle_beta 141.763123
_cell_angle_gamma 150.491948
_cell_volume 677.230406
_symmetry_space_group_name_H-M "P -1"
_symmetry_group_IT_number 2
_symmetry_cell_setting 'triclinic'
loop_
_space_group_symop_operation_xyz
x,y,z
-x,-y,-z
loop_
_atom_site_type_symbol
_atom_site_label
_atom_site_fract_x
_atom_site_fract_y
_atom_site_fract_z
Si Si1 0.430198 0.054591 0.582104
Si Si2 0.642858 0.505044 0.490046
Si Si3 0.938327 0.180441 0.665997
Si Si4 0.861232 0.957476 0.807712
Si Si5 0.068506 0.173501 0.299522
Si Si6 0.642337 0.816357 0.307946
Si Si7 0.805553 0.610318 0.191220
Si Si8 0.324206 0.740924 0.375001
O O1 0.184510 0.882842 0.738050
O O2 0.665102 0.068357 0.700087
O O3 0.349244 0.108205 0.323538
O O4 0.522487 0.183828 0.529396
O O5 0.500000 0.500000 0.500000
O O6 0.510206 0.315366 0.677549
O O7 0.661341 0.581189 0.248315
O O8 0.919150 0.625652 0.532583
O O9 0.906744 0.119075 0.620959
O O10 0.130643 0.151144 0.905445
O O11 0.105346 0.020579 0.819739
O O12 0.259267 0.244373 0.420130
O O13 0.186056 0.298677 0.069034
O O14 0.000000 0.000000 0.500000
O O15 0.479335 0.849752 0.196863
O O16 0.744323 0.436905 0.403357
O O17 0.082885 0.719848 0.246093
#
# Coordination Sequence:
#
# PCOD9007477 Si02
#       8
#     2   2   2   2   2   2   2   2
#     4  11  23  40  66  97 135 167 219 278 326 406
#     4  11  22  40  66  89 123 175 222 269 319 390
#     4  11  23  42  66  95 124 184 218 269 334 383
#     4  10  24  41  64  94 133 171 224 269 327 395
#     4  11  24  41  62 101 134 174 213 271 343 396
#     4  10  22  39  62  92 132 164 215 270 324 392
#     4  10  24  40  63  96 132 171 218 271 331 398
#     4  10  21  39  61  96 128 170 212 271 333 391
#
# _framework density 23.625636
#
# number of rings (size 3 to 8) (size 9 to 14) (size 15 to 20)
#    0.000    1.500    3.750    0.375    5.250    3.500 
#    0.000    0.000    0.000    0.750    0.000    0.000 
#    0.000    0.000    0.000    0.000    0.000    0.000 
#
# Total GULP energy -89201.617486 kJ/mol
# GULP energy per Si atom -5575.101093 kJ/mol
# Density = 2.357186 g / cm^3
# Si number density = 23.625636 Si / 1000 Ang^3
#
#
#
# Elastic Constant Matrix: (Units=GPa)
#
#
# Indices 1 2 3 4 5 6 
#
# 1 137.6845 41.6887 31.2225 2.2690 -15.7107 -3.3127
# 2 41.6887 135.7382 6.0245 22.5927 12.7944 -14.9159
# 3 31.2225 6.0245 53.4079 15.2405 -5.3388 1.5553
# 4 2.2690 22.5927 15.2405 29.0669 -0.9694 -1.2254
# 5 -15.7107 12.7944 -5.3388 -0.9694 29.7374 -4.8178
# 6 -3.3127 -14.9159 1.5553 -1.2254 -4.8178 59.4288
#
#
#
# Elastic Compliance Matrix: (Units=1/GPa)
#
#
# Indices 1 2 3 4 5 6 
#
# 1 0.011042 -0.004842 -0.007203 0.006920 0.006896 0.000291
# 2 -0.004842 0.011264 0.003842 -0.010547 -0.006785 0.001689
# 3 -0.007203 0.003842 0.027173 -0.016737 -0.001222 -0.000593
# 4 0.006920 -0.010547 -0.016737 0.051055 0.006818 -0.000218
# 5 0.006896 -0.006785 -0.001222 0.006818 0.040540 0.002141
# 6 0.000291 0.001689 -0.000593 -0.000218 0.002141 0.017452
#
#
# Mechanical properties :
#
#
# Convention : Reuss Voigt Hill
#
# Bulk Modulus (GPa) = 30.23540 53.85578 42.04559
# Shear Modulus (GPa) = 26.88822 40.17293 33.53057
#
# Velocity S-wave (km/s) = 3.37723 4.12806 3.77137
# Velocity P-wave (km/s) = 5.29462 6.75027 6.06627
#
# Compressibility (1/GPa) = 0.03307381
#
# Stress axis : x y z
#
# Youngs Moduli (GPa) = 90.56149 88.77717 36.80182
#
# Poissons Ratio (x) = 0.42982 0.26508
# Poissons Ratio (y) = 0.43846 -0.14139
# Poissons Ratio (z) = 0.65232 -0.34109
#
# Static dielectric constant tensor:
#      x y z
#    x 1.971230 0.033110 -0.040590 
#    y 0.033110 1.932610 -0.085870 
#    z -0.040590 -0.085870 2.062350 
# 
# From -- ./inp_files/439219.got.cif
#   From: 2010.05.17/outbox.cif.g08.bks.cpg/sg2_220_cif.got.tgz:439219.got - 2010.06.03 11:33:40.
