data_PCOD9007451
_publ_section_title
;
Structure prediction by ZEFSAII (Michael W. Deem and Ramdas Pophale) SiO2 
 PCOD9007451
Probable space group: P -1
;
_chemical_formula_sum "Si O2"
_cell_formula_units_Z 16
_cell_length_a 15.360866
_cell_length_b 7.615956
_cell_length_c 19.694218
_cell_angle_alpha 104.034273
_cell_angle_beta 160.787567
_cell_angle_gamma 74.028317
_cell_volume 727.812372
_symmetry_space_group_name_H-M "P -1"
_symmetry_group_IT_number 2
_symmetry_cell_setting 'triclinic'
loop_
_space_group_symop_operation_xyz
x,y,z
-x,-y,-z
loop_
_atom_site_type_symbol
_atom_site_label
_atom_site_fract_x
_atom_site_fract_y
_atom_site_fract_z
Si Si1 0.038211 0.369605 0.349116
Si Si2 0.295966 0.763405 0.365525
Si Si3 0.353667 0.969742 0.564710
Si Si4 0.088055 0.117254 0.669013
Si Si5 0.878814 0.592792 0.740304
Si Si6 0.184508 0.599421 0.595821
Si Si7 0.424048 0.718756 0.903358
Si Si8 0.077203 0.947690 0.974491
O O1 0.024272 0.434223 0.267904
O O2 0.210567 0.484893 0.535279
O O3 0.756706 0.360855 0.179803
O O4 0.188389 0.162613 0.438958
O O5 0.395618 0.845617 0.516806
O O6 0.564910 0.683295 0.516230
O O7 0.129159 0.598713 0.245080
O O8 0.115440 0.920544 0.205167
O O9 0.164787 0.880289 0.468382
O O10 0.619464 0.010820 0.802207
O O11 0.974968 0.203241 0.523272
O O12 0.257593 0.917531 0.781168
O O13 0.292573 0.249937 0.857340
O O14 0.037603 0.740101 0.907944
O O15 0.434109 0.615533 0.829056
O O16 0.000000 0.500000 0.500000
O O17 0.000000 0.000000 0.000000
#
# Coordination Sequence:
#
# PCOD9007451 Si02
#       8
#     2   2   2   2   2   2   2   2
#     4  10  21  42  64  93 133 173 217 274 326 389
#     4  11  24  45  71  98 137 171 218 271 333 388
#     4  11  23  44  65  97 133 173 220 271 328 392
#     4  10  21  41  65  92 128 169 222 272 322 395
#     4  11  23  45  71  99 135 175 217 274 327 393
#     4  10  21  39  61  94 127 168 219 275 326 385
#     4   9  21  41  66  88 126 175 219 269 335 379
#     4  12  24  44  70  97 133 180 215 271 331 391
#
# _framework density 21.983688999999998
#
# number of rings (size 3 to 8) (size 9 to 14) (size 15 to 20)
#    0.000    1.500    2.500    2.250    0.000    3.500 
#   18.000    0.000    0.000    0.000    0.000    0.000 
#    0.000    0.000    0.000    0.000    0.000    0.000 
#
# Total GULP energy -89462.665190 kJ/mol
# GULP energy per Si atom -5591.416574 kJ/mol
# Density = 2.193365 g / cm^3
# Si number density = 21.983689 Si / 1000 Ang^3
#
#
#
# Elastic Constant Matrix: (Units=GPa)
#
#
# Indices 1 2 3 4 5 6 
#
# 1 105.3249 47.4201 57.0908 19.9590 -15.1393 4.5995
# 2 47.4201 112.7477 19.6373 17.2190 -2.5951 11.3527
# 3 57.0908 19.6373 118.2878 27.5585 -3.0532 8.2006
# 4 19.9590 17.2190 27.5585 44.6826 -7.2821 -8.1528
# 5 -15.1393 -2.5951 -3.0532 -7.2821 30.4483 4.6638
# 6 4.5995 11.3527 8.2006 -8.1528 4.6638 37.9140
#
#
#
# Elastic Compliance Matrix: (Units=1/GPa)
#
#
# Indices 1 2 3 4 5 6 
#
# 1 0.016928 -0.005802 -0.007123 0.000318 0.007222 0.000404
# 2 -0.005802 0.011973 0.002052 -0.004359 -0.002088 -0.004006
# 3 -0.007123 0.002052 0.013376 -0.007059 -0.003135 -0.003776
# 4 0.000318 -0.004359 -0.007059 0.030699 0.005078 0.008770
# 5 0.007222 -0.002088 -0.003135 0.005078 0.037632 -0.003110
# 6 0.000404 -0.004006 -0.003776 0.008770 -0.003110 0.030611
#
#
# Mechanical properties :
#
#
# Convention : Reuss Voigt Hill
#
# Bulk Modulus (GPa) = 48.70446 64.96186 56.83316
# Shear Modulus (GPa) = 29.44492 36.75645 33.10069
#
# Velocity S-wave (km/s) = 3.66375 4.09343 3.88454
# Velocity P-wave (km/s) = 6.33248 7.20803 6.78440
#
# Compressibility (1/GPa) = 0.02053200
#
# Stress axis : x y z
#
# Youngs Moduli (GPa) = 59.07546 83.51960 74.75842
#
# Poissons Ratio (x) = 0.48459 0.53247
# Poissons Ratio (y) = 0.34276 -0.15340
# Poissons Ratio (z) = 0.42077 -0.17138
#
# Static dielectric constant tensor:
#      x y z
#    x 1.778720 -0.029940 0.017120 
#    y -0.029940 1.852300 0.004880 
#    z 0.017120 0.004880 1.794170 
# 
# From -- ./inp_files/572697.got.cif
#   From: 2010.05.17/outbox.cif.g08.bks.cpg/sg2_287_cif.got.tgz:572697.got - 2010.06.03 11:33:40.
