data_PCOD9007143
_publ_section_title
;
Structure prediction by ZEFSAII (Michael W. Deem and Ramdas Pophale) SiO2 
 PCOD9007143
Probable space group: P -1
;
_chemical_formula_sum "Si O2"
_cell_formula_units_Z 14
_cell_length_a 12.382624
_cell_length_b 14.513604
_cell_length_c 11.081771
_cell_angle_alpha 28.739660
_cell_angle_beta 131.822424
_cell_angle_gamma 146.182032
_cell_volume 518.633009
_symmetry_space_group_name_H-M "P -1"
_symmetry_group_IT_number 2
_symmetry_cell_setting 'triclinic'
loop_
_space_group_symop_operation_xyz
x,y,z
-x,-y,-z
loop_
_atom_site_type_symbol
_atom_site_label
_atom_site_fract_x
_atom_site_fract_y
_atom_site_fract_z
Si Si1 0.753730 0.150908 0.633592
Si Si2 0.865297 0.868886 0.668994
Si Si3 0.673164 0.224676 0.054632
Si Si4 0.966310 0.325737 0.354924
Si Si5 0.593248 0.380590 0.165799
Si Si6 0.466610 0.266035 0.582667
Si Si7 0.666947 0.809688 0.165030
O O1 0.933156 0.320606 0.477105
O O2 0.665125 0.285337 0.424950
O O3 0.579819 0.875723 0.748125
O O4 0.796025 0.064938 0.883288
O O5 0.659497 0.768848 0.581860
O O6 0.957743 0.094427 0.577375
O O7 0.794534 0.611941 0.974734
O O8 0.000000 0.000000 0.500000
O O9 0.782092 0.247408 0.228936
O O10 0.513315 0.935011 0.209577
O O11 0.559029 0.317640 0.884435
O O12 0.842240 0.406732 0.871150
O O13 0.500000 0.500000 0.000000
O O14 0.653409 0.574505 0.388974
O O15 0.329942 0.160051 0.723688
#
# Coordination Sequence:
#
# PCOD9007143 Si02
#       7
#     2   2   2   2   2   2   2
#     4  11  23  36  59  90 124 158 194 248 304 356
#     4  11  22  38  66  91 118 154 201 257 301 350
#     4  10  21  39  60  87 120 153 201 251 296 346
#     4  10  22  37  60  93 123 150 198 254 304 351
#     4  11  22  38  58  90 125 154 198 246 306 356
#     4  10  23  38  62  87 117 159 206 242 295 354
#     4  11  22  40  61  86 120 162 203 241 290 368
#
# _framework density 26.994040999999999
#
# number of rings (size 3 to 8) (size 9 to 14) (size 15 to 20)
#    0.000    1.429    2.857    3.000    8.000    0.000 
#    0.000    0.714    0.000    4.286    0.000    0.000 
#    0.000    0.000    0.000    0.000    0.000    0.000 
#
# Total GULP energy -78390.990683 kJ/mol
# GULP energy per Si atom -5599.356477 kJ/mol
# Density = 2.693260 g / cm^3
# Si number density = 26.994041 Si / 1000 Ang^3
#
#
#
# Elastic Constant Matrix: (Units=GPa)
#
#
# Indices 1 2 3 4 5 6 
#
# 1 110.6491 1.8690 53.1079 -8.8015 -16.5269 -19.9914
# 2 1.8690 83.1422 34.7297 1.4461 3.8779 -5.7836
# 3 53.1079 34.7297 163.8378 8.3523 -8.8220 -29.5264
# 4 -8.8015 1.4461 8.3523 42.4739 -21.9467 -5.1087
# 5 -16.5269 3.8779 -8.8220 -21.9467 67.0162 0.8410
# 6 -19.9914 -5.7836 -29.5264 -5.1087 0.8410 27.5827
#
#
#
# Elastic Compliance Matrix: (Units=1/GPa)
#
#
# Indices 1 2 3 4 5 6 
#
# 1 0.013196 0.001248 -0.003289 0.006743 0.004864 0.007406
# 2 0.001248 0.013417 -0.003249 0.000010 -0.000896 0.000269
# 3 -0.003289 -0.003249 0.009086 -0.001610 -0.000034 0.006363
# 4 0.006743 0.000010 -0.001610 0.032512 0.011987 0.008822
# 5 0.004864 -0.000896 -0.000034 0.011987 0.020033 0.004910
# 6 0.007406 0.000269 0.006363 0.008822 0.004910 0.049974
#
#
# Mechanical properties :
#
#
# Convention : Reuss Voigt Hill
#
# Bulk Modulus (GPa) = 39.81080 59.67136 49.74108
# Shear Modulus (GPa) = 31.81245 45.27605 38.54425
#
# Velocity S-wave (km/s) = 3.43665 4.09988 3.78283
# Velocity P-wave (km/s) = 5.52516 6.67573 6.12751
#
# Compressibility (1/GPa) = 0.02511881
#
# Stress axis : x y z
#
# Youngs Moduli (GPa) = 75.77925 74.53212 110.06461
#
# Poissons Ratio (x) = -0.09304 0.36205
# Poissons Ratio (y) = -0.09460 0.35760
# Poissons Ratio (z) = 0.24927 0.24215
#
# Static dielectric constant tensor:
#      x y z
#    x 2.115240 0.023930 -0.017900 
#    y 0.023930 2.059860 -0.012190 
#    z -0.017900 -0.012190 2.130330 
# 
# From -- ./inp_files/455410.got.cif
#   From: 2010.05.17/outbox.cif.g08.bks.cpg/sg2_228_cif.got.tgz:455410.got - 2010.06.03 11:33:40.
