data_PCOD9007429
_publ_section_title
;
Structure prediction by ZEFSAII (Michael W. Deem and Ramdas Pophale) SiO2 
 PCOD9007429
Probable space group: P -1
;
_chemical_formula_sum "Si O2"
_cell_formula_units_Z 13
_cell_length_a 7.990285
_cell_length_b 6.182156
_cell_length_c 12.483535
_cell_angle_alpha 75.823197
_cell_angle_beta 84.378521
_cell_angle_gamma 67.552635
_cell_volume 552.564091
_symmetry_space_group_name_H-M "P -1"
_symmetry_group_IT_number 2
_symmetry_cell_setting 'triclinic'
loop_
_space_group_symop_operation_xyz
x,y,z
-x,-y,-z
loop_
_atom_site_type_symbol
_atom_site_label
_atom_site_fract_x
_atom_site_fract_y
_atom_site_fract_z
Si Si1 0.678315 0.104316 0.281508
Si Si2 0.623876 0.558077 0.605926
Si Si3 0.386242 0.894817 0.237988
Si Si4 0.386149 0.457905 0.914828
Si Si5 0.902262 0.618539 0.760637
Si Si6 0.854868 0.603645 0.403912
Si Si7 0.000000 0.500000 0.000000
O O1 0.572531 0.257289 0.370782
O O2 0.704827 0.289909 0.173886
O O3 0.537171 0.999466 0.249781
O O4 0.841554 0.866607 0.335814
O O5 0.636969 0.288050 0.651519
O O6 0.759505 0.583718 0.688848
O O7 0.678585 0.617560 0.478803
O O8 0.470751 0.735934 0.147667
O O9 0.194743 0.115052 0.217341
O O10 0.500000 0.500000 0.000000
O O11 0.218802 0.392639 0.971395
O O12 0.080280 0.565950 0.682726
O O13 0.953268 0.453815 0.881842
O O14 0.000000 0.500000 0.500000
#
# Coordination Sequence:
#
# PCOD9007429 Si02
#       7
#     2   2   2   2   2   2   1
#     4  10  21  40  64  93 128 170 219 273 336 395
#     4   9  20  40  66  91 128 174 218 271 330 393
#     4  10  21  41  65  92 131 172 218 274 335 401
#     4  11  25  45  69  98 133 175 226 282 334 393
#     4  10  23  40  61  96 132 172 223 273 333 397
#     4  10  21  39  61  92 133 171 218 275 328 395
#     4  12  24  42  68  96 130 174 224 274 336 396
#
# _framework density 23.526681
#
# number of rings (size 3 to 8) (size 9 to 14) (size 15 to 20)
#    0.000    1.846    0.000    4.154    0.000    7.385 
#    0.000   12.308    0.000    0.000    0.000    0.000 
#    0.000    0.000    0.000    0.000    0.000    0.000 
#
# Total GULP energy -72404.294757 kJ/mol
# GULP energy per Si atom -5569.561135 kJ/mol
# Density = 2.347313 g / cm^3
# Si number density = 23.526681 Si / 1000 Ang^3
#
#
#
# Elastic Constant Matrix: (Units=GPa)
#
#
# Indices 1 2 3 4 5 6 
#
# 1 65.1407 16.4224 25.7735 4.6314 16.4440 -15.4043
# 2 16.4224 87.8475 36.3396 -9.6681 5.3672 -15.0162
# 3 25.7735 36.3396 137.7962 20.5990 2.3837 -12.9111
# 4 4.6314 -9.6681 20.5990 17.7591 -3.3129 1.2311
# 5 16.4440 5.3672 2.3837 -3.3129 34.4291 6.0430
# 6 -15.4043 -15.0162 -12.9111 1.2311 6.0430 33.4015
#
#
#
# Elastic Compliance Matrix: (Units=1/GPa)
#
#
# Indices 1 2 3 4 5 6 
#
# 1 0.023340 -0.002027 -0.001029 -0.009429 -0.013827 0.012304
# 2 -0.002027 0.016771 -0.006162 0.016501 -0.000275 0.003664
# 3 -0.001029 -0.006162 0.011898 -0.017310 -0.001432 0.002251
# 4 -0.009429 0.016501 -0.017310 0.091008 0.013541 -0.009425
# 5 -0.013827 -0.000275 -0.001432 0.013541 0.039680 -0.014732
# 6 0.012304 0.003664 0.002251 -0.009425 -0.014732 0.041143
#
#
# Mechanical properties :
#
#
# Convention : Reuss Voigt Hill
#
# Bulk Modulus (GPa) = 29.78718 49.76170 39.77444
# Shear Modulus (GPa) = 19.72628 31.26788 25.49708
#
# Velocity S-wave (km/s) = 2.89877 3.64955 3.29561
# Velocity P-wave (km/s) = 4.88797 6.24148 5.60573
#
# Compressibility (1/GPa) = 0.03357149
#
# Stress axis : x y z
#
# Youngs Moduli (GPa) = 42.84433 59.62839 84.04704
#
# Poissons Ratio (x) = 0.12087 0.08652
# Poissons Ratio (y) = 0.08685 0.51791
# Poissons Ratio (z) = 0.04411 0.36744
#
# Static dielectric constant tensor:
#      x y z
#    x 1.758690 -0.068960 -0.062900 
#    y -0.068960 1.890120 -0.034580 
#    z -0.062900 -0.034580 1.875170 
# 
# From -- ./inp_files/24367.got.cif
#   From: 2010.05.17/outbox.cif.g08.bks.cpg/sg2_13_cif.got.tgz:24367.got - 2010.06.03 11:33:40.
