data_PCOD9007310
_publ_section_title
;
Structure prediction by ZEFSAII (Michael W. Deem and Ramdas Pophale) SiO2 
 PCOD9007310
Probable space group: P -1
;
_chemical_formula_sum "Si O2"
_cell_formula_units_Z 16
_cell_length_a 22.461589
_cell_length_b 5.230203
_cell_length_c 4.954097
_cell_angle_alpha 77.636521
_cell_angle_beta 94.794688
_cell_angle_gamma 100.657754
_cell_volume 558.109673
_symmetry_space_group_name_H-M "P -1"
_symmetry_group_IT_number 2
_symmetry_cell_setting 'triclinic'
loop_
_space_group_symop_operation_xyz
x,y,z
-x,-y,-z
loop_
_atom_site_type_symbol
_atom_site_label
_atom_site_fract_x
_atom_site_fract_y
_atom_site_fract_z
Si Si1 0.075553 0.664165 0.660670
Si Si2 0.699622 0.694740 0.512822
Si Si3 0.951115 0.702260 0.766374
Si Si4 0.574712 0.804302 0.423057
Si Si5 0.324589 0.658925 0.910287
Si Si6 0.802235 0.217596 0.033631
Si Si7 0.550952 0.207727 0.790373
Si Si8 0.828309 0.817773 0.683117
O O1 0.062120 0.551680 0.381720
O O2 0.022105 0.809244 0.727711
O O3 0.061777 0.399538 0.911854
O O4 0.147598 0.755787 0.715078
O O5 0.646451 0.856578 0.379975
O O6 0.689023 0.605590 0.839911
O O7 0.769581 0.822167 0.471514
O O8 0.687061 0.436309 0.377937
O O9 0.899996 0.877344 0.632071
O O10 0.563814 0.496924 0.582036
O O11 0.521797 0.818304 0.178623
O O12 0.562223 0.990685 0.622943
O O13 0.269466 0.803191 0.944300
O O14 0.395650 0.759868 0.975216
O O15 0.818151 0.504668 0.825845
O O16 0.817475 0.991557 0.895360
#
# Coordination Sequence:
#
# PCOD9007310 Si02
#       8
#     2   2   2   2   2   2   2   2
#     4   9  18  35  58  85 117 153 194 240 291 347
#     4  10  21  39  61  87 119 155 197 243 294 350
#     4   9  18  35  58  85 117 153 194 240 291 347
#     4   9  18  35  58  85 117 153 194 240 291 347
#     4  10  21  39  61  87 119 155 197 243 294 350
#     4  10  21  39  61  87 119 155 197 243 294 350
#     4   9  18  35  58  85 117 153 194 240 291 347
#     4  10  21  39  61  87 119 155 197 243 294 350
#
# _framework density 28.668196999999999
#
# number of rings (size 3 to 8) (size 9 to 14) (size 15 to 20)
#    0.000    2.500    0.000    1.500    0.000    1.000 
#    0.000   35.000    0.000   27.000    0.000    0.000 
#    0.000    0.000    0.000    0.000    0.000    0.000 
#
# Total GULP energy -89671.579209 kJ/mol
# GULP energy per Si atom -5604.473701 kJ/mol
# Density = 2.860295 g / cm^3
# Si number density = 28.668197 Si / 1000 Ang^3
#
#
#
# Elastic Constant Matrix: (Units=GPa)
#
#
# Indices 1 2 3 4 5 6 
#
# 1 334.4836 32.5019 38.5522 -1.1294 5.6496 0.9977
# 2 32.5019 146.7339 22.9946 16.6399 53.6809 19.7909
# 3 38.5522 22.9946 86.9696 17.2879 36.6894 -3.7471
# 4 -1.1294 16.6399 17.2879 52.3992 -27.7212 13.5414
# 5 5.6496 53.6809 36.6894 -27.7212 101.5968 13.8218
# 6 0.9977 19.7909 -3.7471 13.5414 13.8218 88.0732
#
#
#
# Elastic Compliance Matrix: (Units=1/GPa)
#
#
# Indices 1 2 3 4 5 6 
#
# 1 0.003427 -0.001483 -0.002806 0.002973 0.002510 -0.000676
# 2 -0.001483 0.011506 0.004394 -0.011080 -0.010744 0.001008
# 3 -0.002806 0.004394 0.022303 -0.018700 -0.016055 0.005388
# 4 0.002973 -0.011080 -0.018700 0.045000 0.025991 -0.009337
# 5 0.002510 -0.010744 -0.016055 0.025991 0.029206 -0.006877
# 6 -0.000676 0.001008 0.005388 -0.009337 -0.006877 0.013879
#
#
# Mechanical properties :
#
#
# Convention : Reuss Voigt Hill
#
# Bulk Modulus (GPa) = 26.70523 84.03160 55.36842
# Shear Modulus (GPa) = 36.33899 80.02309 58.18104
#
# Velocity S-wave (km/s) = 3.56416 5.28906 4.50984
# Velocity P-wave (km/s) = 5.12573 8.16543 6.81716
#
# Compressibility (1/GPa) = 0.03744584
#
# Stress axis : x y z
#
# Youngs Moduli (GPa) = 291.81168 86.90849 44.83747
#
# Poissons Ratio (x) = 0.12893 0.12580
# Poissons Ratio (y) = 0.43289 -0.19701
# Poissons Ratio (z) = 0.81870 -0.38187
#
# Static dielectric constant tensor:
#      x y z
#    x 2.283810 0.166810 -0.035110 
#    y 0.166810 2.427840 -0.289230 
#    z -0.035110 -0.289230 2.194120 
# 
# From -- ./inp_files/121265.got.cif
#   From: 2010.05.17/outbox.cif.g08.bks.cpg/sg2_61_cif.got.tgz:121265.got - 2010.06.03 11:33:40.
