data_PCOD9007077
_publ_section_title
;
Structure prediction by ZEFSAII (Michael W. Deem and Ramdas Pophale) SiO2 
 PCOD9007077
Probable space group: P -1
;
_chemical_formula_sum "Si O2"
_cell_formula_units_Z 13
_cell_length_a 10.242871
_cell_length_b 17.580874
_cell_length_c 11.276204
_cell_angle_alpha 45.436066
_cell_angle_beta 73.537934
_cell_angle_gamma 33.512830
_cell_volume 512.633172
_symmetry_space_group_name_H-M "P -1"
_symmetry_group_IT_number 2
_symmetry_cell_setting 'triclinic'
loop_
_space_group_symop_operation_xyz
x,y,z
-x,-y,-z
loop_
_atom_site_type_symbol
_atom_site_label
_atom_site_fract_x
_atom_site_fract_y
_atom_site_fract_z
Si Si1 0.565767 0.794072 0.672192
Si Si2 0.500000 0.500000 0.500000
Si Si3 0.532506 0.589107 0.828312
Si Si4 0.681995 0.224708 0.936722
Si Si5 0.326914 0.800199 0.398653
Si Si6 0.633326 0.002391 0.759445
Si Si7 0.551090 0.843731 0.880164
O O1 0.501213 0.714013 0.785967
O O2 0.445081 0.937843 0.666741
O O3 0.363423 0.977857 0.404731
O O4 0.002831 0.490533 0.871745
O O5 0.374753 0.518370 0.630742
O O6 0.552503 0.562295 0.510024
O O7 0.291533 0.780663 0.562558
O O8 0.500000 0.500000 0.000000
O O9 0.940708 0.309997 0.974184
O O10 0.596273 0.163667 0.036805
O O11 0.000000 0.000000 0.000000
O O12 0.911858 0.104738 0.117544
O O13 0.505841 0.787832 0.374455
O O14 0.457394 0.013567 0.800526
#
# Coordination Sequence:
#
# PCOD9007077 Si02
#       7
#     2   1   2   2   2   2   2
#     4   9  21  36  59  93 128 173 201 249 319 379
#     4  10  22  42  60  90 118 158 216 262 308 360
#     4  10  22  35  59  97 132 163 204 256 313 381
#     4  10  23  41  65  92 118 165 216 267 314 362
#     4  10  22  39  64  90 127 162 210 263 314 371
#     4  10  21  39  59  93 128 165 205 251 318 381
#     4  10  21  39  61  89 130 164 212 254 312 385
#
# _framework density 25.359264
#
# number of rings (size 3 to 8) (size 9 to 14) (size 15 to 20)
#    0.000    2.154    0.000    1.385    6.462    3.692 
#    0.000    3.077    0.000   37.846    0.000    0.000 
#    0.000    0.000    0.000    0.000    0.000    0.000 
#
# Total GULP energy -72381.357288 kJ/mol
# GULP energy per Si atom -5567.796714 kJ/mol
# Density = 2.530154 g / cm^3
# Si number density = 25.359264 Si / 1000 Ang^3
#
#
#
# Elastic Constant Matrix: (Units=GPa)
#
#
# Indices 1 2 3 4 5 6 
#
# 1 264.8232 50.9735 51.4915 23.6681 -27.4806 21.6116
# 2 50.9735 50.2242 8.1852 5.4102 10.4126 7.1012
# 3 51.4915 8.1852 92.4493 29.7502 5.0535 -9.6007
# 4 23.6681 5.4102 29.7502 29.5472 0.6801 -6.1672
# 5 -27.4806 10.4126 5.0535 0.6801 36.9100 0.4266
# 6 21.6116 7.1012 -9.6007 -6.1672 0.4266 49.1025
#
#
#
# Elastic Compliance Matrix: (Units=1/GPa)
#
#
# Indices 1 2 3 4 5 6 
#
# 1 0.007203 -0.007820 -0.003576 -0.001551 0.008122 -0.003004
# 2 -0.007820 0.030746 0.003124 -0.002284 -0.014875 -0.000552
# 3 -0.003576 0.003124 0.018002 -0.015117 -0.005763 0.002793
# 4 -0.001551 -0.002284 -0.015117 0.051661 0.000555 0.004541
# 5 0.008122 -0.014875 -0.005763 0.000555 0.038148 -0.002812
# 6 -0.003004 -0.000552 0.002793 0.004541 -0.002812 0.022909
#
#
# Mechanical properties :
#
#
# Convention : Reuss Voigt Hill
#
# Bulk Modulus (GPa) = 25.37635 69.86634 47.62134
# Shear Modulus (GPa) = 25.20817 42.90171 34.05494
#
# Velocity S-wave (km/s) = 3.15626 4.11756 3.66853
# Velocity P-wave (km/s) = 4.82816 7.08634 6.06330
#
# Compressibility (1/GPa) = 0.03940677
#
# Stress axis : x y z
#
# Youngs Moduli (GPa) = 138.82485 32.52438 55.54984
#
# Poissons Ratio (x) = 0.25434 0.19867
# Poissons Ratio (y) = 1.08561 -0.17355
# Poissons Ratio (z) = 0.49650 -0.10161
#
# Static dielectric constant tensor:
#      x y z
#    x 1.999590 0.012200 -0.041080 
#    y 0.012200 1.976440 -0.016920 
#    z -0.041080 -0.016920 2.016410 
# 
# From -- ./inp_files/330853.got.cif
#   From: 2010.05.17/outbox.cif.g08.bks.cpg/sg2_166_cif.got.tgz:330853.got - 2010.06.03 11:33:40.
