data_PCOD9007524
_publ_section_title
;
Structure prediction by ZEFSAII (Michael W. Deem and Ramdas Pophale) SiO2 
 PCOD9007524
Probable space group: P -1
;
_chemical_formula_sum "Si O2"
_cell_formula_units_Z 13
_cell_length_a 12.716971
_cell_length_b 14.705616
_cell_length_c 8.872806
_cell_angle_alpha 129.849594
_cell_angle_beta 44.755157
_cell_angle_gamma 152.463091
_cell_volume 539.807621
_symmetry_space_group_name_H-M "P -1"
_symmetry_group_IT_number 2
_symmetry_cell_setting 'triclinic'
loop_
_space_group_symop_operation_xyz
x,y,z
-x,-y,-z
loop_
_atom_site_type_symbol
_atom_site_label
_atom_site_fract_x
_atom_site_fract_y
_atom_site_fract_z
Si Si1 0.024736 0.695733 0.584180
Si Si2 0.500000 0.500000 0.000000
Si Si3 0.371950 0.038377 0.361804
Si Si4 0.057130 0.614303 0.796950
Si Si5 0.082076 0.300026 0.744792
Si Si6 0.286632 0.316721 0.268523
Si Si7 0.162247 0.145654 0.739367
O O1 0.050203 0.681638 0.717388
O O2 0.000990 0.558116 0.370944
O O3 0.774909 0.617024 0.725533
O O4 0.243656 0.911940 0.515283
O O5 0.528028 0.432208 0.059419
O O6 0.706614 0.727516 0.109688
O O7 0.658364 0.191357 0.232874
O O8 0.345692 0.162862 0.503065
O O9 0.183047 0.867465 0.248936
O O10 0.893027 0.561878 0.044776
O O11 0.271511 0.378975 0.504266
O O12 0.093685 0.203403 0.752587
O O13 0.086707 0.088479 0.232685
#
# Coordination Sequence:
#
# PCOD9007524 Si02
#       7
#     2   1   2   2   2   2   2
#     4   9  21  38  59  88 123 158 199 251 296 348
#     4  12  22  36  64  88 114 162 204 240 300 362
#     4  10  21  39  62  86 119 162 202 243 296 363
#     4  11  20  37  62  89 121 159 203 245 296 359
#     4  10  22  40  62  90 127 159 195 255 308 349
#     4  10  22  41  61  88 124 160 201 251 301 358
#     4  10  22  42  62  89 124 155 199 254 303 356
#
# _framework density 24.082654000000002
#
# number of rings (size 3 to 8) (size 9 to 14) (size 15 to 20)
#    0.000    2.154    0.000    5.077    0.000    5.538 
#    0.000   10.769    0.000    2.769    0.000    0.000 
#    0.000    0.000    0.000    0.000    0.000    0.000 
#
# Total GULP energy -72460.761624 kJ/mol
# GULP energy per Si atom -5573.904740 kJ/mol
# Density = 2.402784 g / cm^3
# Si number density = 24.082654 Si / 1000 Ang^3
#
#
#
# Elastic Constant Matrix: (Units=GPa)
#
#
# Indices 1 2 3 4 5 6 
#
# 1 98.1236 18.1195 23.9476 4.1954 6.9366 8.3250
# 2 18.1195 84.5904 30.3102 -10.4161 11.6514 -0.7976
# 3 23.9476 30.3102 150.4580 12.1082 34.5377 -1.6316
# 4 4.1954 -10.4161 12.1082 34.3661 -2.8718 6.4741
# 5 6.9366 11.6514 34.5377 -2.8718 21.7424 8.3204
# 6 8.3250 -0.7976 -1.6316 6.4741 8.3204 33.3444
#
#
#
# Elastic Compliance Matrix: (Units=1/GPa)
#
#
# Indices 1 2 3 4 5 6 
#
# 1 0.011180 -0.002108 -0.001593 -0.000768 0.001163 -0.003061
# 2 -0.002108 0.014088 -0.002248 0.004990 -0.002836 0.000492
# 3 -0.001593 -0.002248 0.013979 -0.009233 -0.025197 0.009108
# 4 -0.000768 0.004990 -0.009233 0.038301 0.022329 -0.013149
# 5 0.001163 -0.002836 -0.025197 0.022329 0.102137 -0.031413
# 6 -0.003061 0.000492 0.009108 -0.013149 -0.031413 0.041603
#
#
# Mechanical properties :
#
#
# Convention : Reuss Voigt Hill
#
# Bulk Modulus (GPa) = 36.56438 53.10298 44.83368
# Shear Modulus (GPa) = 20.63547 35.27688 27.95618
#
# Velocity S-wave (km/s) = 2.93039 3.83146 3.41081
# Velocity P-wave (km/s) = 5.16386 6.45535 5.84538
#
# Compressibility (1/GPa) = 0.02734902
#
# Stress axis : x y z
#
# Youngs Moduli (GPa) = 89.44929 70.98136 71.53763
#
# Poissons Ratio (x) = 0.14959 0.11397
# Poissons Ratio (y) = 0.18852 0.16082
# Poissons Ratio (z) = 0.14251 0.15957
#
# Static dielectric constant tensor:
#      x y z
#    x 1.964880 0.052740 -0.016470 
#    y 0.052740 2.002880 -0.126270 
#    z -0.016470 -0.126270 2.056860 
# 
# From -- ./inp_files/265817.got.cif
#   From: 2010.05.17/outbox.cif.g08.bks.cpg/sg2_133_cif.got.tgz:265817.got - 2010.06.03 11:33:40.
