data_PCOD9007668
_publ_section_title
;
Structure prediction by ZEFSAII (Michael W. Deem and Ramdas Pophale) SiO2 
 PCOD9007668
Probable space group: P -1
;
_chemical_formula_sum "Si O2"
_cell_formula_units_Z 12
_cell_length_a 7.637761
_cell_length_b 10.611306
_cell_length_c 8.026863
_cell_angle_alpha 57.108706
_cell_angle_beta 118.863445
_cell_angle_gamma 97.792726
_cell_volume 471.269904
_symmetry_space_group_name_H-M "P -1"
_symmetry_group_IT_number 2
_symmetry_cell_setting 'triclinic'
loop_
_space_group_symop_operation_xyz
x,y,z
-x,-y,-z
loop_
_atom_site_type_symbol
_atom_site_label
_atom_site_fract_x
_atom_site_fract_y
_atom_site_fract_z
Si Si1 0.091152 0.812929 0.995739
Si Si2 0.565360 0.428808 0.807031
Si Si3 0.705413 0.964038 0.226704
Si Si4 0.858844 0.374511 0.534471
Si Si5 0.733733 0.727169 0.672294
Si Si6 0.375634 0.779337 0.717160
O O1 0.312587 0.714949 0.128448
O O2 0.050499 0.755578 0.200282
O O3 0.120598 0.983283 0.844560
O O4 0.926780 0.765304 0.830441
O O5 0.358320 0.527823 0.576952
O O6 0.718812 0.549656 0.801372
O O7 0.516410 0.352643 0.013926
O O8 0.692128 0.072835 0.307121
O O9 0.733150 0.796097 0.437533
O O10 0.500000 0.000000 0.000000
O O11 0.803072 0.292852 0.399042
O O12 0.000000 0.500000 0.500000
O O13 0.531018 0.804177 0.624883
#
# Coordination Sequence:
#
# PCOD9007668 Si02
#       6
#     2   2   2   2   2   2
#     4  11  23  39  60  93 126 163 207 254 308 369
#     4  10  21  39  62  91 126 164 206 258 304 358
#     4  11  24  43  63  87 124 169 209 255 310 365
#     4  11  21  38  65  97 125 161 205 255 311 370
#     4  11  21  40  64  92 126 165 207 255 307 370
#     4  10  22  41  63  92 125 160 206 259 307 364
#
# _framework density 25.463115999999999
#
# number of rings (size 3 to 8) (size 9 to 14) (size 15 to 20)
#    0.000    1.333    0.000    8.000    0.000    2.667 
#    0.000   10.000    0.000    0.000    0.000    0.000 
#    0.000    0.000    0.000    0.000    0.000    0.000 
#
# Total GULP energy -67200.845739 kJ/mol
# GULP energy per Si atom -5600.070478 kJ/mol
# Density = 2.540516 g / cm^3
# Si number density = 25.463116 Si / 1000 Ang^3
#
#
#
# Elastic Constant Matrix: (Units=GPa)
#
#
# Indices 1 2 3 4 5 6 
#
# 1 74.2126 53.2565 28.0487 -8.5196 -1.9764 20.9158
# 2 53.2565 134.7165 27.8470 -0.1052 0.3178 21.2114
# 3 28.0487 27.8470 145.4797 -3.1248 -18.0091 30.0387
# 4 -8.5196 -0.1052 -3.1248 50.9972 16.9206 0.6459
# 5 -1.9764 0.3178 -18.0091 16.9206 42.5972 -8.3435
# 6 20.9158 21.2114 30.0387 0.6459 -8.3435 61.4681
#
#
#
# Elastic Compliance Matrix: (Units=1/GPa)
#
#
# Indices 1 2 3 4 5 6 
#
# 1 0.020979 -0.007236 -0.002024 0.004169 -0.002269 -0.004004
# 2 -0.007236 0.010539 -0.000492 -0.001077 -0.000385 -0.000975
# 3 -0.002024 -0.000492 0.008308 -0.000866 0.003226 -0.002754
# 4 0.004169 -0.001077 -0.000866 0.023586 -0.009969 -0.002225
# 5 -0.002269 -0.000385 0.003226 -0.009969 0.029367 0.003419
# 6 -0.004004 -0.000975 -0.002754 -0.002225 0.003419 0.019801
#
#
# Mechanical properties :
#
#
# Convention : Reuss Voigt Hill
#
# Bulk Modulus (GPa) = 49.20802 63.63483 56.42142
# Shear Modulus (GPa) = 36.00784 47.36294 41.68539
#
# Velocity S-wave (km/s) = 3.76456 4.31752 4.05049
# Velocity P-wave (km/s) = 6.18571 7.06398 6.63939
#
# Compressibility (1/GPa) = 0.02032189
#
# Stress axis : x y z
#
# Youngs Moduli (GPa) = 47.66575 94.88699 120.36969
#
# Poissons Ratio (x) = 0.68662 0.24366
# Poissons Ratio (y) = 0.34492 0.05918
# Poissons Ratio (z) = 0.09649 0.04665
#
# Static dielectric constant tensor:
#      x y z
#    x 2.047040 -0.032670 -0.040360 
#    y -0.032670 1.980850 -0.014770 
#    z -0.040360 -0.014770 1.989260 
# 
# From -- ./inp_files/160150.got.cif
#   From: 2010.05.17/outbox.cif.g08.bks.cpg/sg2_81_cif.got.tgz:160150.got - 2010.06.03 11:33:40.
