data_PCOD9007936
_publ_section_title
;
Structure prediction by ZEFSAII (Michael W. Deem and Ramdas Pophale) SiO2 
 PCOD9007936
Probable space group: P -1
;
_chemical_formula_sum "Si O2"
_cell_formula_units_Z 16
_cell_length_a 16.758892
_cell_length_b 8.245449
_cell_length_c 12.440117
_cell_angle_alpha 74.655110
_cell_angle_beta 153.233096
_cell_angle_gamma 98.631293
_cell_volume 731.735166
_symmetry_space_group_name_H-M "P -1"
_symmetry_group_IT_number 2
_symmetry_cell_setting 'triclinic'
loop_
_space_group_symop_operation_xyz
x,y,z
-x,-y,-z
loop_
_atom_site_type_symbol
_atom_site_label
_atom_site_fract_x
_atom_site_fract_y
_atom_site_fract_z
Si Si1 0.282750 0.486735 0.584105
Si Si2 0.931248 0.178974 0.331320
Si Si3 0.341520 0.093282 0.500149
Si Si4 0.003717 0.288813 0.171735
Si Si5 0.543802 0.705533 0.776408
Si Si6 0.817119 0.585351 0.321526
Si Si7 0.669980 0.581356 0.718931
Si Si8 0.456355 0.844450 0.048893
O O1 0.382967 0.601986 0.613539
O O2 0.211499 0.559782 0.600686
O O3 0.426897 0.325891 0.831012
O O4 0.139724 0.407509 0.358669
O O5 0.919760 0.196679 0.185659
O O6 0.100140 0.270213 0.541924
O O7 0.732056 0.215756 0.138671
O O8 0.000000 0.000000 0.500000
O O9 0.346410 0.239625 0.393280
O O10 0.458770 0.123672 0.739659
O O11 0.130307 0.141890 0.278040
O O12 0.439331 0.904301 0.610519
O O13 0.839247 0.436584 0.908683
O O14 0.663201 0.629050 0.829828
O O15 0.666900 0.662016 0.039527
O O16 0.000000 0.500000 0.500000
O O17 0.500000 0.500000 0.500000
O O18 0.500000 0.000000 0.000000
#
# Coordination Sequence:
#
# PCOD9007936 Si02
#       8
#     2   2   2   2   2   2   2   2
#     4  10  21  39  63  91 127 171 210 258 327 394
#     4  11  21  36  61  94 128 165 207 257 316 384
#     4  11  24  41  65  98 128 164 218 278 323 375
#     4  10  22  43  67  93 124 169 220 262 319 398
#     4  12  24  42  64  96 133 169 216 275 328 380
#     4  11  23  37  60  94 132 170 210 259 320 386
#     4  12  25  46  69  88 123 176 223 268 326 396
#     4  11  21  40  65  94 129 170 215 259 317 395
#
# _framework density 21.865835000000001
#
# number of rings (size 3 to 8) (size 9 to 14) (size 15 to 20)
#    0.000    1.000    0.000   10.125    0.000    2.000 
#    0.000    5.000    0.000    0.000    0.000    0.000 
#    0.000    0.000    0.000    0.000    0.000    0.000 
#
# Total GULP energy -89106.010157 kJ/mol
# GULP energy per Si atom -5569.125635 kJ/mol
# Density = 2.181607 g / cm^3
# Si number density = 21.865835 Si / 1000 Ang^3
#
#
#
# Elastic Constant Matrix: (Units=GPa)
#
#
# Indices 1 2 3 4 5 6 
#
# 1 88.5874 2.0810 9.7747 8.1036 1.4988 18.0465
# 2 2.0810 48.9010 11.7691 -12.1636 -0.4280 15.7945
# 3 9.7747 11.7691 95.7673 -3.1018 21.4124 6.3521
# 4 8.1036 -12.1636 -3.1018 32.1547 4.8247 2.8347
# 5 1.4988 -0.4280 21.4124 4.8247 41.0442 -3.0487
# 6 18.0465 15.7945 6.3521 2.8347 -3.0487 39.8788
#
#
#
# Elastic Compliance Matrix: (Units=1/GPa)
#
#
# Indices 1 2 3 4 5 6 
#
# 1 0.012801 0.001005 -0.001117 -0.002435 -0.000022 -0.005842
# 2 0.001005 0.027514 -0.002155 0.011115 -0.000813 -0.011861
# 3 -0.001117 -0.002155 0.012485 0.001804 -0.006802 -0.001278
# 4 -0.002435 0.011115 0.001804 0.037528 -0.005644 -0.006686
# 5 -0.000022 -0.000813 -0.006802 -0.005644 0.028867 0.004023
# 6 -0.005842 -0.011861 -0.001278 -0.006686 0.004023 0.033404
#
#
# Mechanical properties :
#
#
# Convention : Reuss Voigt Hill
#
# Bulk Modulus (GPa) = 20.71870 31.16724 25.94297
# Shear Modulus (GPa) = 28.86479 36.59094 32.72786
#
# Velocity S-wave (km/s) = 3.63724 4.09520 3.87299
# Velocity P-wave (km/s) = 5.20916 6.05356 5.64716
#
# Compressibility (1/GPa) = 0.04826558
#
# Stress axis : x y z
#
# Youngs Moduli (GPa) = 78.11861 36.34524 80.09740
#
# Poissons Ratio (x) = -0.03652 0.08943
# Poissons Ratio (y) = -0.07849 0.17264
# Poissons Ratio (z) = 0.08722 0.07834
#
# Static dielectric constant tensor:
#      x y z
#    x -16.409970 4.088590 -5.862620 
#    y 4.088590 0.848020 1.303130 
#    z -5.862620 1.303130 -0.093270 
# 
# From -- ./inp_files/447267.got.cif
#   From: 2010.05.17/outbox.cif.g08.bks.cpg/sg2_224_cif.got.tgz:447267.got - 2010.06.03 11:33:40.
