data_PCOD9007348
_publ_section_title
;
Structure prediction by ZEFSAII (Michael W. Deem and Ramdas Pophale) SiO2 
 PCOD9007348
Probable space group: P -1
;
_chemical_formula_sum "Si O2"
_cell_formula_units_Z 16
_cell_length_a 11.914237
_cell_length_b 5.994673
_cell_length_c 26.132151
_cell_angle_alpha 49.908434
_cell_angle_beta 26.857800
_cell_angle_gamma 52.083135
_cell_volume 640.733927
_symmetry_space_group_name_H-M "P -1"
_symmetry_group_IT_number 2
_symmetry_cell_setting 'triclinic'
loop_
_space_group_symop_operation_xyz
x,y,z
-x,-y,-z
loop_
_atom_site_type_symbol
_atom_site_label
_atom_site_fract_x
_atom_site_fract_y
_atom_site_fract_z
Si Si1 0.515301 0.974551 0.437137
Si Si2 0.750976 0.177172 0.170268
Si Si3 0.734218 0.279146 0.801750
Si Si4 0.034315 0.781268 0.821175
Si Si5 0.726860 0.177730 0.595621
Si Si6 0.750633 0.314119 0.037393
Si Si7 0.822983 0.391386 0.421670
Si Si8 0.430309 0.791863 0.229804
O O1 0.693842 0.665990 0.400982
O O2 0.263447 0.906847 0.521641
O O3 0.500000 0.000000 0.500000
O O4 0.679055 0.215103 0.313648
O O5 0.956328 0.103063 0.141303
O O6 0.851065 0.199840 0.068819
O O7 0.623918 0.501743 0.187715
O O8 0.516609 0.987512 0.293223
O O9 0.451813 0.397365 0.913345
O O10 0.748082 0.201348 0.747803
O O11 0.889267 0.558444 0.704702
O O12 0.857307 0.005024 0.825016
O O13 0.956076 0.453920 0.900088
O O14 0.731681 0.420611 0.513391
O O15 0.702367 0.235102 0.657501
O O16 0.000000 0.000000 0.500000
O O17 0.588728 0.067145 0.120315
#
# Coordination Sequence:
#
# PCOD9007348 Si02
#       8
#     2   2   2   2   2   2   2   2
#     4  10  23  40  60  91 129 159 198 257 317 376
#     4  10  22  41  62  95 127 162 215 267 319 374
#     4  10  23  42  65  94 127 168 214 266 317 377
#     4  11  22  41  67  94 126 169 211 263 329 372
#     4  11  22  37  65  90 123 172 214 255 313 377
#     4  10  22  43  66  90 127 169 216 265 316 379
#     4  10  21  39  61  89 122 161 207 251 313 375
#     4  10  23  41  60  94 129 166 220 259 313 379
#
# _framework density 24.971366
#
# number of rings (size 3 to 8) (size 9 to 14) (size 15 to 20)
#    0.000    1.750    1.250    3.000    1.750    7.000 
#    0.000   11.250    0.000    0.000    0.000    0.000 
#    0.000    0.000    0.000    0.000    0.000    0.000 
#
# Total GULP energy -89532.524068 kJ/mol
# GULP energy per Si atom -5595.782754 kJ/mol
# Density = 2.491453 g / cm^3
# Si number density = 24.971366 Si / 1000 Ang^3
#
#
#
# Elastic Constant Matrix: (Units=GPa)
#
#
# Indices 1 2 3 4 5 6 
#
# 1 169.9408 31.3535 40.4450 -10.7831 -1.1149 -4.8504
# 2 31.3535 56.2397 26.8150 -1.2619 8.4493 -5.0853
# 3 40.4450 26.8150 166.1670 -22.3818 1.7065 5.9009
# 4 -10.7831 -1.2619 -22.3818 27.6056 -9.5557 6.8592
# 5 -1.1149 8.4493 1.7065 -9.5557 31.8467 -3.7116
# 6 -4.8504 -5.0853 5.9009 6.8592 -3.7116 39.3960
#
#
#
# Elastic Compliance Matrix: (Units=1/GPa)
#
#
# Indices 1 2 3 4 5 6 
#
# 1 0.006940 -0.003735 -0.000769 0.002577 0.002076 0.000234
# 2 -0.003735 0.023002 -0.003801 -0.007054 -0.007729 0.003578
# 3 -0.000769 -0.003801 0.007904 0.007497 0.002476 -0.002841
# 4 0.002577 -0.007054 0.007497 0.050676 0.015710 -0.009059
# 5 0.002076 -0.007729 0.002476 0.015710 0.038074 -0.000261
# 6 0.000234 0.003578 -0.002841 -0.009059 -0.000261 0.027852
#
#
# Mechanical properties :
#
#
# Convention : Reuss Voigt Hill
#
# Bulk Modulus (GPa) = 47.08896 65.50829 56.29862
# Shear Modulus (GPa) = 28.06812 39.35192 33.71002
#
# Velocity S-wave (km/s) = 3.35627 3.97404 3.67815
# Velocity P-wave (km/s) = 5.82387 6.88097 6.37437
#
# Compressibility (1/GPa) = 0.02123640
#
# Stress axis : x y z
#
# Youngs Moduli (GPa) = 144.08328 43.47425 126.52117
#
# Poissons Ratio (x) = 0.16240 0.09730
# Poissons Ratio (y) = 0.53822 0.48084
# Poissons Ratio (z) = 0.11080 0.16522
#
# Static dielectric constant tensor:
#      x y z
#    x 1.980570 -0.014150 -0.003330 
#    y -0.014150 2.018710 0.002020 
#    z -0.003330 0.002020 1.982430 
# 
# From -- ./inp_files/364034.got.cif
#   From: 2010.05.17/outbox.cif.g08.bks.cpg/sg2_183_cif.got.tgz:364034.got - 2010.06.03 11:33:40.
