data_PCOD9007723
_publ_section_title
;
Structure prediction by ZEFSAII (Michael W. Deem and Ramdas Pophale) SiO2 
 PCOD9007723
Probable space group: P -1
;
_chemical_formula_sum "Si O2"
_cell_formula_units_Z 16
_cell_length_a 5.007381
_cell_length_b 26.760672
_cell_length_c 12.433201
_cell_angle_alpha 150.270065
_cell_angle_beta 69.523258
_cell_angle_gamma 122.395459
_cell_volume 670.613492
_symmetry_space_group_name_H-M "P -1"
_symmetry_group_IT_number 2
_symmetry_cell_setting 'triclinic'
loop_
_space_group_symop_operation_xyz
x,y,z
-x,-y,-z
loop_
_atom_site_type_symbol
_atom_site_label
_atom_site_fract_x
_atom_site_fract_y
_atom_site_fract_z
Si Si1 0.615384 0.341982 0.032894
Si Si2 0.380144 0.495005 0.232412
Si Si3 0.149006 0.302636 0.579303
Si Si4 0.390157 0.581051 0.607133
Si Si5 0.187194 0.823737 0.405606
Si Si6 0.504990 0.162357 0.274312
Si Si7 0.744549 0.020369 0.844377
Si Si8 0.846462 0.013389 0.437196
O O1 0.420701 0.391409 0.084861
O O2 0.520040 0.321100 0.133735
O O3 0.998077 0.445021 0.168935
O O4 0.617675 0.230923 0.780753
O O5 0.609588 0.563373 0.229297
O O6 0.508829 0.595055 0.494903
O O7 0.302810 0.221845 0.371987
O O8 0.073020 0.273531 0.660709
O O9 0.804758 0.256174 0.479960
O O10 0.500000 0.500000 0.500000
O O11 0.000000 0.500000 0.500000
O O12 0.443267 0.932502 0.645136
O O13 0.017868 0.865961 0.422172
O O14 0.280933 0.054230 0.184143
O O15 0.661348 0.117601 0.078421
O O16 0.073263 0.057443 0.797804
O O17 0.500000 0.000000 0.500000
O O18 0.000000 0.000000 0.500000
#
# Coordination Sequence:
#
# PCOD9007723 Si02
#       8
#     2   2   2   2   2   2   2   2
#     4  10  22  38  64  90 127 174 211 252 327 378
#     4  10  21  39  62  93 127 163 217 272 304 375
#     4  11  23  40  64  98 132 168 221 269 323 379
#     4   8  16  35  56  76 111 157 203 255 303 352
#     4  11  25  42  67  94 134 174 214 263 330 398
#     4  10  23  40  69  92 126 175 214 268 329 388
#     4  10  23  44  68  93 129 169 221 265 332 383
#     4  12  25  44  66  90 132 170 213 271 324 388
#
# _framework density 23.858751000000002
#
# number of rings (size 3 to 8) (size 9 to 14) (size 15 to 20)
#    0.000    1.750    2.500    0.750    3.500    2.500 
#    4.500    0.000    0.000    0.000    0.000    0.000 
#    0.000    0.000    0.000    0.000    0.000    0.000 
#
# Total GULP energy -89387.704390 kJ/mol
# GULP energy per Si atom -5586.731524 kJ/mol
# Density = 2.380445 g / cm^3
# Si number density = 23.858751 Si / 1000 Ang^3
#
#
#
# Elastic Constant Matrix: (Units=GPa)
#
#
# Indices 1 2 3 4 5 6 
#
# 1 110.0224 20.9070 1.0924 -8.5804 -12.3959 -4.5890
# 2 20.9070 104.1764 27.7470 -15.4016 5.1483 -6.1377
# 3 1.0924 27.7470 82.4092 -26.0616 -16.5999 -2.0202
# 4 -8.5804 -15.4016 -26.0616 32.9261 11.7637 -4.2274
# 5 -12.3959 5.1483 -16.5999 11.7637 28.4094 -3.0045
# 6 -4.5890 -6.1377 -2.0202 -4.2274 -3.0045 31.7568
#
#
#
# Elastic Compliance Matrix: (Units=1/GPa)
#
#
# Indices 1 2 3 4 5 6 
#
# 1 0.010475 -0.002746 0.002549 0.001519 0.006132 0.001928
# 2 -0.002746 0.012438 -0.004147 0.004775 -0.007678 0.001652
# 3 0.002549 -0.004147 0.018747 0.010865 0.008639 0.003023
# 4 0.001519 0.004775 0.010865 0.046979 -0.012578 0.006897
# 5 0.006132 -0.007678 0.008639 -0.012578 0.049839 0.002993
# 6 0.001928 0.001652 0.003023 0.006897 0.002993 0.033481
#
#
# Mechanical properties :
#
#
# Convention : Reuss Voigt Hill
#
# Bulk Modulus (GPa) = 30.32979 44.01120 37.17050
# Shear Modulus (GPa) = 26.09074 35.07590 30.58332
#
# Velocity S-wave (km/s) = 3.31047 3.83841 3.58418
# Velocity P-wave (km/s) = 5.22993 6.17504 5.72203
#
# Compressibility (1/GPa) = 0.03297089
#
# Stress axis : x y z
#
# Youngs Moduli (GPa) = 95.46221 80.40197 53.34075
#
# Poissons Ratio (x) = 0.22078 -0.13595
# Poissons Ratio (y) = 0.26214 0.22122
# Poissons Ratio (z) = -0.24330 0.33345
#
# Static dielectric constant tensor:
#      x y z
#    x 1.879720 0.054200 0.019400 
#    y 0.054200 1.929630 -0.050360 
#    z 0.019400 -0.050360 1.999960 
# 
# From -- ./inp_files/371345.got.cif
#   From: 2010.05.17/outbox.cif.g08.bks.cpg/sg2_186_cif.got.tgz:371345.got - 2010.06.03 11:33:40.
