data_PCOD9007839
_publ_section_title
;
Structure prediction by ZEFSAII (Michael W. Deem and Ramdas Pophale) SiO2 
 PCOD9007839
Probable space group: P -1
;
_chemical_formula_sum "Si O2"
_cell_formula_units_Z 14
_cell_length_a 6.240023
_cell_length_b 24.477476
_cell_length_c 12.226499
_cell_angle_alpha 152.960913
_cell_angle_beta 113.071268
_cell_angle_gamma 52.151347
_cell_volume 604.971577
_symmetry_space_group_name_H-M "P -1"
_symmetry_group_IT_number 2
_symmetry_cell_setting 'triclinic'
loop_
_space_group_symop_operation_xyz
x,y,z
-x,-y,-z
loop_
_atom_site_type_symbol
_atom_site_label
_atom_site_fract_x
_atom_site_fract_y
_atom_site_fract_z
Si Si1 0.039727 0.195262 0.185438
Si Si2 0.821693 0.228361 0.648362
Si Si3 0.063561 0.384245 0.902694
Si Si4 0.585243 0.306567 0.986227
Si Si5 0.008788 0.638753 0.739732
Si Si6 0.643419 0.129176 0.894170
Si Si7 0.584500 0.840645 0.608699
O O1 0.989514 0.315757 0.302763
O O2 0.141192 0.214568 0.356072
O O3 0.768696 0.187712 0.110406
O O4 0.330739 0.024289 0.897157
O O5 0.824303 0.368458 0.872162
O O6 0.736150 0.240573 0.780316
O O7 0.584034 0.231377 0.531912
O O8 0.135620 0.055772 0.388955
O O9 0.234482 0.398953 0.058213
O O10 0.291662 0.217350 0.590823
O O11 0.000000 0.500000 0.000000
O O12 0.676066 0.183339 0.879288
O O13 0.697726 0.398608 0.213598
O O14 0.000000 0.500000 0.500000
O O15 0.702885 0.786174 0.999084
#
# Coordination Sequence:
#
# PCOD9007839 Si02
#       7
#     2   2   2   2   2   2   2
#     4   9  20  38  59  85 116 151 196 242 281 335
#     4  10  21  39  63  88 116 153 195 241 292 341
#     4  11  24  38  58  86 119 155 191 235 291 349
#     4  10  23  40  60  88 117 148 196 246 287 340
#     4  11  24  38  58  86 119 155 191 235 291 349
#     4  10  21  39  63  88 116 153 195 241 292 341
#     4   9  20  38  59  85 116 151 196 242 281 335
#
# _framework density 23.141582
#
# number of rings (size 3 to 8) (size 9 to 14) (size 15 to 20)
#    0.000    2.000    0.000    2.143    0.000   14.857 
#    0.000    4.286    0.000    0.000    0.000    0.000 
#    0.000    0.000    0.000    0.000    0.000    0.000 
#
# Total GULP energy -78214.214733 kJ/mol
# GULP energy per Si atom -5586.729624 kJ/mol
# Density = 2.308891 g / cm^3
# Si number density = 23.141582 Si / 1000 Ang^3
#
#
#
# Elastic Constant Matrix: (Units=GPa)
#
#
# Indices 1 2 3 4 5 6 
#
# 1 86.9485 44.9266 36.3976 -0.9677 29.9189 -2.6465
# 2 44.9266 100.9593 37.4043 -13.4478 48.0666 -24.4204
# 3 36.3976 37.4043 80.0466 0.5776 29.0787 -2.8721
# 4 -0.9677 -13.4478 0.5776 30.2557 3.1943 7.2852
# 5 29.9189 48.0666 29.0787 3.1943 49.1091 -1.9996
# 6 -2.6465 -24.4204 -2.8721 7.2852 -1.9996 28.9067
#
#
#
# Elastic Compliance Matrix: (Units=1/GPa)
#
#
# Indices 1 2 3 4 5 6 
#
# 1 0.017003 -0.006169 -0.004304 -0.000963 -0.001871 -0.003970
# 2 -0.006169 0.034067 -0.002139 0.012444 -0.028195 0.022916
# 3 -0.004304 -0.002139 0.017468 -0.000664 -0.005613 -0.000686
# 4 -0.000963 0.012444 -0.000664 0.040202 -0.013845 -0.000731
# 5 -0.001871 -0.028195 -0.005613 -0.013845 0.052614 -0.017419
# 6 -0.003970 0.022916 -0.000686 -0.000731 -0.017419 0.052501
#
#
# Mechanical properties :
#
#
# Convention : Reuss Voigt Hill
#
# Bulk Modulus (GPa) = 23.08763 56.15681 39.62222
# Shear Modulus (GPa) = 19.72251 31.60269 25.66260
#
# Velocity S-wave (km/s) = 2.92251 3.69944 3.33369
# Velocity P-wave (km/s) = 4.62454 6.52435 5.65480
#
# Compressibility (1/GPa) = 0.04331325
#
# Stress axis : x y z
#
# Youngs Moduli (GPa) = 58.81400 29.35404 57.24634
#
# Poissons Ratio (x) = 0.18109 0.24641
# Poissons Ratio (y) = 0.36284 0.12243
# Poissons Ratio (z) = 0.25316 0.06278
#
# Static dielectric constant tensor:
#      x y z
#    x 1.918540 -0.045400 -0.007060 
#    y -0.045400 1.838460 0.010570 
#    z -0.007060 0.010570 1.881320 
# 
# From -- ./inp_files/63365.got.cif
#   From: 2010.05.17/outbox.cif.g08.bks.cpg/sg2_32_cif.got.tgz:63365.got - 2010.06.03 11:33:40.
