data_PCOD9007390
_publ_section_title
;
Structure prediction by ZEFSAII (Michael W. Deem and Ramdas Pophale) SiO2 
 PCOD9007390
Probable space group: P -1
;
_chemical_formula_sum "Si O2"
_cell_formula_units_Z 16
_cell_length_a 12.267794
_cell_length_b 10.912546
_cell_length_c 11.452267
_cell_angle_alpha 49.358974
_cell_angle_beta 133.566915
_cell_angle_gamma 121.837665
_cell_volume 834.272249
_symmetry_space_group_name_H-M "P -1"
_symmetry_group_IT_number 2
_symmetry_cell_setting 'triclinic'
loop_
_space_group_symop_operation_xyz
x,y,z
-x,-y,-z
loop_
_atom_site_type_symbol
_atom_site_label
_atom_site_fract_x
_atom_site_fract_y
_atom_site_fract_z
Si Si1 0.195775 0.839175 0.044724
Si Si2 0.282117 0.202728 0.321443
Si Si3 0.433190 0.640128 0.436597
Si Si4 0.998672 0.014393 0.627622
Si Si5 0.077741 0.626729 0.628519
Si Si6 0.787933 0.371585 0.506529
Si Si7 0.821790 0.010253 0.837087
Si Si8 0.924827 0.555179 0.027512
O O1 0.327352 0.726537 0.216174
O O2 0.243782 0.978828 0.089191
O O3 0.046129 0.714076 0.055217
O O4 0.138130 0.932182 0.834613
O O5 0.435671 0.227970 0.492211
O O6 0.267879 0.123429 0.231230
O O7 0.229996 0.379245 0.159003
O O8 0.151703 0.092262 0.366051
O O9 0.500000 0.500000 0.500000
O O10 0.333770 0.583016 0.515737
O O11 0.985466 0.200665 0.535920
O O12 0.000000 0.000000 0.500000
O O13 0.942452 0.486174 0.581032
O O14 0.216143 0.617930 0.644800
O O15 0.104589 0.582271 0.810443
O O16 0.804646 0.184023 0.659980
O O17 0.000000 0.000000 0.000000
O O18 0.000000 0.500000 0.000000
#
# Coordination Sequence:
#
# PCOD9007390 Si02
#       8
#     2   2   2   2   2   2   2   2
#     4  10  21  39  61  91 120 171 214 257 310 377
#     4  11  23  38  64  93 124 170 209 265 312 377
#     4  11  24  42  65  91 131 172 218 252 320 402
#     4  11  23  37  64  97 128 160 217 270 320 367
#     4  11  19  38  63  92 128 155 211 271 317 362
#     4  10  22  35  61  93 120 167 206 261 320 367
#     4  11  16  37  61  92 122 151 218 262 310 370
#     4  11  20  35  63  92 121 165 220 257 303 371
#
# _framework density 19.178391000000001
#
# number of rings (size 3 to 8) (size 9 to 14) (size 15 to 20)
#    0.000    1.250    6.250    2.250    1.750    3.000 
#    0.000    1.250    2.750    0.000    0.000    0.000 
#    0.000    0.000    0.000    0.000    0.000    0.000 
#
# Total GULP energy -89092.822829 kJ/mol
# GULP energy per Si atom -5568.301427 kJ/mol
# Density = 1.913474 g / cm^3
# Si number density = 19.178391 Si / 1000 Ang^3
#
#
#
# Elastic Constant Matrix: (Units=GPa)
#
#
# Indices 1 2 3 4 5 6 
#
# 1 108.6610 23.7141 47.2496 -9.5963 -21.8072 -30.1106
# 2 23.7141 57.7347 22.4351 2.3983 -4.8813 -14.5224
# 3 47.2496 22.4351 117.9856 -11.3338 -16.6162 1.1747
# 4 -9.5963 2.3983 -11.3338 28.5881 -3.3482 1.1471
# 5 -21.8072 -4.8813 -16.6162 -3.3482 36.2864 2.6552
# 6 -30.1106 -14.5224 1.1747 1.1471 2.6552 30.7149
#
#
#
# Elastic Compliance Matrix: (Units=1/GPa)
#
#
# Indices 1 2 3 4 5 6 
#
# 1 0.018679 -0.000407 -0.006141 0.004037 0.007446 0.017559
# 2 -0.000407 0.022032 -0.004621 -0.004299 -0.000555 0.010403
# 3 -0.006141 -0.004621 0.012641 0.003995 0.002507 -0.009055
# 4 0.004037 -0.004299 0.003995 0.039148 0.007313 -0.000322
# 5 0.007446 -0.000555 0.002507 0.007313 0.033506 0.003772
# 6 0.017559 0.010403 -0.009055 -0.000322 0.003772 0.054722
#
#
# Mechanical properties :
#
#
# Convention : Reuss Voigt Hill
#
# Bulk Modulus (GPa) = 32.24502 52.35323 42.29913
# Shear Modulus (GPa) = 23.42969 31.85005 27.63987
#
# Velocity S-wave (km/s) = 3.49903 4.07962 3.80043
# Velocity P-wave (km/s) = 5.75969 7.03906 6.43127
#
# Compressibility (1/GPa) = 0.03101254
#
# Stress axis : x y z
#
# Youngs Moduli (GPa) = 53.53642 45.38851 79.10963
#
# Poissons Ratio (x) = 0.01848 0.48583
# Poissons Ratio (y) = 0.02180 0.36557
# Poissons Ratio (z) = 0.32878 0.20975
#
# Static dielectric constant tensor:
#      x y z
#    x 1.882540 -0.095470 0.105340 
#    y -0.095470 1.715260 -0.025690 
#    z 0.105340 -0.025690 1.836340 
# 
# From -- ./inp_files/425342.got.cif
#   From: 2010.05.17/outbox.cif.g08.bks.cpg/sg2_213_cif.got.tgz:425342.got - 2010.06.03 11:33:40.
