data_PCOD9007584
_publ_section_title
;
Structure prediction by ZEFSAII (Michael W. Deem and Ramdas Pophale) SiO2 
 PCOD9007584
Probable space group: P -1
;
_chemical_formula_sum "Si O2"
_cell_formula_units_Z 16
_cell_length_a 16.219495
_cell_length_b 6.912246
_cell_length_c 14.669862
_cell_angle_alpha 78.167142
_cell_angle_beta 154.234049
_cell_angle_gamma 93.933445
_cell_volume 673.201037
_symmetry_space_group_name_H-M "P -1"
_symmetry_group_IT_number 2
_symmetry_cell_setting 'triclinic'
loop_
_space_group_symop_operation_xyz
x,y,z
-x,-y,-z
loop_
_atom_site_type_symbol
_atom_site_label
_atom_site_fract_x
_atom_site_fract_y
_atom_site_fract_z
Si Si1 0.138578 0.037279 0.271256
Si Si2 0.312377 0.044347 0.741943
Si Si3 0.982328 0.390468 0.196395
Si Si4 0.398498 0.370861 0.654189
Si Si5 0.419930 0.001958 0.225709
Si Si6 0.115313 0.219809 0.037696
Si Si7 0.531452 0.671718 0.887333
Si Si8 0.075041 0.618973 0.644113
O O1 0.006187 0.159262 0.210036
O O2 0.110856 0.193215 0.143220
O O3 0.360671 0.988447 0.531180
O O4 0.068110 0.847020 0.182876
O O5 0.354473 0.215028 0.700523
O O6 0.091733 0.155305 0.548614
O O7 0.351953 0.826916 0.749231
O O8 0.500000 0.000000 0.000000
O O9 0.199291 0.423328 0.393925
O O10 0.939195 0.422320 0.257177
O O11 0.853150 0.567906 0.987642
O O12 0.448299 0.555469 0.736767
O O13 0.568651 0.223907 0.778342
O O14 0.294615 0.050551 0.186851
O O15 0.359399 0.171061 0.067877
O O16 0.685915 0.488680 0.114157
O O17 0.000000 0.500000 0.500000
#
# Coordination Sequence:
#
# PCOD9007584 Si02
#       8
#     2   2   2   2   2   2   2   2
#     4  10  23  39  60  94 125 161 208 258 307 382
#     4  10  21  40  59  82 124 159 200 265 315 362
#     4  10  21  41  60  83 127 160 200 260 312 363
#     4   9  22  38  60  88 115 167 206 249 316 375
#     4  10  21  39  62  88 128 163 204 257 312 368
#     4  11  21  37  65  92 122 165 209 249 318 376
#     4  11  21  41  63  86 125 164 208 258 311 374
#     4  11  22  39  64  90 120 162 210 258 308 378
#
# _framework density 23.767047000000002
#
# number of rings (size 3 to 8) (size 9 to 14) (size 15 to 20)
#    0.000    1.750    2.500    2.250    1.750    0.500 
#    0.000    0.625    0.000    8.250    0.000    0.000 
#    0.000    0.000    0.000    0.000    0.000    0.000 
#
# Total GULP energy -89157.816536 kJ/mol
# GULP energy per Si atom -5572.363533 kJ/mol
# Density = 2.371295 g / cm^3
# Si number density = 23.767047 Si / 1000 Ang^3
#
#
#
# Elastic Constant Matrix: (Units=GPa)
#
#
# Indices 1 2 3 4 5 6 
#
# 1 63.5823 30.6366 5.9074 -14.0486 -4.2943 -17.8544
# 2 30.6366 105.5205 31.4302 -18.6915 -5.7850 -29.1183
# 3 5.9074 31.4302 85.6586 -19.5587 3.0014 -15.0683
# 4 -14.0486 -18.6915 -19.5587 31.1449 -11.4279 3.7992
# 5 -4.2943 -5.7850 3.0014 -11.4279 31.7761 -6.1823
# 6 -17.8544 -29.1183 -15.0683 3.7992 -6.1823 39.2060
#
#
#
# Elastic Compliance Matrix: (Units=1/GPa)
#
#
# Indices 1 2 3 4 5 6 
#
# 1 0.022959 -0.001906 0.003801 0.013755 0.009416 0.010653
# 2 -0.001906 0.015438 -0.002003 0.008798 0.007895 0.010221
# 3 0.003801 -0.002003 0.015521 0.010928 0.003729 0.005737
# 4 0.013755 0.008798 0.010928 0.058248 0.026395 0.015516
# 5 0.009416 0.007895 0.003729 0.026395 0.046504 0.016360
# 6 0.010653 0.010221 0.005737 0.015516 0.016360 0.041230
#
#
# Mechanical properties :
#
#
# Convention : Reuss Voigt Hill
#
# Bulk Modulus (GPa) = 18.62111 43.41221 31.01666
# Shear Modulus (GPa) = 22.93401 32.87788 27.90594
#
# Velocity S-wave (km/s) = 3.10973 3.72336 3.43030
# Velocity P-wave (km/s) = 4.55475 6.06547 5.36357
#
# Compressibility (1/GPa) = 0.05370249
#
# Stress axis : x y z
#
# Youngs Moduli (GPa) = 43.55525 64.77353 64.42933
#
# Poissons Ratio (x) = 0.12343 -0.24487
# Poissons Ratio (y) = 0.08300 0.12906
# Poissons Ratio (z) = -0.16554 0.12975
#
# Static dielectric constant tensor:
#      x y z
#    x 1.932200 -0.010990 0.057760 
#    y -0.010990 1.956910 -0.022080 
#    z 0.057760 -0.022080 1.999780 
# 
# From -- ./inp_files/315616.got.cif
#   From: 2010.05.17/outbox.cif.g08.bks.cpg/sg2_158_cif.got.tgz:315616.got - 2010.06.03 11:33:40.
