data_PCOD9007503
_publ_section_title
;
Structure prediction by ZEFSAII (Michael W. Deem and Ramdas Pophale) SiO2 
 PCOD9007503
Probable space group: P -1
;
_chemical_formula_sum "Si O2"
_cell_formula_units_Z 16
_cell_length_a 5.463745
_cell_length_b 17.048991
_cell_length_c 12.057978
_cell_angle_alpha 51.013047
_cell_angle_beta 69.616277
_cell_angle_gamma 49.271563
_cell_volume 657.919061
_symmetry_space_group_name_H-M "P -1"
_symmetry_group_IT_number 2
_symmetry_cell_setting 'triclinic'
loop_
_space_group_symop_operation_xyz
x,y,z
-x,-y,-z
loop_
_atom_site_type_symbol
_atom_site_label
_atom_site_fract_x
_atom_site_fract_y
_atom_site_fract_z
Si Si1 0.203599 0.998776 0.120886
Si Si2 0.149170 0.633796 0.643689
Si Si3 0.027467 0.817796 0.812802
Si Si4 0.298067 0.588509 0.130025
Si Si5 0.855354 0.542012 0.361113
Si Si6 0.564323 0.866848 0.639809
Si Si7 0.055580 0.194064 0.833729
Si Si8 0.765883 0.226421 0.643445
O O1 0.566461 0.890328 0.120323
O O2 0.104610 0.915519 0.262768
O O3 0.195478 0.084496 0.141806
O O4 0.976048 0.099003 0.972723
O O5 0.337228 0.534402 0.800861
O O6 0.210162 0.551594 0.598444
O O7 0.311053 0.703228 0.522280
O O8 0.787939 0.752326 0.620381
O O9 0.259949 0.860147 0.708927
O O10 0.797249 0.826828 0.745938
O O11 0.230026 0.677578 0.958862
O O12 0.069628 0.544338 0.227655
O O13 0.180549 0.679917 0.174292
O O14 0.542115 0.682932 0.309135
O O15 0.000000 0.500000 0.500000
O O16 0.500000 0.000000 0.500000
O O17 0.040872 0.214535 0.687300
#
# Coordination Sequence:
#
# PCOD9007503 Si02
#       8
#     2   2   2   2   2   2   2   2
#     4  10  23  39  67 100 140 189 231 293 372 428
#     4  12  28  43  73 101 143 197 244 308 370 435
#     4  11  29  50  79 107 148 196 252 318 358 431
#     4  11  24  46  70 110 147 191 242 295 379 444
#     4  12  24  41  67 107 154 185 234 292 368 453
#     4  12  30  56  78 108 141 193 263 315 368 429
#     4  10  21  39  62 103 142 180 233 285 368 458
#     4  12  22  38  67 101 143 189 230 298 366 448
#
# _framework density 24.319099999999999
#
# number of rings (size 3 to 8) (size 9 to 14) (size 15 to 20)
#    0.000    0.750    3.750    2.625    7.000    1.000 
#    0.000    0.000    0.000    0.000    0.000    0.000 
#    0.000    0.000    0.000    0.000    0.000    0.000 
#
# Total GULP energy -89231.860737 kJ/mol
# GULP energy per Si atom -5576.991296 kJ/mol
# Density = 2.426375 g / cm^3
# Si number density = 24.319100 Si / 1000 Ang^3
#
#
#
# Elastic Constant Matrix: (Units=GPa)
#
#
# Indices 1 2 3 4 5 6 
#
# 1 46.1318 -5.6656 16.8070 0.4711 0.2711 -0.8665
# 2 -5.6656 94.7143 12.5699 -11.7462 1.1342 -9.7877
# 3 16.8070 12.5699 124.9066 -36.1082 5.1610 9.8691
# 4 0.4711 -11.7462 -36.1082 45.8014 0.7511 -3.7675
# 5 0.2711 1.1342 5.1610 0.7511 35.1282 2.6163
# 6 -0.8665 -9.7877 9.8691 -3.7675 2.6163 32.1945
#
#
#
# Elastic Compliance Matrix: (Units=1/GPa)
#
#
# Indices 1 2 3 4 5 6 
#
# 1 0.023590 0.001836 -0.004439 -0.003098 0.000316 0.002166
# 2 0.001836 0.011554 -0.000988 0.002521 -0.000609 0.004210
# 3 -0.004439 -0.000988 0.011489 0.008646 -0.001598 -0.002800
# 4 -0.003098 0.002521 0.008646 0.029498 -0.002082 0.001654
# 5 0.000316 -0.000609 -0.001598 -0.002082 0.028934 -0.002282
# 6 0.002166 0.004210 -0.002800 0.001654 -0.002282 0.033637
#
#
# Mechanical properties :
#
#
# Convention : Reuss Voigt Hill
#
# Bulk Modulus (GPa) = 25.34768 34.79726 30.07247
# Shear Modulus (GPa) = 31.43968 38.76090 35.10029
#
# Velocity S-wave (km/s) = 3.59945 3.99663 3.80323
# Velocity P-wave (km/s) = 5.26501 5.96968 5.62838
#
# Compressibility (1/GPa) = 0.03945133
#
# Stress axis : x y z
#
# Youngs Moduli (GPa) = 42.39063 86.54961 87.03719
#
# Poissons Ratio (x) = -0.15890 0.38633
# Poissons Ratio (y) = -0.07783 0.08602
# Poissons Ratio (z) = 0.18816 0.08554
#
# Static dielectric constant tensor:
#      x y z
#    x 2.223120 -0.007250 -0.095590 
#    y -0.007250 1.913530 0.013470 
#    z -0.095590 0.013470 2.106040 
# 
# From -- ./inp_files/369351.got.cif
#   From: 2010.05.17/outbox.cif.g08.bks.cpg/sg2_185_cif.got.tgz:369351.got - 2010.06.03 11:33:40.
