data_PCOD9007787
_publ_section_title
;
Structure prediction by ZEFSAII (Michael W. Deem and Ramdas Pophale) SiO2 
 PCOD9007787
Probable space group: P -1
;
_chemical_formula_sum "Si O2"
_cell_formula_units_Z 14
_cell_length_a 23.101082
_cell_length_b 15.222582
_cell_length_c 5.534641
_cell_angle_alpha 83.474901
_cell_angle_beta 74.207533
_cell_angle_gamma 20.330211
_cell_volume 589.467340
_symmetry_space_group_name_H-M "P -1"
_symmetry_group_IT_number 2
_symmetry_cell_setting 'triclinic'
loop_
_space_group_symop_operation_xyz
x,y,z
-x,-y,-z
loop_
_atom_site_type_symbol
_atom_site_label
_atom_site_fract_x
_atom_site_fract_y
_atom_site_fract_z
Si Si1 0.807167 0.321241 0.180457
Si Si2 0.896981 0.494557 0.626950
Si Si3 0.972630 0.247390 0.273973
Si Si4 0.236768 0.935185 0.684709
Si Si5 0.481763 0.705132 0.113350
Si Si6 0.264190 0.734335 0.388336
Si Si7 0.844582 0.729486 0.889302
O O1 0.857485 0.350749 0.180111
O O2 0.651348 0.527552 0.085508
O O3 0.737990 0.361020 0.475504
O O4 0.000000 0.000000 0.000000
O O5 0.844084 0.500139 0.473035
O O6 0.781706 0.720605 0.861645
O O7 0.030935 0.380870 0.388248
O O8 0.032217 0.246085 0.711560
O O9 0.064612 0.045000 0.408427
O O10 0.166004 0.022813 0.013756
O O11 0.368537 0.825072 0.440447
O O12 0.301253 0.751661 0.557107
O O13 0.349550 0.943283 0.000937
O O14 0.578903 0.489103 0.927999
O O15 0.000000 0.500000 0.000000
#
# Coordination Sequence:
#
# PCOD9007787 Si02
#       7
#     2   2   2   2   2   2   2
#     4  12  24  42  62  94 139 181 215 258 323 397
#     4   9  21  37  67  93 126 169 219 265 335 378
#     4  11  22  40  66  95 135 181 214 262 321 396
#     4  10  21  39  62  97 133 167 219 272 326 382
#     4  11  25  39  65 100 131 172 217 272 330 387
#     4  11  22  38  64  93 135 171 224 259 330 384
#     4  10  21  43  66  94 128 165 221 278 330 380
#
# _framework density 23.750256
#
# number of rings (size 3 to 8) (size 9 to 14) (size 15 to 20)
#    0.000    1.429    2.857    1.714    0.000    9.143 
#    0.000    0.714    0.000    4.286    0.000    3.000 
#    0.000    0.000    0.000    0.000    0.000    0.000 
#
# Total GULP energy -78012.659001 kJ/mol
# GULP energy per Si atom -5572.332786 kJ/mol
# Density = 2.369620 g / cm^3
# Si number density = 23.750256 Si / 1000 Ang^3
#
#
#
# Elastic Constant Matrix: (Units=GPa)
#
#
# Indices 1 2 3 4 5 6 
#
# 1 163.3523 45.5528 26.4874 13.7339 25.4049 12.4614
# 2 45.5528 104.4548 18.6869 -8.2238 0.5234 7.1388
# 3 26.4874 18.6869 53.1270 -7.5609 1.0104 4.7716
# 4 13.7339 -8.2238 -7.5609 22.0895 8.3339 -0.5408
# 5 25.4049 0.5234 1.0104 8.3339 31.8897 8.7267
# 6 12.4614 7.1388 4.7716 -0.5408 8.7267 33.6917
#
#
#
# Elastic Compliance Matrix: (Units=1/GPa)
#
#
# Indices 1 2 3 4 5 6 
#
# 1 0.009255 -0.003747 -0.004061 -0.006580 -0.005244 -0.000801
# 2 -0.003747 0.011992 -0.001468 0.005609 0.001726 -0.001304
# 3 -0.004061 -0.001468 0.022848 0.009615 0.000398 -0.001372
# 4 -0.006580 0.005609 0.009615 0.059248 -0.011696 0.003864
# 5 -0.005244 0.001726 0.000398 -0.011696 0.041100 -0.009316
# 6 -0.000801 -0.001304 -0.001372 0.003864 -0.009316 0.032923
#
#
# Mechanical properties :
#
#
# Convention : Reuss Voigt Hill
#
# Bulk Modulus (GPa) = 39.14798 55.82090 47.48444
# Shear Modulus (GPa) = 24.45808 32.88132 28.66970
#
# Velocity S-wave (km/s) = 3.21254 3.72487 3.47815
# Velocity P-wave (km/s) = 5.50268 6.48490 6.01387
#
# Compressibility (1/GPa) = 0.02554410
#
# Stress axis : x y z
#
# Youngs Moduli (GPa) = 108.05052 83.38888 43.76779
#
# Poissons Ratio (x) = 0.31242 0.17775
# Poissons Ratio (y) = 0.40482 0.06423
# Poissons Ratio (z) = 0.43881 0.12238
#
# Static dielectric constant tensor:
#      x y z
#    x 1.971520 -0.034900 0.085510 
#    y -0.034900 1.959320 -0.056700 
#    z 0.085510 -0.056700 2.169470 
# 
# From -- ./inp_files/124167.got.cif
#   From: 2010.05.17/outbox.cif.g08.bks.cpg/sg2_63_cif.got.tgz:124167.got - 2010.06.03 11:33:40.
