data_PCOD9007701
_publ_section_title
;
Structure prediction by ZEFSAII (Michael W. Deem and Ramdas Pophale) SiO2 
 PCOD9007701
Probable space group: P -1
;
_chemical_formula_sum "Si O2"
_cell_formula_units_Z 16
_cell_length_a 12.183517
_cell_length_b 15.023797
_cell_length_c 14.434660
_cell_angle_alpha 112.157552
_cell_angle_beta 134.169637
_cell_angle_gamma 30.202092
_cell_volume 745.218010
_symmetry_space_group_name_H-M "P -1"
_symmetry_group_IT_number 2
_symmetry_cell_setting 'triclinic'
loop_
_space_group_symop_operation_xyz
x,y,z
-x,-y,-z
loop_
_atom_site_type_symbol
_atom_site_label
_atom_site_fract_x
_atom_site_fract_y
_atom_site_fract_z
Si Si1 0.464043 0.921568 0.721884
Si Si2 0.812238 0.081480 0.136912
Si Si3 0.324653 0.851714 0.201266
Si Si4 0.416105 0.023547 0.352659
Si Si5 0.454160 0.971798 0.057446
Si Si6 0.973139 0.078119 0.606677
Si Si7 0.819915 0.499973 0.211396
Si Si8 0.787782 0.561855 0.668626
O O1 0.363261 0.032089 0.609865
O O2 0.685256 0.699053 0.742049
O O3 0.687295 0.874773 0.888689
O O4 0.146034 0.077351 0.668686
O O5 0.808949 0.968614 0.079737
O O6 0.479432 0.308127 0.968287
O O7 0.171252 0.919389 0.239099
O O8 0.797936 0.100782 0.246355
O O9 0.650916 0.604040 0.254602
O O10 0.425314 0.907593 0.280278
O O11 0.000000 0.000000 0.000000
O O12 0.006492 0.295246 0.213514
O O13 0.500000 0.000000 0.500000
O O14 0.848289 0.704176 0.207332
O O15 0.500000 0.000000 0.000000
O O16 0.561777 0.307153 0.490115
O O17 0.000000 0.000000 0.500000
O O18 0.113333 0.419440 0.347293
#
# Coordination Sequence:
#
# PCOD9007701 Si02
#       8
#     2   2   2   2   2   2   2   2
#     4  10  21  41  63  88 131 160 209 259 309 372
#     4  10  21  40  66  93 124 168 207 258 317 375
#     4  10  22  41  67  89 132 164 216 262 317 372
#     4  11  24  41  65  99 126 167 218 264 315 382
#     4  11  21  41  63  91 124 166 209 253 306 380
#     4  10  21  39  62  92 127 163 206 259 314 372
#     4   9  21  43  65  93 128 171 207 261 317 379
#     4   9  21  38  63  88 126 163 205 247 320 365
#
# _framework density 21.470227000000001
#
# number of rings (size 3 to 8) (size 9 to 14) (size 15 to 20)
#    0.000    2.000    1.250    2.250    5.250    3.500 
#    9.000    1.250    0.000    0.000    0.000    0.000 
#    0.000    0.000    0.000    0.000    0.000    0.000 
#
# Total GULP energy -89098.420903 kJ/mol
# GULP energy per Si atom -5568.651306 kJ/mol
# Density = 2.142136 g / cm^3
# Si number density = 21.470227 Si / 1000 Ang^3
#
#
#
# Elastic Constant Matrix: (Units=GPa)
#
#
# Indices 1 2 3 4 5 6 
#
# 1 88.4712 9.5678 20.3234 -5.2156 -10.4512 -22.5617
# 2 9.5678 69.9543 10.7779 7.9471 1.4864 2.6266
# 3 20.3234 10.7779 50.2888 12.9590 -6.7533 -7.2727
# 4 -5.2156 7.9471 12.9590 26.7177 -13.5543 3.5354
# 5 -10.4512 1.4864 -6.7533 -13.5543 34.3622 0.6421
# 6 -22.5617 2.6266 -7.2727 3.5354 0.6421 33.7131
#
#
#
# Elastic Compliance Matrix: (Units=1/GPa)
#
#
# Indices 1 2 3 4 5 6 
#
# 1 0.016907 -0.002967 -0.006455 0.010096 0.007817 0.008945
# 2 -0.002967 0.015863 -0.001545 -0.006389 -0.004360 -0.002801
# 3 -0.006455 -0.001545 0.026990 -0.015797 -0.002885 0.003335
# 4 0.010096 -0.006389 -0.015797 0.061917 0.024724 -0.003118
# 5 0.007817 -0.004360 -0.002885 0.024724 0.040824 0.001578
# 6 0.008945 -0.002801 0.003335 -0.003118 0.001578 0.036883
#
#
# Mechanical properties :
#
#
# Convention : Reuss Voigt Hill
#
# Bulk Modulus (GPa) = 26.43646 32.22806 29.33226
# Shear Modulus (GPa) = 21.37434 30.16159 25.76797
#
# Velocity S-wave (km/s) = 3.15863 3.75215 3.46811
# Velocity P-wave (km/s) = 5.06383 5.81504 5.45239
#
# Compressibility (1/GPa) = 0.03782655
#
# Stress axis : x y z
#
# Youngs Moduli (GPa) = 59.14859 63.04163 37.05029
#
# Poissons Ratio (x) = 0.18703 0.23915
# Poissons Ratio (y) = 0.17548 0.05724
# Poissons Ratio (z) = 0.38179 0.09739
#
# Static dielectric constant tensor:
#      x y z
#    x 1.822030 -0.150560 -0.090590 
#    y -0.150560 1.552110 -0.206970 
#    z -0.090590 -0.206970 1.658980 
# 
# From -- ./inp_files/521626.got.cif
#   From: 2010.05.17/outbox.cif.g08.bks.cpg/sg2_261_cif.got.tgz:521626.got - 2010.06.03 11:33:40.
