data_PCOD9007832
_publ_section_title
;
Structure prediction by ZEFSAII (Michael W. Deem and Ramdas Pophale) SiO2 
 PCOD9007832
Probable space group: P -1
;
_chemical_formula_sum "Si O2"
_cell_formula_units_Z 16
_cell_length_a 14.205383
_cell_length_b 8.801625
_cell_length_c 14.051871
_cell_angle_alpha 138.058447
_cell_angle_beta 53.538387
_cell_angle_gamma 136.968867
_cell_volume 796.378798
_symmetry_space_group_name_H-M "P -1"
_symmetry_group_IT_number 2
_symmetry_cell_setting 'triclinic'
loop_
_space_group_symop_operation_xyz
x,y,z
-x,-y,-z
loop_
_atom_site_type_symbol
_atom_site_label
_atom_site_fract_x
_atom_site_fract_y
_atom_site_fract_z
Si Si1 0.791420 0.120701 0.727878
Si Si2 0.905744 0.966243 0.258608
Si Si3 0.136672 0.249465 0.395284
Si Si4 0.723391 0.298882 0.247236
Si Si5 0.570334 0.240182 0.494097
Si Si6 0.319992 0.213275 0.537476
Si Si7 0.165343 0.623348 0.980079
Si Si8 0.035300 0.588400 0.714210
O O1 0.879033 0.409220 0.759155
O O2 0.876750 0.974537 0.627644
O O3 0.680114 0.929613 0.627158
O O4 0.771585 0.185573 0.877044
O O5 0.921121 0.141114 0.239970
O O6 0.057796 0.095534 0.275245
O O7 0.805388 0.975957 0.402859
O O8 0.839305 0.653430 0.130740
O O9 0.297860 0.492038 0.414245
O O10 0.061682 0.400977 0.543197
O O11 0.621471 0.149207 0.328126
O O12 0.707610 0.554428 0.364649
O O13 0.733084 0.219265 0.096959
O O14 0.870507 0.370965 0.233248
O O15 0.460112 0.307296 0.553019
O O16 0.500000 0.000000 0.500000
O O17 0.000000 0.500000 0.000000
#
# Coordination Sequence:
#
# PCOD9007832 Si02
#       8
#     2   2   2   2   2   2   2   2
#     4  12  21  35  63  88 126 158 213 241 309 369
#     4  11  23  37  64  94 131 157 207 261 316 361
#     4  11  21  37  61  97 119 161 203 269 305 366
#     4  10  21  39  63  87 124 163 209 252 305 364
#     4  11  24  39  64  96 124 155 209 269 318 359
#     4  11  21  39  64  93 120 163 210 259 307 367
#     4  11  22  40  59  94 128 173 202 249 305 381
#     4  11  20  33  60  97 122 154 203 267 311 348
#
# _framework density 20.090941000000001
#
# number of rings (size 3 to 8) (size 9 to 14) (size 15 to 20)
#    0.000    1.000    6.250    3.375    1.750    0.500 
#    0.000    0.625    0.000    0.750    0.000    0.000 
#    0.000    0.000    0.000    0.000    0.000    0.000 
#
# Total GULP energy -89160.640687 kJ/mol
# GULP energy per Si atom -5572.540043 kJ/mol
# Density = 2.004521 g / cm^3
# Si number density = 20.090941 Si / 1000 Ang^3
#
#
#
# Elastic Constant Matrix: (Units=GPa)
#
#
# Indices 1 2 3 4 5 6 
#
# 1 71.3241 18.7453 16.3845 -3.3174 13.2226 12.3917
# 2 18.7453 103.7276 23.4361 -20.2423 9.9701 -10.8359
# 3 16.3845 23.4361 83.5566 -10.4082 21.8805 1.3149
# 4 -3.3174 -20.2423 -10.4082 17.7911 -6.4355 0.3667
# 5 13.2226 9.9701 21.8805 -6.4355 17.0289 5.7739
# 6 12.3917 -10.8359 1.3149 0.3667 5.7739 28.7481
#
#
#
# Elastic Compliance Matrix: (Units=1/GPa)
#
#
# Indices 1 2 3 4 5 6 
#
# 1 0.018113 -0.003883 -0.000015 -0.004997 -0.011310 -0.006935
# 2 -0.003883 0.014239 -0.001447 0.014333 -0.000423 0.007009
# 3 -0.000015 -0.001447 0.018713 0.000483 -0.024175 0.003454
# 4 -0.004997 0.014333 0.000483 0.080847 0.024912 0.001499
# 5 -0.011310 -0.000423 -0.024175 0.024912 0.114136 -0.017420
# 6 -0.006935 0.007009 0.003454 0.001499 -0.017420 0.043738
#
#
# Mechanical properties :
#
#
# Convention : Reuss Voigt Hill
#
# Bulk Modulus (GPa) = 24.76602 41.74890 33.25746
# Shear Modulus (GPa) = 15.92695 26.04979 20.98837
#
# Velocity S-wave (km/s) = 2.81862 3.60473 3.23564
# Velocity P-wave (km/s) = 4.79026 6.17661 5.52707
#
# Compressibility (1/GPa) = 0.04037791
#
# Stress axis : x y z
#
# Youngs Moduli (GPa) = 55.20764 70.22928 53.43932
#
# Poissons Ratio (x) = 0.27267 0.00078
# Poissons Ratio (y) = 0.21435 0.07730
# Poissons Ratio (z) = 0.00080 0.10159
#
# Static dielectric constant tensor:
#      x y z
#    x 1.726030 0.015410 0.014840 
#    y 0.015410 1.750390 -0.032780 
#    z 0.014840 -0.032780 1.756600 
# 
# From -- ./inp_files/215895.got.cif
#   From: 2010.05.17/outbox.cif.g08.bks.cpg/sg2_108_cif.got.tgz:215895.got - 2010.06.03 11:33:40.
