data_PCOD9007882
_publ_section_title
;
Structure prediction by ZEFSAII (Michael W. Deem and Ramdas Pophale) SiO2 
 PCOD9007882
Probable space group: P -1
;
_chemical_formula_sum "Si O2"
_cell_formula_units_Z 16
_cell_length_a 9.138666
_cell_length_b 16.376620
_cell_length_c 7.989982
_cell_angle_alpha 88.974817
_cell_angle_beta 139.771094
_cell_angle_gamma 111.332668
_cell_volume 648.809545
_symmetry_space_group_name_H-M "P -1"
_symmetry_group_IT_number 2
_symmetry_cell_setting 'triclinic'
loop_
_space_group_symop_operation_xyz
x,y,z
-x,-y,-z
loop_
_atom_site_type_symbol
_atom_site_label
_atom_site_fract_x
_atom_site_fract_y
_atom_site_fract_z
Si Si1 0.145573 0.489423 0.905799
Si Si2 0.482521 0.783829 0.852026
Si Si3 0.059134 0.959391 0.221567
Si Si4 0.292395 0.338391 0.953345
Si Si5 0.811159 0.559339 0.705708
Si Si6 0.812137 0.195058 0.722257
Si Si7 0.562252 0.838838 0.297984
Si Si8 0.281378 0.307251 0.579199
O O1 0.268039 0.432437 0.925262
O O2 0.901749 0.505673 0.657372
O O3 0.040711 0.430341 0.992040
O O4 0.406971 0.599516 0.143719
O O5 0.464222 0.680776 0.833442
O O6 0.445451 0.806221 0.009923
O O7 0.783966 0.873846 0.067802
O O8 0.311106 0.786276 0.550599
O O9 0.214620 0.907261 0.311617
O O10 0.230305 0.046854 0.496990
O O11 0.000000 0.000000 0.000000
O O12 0.168002 0.288777 0.667877
O O13 0.126316 0.278573 0.973557
O O14 0.500000 0.500000 0.500000
O O15 0.861067 0.653787 0.658179
O O16 0.660800 0.193774 0.753921
O O17 0.717665 0.784733 0.475710
#
# Coordination Sequence:
#
# PCOD9007882 Si02
#       8
#     2   2   2   2   2   2   2   2
#     4  10  21  39  63  89 129 172 218 268 325 389
#     4  10  24  46  65 100 134 171 225 271 329 401
#     4  11  23  46  68 100 133 172 221 272 334 401
#     4  10  24  41  63  95 132 170 220 276 326 391
#     4   9  21  36  58  91 122 161 220 265 322 386
#     4  11  25  43  66  99 133 173 223 269 339 393
#     4  11  24  43  70  95 133 174 217 278 331 390
#     4  10  23  41  60  95 126 170 222 265 331 390
#
# _framework density 24.660550000000001
#
# number of rings (size 3 to 8) (size 9 to 14) (size 15 to 20)
#    0.000    1.750    1.250    1.125    7.000    4.000 
#    6.750    0.000    0.000    0.000    0.000    0.000 
#    0.000    0.000    0.000    0.000    0.000    0.000 
#
# Total GULP energy -89329.781243 kJ/mol
# GULP energy per Si atom -5583.111328 kJ/mol
# Density = 2.460442 g / cm^3
# Si number density = 24.660550 Si / 1000 Ang^3
#
#
#
# Elastic Constant Matrix: (Units=GPa)
#
#
# Indices 1 2 3 4 5 6 
#
# 1 173.4367 56.9447 33.5248 -9.6360 -5.2987 -16.2656
# 2 56.9447 125.9750 32.4441 -26.5204 -3.3565 -37.8075
# 3 33.5248 32.4441 68.0300 -19.7514 -11.3739 -14.1666
# 4 -9.6360 -26.5204 -19.7514 55.0385 8.3197 5.6767
# 5 -5.2987 -3.3565 -11.3739 8.3197 25.9803 1.1700
# 6 -16.2656 -37.8075 -14.1666 5.6767 1.1700 57.5366
#
#
#
# Elastic Compliance Matrix: (Units=1/GPa)
#
#
# Indices 1 2 3 4 5 6 
#
# 1 0.007111 -0.002921 -0.002442 -0.001051 0.000359 -0.000414
# 2 -0.002921 0.012680 -0.002249 0.004362 -0.001634 0.006555
# 3 -0.002442 -0.002249 0.019760 0.004399 0.006357 0.002134
# 4 -0.001051 0.004362 0.004399 0.022249 -0.004920 0.001557
# 5 0.000359 -0.001634 0.006357 -0.004920 0.042702 0.000210
# 6 -0.000414 0.006555 0.002134 0.001557 0.000210 0.021938
#
#
# Mechanical properties :
#
#
# Convention : Reuss Voigt Hill
#
# Bulk Modulus (GPa) = 41.11014 68.14099 54.62557
# Shear Modulus (GPa) = 33.38376 44.01297 38.69836
#
# Velocity S-wave (km/s) = 3.68330 4.22922 3.96566
# Velocity P-wave (km/s) = 5.89877 7.17913 6.57022
#
# Compressibility (1/GPa) = 0.02432490
#
# Stress axis : x y z
#
# Youngs Moduli (GPa) = 140.63208 78.86405 50.60746
#
# Poissons Ratio (x) = 0.23038 0.12360
# Poissons Ratio (y) = 0.41082 0.11383
# Poissons Ratio (z) = 0.34347 0.17739
#
# Static dielectric constant tensor:
#      x y z
#    x 2.005070 -0.049800 0.051290 
#    y -0.049800 1.958770 -0.003240 
#    z 0.051290 -0.003240 2.115440 
# 
# From -- ./inp_files/55786.got.cif
#   From: 2010.05.17/outbox.cif.g08.bks.cpg/sg2_28_cif.got.tgz:55786.got - 2010.06.03 11:33:40.
