data_PCOD9007800
_publ_section_title
;
Structure prediction by ZEFSAII (Michael W. Deem and Ramdas Pophale) SiO2 
 PCOD9007800
Probable space group: P -1
;
_chemical_formula_sum "Si O2"
_cell_formula_units_Z 16
_cell_length_a 8.662844
_cell_length_b 8.491536
_cell_length_c 18.977237
_cell_angle_alpha 59.016039
_cell_angle_beta 133.092738
_cell_angle_gamma 92.300889
_cell_volume 758.050415
_symmetry_space_group_name_H-M "P -1"
_symmetry_group_IT_number 2
_symmetry_cell_setting 'triclinic'
loop_
_space_group_symop_operation_xyz
x,y,z
-x,-y,-z
loop_
_atom_site_type_symbol
_atom_site_label
_atom_site_fract_x
_atom_site_fract_y
_atom_site_fract_z
Si Si1 0.017372 0.861604 0.467546
Si Si2 0.897170 0.858385 0.032216
Si Si3 0.774823 0.900992 0.138233
Si Si4 0.624647 0.535934 0.887976
Si Si5 0.843572 0.467340 0.301995
Si Si6 0.901439 0.625188 0.847118
Si Si7 0.610629 0.075606 0.183867
Si Si8 0.209609 0.106077 0.388403
O O1 0.116434 0.632842 0.584973
O O2 0.165598 0.915483 0.443851
O O3 0.000000 0.000000 0.500000
O O4 0.767085 0.938052 0.330091
O O5 0.615311 0.957180 0.898086
O O6 0.925151 0.868692 0.122430
O O7 0.014075 0.612809 0.101077
O O8 0.000000 0.000000 0.000000
O O9 0.862803 0.674777 0.253030
O O10 0.760436 0.043040 0.166570
O O11 0.500000 0.000000 0.000000
O O12 0.434963 0.465555 0.821037
O O13 0.663077 0.672695 0.807250
O O14 0.497487 0.685235 0.880250
O O15 0.897941 0.378518 0.035395
O O16 0.041992 0.291736 0.350305
O O17 0.870271 0.777956 0.738467
O O18 0.500000 0.000000 0.500000
#
# Coordination Sequence:
#
# PCOD9007800 Si02
#       8
#     2   2   2   2   2   2   2   2
#     4  10  21  40  64  93 125 170 215 267 323 384
#     4  10  22  42  63  95 134 173 212 268 331 388
#     4  10  23  41  64  95 128 168 214 266 320 392
#     4  10  21  39  63 100 127 168 217 276 329 384
#     4  11  22  41  68  92 128 172 219 264 331 387
#     4  10  22  37  63  96 134 165 220 273 331 385
#     4  10  21  41  64  96 131 168 220 265 318 394
#     4  11  22  38  62  95 126 170 216 273 323 383
#
# _framework density 21.106774999999999
#
# number of rings (size 3 to 8) (size 9 to 14) (size 15 to 20)
#    0.000    1.750    3.750    0.750    5.250    3.000 
#    4.500    0.000    0.000    1.500    0.000    0.000 
#    0.000    0.000    0.000    0.000    0.000    0.000 
#
# Total GULP energy -89208.386090 kJ/mol
# GULP energy per Si atom -5575.524131 kJ/mol
# Density = 2.105874 g / cm^3
# Si number density = 21.106775 Si / 1000 Ang^3
#
#
#
# Elastic Constant Matrix: (Units=GPa)
#
#
# Indices 1 2 3 4 5 6 
#
# 1 127.5844 42.4629 52.2470 -2.1341 -22.3559 8.3165
# 2 42.4629 40.4354 23.9987 7.0557 -7.1392 -3.5970
# 3 52.2470 23.9987 104.1968 6.5575 -23.5777 10.1071
# 4 -2.1341 7.0557 6.5575 31.0556 3.3624 -6.6729
# 5 -22.3559 -7.1392 -23.5777 3.3624 43.0812 -0.6580
# 6 8.3165 -3.5970 10.1071 -6.6729 -0.6580 34.2811
#
#
#
# Elastic Compliance Matrix: (Units=1/GPa)
#
#
# Indices 1 2 3 4 5 6 
#
# 1 0.014614 -0.013735 -0.003394 0.003822 0.003103 -0.003182
# 2 -0.013735 0.043116 -0.003476 -0.008329 -0.001124 0.007238
# 3 -0.003394 -0.003476 0.014032 -0.003943 0.005584 -0.004339
# 4 0.003822 -0.008329 -0.003943 0.037053 -0.004348 0.006491
# 5 0.003103 -0.001124 0.005584 -0.004348 0.027988 -0.002826
# 6 -0.003182 0.007238 -0.004339 0.006491 -0.002826 0.033191
#
#
# Mechanical properties :
#
#
# Convention : Reuss Voigt Hill
#
# Bulk Modulus (GPa) = 32.73008 56.62598 44.67803
# Shear Modulus (GPa) = 22.58479 31.91741 27.25110
#
# Velocity S-wave (km/s) = 3.27467 3.89290 3.59710
# Velocity P-wave (km/s) = 5.46247 6.86242 6.20207
#
# Compressibility (1/GPa) = 0.03055294
#
# Stress axis : x y z
#
# Youngs Moduli (GPa) = 68.42662 23.19336 71.26418
#
# Poissons Ratio (x) = 0.31855 0.24188
# Poissons Ratio (y) = 0.93981 0.24771
# Poissons Ratio (z) = 0.23225 0.08062
#
# Static dielectric constant tensor:
#      x y z
#    x 1.790480 -0.021470 0.015320 
#    y -0.021470 1.818580 -0.013770 
#    z 0.015320 -0.013770 1.793740 
# 
# From -- ./inp_files/557037.got.cif
#   From: 2010.05.17/outbox.cif.g08.bks.cpg/sg2_279_cif.got.tgz:557037.got - 2010.06.03 11:33:40.
