data_PCOD9007963
_publ_section_title
;
Structure prediction by ZEFSAII (Michael W. Deem and Ramdas Pophale) SiO2 
 PCOD9007963
Probable space group: P -1
;
_chemical_formula_sum "Si O2"
_cell_formula_units_Z 16
_cell_length_a 8.653624
_cell_length_b 10.780878
_cell_length_c 14.738291
_cell_angle_alpha 123.234007
_cell_angle_beta 135.873735
_cell_angle_gamma 81.333706
_cell_volume 727.879696
_symmetry_space_group_name_H-M "P -1"
_symmetry_group_IT_number 2
_symmetry_cell_setting 'triclinic'
loop_
_space_group_symop_operation_xyz
x,y,z
-x,-y,-z
loop_
_atom_site_type_symbol
_atom_site_label
_atom_site_fract_x
_atom_site_fract_y
_atom_site_fract_z
Si Si1 0.273196 0.838751 0.622746
Si Si2 0.024688 0.010621 0.120804
Si Si3 0.556451 0.683354 0.578543
Si Si4 0.601524 0.754306 0.433386
Si Si5 0.406308 0.853704 0.217650
Si Si6 0.832848 0.534386 0.367462
Si Si7 0.529556 0.346569 0.996741
Si Si8 0.152797 0.029891 0.790208
O O1 0.459828 0.758242 0.649120
O O2 0.009614 0.691688 0.446393
O O3 0.349246 0.987185 0.643674
O O4 0.279615 0.921667 0.755539
O O5 0.158038 0.205688 0.270247
O O6 0.202356 0.920362 0.176848
O O7 0.811045 0.943514 0.076288
O O8 0.000000 0.000000 0.000000
O O9 0.500000 0.500000 0.500000
O O10 0.461293 0.718454 0.455916
O O11 0.450160 0.774994 0.294914
O O12 0.660208 0.599037 0.375187
O O13 0.860733 0.917175 0.610261
O O14 0.356306 0.732407 0.062393
O O15 0.000000 0.500000 0.500000
O O16 0.687494 0.400048 0.177440
O O17 0.268956 0.202066 0.857122
O O18 0.500000 0.500000 0.000000
#
# Coordination Sequence:
#
# PCOD9007963 Si02
#       8
#     2   2   2   2   2   2   2   2
#     4   9  21  38  62  93 120 170 210 260 324 379
#     4  10  23  43  64  91 128 170 214 264 323 386
#     4  10  21  39  63  92 126 163 210 267 320 384
#     4  10  21  40  64  91 129 167 217 260 328 387
#     4  10  22  41  64  93 126 171 216 266 320 393
#     4  11  23  39  63  95 130 168 215 266 323 382
#     4  11  23  41  63  95 132 167 214 273 323 376
#     4   9  22  40  66  88 125 170 214 264 314 389
#
# _framework density 21.981656000000001
#
# number of rings (size 3 to 8) (size 9 to 14) (size 15 to 20)
#    0.000    2.000    1.250    0.750    1.750   13.000 
#    0.000    6.875    0.000    0.000    0.000    0.000 
#    0.000    0.000    0.000    0.000    0.000    0.000 
#
# Total GULP energy -89237.367679 kJ/mol
# GULP energy per Si atom -5577.335480 kJ/mol
# Density = 2.193163 g / cm^3
# Si number density = 21.981656 Si / 1000 Ang^3
#
#
#
# Elastic Constant Matrix: (Units=GPa)
#
#
# Indices 1 2 3 4 5 6 
#
# 1 124.7135 52.4904 30.2360 3.9492 -30.4307 11.3848
# 2 52.4904 128.1818 54.4733 3.4137 -21.3826 3.8081
# 3 30.2360 54.4733 94.0024 0.5227 -28.3193 5.0640
# 4 3.9492 3.4137 0.5227 42.4207 6.0857 -0.7082
# 5 -30.4307 -21.3826 -28.3193 6.0857 28.9386 -0.7717
# 6 11.3848 3.8081 5.0640 -0.7082 -0.7717 27.9201
#
#
#
# Elastic Compliance Matrix: (Units=1/GPa)
#
#
# Indices 1 2 3 4 5 6 
#
# 1 0.012900 -0.003828 0.002455 -0.002960 0.013631 -0.004882
# 2 -0.003828 0.011682 -0.005918 -0.000338 -0.001087 0.001002
# 3 0.002455 -0.005918 0.018506 -0.002436 0.016747 -0.003149
# 4 -0.002960 -0.000338 -0.002436 0.025527 -0.011060 0.002037
# 5 0.013631 -0.001087 0.016747 -0.011060 0.066618 -0.006887
# 6 -0.004882 0.001002 -0.003149 0.002037 -0.006887 0.038103
#
#
# Mechanical properties :
#
#
# Convention : Reuss Voigt Hill
#
# Bulk Modulus (GPa) = 35.08004 69.03303 52.05653
# Shear Modulus (GPa) = 25.32684 33.83573 29.58128
#
# Velocity S-wave (km/s) = 3.39806 3.92761 3.67239
# Velocity P-wave (km/s) = 5.60261 7.21396 6.45873
#
# Compressibility (1/GPa) = 0.02850624
#
# Stress axis : x y z
#
# Youngs Moduli (GPa) = 77.52060 85.60360 54.03599
#
# Poissons Ratio (x) = 0.32770 -0.13266
# Poissons Ratio (y) = 0.29675 0.31977
# Poissons Ratio (z) = -0.19032 0.50658
#
# Static dielectric constant tensor:
#      x y z
#    x 1.938690 0.014700 0.104870 
#    y 0.014700 1.789720 -0.013300 
#    z 0.104870 -0.013300 2.028110 
# 
# From -- ./inp_files/500899.got.cif
#   From: 2010.05.17/outbox.cif.g08.bks.cpg/sg2_251_cif.got.tgz:500899.got - 2010.06.03 11:33:40.
