data_PCOD9007061
_publ_section_title
;
Structure prediction by ZEFSAII (Michael W. Deem and Ramdas Pophale) SiO2 
 PCOD9007061
Probable space group: P -1
;
_chemical_formula_sum "Si O2"
_cell_formula_units_Z 16
_cell_length_a 18.356451
_cell_length_b 9.131651
_cell_length_c 8.996886
_cell_angle_alpha 88.174668
_cell_angle_beta 130.956116
_cell_angle_gamma 59.429437
_cell_volume 811.323491
_symmetry_space_group_name_H-M "P -1"
_symmetry_group_IT_number 2
_symmetry_cell_setting 'triclinic'
loop_
_space_group_symop_operation_xyz
x,y,z
-x,-y,-z
loop_
_atom_site_type_symbol
_atom_site_label
_atom_site_fract_x
_atom_site_fract_y
_atom_site_fract_z
Si Si1 0.900266 0.773345 0.977109
Si Si2 0.097712 0.317946 0.341624
Si Si3 0.630295 0.942990 0.608278
Si Si4 0.078897 0.691652 0.683740
Si Si5 0.559938 0.292601 0.658814
Si Si6 0.444687 0.183306 0.724460
Si Si7 0.300517 0.265880 0.817910
Si Si8 0.859286 0.047794 0.145123
O O1 0.870062 0.806837 0.760457
O O2 0.778324 0.803839 0.883383
O O3 0.035322 0.539285 0.196875
O O4 0.902797 0.928975 0.050306
O O5 0.213581 0.236743 0.615117
O O6 0.986402 0.345008 0.281597
O O7 0.650389 0.830478 0.489162
O O8 0.500000 0.000000 0.500000
O O9 0.585057 0.158979 0.555048
O O10 0.200912 0.476619 0.770722
O O11 0.125401 0.795083 0.816578
O O12 0.958544 0.863309 0.402013
O O13 0.500000 0.500000 0.500000
O O14 0.466593 0.303521 0.650269
O O15 0.700783 0.175671 0.935295
O O16 0.383112 0.269022 0.802566
O O17 0.586939 0.944265 0.934165
#
# Coordination Sequence:
#
# PCOD9007061 Si02
#       8
#     2   2   2   2   2   2   2   2
#     4  10  21  39  59  90 126 152 205 263 301 367
#     4  11  22  37  64  92 118 162 208 257 308 357
#     4   9  19  35  60  85 116 156 200 257 305 360
#     4  11  24  39  65  88 124 168 206 253 309 380
#     4  10  22  39  62  89 124 163 202 254 315 376
#     4  10  22  39  64  91 123 158 210 263 307 369
#     4  11  22  39  65  94 121 161 216 259 311 365
#     4  10  23  43  58  91 126 162 206 248 314 379
#
# _framework density 19.720862
#
# number of rings (size 3 to 8) (size 9 to 14) (size 15 to 20)
#    0.000    1.750    2.500    1.125    7.000    1.500 
#    0.000    5.625    0.000    0.000    0.000    0.000 
#    0.000    0.000    0.000    0.000    0.000    0.000 
#
# Total GULP energy -89139.742613 kJ/mol
# GULP energy per Si atom -5571.233913 kJ/mol
# Density = 1.967598 g / cm^3
# Si number density = 19.720862 Si / 1000 Ang^3
#
#
#
# Elastic Constant Matrix: (Units=GPa)
#
#
# Indices 1 2 3 4 5 6 
#
# 1 103.4045 60.0021 26.4459 0.0730 -4.8528 -2.3552
# 2 60.0021 123.9881 44.4425 16.6666 -2.3909 5.3148
# 3 26.4459 44.4425 79.0528 12.0306 10.6549 11.5811
# 4 0.0730 16.6666 12.0306 33.6376 0.8803 -1.8153
# 5 -4.8528 -2.3909 10.6549 0.8803 23.0760 -1.0804
# 6 -2.3552 5.3148 11.5811 -1.8153 -1.0804 27.4450
#
#
#
# Elastic Compliance Matrix: (Units=1/GPa)
#
#
# Indices 1 2 3 4 5 6 
#
# 1 0.014585 -0.006729 -0.002898 0.004469 0.003735 0.004220
# 2 -0.006729 0.013881 -0.004859 -0.005267 0.002399 -0.001469
# 3 -0.002898 -0.004859 0.019712 -0.004814 -0.010422 -0.008355
# 4 0.004469 -0.005267 -0.004814 0.034320 0.001578 0.005767
# 5 0.003735 0.002399 -0.010422 0.001578 0.049416 0.006304
# 6 0.004220 -0.001469 -0.008355 0.005767 0.006304 0.041238
#
#
# Mechanical properties :
#
#
# Convention : Reuss Voigt Hill
#
# Bulk Modulus (GPa) = 52.06738 63.13627 57.60183
# Shear Modulus (GPa) = 23.97782 28.53537 26.25659
#
# Velocity S-wave (km/s) = 3.49070 3.80802 3.65281
# Velocity P-wave (km/s) = 6.53500 7.17072 6.86022
#
# Compressibility (1/GPa) = 0.01920588
#
# Stress axis : x y z
#
# Youngs Moduli (GPa) = 68.56494 72.04345 50.72997
#
# Poissons Ratio (x) = 0.48477 0.14701
# Poissons Ratio (y) = 0.46136 0.24649
# Poissons Ratio (z) = 0.19870 0.35006
#
# Static dielectric constant tensor:
#      x y z
#    x 1.728830 -0.061900 0.002930 
#    y -0.061900 1.713660 -0.002510 
#    z 0.002930 -0.002510 1.740460 
# 
# From -- ./inp_files/329061.got.cif
#   From: 2010.05.17/outbox.cif.g08.bks.cpg/sg2_165_cif.got.tgz:329061.got - 2010.06.03 11:33:40.
