data_PCOD9007834
_publ_section_title
;
Structure prediction by ZEFSAII (Michael W. Deem and Ramdas Pophale) SiO2 
 PCOD9007834
Probable space group: P -1
;
_chemical_formula_sum "Si O2"
_cell_formula_units_Z 16
_cell_length_a 11.449818
_cell_length_b 8.811896
_cell_length_c 10.791497
_cell_angle_alpha 126.284314
_cell_angle_beta 51.304411
_cell_angle_gamma 109.899207
_cell_volume 684.246726
_symmetry_space_group_name_H-M "P -1"
_symmetry_group_IT_number 2
_symmetry_cell_setting 'triclinic'
loop_
_space_group_symop_operation_xyz
x,y,z
-x,-y,-z
loop_
_atom_site_type_symbol
_atom_site_label
_atom_site_fract_x
_atom_site_fract_y
_atom_site_fract_z
Si Si1 0.035692 0.186343 0.297238
Si Si2 0.605561 0.540962 0.725101
Si Si3 0.838871 0.001552 0.176994
Si Si4 0.599021 0.807916 0.370537
Si Si5 0.294809 0.888990 0.915166
Si Si6 0.124675 0.547364 0.305167
Si Si7 0.309639 0.739916 0.082791
Si Si8 0.357611 0.141116 0.345357
O O1 0.045257 0.352213 0.270045
O O2 0.889281 0.073464 0.310933
O O3 0.999968 0.291644 0.498780
O O4 0.187140 0.062696 0.117342
O O5 0.506790 0.366426 0.664929
O O6 0.745516 0.472919 0.684506
O O7 0.659500 0.672890 0.640299
O O8 0.483589 0.670758 0.946238
O O9 0.737120 0.826495 0.190170
O O10 0.744779 0.141224 0.215812
O O11 0.000000 0.000000 0.000000
O O12 0.656558 0.812045 0.476732
O O13 0.500000 0.000000 0.500000
O O14 0.272834 0.733256 0.957863
O O15 0.468019 0.923282 0.821426
O O16 0.206475 0.601892 0.155110
O O17 0.280106 0.952204 0.259017
#
# Coordination Sequence:
#
# PCOD9007834 Si02
#       8
#     2   2   2   2   2   2   2   2
#     4  10  22  41  61  87 128 174 219 259 325 381
#     4  11  24  40  66 101 134 162 215 278 332 381
#     4  10  22  39  64  87 128 174 211 256 320 388
#     4  12  23  40  69  99 128 172 219 271 325 387
#     4  10  21  39  63  87 124 169 207 268 316 382
#     4  11  23  38  63  95 125 170 218 269 315 397
#     4  11  23  39  66  95 129 169 217 269 332 380
#     4  11  22  41  65 100 133 165 212 275 334 380
#
# _framework density 23.383379000000001
#
# number of rings (size 3 to 8) (size 9 to 14) (size 15 to 20)
#    0.000    1.250    1.250    6.000    3.500    0.500 
#    0.000    5.625    0.000    0.000    0.000    0.000 
#    0.000    0.000    0.000    0.000    0.000    0.000 
#
# Total GULP energy -89291.118923 kJ/mol
# GULP energy per Si atom -5580.694933 kJ/mol
# Density = 2.333016 g / cm^3
# Si number density = 23.383379 Si / 1000 Ang^3
#
#
#
# Elastic Constant Matrix: (Units=GPa)
#
#
# Indices 1 2 3 4 5 6 
#
# 1 45.4070 26.0507 12.8961 -1.0117 2.2127 5.5176
# 2 26.0507 122.2295 33.8048 -17.6183 8.5980 12.0271
# 3 12.8961 33.8048 77.0514 -10.7471 -9.7945 -3.6962
# 4 -1.0117 -17.6183 -10.7471 47.6444 -1.4750 8.6627
# 5 2.2127 8.5980 -9.7945 -1.4750 29.2397 3.0967
# 6 5.5176 12.0271 -3.6962 8.6627 3.0967 28.2674
#
#
#
# Elastic Compliance Matrix: (Units=1/GPa)
#
#
# Indices 1 2 3 4 5 6 
#
# 1 0.025813 -0.004519 -0.002823 -0.001264 -0.001321 -0.002953
# 2 -0.004519 0.011846 -0.004627 0.004140 -0.003889 -0.005606
# 3 -0.002823 -0.004627 0.016745 0.001590 0.006896 0.003467
# 4 -0.001264 0.004140 0.001590 0.024538 0.001602 -0.009002
# 5 -0.001321 -0.003889 0.006896 0.001602 0.038030 -0.001843
# 6 -0.002953 -0.005606 0.003467 -0.009002 -0.001843 0.041752
#
#
# Mechanical properties :
#
#
# Convention : Reuss Voigt Hill
#
# Bulk Modulus (GPa) = 32.82404 43.35455 38.08929
# Shear Modulus (GPa) = 25.93136 32.49273 29.21204
#
# Velocity S-wave (km/s) = 3.33373 3.73173 3.53833
# Velocity P-wave (km/s) = 5.37458 6.09498 5.74608
#
# Compressibility (1/GPa) = 0.03046547
#
# Stress axis : x y z
#
# Youngs Moduli (GPa) = 38.74057 84.41740 59.71797
#
# Poissons Ratio (x) = 0.38151 0.16861
# Poissons Ratio (y) = 0.17508 0.27629
# Poissons Ratio (z) = 0.10938 0.39056
#
# Static dielectric constant tensor:
#      x y z
#    x 1.958440 0.007330 0.041380 
#    y 0.007330 1.856520 0.016700 
#    z 0.041380 0.016700 1.953530 
# 
# From -- ./inp_files/332260.got.cif
#   From: 2010.05.17/outbox.cif.g08.bks.cpg/sg2_167_cif.got.tgz:332260.got - 2010.06.03 11:33:40.
