data_PCOD9007562
_publ_section_title
;
Structure prediction by ZEFSAII (Michael W. Deem and Ramdas Pophale) SiO2 
 PCOD9007562
Probable space group: P -1
;
_chemical_formula_sum "Si O2"
_cell_formula_units_Z 16
_cell_length_a 12.608118
_cell_length_b 10.111606
_cell_length_c 29.385654
_cell_angle_alpha 27.078645
_cell_angle_beta 152.741041
_cell_angle_gamma 143.866136
_cell_volume 778.740973
_symmetry_space_group_name_H-M "P -1"
_symmetry_group_IT_number 2
_symmetry_cell_setting 'triclinic'
loop_
_space_group_symop_operation_xyz
x,y,z
-x,-y,-z
loop_
_atom_site_type_symbol
_atom_site_label
_atom_site_fract_x
_atom_site_fract_y
_atom_site_fract_z
Si Si1 0.611724 0.649037 0.834495
Si Si2 0.722450 0.865836 0.644663
Si Si3 0.109601 0.375143 0.625194
Si Si4 0.108714 0.616079 0.204929
Si Si5 0.884203 0.726206 0.999728
Si Si6 0.734830 0.334479 0.650202
Si Si7 0.921155 0.315882 0.388162
Si Si8 0.354487 0.598683 0.172046
O O1 0.338011 0.646346 0.739218
O O2 0.668371 0.436349 0.880011
O O3 0.686084 0.986089 0.745039
O O4 0.735905 0.559402 0.955424
O O5 0.744461 0.607461 0.696372
O O6 0.679114 0.724405 0.720437
O O7 0.500000 0.000000 0.500000
O O8 0.947849 0.087297 0.663637
O O9 0.093198 0.619531 0.583284
O O10 0.377786 0.301935 0.745252
O O11 0.000000 0.500000 0.500000
O O12 0.129761 0.560200 0.283657
O O13 0.886774 0.601159 0.090140
O O14 0.201205 0.951489 0.130422
O O15 0.146884 0.755449 0.069194
O O16 0.500000 0.500000 0.500000
O O17 0.902857 0.435794 0.642279
O O18 0.000000 0.000000 0.500000
#
# Coordination Sequence:
#
# PCOD9007562 Si02
#       8
#     2   2   2   2   2   2   2   2
#     4  10  21  39  62  88 121 161 208 255 308 369
#     4  11  22  36  61  89 125 162 199 253 317 368
#     4  11  24  38  58  93 127 160 206 254 311 376
#     4   9  22  38  61  90 123 160 213 251 301 380
#     4   9  19  42  62  88 119 169 212 250 305 368
#     4  11  22  36  61  89 125 162 199 253 317 368
#     4  11  24  38  58  93 127 160 206 254 311 376
#     4  10  21  39  62  88 121 161 208 255 308 369
#
# _framework density 20.545985000000002
#
# number of rings (size 3 to 8) (size 9 to 14) (size 15 to 20)
#    0.000    1.750    2.500    1.125    5.250    0.000 
#    2.250    6.250    0.000   13.500    0.000    0.000 
#    0.000    0.000    0.000    0.000    0.000    0.000 
#
# Total GULP energy -89155.316868 kJ/mol
# GULP energy per Si atom -5572.207304 kJ/mol
# Density = 2.049922 g / cm^3
# Si number density = 20.545985 Si / 1000 Ang^3
#
#
#
# Elastic Constant Matrix: (Units=GPa)
#
#
# Indices 1 2 3 4 5 6 
#
# 1 58.1662 32.3576 11.6836 20.4681 3.4652 -5.1451
# 2 32.3576 69.1478 30.8197 26.7836 11.6134 4.9067
# 3 11.6836 30.8197 54.0644 6.5424 -1.7474 -11.5797
# 4 20.4681 26.7836 6.5424 34.5444 -12.0308 -2.7104
# 5 3.4652 11.6134 -1.7474 -12.0308 37.2069 4.3294
# 6 -5.1451 4.9067 -11.5797 -2.7104 4.3294 49.7188
#
#
#
# Elastic Compliance Matrix: (Units=1/GPa)
#
#
# Indices 1 2 3 4 5 6 
#
# 1 0.025554 -0.008358 0.001057 -0.009728 -0.003271 0.003470
# 2 -0.008358 0.051166 -0.025871 -0.040543 -0.028156 -0.011698
# 3 0.001057 -0.025871 0.033377 0.018958 0.014486 0.010208
# 4 -0.009728 -0.040543 0.018958 0.076520 0.038234 0.008252
# 5 -0.003271 -0.028156 0.014486 0.038234 0.048586 0.003668
# 6 0.003470 -0.011698 0.010208 0.008252 0.003668 0.024135
#
#
# Mechanical properties :
#
#
# Convention : Reuss Voigt Hill
#
# Bulk Modulus (GPa) = 22.85550 36.78892 29.82221
# Shear Modulus (GPa) = 14.69437 31.39519 23.04478
#
# Velocity S-wave (km/s) = 2.67721 3.91326 3.35269
# Velocity P-wave (km/s) = 4.55026 6.19376 5.43450
#
# Compressibility (1/GPa) = 0.04375315
#
# Stress axis : x y z
#
# Youngs Moduli (GPa) = 39.13232 19.54404 29.96117
#
# Poissons Ratio (x) = 0.16335 -0.03166
# Poissons Ratio (y) = 0.32706 0.77512
# Poissons Ratio (z) = -0.04135 0.50562
#
# Static dielectric constant tensor:
#      x y z
#    x 1.742400 -0.046900 -0.032980 
#    y -0.046900 1.734610 0.008480 
#    z -0.032980 0.008480 1.761310 
# 
# From -- ./inp_files/403439.got.cif
#   From: 2010.05.17/outbox.cif.g08.bks.cpg/sg2_202_cif.got.tgz:403439.got - 2010.06.03 11:33:40.
