data_PCOD9007042
_publ_section_title
;
Structure prediction by ZEFSAII (Michael W. Deem and Ramdas Pophale) SiO2 
 PCOD9007042
Probable space group: P -1
;
_chemical_formula_sum "Si O2"
_cell_formula_units_Z 12
_cell_length_a 5.247440
_cell_length_b 19.430135
_cell_length_c 9.822884
_cell_angle_alpha 38.595155
_cell_angle_beta 95.568367
_cell_angle_gamma 113.335770
_cell_volume 532.695190
_symmetry_space_group_name_H-M "P -1"
_symmetry_group_IT_number 2
_symmetry_cell_setting 'triclinic'
loop_
_space_group_symop_operation_xyz
x,y,z
-x,-y,-z
loop_
_atom_site_type_symbol
_atom_site_label
_atom_site_fract_x
_atom_site_fract_y
_atom_site_fract_z
Si Si1 0.150618 0.263870 0.516998
Si Si2 0.063804 0.868014 0.574291
Si Si3 0.857207 0.556741 0.306843
Si Si4 0.684753 0.704334 0.239957
Si Si5 0.148881 0.566302 0.765460
Si Si6 0.438332 0.168117 0.201346
O O1 0.171764 0.210403 0.749805
O O2 0.978669 0.340833 0.417828
O O3 0.983967 0.168267 0.530951
O O4 0.491125 0.353416 0.341092
O O5 0.282286 0.827524 0.718170
O O6 0.750357 0.805787 0.735876
O O7 0.225054 0.021342 0.365998
O O8 0.892210 0.683813 0.177580
O O9 0.511782 0.437697 0.482599
O O10 0.000000 0.500000 0.500000
O O11 0.950014 0.546258 0.176649
O O12 0.512081 0.747068 0.062400
O O13 0.000000 0.500000 0.000000
#
# Coordination Sequence:
#
# PCOD9007042 Si02
#       6
#     2   2   2   2   2   2
#     4  11  23  41  62  92 130 159 210 265 305 370
#     4  10  23  43  63  95 125 159 212 264 307 379
#     4  10  21  39  59  87 130 163 212 250 305 381
#     4  10  23  39  63  92 124 169 207 257 312 370
#     4  11  24  39  60  92 127 170 208 253 313 367
#     4  10  23  42  67  91 123 166 210 255 321 371
#
# _framework density 22.526952999999999
#
# number of rings (size 3 to 8) (size 9 to 14) (size 15 to 20)
#    0.000    1.667    1.667    1.500    4.667    2.000 
#    0.000    0.000    0.000    9.000    0.000    0.000 
#    0.000    0.000    0.000    0.000    0.000    0.000 
#
# Total GULP energy -66990.510129 kJ/mol
# GULP energy per Si atom -5582.542511 kJ/mol
# Density = 2.247568 g / cm^3
# Si number density = 22.526953 Si / 1000 Ang^3
#
#
#
# Elastic Constant Matrix: (Units=GPa)
#
#
# Indices 1 2 3 4 5 6 
#
# 1 108.5897 38.9315 16.0118 9.7609 0.7336 -16.1819
# 2 38.9315 169.5734 45.2789 55.7307 0.2834 -14.6942
# 3 16.0118 45.2789 78.4779 31.9187 -2.1430 -14.9618
# 4 9.7609 55.7307 31.9187 43.9671 0.4015 -5.1606
# 5 0.7336 0.2834 -2.1430 0.4015 27.1490 7.3896
# 6 -16.1819 -14.6942 -14.9618 -5.1606 7.3896 30.3580
#
#
#
# Elastic Compliance Matrix: (Units=1/GPa)
#
#
# Indices 1 2 3 4 5 6 
#
# 1 0.010772 -0.002457 -0.000591 0.001751 -0.001691 0.004970
# 2 -0.002457 0.010922 -0.000214 -0.012934 -0.000352 0.001758
# 3 -0.000591 -0.000214 0.019624 -0.013011 -0.000168 0.007082
# 4 0.001751 -0.012934 -0.013011 0.047798 -0.000710 -0.003441
# 5 -0.001691 -0.000352 -0.000168 -0.000710 0.039869 -0.010980
# 6 0.004970 0.001758 0.007082 -0.003441 -0.010980 0.042019
#
#
# Mechanical properties :
#
#
# Convention : Reuss Voigt Hill
#
# Bulk Modulus (GPa) = 28.74116 61.89838 45.31977
# Shear Modulus (GPa) = 26.43746 37.38941 31.91343
#
# Velocity S-wave (km/s) = 3.42949 4.07844 3.76796
# Velocity P-wave (km/s) = 5.33555 7.05091 6.25234
#
# Compressibility (1/GPa) = 0.03479331
#
# Stress axis : x y z
#
# Youngs Moduli (GPa) = 92.83524 91.55698 50.95803
#
# Poissons Ratio (x) = 0.22498 0.03010
# Poissons Ratio (y) = 0.22812 0.01092
# Poissons Ratio (z) = 0.05484 0.01962
#
# Static dielectric constant tensor:
#      x y z
#    x 1.918640 0.030140 -0.052910 
#    y 0.030140 1.901050 -0.026240 
#    z -0.052910 -0.026240 1.884670 
# 
# From -- ./inp_files/129569.got.cif
#   From: 2010.05.17/outbox.cif.g08.bks.cpg/sg2_65_cif.got.tgz:129569.got - 2010.06.03 11:33:40.
