data_PCOD9007177
_publ_section_title
;
Structure prediction by ZEFSAII (Michael W. Deem and Ramdas Pophale) SiO2 
 PCOD9007177
Probable space group: P -1
;
_chemical_formula_sum "Si O2"
_cell_formula_units_Z 12
_cell_length_a 12.587054
_cell_length_b 13.487698
_cell_length_c 6.199610
_cell_angle_alpha 65.541522
_cell_angle_beta 86.579525
_cell_angle_gamma 135.577615
_cell_volume 556.588590
_symmetry_space_group_name_H-M "P -1"
_symmetry_group_IT_number 2
_symmetry_cell_setting 'triclinic'
loop_
_space_group_symop_operation_xyz
x,y,z
-x,-y,-z
loop_
_atom_site_type_symbol
_atom_site_label
_atom_site_fract_x
_atom_site_fract_y
_atom_site_fract_z
Si Si1 0.845908 0.740235 0.800491
Si Si2 0.362524 0.636425 0.953453
Si Si3 0.215245 0.697191 0.237344
Si Si4 0.408538 0.327429 0.798924
Si Si5 0.475891 0.065990 0.639863
Si Si6 0.139678 0.079984 0.726494
O O1 0.825629 0.779750 0.535104
O O2 0.779259 0.561969 0.967656
O O3 0.721902 0.715247 0.984714
O O4 0.047871 0.923185 0.707774
O O5 0.499951 0.802119 0.613498
O O6 0.263685 0.646516 0.097332
O O7 0.469149 0.649167 0.096546
O O8 0.352088 0.796484 0.337203
O O9 0.000000 0.500000 0.500000
O O10 0.291973 0.874649 0.961516
O O11 0.500000 0.500000 0.500000
O O12 0.304523 0.173742 0.764696
O O13 0.500000 0.000000 0.500000
O O14 0.000000 0.000000 0.000000
#
# Coordination Sequence:
#
# PCOD9007177 Si02
#       6
#     2   2   2   2   2   2
#     4  10  21  39  60  88 132 175 218 269 312 391
#     4  11  23  38  68  99 127 179 219 262 341 389
#     4  10  23  47  73  95 132 167 218 289 336 397
#     4  11  22  37  64  90 136 176 216 264 315 386
#     4   9  22  45  69  98 132 162 226 280 335 400
#     4   9  20  38  56  86 135 173 219 268 310 373
#
# _framework density 21.559909000000001
#
# number of rings (size 3 to 8) (size 9 to 14) (size 15 to 20)
#    0.000    2.000    1.667    0.500    2.333    2.667 
#    0.000   28.333    0.000    0.000    0.000    0.000 
#    0.000    0.000    0.000    0.000    0.000    0.000 
#
# Total GULP energy -66911.734092 kJ/mol
# GULP energy per Si atom -5575.977841 kJ/mol
# Density = 2.151084 g / cm^3
# Si number density = 21.559909 Si / 1000 Ang^3
#
#
#
# Elastic Constant Matrix: (Units=GPa)
#
#
# Indices 1 2 3 4 5 6 
#
# 1 52.9757 40.6954 53.0461 -11.7074 5.5153 -0.9883
# 2 40.6954 134.7192 45.8300 -20.2669 9.2563 1.8087
# 3 53.0461 45.8300 186.9606 -16.7998 13.9435 5.6242
# 4 -11.7074 -20.2669 -16.7998 41.1147 -7.9110 -0.6034
# 5 5.5153 9.2563 13.9435 -7.9110 43.4325 4.2816
# 6 -0.9883 1.8087 5.6242 -0.6034 4.2816 35.4259
#
#
#
# Elastic Compliance Matrix: (Units=1/GPa)
#
#
# Indices 1 2 3 4 5 6 
#
# 1 0.032034 -0.006821 -0.007234 0.002836 -0.000016 0.002441
# 2 -0.006821 0.010024 -0.000208 0.002782 -0.000643 -0.000544
# 3 -0.007234 -0.000208 0.007645 0.000705 -0.001241 -0.001243
# 4 0.002836 0.002782 0.000705 0.027528 0.003852 -0.000171
# 5 -0.000016 -0.000643 -0.001241 0.003852 0.024526 -0.002669
# 6 0.002441 -0.000544 -0.001243 -0.000171 -0.002669 0.028841
#
#
# Mechanical properties :
#
#
# Convention : Reuss Voigt Hill
#
# Bulk Modulus (GPa) = 47.21856 72.64428 59.93142
# Shear Modulus (GPa) = 30.08725 39.66689 34.87707
#
# Velocity S-wave (km/s) = 3.73972 4.29399 4.02640
# Velocity P-wave (km/s) = 6.37149 7.63884 7.03377
#
# Compressibility (1/GPa) = 0.02117811
#
# Stress axis : x y z
#
# Youngs Moduli (GPa) = 31.21667 99.76157 130.79627
#
# Poissons Ratio (x) = 0.68044 0.94624
# Poissons Ratio (y) = 0.21292 0.02716
# Poissons Ratio (z) = 0.22584 0.02071
#
# Static dielectric constant tensor:
#      x y z
#    x 1.807750 0.024100 -0.009580 
#    y 0.024100 1.824540 -0.069220 
#    z -0.009580 -0.069220 1.766420 
# 
# From -- ./inp_files/69161.got.cif
#   From: 2010.05.17/outbox.cif.g08.bks.cpg/sg2_35_cif.got.tgz:69161.got - 2010.06.03 11:33:40.
