data_PCOD9007261
_publ_section_title
;
Structure prediction by ZEFSAII (Michael W. Deem and Ramdas Pophale) SiO2 
 PCOD9007261
Probable space group: P -1
;
_chemical_formula_sum "Si O2"
_cell_formula_units_Z 12
_cell_length_a 8.668586
_cell_length_b 13.161330
_cell_length_c 12.595750
_cell_angle_alpha 149.295702
_cell_angle_beta 131.290840
_cell_angle_gamma 62.105926
_cell_volume 532.452923
_symmetry_space_group_name_H-M "P -1"
_symmetry_group_IT_number 2
_symmetry_cell_setting 'triclinic'
loop_
_space_group_symop_operation_xyz
x,y,z
-x,-y,-z
loop_
_atom_site_type_symbol
_atom_site_label
_atom_site_fract_x
_atom_site_fract_y
_atom_site_fract_z
Si Si1 0.999017 0.835049 0.515203
Si Si2 0.105083 0.238608 0.228062
Si Si3 0.139180 0.810336 0.335395
Si Si4 0.274592 0.614542 0.801477
Si Si5 0.306396 0.972396 0.965288
Si Si6 0.713106 0.544267 0.993639
O O1 0.173908 0.858693 0.520262
O O2 0.100245 0.879673 0.714704
O O3 0.867680 0.995683 0.563610
O O4 0.836146 0.614883 0.222862
O O5 0.195098 0.400770 0.507760
O O6 0.921866 0.330750 0.176769
O O7 0.288694 0.194509 0.198645
O O8 0.000000 0.000000 0.000000
O O9 0.296468 0.688064 0.249745
O O10 0.891294 0.671626 0.104036
O O11 0.322495 0.804123 0.909186
O O12 0.493885 0.605044 0.945532
O O13 0.500000 0.000000 0.000000
#
# Coordination Sequence:
#
# PCOD9007261 Si02
#       6
#     2   2   2   2   2   2
#     4   9  18  33  49  81 118 145 178 232 279 330
#     4   9  22  41  57  78 117 155 192 230 282 345
#     4   8  17  30  52  76 117 150 178 223 277 335
#     4  10  21  39  61  82 111 158 193 227 282 347
#     4  11  23  34  59  93 120 143 184 241 291 330
#     4   9  17  31  55  77 104 150 191 221 270 338
#
# _framework density 22.537205
#
# number of rings (size 3 to 8) (size 9 to 14) (size 15 to 20)
#    1.000    1.667    0.000    1.000    2.333    3.333 
#    0.000    0.833    0.000   10.000    0.000    0.000 
#    0.000    0.000    0.000    0.000    0.000    0.000 
#
# Total GULP energy -66857.926070 kJ/mol
# GULP energy per Si atom -5571.493839 kJ/mol
# Density = 2.248591 g / cm^3
# Si number density = 22.537205 Si / 1000 Ang^3
#
#
#
# Elastic Constant Matrix: (Units=GPa)
#
#
# Indices 1 2 3 4 5 6 
#
# 1 77.6378 33.5188 9.0302 17.7116 -8.4683 -27.7185
# 2 33.5188 92.9270 36.4743 12.9063 -9.0154 -19.3962
# 3 9.0302 36.4743 75.1568 13.6741 -13.4216 -19.6105
# 4 17.7116 12.9063 13.6741 33.8417 -15.0477 -7.2792
# 5 -8.4683 -9.0154 -13.4216 -15.0477 25.1216 10.2977
# 6 -27.7185 -19.3962 -19.6105 -7.2792 10.2977 37.5627
#
#
#
# Elastic Compliance Matrix: (Units=1/GPa)
#
#
# Indices 1 2 3 4 5 6 
#
# 1 0.022038 -0.005850 0.005234 -0.009960 -0.004052 0.015155
# 2 -0.005850 0.015593 -0.006817 -0.000180 -0.000207 0.000198
# 3 0.005234 -0.006817 0.019751 -0.004692 0.003453 0.008798
# 4 -0.009960 -0.000180 -0.004692 0.046118 0.024884 -0.007777
# 5 -0.004052 -0.000207 0.003453 0.024884 0.060465 -0.013049
# 6 0.015155 0.000198 0.008798 -0.007777 -0.013049 0.044571
#
#
# Mechanical properties :
#
#
# Convention : Reuss Voigt Hill
#
# Bulk Modulus (GPa) = 23.52082 44.86315 34.19199
# Shear Modulus (GPa) = 21.04598 30.41843 25.73221
#
# Velocity S-wave (km/s) = 3.05918 3.67781 3.38267
# Velocity P-wave (km/s) = 4.78928 6.16316 5.51914
#
# Compressibility (1/GPa) = 0.04251552
#
# Stress axis : x y z
#
# Youngs Moduli (GPa) = 45.37592 64.13017 50.63015
#
# Poissons Ratio (x) = 0.37517 -0.26500
# Poissons Ratio (y) = 0.26546 0.34516
# Poissons Ratio (z) = -0.23750 0.43720
#
# Static dielectric constant tensor:
#      x y z
#    x 1.979250 0.032490 -0.006830 
#    y 0.032490 1.812040 0.009630 
#    z -0.006830 0.009630 1.895840 
# 
# From -- ./inp_files/395009.got.cif
#   From: 2010.05.17/outbox.cif.g08.bks.cpg/sg2_198_cif.got.tgz:395009.got - 2010.06.03 11:33:40.
