data_PCOD9007684
_publ_section_title
;
Structure prediction by ZEFSAII (Michael W. Deem and Ramdas Pophale) SiO2 
 PCOD9007684
Probable space group: P -1
;
_chemical_formula_sum "Si O2"
_cell_formula_units_Z 14
_cell_length_a 5.162562
_cell_length_b 13.370551
_cell_length_c 13.514987
_cell_angle_alpha 135.770231
_cell_angle_beta 96.727322
_cell_angle_gamma 90.862874
_cell_volume 639.611817
_symmetry_space_group_name_H-M "P -1"
_symmetry_group_IT_number 2
_symmetry_cell_setting 'triclinic'
loop_
_space_group_symop_operation_xyz
x,y,z
-x,-y,-z
loop_
_atom_site_type_symbol
_atom_site_label
_atom_site_fract_x
_atom_site_fract_y
_atom_site_fract_z
Si Si1 0.892432 0.334559 0.341744
Si Si2 0.082953 0.051894 0.391320
Si Si3 0.607971 0.746504 0.615442
Si Si4 0.940436 0.501485 0.835087
Si Si5 0.787901 0.276804 0.843793
Si Si6 0.610021 0.483348 0.281716
Si Si7 0.667640 0.909202 0.371987
O O1 0.678063 0.249297 0.346851
O O2 0.722771 0.350800 0.247219
O O3 0.000000 0.500000 0.500000
O O4 0.162356 0.265757 0.301572
O O5 0.246542 0.137877 0.374025
O O6 0.142174 0.124348 0.553879
O O7 0.130837 0.883379 0.269978
O O8 0.767885 0.018683 0.365082
O O9 0.565140 0.597367 0.445502
O O10 0.879499 0.377362 0.826376
O O11 0.664398 0.539299 0.806052
O O12 0.138359 0.453994 0.728775
O O13 0.104582 0.639206 0.994859
O O14 0.474158 0.236713 0.786728
O O15 0.500000 0.000000 0.500000
#
# Coordination Sequence:
#
# PCOD9007684 Si02
#       7
#     2   2   2   2   2   2   2
#     4  10  21  39  62  92 123 149 197 256 303 357
#     4  10  22  36  60  89 124 158 193 249 302 358
#     4  11  22  36  66  94 121 154 192 250 318 352
#     4  11  25  38  63  85 119 170 196 244 289 357
#     4  10  24  39  56  86 125 157 207 235 291 358
#     4  11  22  40  62  89 119 153 203 246 301 353
#     4   9  20  35  57  84 124 154 197 246 289 355
#
# _framework density 21.888278
#
# number of rings (size 3 to 8) (size 9 to 14) (size 15 to 20)
#    0.000    1.714    0.000    5.143   14.000    1.143 
#    0.000    0.000    0.000    5.143    0.000    0.000 
#    0.000    0.000    0.000    0.000    0.000    0.000 
#
# Total GULP energy -77941.464177 kJ/mol
# GULP energy per Si atom -5567.247441 kJ/mol
# Density = 2.183846 g / cm^3
# Si number density = 21.888278 Si / 1000 Ang^3
#
#
#
# Elastic Constant Matrix: (Units=GPa)
#
#
# Indices 1 2 3 4 5 6 
#
# 1 94.5561 15.6584 15.7372 -1.8713 20.8138 14.8099
# 2 15.6584 89.9856 17.1084 0.4436 12.0826 17.7857
# 3 15.7372 17.1084 38.5291 1.3365 25.4028 -15.4037
# 4 -1.8713 0.4436 1.3365 22.8207 4.9952 2.3333
# 5 20.8138 12.0826 25.4028 4.9952 25.5131 -2.9287
# 6 14.8099 17.7857 -15.4037 2.3333 -2.9287 40.3344
#
#
#
# Elastic Compliance Matrix: (Units=1/GPa)
#
#
# Indices 1 2 3 4 5 6 
#
# 1 0.014789 0.000698 0.000037 0.005032 -0.014227 -0.007048
# 2 0.000698 0.016171 -0.019102 0.000300 0.009122 -0.014037
# 3 0.000037 -0.019102 0.133813 0.013970 -0.121225 0.049903
# 4 0.005032 0.000300 0.013970 0.049712 -0.028069 -0.001559
# 5 -0.014227 0.009122 -0.121225 -0.028069 0.169098 -0.031192
# 6 -0.007048 -0.014037 0.049903 -0.001559 -0.031192 0.050454
#
#
# Mechanical properties :
#
#
# Convention : Reuss Voigt Hill
#
# Bulk Modulus (GPa) = 7.81012 35.56430 21.68721
# Shear Modulus (GPa) = 9.73803 29.37140 19.55471
#
# Velocity S-wave (km/s) = 2.11155 3.66714 2.99220
# Velocity P-wave (km/s) = 3.08557 5.84927 4.67625
#
# Compressibility (1/GPa) = 0.12803899
#
# Stress axis : x y z
#
# Youngs Moduli (GPa) = 67.61764 61.83721 7.47312
#
# Poissons Ratio (x) = -0.04316 -0.00028
# Poissons Ratio (y) = -0.04720 0.14275
# Poissons Ratio (z) = -0.00251 1.18124
#
# Static dielectric constant tensor:
#      x y z
#    x 2.351820 -0.038980 0.112230 
#    y -0.038980 1.898840 -0.026470 
#    z 0.112230 -0.026470 1.789490 
# 
# From -- ./inp_files/363460.got.cif
#   From: 2010.05.17/outbox.cif.g08.bks.cpg/sg2_182_cif.got.tgz:363460.got - 2010.06.03 11:33:40.
