data_PCOD9007922
_publ_section_title
;
Structure prediction by ZEFSAII (Michael W. Deem and Ramdas Pophale) SiO2 
 PCOD9007922
Probable space group: P -1
;
_chemical_formula_sum "Si O2"
_cell_formula_units_Z 14
_cell_length_a 11.307850
_cell_length_b 12.110839
_cell_length_c 8.872430
_cell_angle_alpha 81.209005
_cell_angle_beta 77.403158
_cell_angle_gamma 32.099779
_cell_volume 628.939088
_symmetry_space_group_name_H-M "P -1"
_symmetry_group_IT_number 2
_symmetry_cell_setting 'triclinic'
loop_
_space_group_symop_operation_xyz
x,y,z
-x,-y,-z
loop_
_atom_site_type_symbol
_atom_site_label
_atom_site_fract_x
_atom_site_fract_y
_atom_site_fract_z
Si Si1 0.979986 0.692498 0.247610
Si Si2 0.877330 0.802635 0.583199
Si Si3 0.150962 0.961074 0.863086
Si Si4 0.669141 0.552360 0.299640
Si Si5 0.590015 0.695911 0.975035
Si Si6 0.431117 0.120910 0.799787
Si Si7 0.235218 0.859336 0.532081
O O1 0.958198 0.681470 0.432794
O O2 0.758101 0.821362 0.196471
O O3 0.198458 0.468023 0.159645
O O4 0.987077 0.820875 0.194623
O O5 0.087698 0.668447 0.659384
O O6 0.675998 0.901326 0.710602
O O7 0.776911 0.997596 0.512512
O O8 0.366756 0.833536 0.923183
O O9 0.235605 0.833798 0.714338
O O10 0.000000 0.000000 0.000000
O O11 0.652453 0.699873 0.299328
O O12 0.462184 0.653313 0.420637
O O13 0.641404 0.568775 0.123850
O O14 0.558467 0.837921 0.042204
O O15 0.000000 0.000000 0.500000
#
# Coordination Sequence:
#
# PCOD9007922 Si02
#       7
#     2   2   2   2   2   2   2
#     4  11  23  40  64  94 124 162 209 253 309 363
#     4  10  21  39  63  91 123 163 204 252 308 364
#     4  11  25  41  63  90 125 163 206 261 306 359
#     4   9  21  37  60  90 122 160 201 245 306 367
#     4  10  23  39  62  92 129 160 202 250 310 367
#     4   9  22  39  63  94 126 164 201 250 309 372
#     4  10  21  40  63  87 122 161 210 254 305 363
#
# _framework density 22.259706000000001
#
# number of rings (size 3 to 8) (size 9 to 14) (size 15 to 20)
#    0.857    1.143    0.000    2.571    2.000    3.429 
#    0.000    0.000    0.000    0.000    0.000    0.000 
#    0.000    0.000    0.000    0.000    0.000    0.000 
#
# Total GULP energy -78192.550789 kJ/mol
# GULP energy per Si atom -5585.182199 kJ/mol
# Density = 2.220904 g / cm^3
# Si number density = 22.259706 Si / 1000 Ang^3
#
#
#
# Elastic Constant Matrix: (Units=GPa)
#
#
# Indices 1 2 3 4 5 6 
#
# 1 70.3723 7.2598 36.2226 13.8114 -6.6474 -17.1330
# 2 7.2598 74.9672 48.9107 13.4527 -6.1005 -17.7687
# 3 36.2226 48.9107 140.9544 28.5393 10.2306 -6.0751
# 4 13.8114 13.4527 28.5393 42.3937 -13.2713 -3.1888
# 5 -6.6474 -6.1005 10.2306 -13.2713 32.1033 -3.3152
# 6 -17.1330 -17.7687 -6.0751 -3.1888 -3.3152 30.9209
#
#
#
# Elastic Compliance Matrix: (Units=1/GPa)
#
#
# Indices 1 2 3 4 5 6 
#
# 1 0.023225 0.008684 -0.009234 0.000810 0.011530 0.017365
# 2 0.008684 0.025126 -0.011634 0.002589 0.013277 0.018656
# 3 -0.009234 -0.011634 0.015942 -0.009318 -0.014207 -0.011154
# 4 0.000810 0.002589 -0.009318 0.035066 0.018717 0.005729
# 5 0.011530 0.013277 -0.014207 0.018717 0.050240 0.018544
# 6 0.017365 0.018656 -0.011154 0.005729 0.018544 0.053070
#
#
# Mechanical properties :
#
#
# Convention : Reuss Voigt Hill
#
# Bulk Modulus (GPa) = 25.04719 52.34224 38.69472
# Shear Modulus (GPa) = 20.80331 34.01030 27.40680
#
# Velocity S-wave (km/s) = 3.06039 3.91306 3.51269
# Velocity P-wave (km/s) = 4.87491 6.63185 5.82006
#
# Compressibility (1/GPa) = 0.03992463
#
# Stress axis : x y z
#
# Youngs Moduli (GPa) = 43.05646 39.79897 62.72868
#
# Poissons Ratio (x) = -0.34563 0.57926
# Poissons Ratio (y) = -0.37392 0.72981
# Poissons Ratio (z) = 0.39760 0.46304
#
# Static dielectric constant tensor:
#      x y z
#    x 1.809050 0.074170 -0.006930 
#    y 0.074170 1.815350 -0.009570 
#    z -0.006930 -0.009570 1.841860 
# 
# From -- ./inp_files/273095.got.cif
#   From: 2010.05.17/outbox.cif.g08.bks.cpg/sg2_137_cif.got.tgz:273095.got - 2010.06.03 11:33:40.
