data_PCOD9007991
_publ_section_title
;
Structure prediction by ZEFSAII (Michael W. Deem and Ramdas Pophale) SiO2 
 PCOD9007991
Probable space group: P -1
;
_chemical_formula_sum "Si O2"
_cell_formula_units_Z 16
_cell_length_a 9.316900
_cell_length_b 16.334771
_cell_length_c 8.754820
_cell_angle_alpha 62.346239
_cell_angle_beta 117.168271
_cell_angle_gamma 72.632007
_cell_volume 799.955467
_symmetry_space_group_name_H-M "P -1"
_symmetry_group_IT_number 2
_symmetry_cell_setting 'triclinic'
loop_
_space_group_symop_operation_xyz
x,y,z
-x,-y,-z
loop_
_atom_site_type_symbol
_atom_site_label
_atom_site_fract_x
_atom_site_fract_y
_atom_site_fract_z
Si Si1 0.741179 0.919258 0.744463
Si Si2 0.590023 0.320295 0.275371
Si Si3 0.548477 0.721440 0.462659
Si Si4 0.174583 0.000776 0.001603
Si Si5 0.095759 0.452049 0.420057
Si Si6 0.110425 0.942013 0.444953
Si Si7 0.176600 0.590146 0.806883
Si Si8 0.918865 0.667141 0.909458
O O1 0.852823 0.784825 0.860127
O O2 0.500000 0.000000 0.500000
O O3 0.772319 0.929973 0.930051
O O4 0.839036 0.975466 0.668524
O O5 0.574995 0.303514 0.463356
O O6 0.672380 0.197231 0.339038
O O7 0.748810 0.342335 0.286122
O O8 0.364844 0.445423 0.007141
O O9 0.386899 0.861444 0.216209
O O10 0.659614 0.636619 0.440510
O O11 0.727710 0.696598 0.687025
O O12 0.000000 0.000000 0.000000
O O13 0.059137 0.054750 0.738185
O O14 0.000000 0.500000 0.500000
O O15 0.023067 0.376112 0.406920
O O16 0.988695 0.564657 0.154104
O O17 0.000000 0.000000 0.500000
O O18 0.109181 0.618362 0.926572
#
# Coordination Sequence:
#
# PCOD9007991 Si02
#       8
#     2   2   2   2   2   2   2   2
#     4  11  21  38  65  92 120 163 213 252 310 380
#     4  11  19  38  68  89 121 161 214 256 312 379
#     4  11  19  42  67  85 122 170 208 260 317 375
#     4  10  21  39  63  93 125 165 209 257 316 376
#     4  11  24  40  59  92 125 163 210 264 312 369
#     4  11  24  41  63  92 132 167 204 259 321 374
#     4  10  22  37  65  92 117 165 214 254 312 380
#     4  11  20  40  65  88 126 165 209 257 322 370
#
# _framework density 20.001114000000001
#
# number of rings (size 3 to 8) (size 9 to 14) (size 15 to 20)
#    0.000    1.250    6.250    1.500    0.000    2.000 
#    0.000    2.500    0.000    0.000    0.000    0.000 
#    0.000    0.000    0.000    0.000    0.000    0.000 
#
# Total GULP energy -89204.394793 kJ/mol
# GULP energy per Si atom -5575.274675 kJ/mol
# Density = 1.995559 g / cm^3
# Si number density = 20.001114 Si / 1000 Ang^3
#
#
#
# Elastic Constant Matrix: (Units=GPa)
#
#
# Indices 1 2 3 4 5 6 
#
# 1 119.0903 49.2273 19.9760 2.2281 -12.0432 -15.6176
# 2 49.2273 121.3911 37.3295 -0.1530 -2.6151 -25.1129
# 3 19.9760 37.3295 56.6757 -6.1015 10.6741 -13.9944
# 4 2.2281 -0.1530 -6.1015 42.1597 -2.2617 -0.2775
# 5 -12.0432 -2.6151 10.6741 -2.2617 21.7310 -0.9860
# 6 -15.6176 -25.1129 -13.9944 -0.2775 -0.9860 42.8047
#
#
#
# Elastic Compliance Matrix: (Units=1/GPa)
#
#
# Indices 1 2 3 4 5 6 
#
# 1 0.011120 -0.003169 -0.002909 -0.000624 0.007210 0.001409
# 2 -0.003169 0.012516 -0.006797 -0.000572 0.003212 0.004035
# 3 -0.002909 -0.006797 0.027256 0.003275 -0.015317 0.003530
# 4 -0.000624 -0.000572 0.003275 0.024257 0.000532 0.000677
# 5 0.007210 0.003212 -0.015317 0.000532 0.058017 0.000847
# 6 0.001409 0.004035 0.003530 0.000677 0.000847 0.027421
#
#
# Mechanical properties :
#
#
# Convention : Reuss Voigt Hill
#
# Bulk Modulus (GPa) = 39.77516 56.69141 48.23329
# Shear Modulus (GPa) = 25.67800 34.04738 29.86269
#
# Velocity S-wave (km/s) = 3.58694 4.13034 3.86819
# Velocity P-wave (km/s) = 6.08971 7.15206 6.64215
#
# Compressibility (1/GPa) = 0.02514132
#
# Stress axis : x y z
#
# Youngs Moduli (GPa) = 89.92428 79.89522 36.68966
#
# Poissons Ratio (x) = 0.25318 0.10675
# Poissons Ratio (y) = 0.28496 0.24939
# Poissons Ratio (z) = 0.26163 0.54307
#
# Static dielectric constant tensor:
#      x y z
#    x 1.731320 -0.022970 0.009710 
#    y -0.022970 1.702250 0.014510 
#    z 0.009710 0.014510 1.729850 
# 
# From -- ./inp_files/206038.got.cif
#   From: 2010.05.17/outbox.cif.g08.bks.cpg/sg2_104_cif.got.tgz:206038.got - 2010.06.03 11:33:40.
