data_PCOD9007831
_publ_section_title
;
Structure prediction by ZEFSAII (Michael W. Deem and Ramdas Pophale) SiO2 
 PCOD9007831
Probable space group: P -1
;
_chemical_formula_sum "Si O2"
_cell_formula_units_Z 16
_cell_length_a 14.087448
_cell_length_b 16.589607
_cell_length_c 26.677586
_cell_angle_alpha 18.545772
_cell_angle_beta 22.846743
_cell_angle_gamma 30.467635
_cell_volume 766.434076
_symmetry_space_group_name_H-M "P -1"
_symmetry_group_IT_number 2
_symmetry_cell_setting 'triclinic'
loop_
_space_group_symop_operation_xyz
x,y,z
-x,-y,-z
loop_
_atom_site_type_symbol
_atom_site_label
_atom_site_fract_x
_atom_site_fract_y
_atom_site_fract_z
Si Si1 0.021067 0.337357 0.534922
Si Si2 0.092103 0.767628 0.560409
Si Si3 0.473255 0.936136 0.880830
Si Si4 0.000086 0.215006 0.967840
Si Si5 0.512303 0.705494 0.183095
Si Si6 0.948550 0.200976 0.110381
Si Si7 0.704941 0.412846 0.914810
Si Si8 0.556456 0.544014 0.144525
O O1 0.280130 0.435275 0.326849
O O2 0.000000 0.500000 0.500000
O O3 0.758225 0.367854 0.618600
O O4 0.043753 0.050066 0.711661
O O5 0.088527 0.518046 0.744384
O O6 0.906705 0.656023 0.672380
O O7 0.348343 0.860117 0.356027
O O8 0.000000 0.000000 0.500000
O O9 0.411223 0.701368 0.011476
O O10 0.596533 0.823839 0.935763
O O11 0.225690 0.050105 0.949629
O O12 0.830327 0.192887 0.014050
O O13 0.864509 0.146138 0.126504
O O14 0.547166 0.558387 0.200614
O O15 0.765179 0.687525 0.099957
O O16 0.500000 0.000000 0.000000
O O17 0.768182 0.381938 0.117319
O O18 0.500000 0.500000 0.000000
#
# Coordination Sequence:
#
# PCOD9007831 Si02
#       8
#     2   2   2   2   2   2   2   2
#     4   9  19  37  59  84 117 151 194 245 297 350
#     4  10  21  39  63  87 123 157 200 250 306 354
#     4  12  21  42  62  88 127 158 206 251 302 366
#     4  10  23  38  62  89 120 163 200 250 303 361
#     4   9  19  37  59  85 117 154 194 245 298 356
#     4  11  20  39  61  87 122 156 199 248 300 361
#     4  10  21  39  63  89 122 159 202 250 310 357
#     4  11  22  37  63  87 120 160 197 250 300 358
#
# _framework density 20.875899
#
# number of rings (size 3 to 8) (size 9 to 14) (size 15 to 20)
#    0.750    1.000    1.250    5.250    0.000    0.000 
#    6.750    2.500    0.000    0.000    0.000    0.000 
#    0.000    0.000    0.000    0.000    0.000    0.000 
#
# Total GULP energy -89192.586407 kJ/mol
# GULP energy per Si atom -5574.536650 kJ/mol
# Density = 2.082838 g / cm^3
# Si number density = 20.875899 Si / 1000 Ang^3
#
#
#
# Elastic Constant Matrix: (Units=GPa)
#
#
# Indices 1 2 3 4 5 6 
#
# 1 34.3396 -15.2714 9.4709 4.3944 -0.2348 1.0233
# 2 -15.2714 112.3635 9.0258 12.1675 2.5230 -8.8815
# 3 9.4709 9.0258 51.6291 12.6598 -6.1400 -0.7728
# 4 4.3944 12.1675 12.6598 23.8738 -3.6495 -4.5385
# 5 -0.2348 2.5230 -6.1400 -3.6495 32.9010 -2.1467
# 6 1.0233 -8.8815 -0.7728 -4.5385 -2.1467 27.2908
#
#
#
# Elastic Compliance Matrix: (Units=1/GPa)
#
#
# Indices 1 2 3 4 5 6 
#
# 1 0.034200 0.005821 -0.005937 -0.006589 -0.002095 -0.000817
# 2 0.005821 0.010621 -0.001759 -0.005377 -0.001556 0.002172
# 3 -0.005937 -0.001759 0.023658 -0.010267 0.003295 -0.001128
# 4 -0.006589 -0.005377 -0.010267 0.053450 0.004866 0.007478
# 5 -0.002095 -0.001556 0.003295 0.004866 0.031848 0.002980
# 6 -0.000817 0.002172 -0.001128 0.007478 0.002980 0.038826
#
#
# Mechanical properties :
#
#
# Convention : Reuss Voigt Hill
#
# Bulk Modulus (GPa) = 15.44877 22.75364 19.10121
# Shear Modulus (GPa) = 22.94329 29.82026 26.38178
#
# Velocity S-wave (km/s) = 3.31876 3.78359 3.55877
# Velocity P-wave (km/s) = 4.70127 5.47819 5.10453
#
# Compressibility (1/GPa) = 0.06473008
#
# Stress axis : x y z
#
# Youngs Moduli (GPa) = 29.23952 94.15354 42.26901
#
# Poissons Ratio (x) = -0.54808 0.25095
# Poissons Ratio (y) = -0.17021 0.07434
# Poissons Ratio (z) = 0.17360 0.16558
#
# Static dielectric constant tensor:
#      x y z
#    x 1.496350 0.316940 -0.157000 
#    y 0.316940 1.348840 0.123900 
#    z -0.157000 0.123900 1.759420 
# 
# From -- ./inp_files/619690.got.cif
#   From: 2010.05.17/outbox.cif.g08.bks.cpg/sg2_310_cif.got.tgz:619690.got - 2010.06.03 11:33:40.
