data_PCOD9007552
_publ_section_title
;
Structure prediction by ZEFSAII (Michael W. Deem and Ramdas Pophale) SiO2 
 PCOD9007552
Probable space group: P -1
;
_chemical_formula_sum "Si O2"
_cell_formula_units_Z 16
_cell_length_a 12.161471
_cell_length_b 21.083246
_cell_length_c 5.195500
_cell_angle_alpha 70.572683
_cell_angle_beta 132.364949
_cell_angle_gamma 128.256373
_cell_volume 764.636571
_symmetry_space_group_name_H-M "P -1"
_symmetry_group_IT_number 2
_symmetry_cell_setting 'triclinic'
loop_
_space_group_symop_operation_xyz
x,y,z
-x,-y,-z
loop_
_atom_site_type_symbol
_atom_site_label
_atom_site_fract_x
_atom_site_fract_y
_atom_site_fract_z
Si Si1 0.198826 0.104645 0.934297
Si Si2 0.216489 0.584868 0.819047
Si Si3 0.384524 0.756922 0.665062
Si Si4 0.885916 0.685533 0.612315
Si Si5 0.901713 0.387536 0.899643
Si Si6 0.979645 0.084026 0.122475
Si Si7 0.493446 0.544940 0.178308
Si Si8 0.089735 0.786807 0.300526
O O1 0.087774 0.114059 0.521166
O O2 0.410249 0.172598 0.155426
O O3 0.121313 0.106121 0.086478
O O4 0.152975 0.013959 0.946234
O O5 0.362203 0.683889 0.897219
O O6 0.072204 0.574253 0.393741
O O7 0.152100 0.572349 0.026412
O O8 0.317836 0.545952 0.928425
O O9 0.270237 0.706017 0.298760
O O10 0.270041 0.788149 0.567676
O O11 0.671903 0.636901 0.324877
O O12 0.991190 0.751568 0.465222
O O13 0.937973 0.619803 0.750536
O O14 0.957832 0.724434 0.953523
O O15 0.881716 0.128283 0.839371
O O16 0.500000 0.500000 0.500000
O O17 0.500000 0.500000 0.000000
#
# Coordination Sequence:
#
# PCOD9007552 Si02
#       8
#     2   2   2   2   2   2   2   2
#     4  10  22  39  57  86 126 161 201 242 299 339
#     4  10  21  39  62  88 114 152 194 241 284 358
#     4   9  22  35  64  87 118 154 202 247 283 347
#     4  11  22  42  62  89 120 153 191 251 289 356
#     4   9  19  38  61  88 115 147 202 236 285 342
#     4  10  23  38  56  89 124 162 199 245 292 354
#     4  12  27  44  61  91 123 152 193 241 301 360
#     4  11  22  37  64  91 118 154 205 243 296 340
#
# _framework density 20.924975
#
# number of rings (size 3 to 8) (size 9 to 14) (size 15 to 20)
#    0.750    1.000    1.250    2.250    5.250    0.500 
#    0.000    3.750    0.000    6.750    0.000    0.000 
#    0.000    0.000    0.000    0.000    0.000    0.000 
#
# Total GULP energy -89400.218828 kJ/mol
# GULP energy per Si atom -5587.513677 kJ/mol
# Density = 2.087735 g / cm^3
# Si number density = 20.924975 Si / 1000 Ang^3
#
#
#
# Elastic Constant Matrix: (Units=GPa)
#
#
# Indices 1 2 3 4 5 6 
#
# 1 102.0372 33.8101 35.7223 -4.4820 -2.6087 3.0908
# 2 33.8101 70.8702 25.2463 -10.9405 10.2645 8.9996
# 3 35.7223 25.2463 64.6171 -12.9628 -4.4525 9.0328
# 4 -4.4820 -10.9405 -12.9628 44.5410 2.2150 10.8676
# 5 -2.6087 10.2645 -4.4525 2.2150 36.7004 -8.3492
# 6 3.0908 8.9996 9.0328 10.8676 -8.3492 37.6063
#
#
#
# Elastic Compliance Matrix: (Units=1/GPa)
#
#
# Indices 1 2 3 4 5 6 
#
# 1 0.013632 -0.005469 -0.006168 -0.002629 0.002593 0.003005
# 2 -0.005469 0.021113 -0.003637 0.005807 -0.008758 -0.007352
# 3 -0.006168 -0.003637 0.022441 0.006263 0.001684 -0.005449
# 4 -0.002629 0.005807 0.006263 0.028689 -0.005559 -0.012203
# 5 0.002593 -0.008758 0.001684 -0.005559 0.032779 0.010362
# 6 0.003005 -0.007352 -0.005449 -0.012203 0.010362 0.035240
#
#
# Mechanical properties :
#
#
# Convention : Reuss Voigt Hill
#
# Bulk Modulus (GPa) = 37.53974 47.45354 42.49664
# Shear Modulus (GPa) = 25.86391 33.28593 29.57492
#
# Velocity S-wave (km/s) = 3.51954 3.99272 3.76357
# Velocity P-wave (km/s) = 5.87327 6.63196 6.26411
#
# Compressibility (1/GPa) = 0.02663843
#
# Stress axis : x y z
#
# Youngs Moduli (GPa) = 73.35872 47.36339 44.56216
#
# Poissons Ratio (x) = 0.25903 0.27486
# Poissons Ratio (y) = 0.40120 0.16205
# Poissons Ratio (z) = 0.45248 0.17224
#
# Static dielectric constant tensor:
#      x y z
#    x 1.722500 -0.005640 0.000470 
#    y -0.005640 1.816930 0.001200 
#    z 0.000470 0.001200 1.730940 
# 
# From -- ./inp_files/83162.got.cif
#   From: 2010.05.17/outbox.cif.g08.bks.cpg/sg2_42_cif.got.tgz:83162.got - 2010.06.03 11:33:40.
