data_PCOD9007778
_publ_section_title
;
Structure prediction by ZEFSAII (Michael W. Deem and Ramdas Pophale) SiO2 
 PCOD9007778
Probable space group: P -1
;
_chemical_formula_sum "Si O2"
_cell_formula_units_Z 12
_cell_length_a 22.538271
_cell_length_b 5.483374
_cell_length_c 14.679308
_cell_angle_alpha 61.400969
_cell_angle_beta 159.883265
_cell_angle_gamma 125.138224
_cell_volume 497.790171
_symmetry_space_group_name_H-M "P -1"
_symmetry_group_IT_number 2
_symmetry_cell_setting 'triclinic'
loop_
_space_group_symop_operation_xyz
x,y,z
-x,-y,-z
loop_
_atom_site_type_symbol
_atom_site_label
_atom_site_fract_x
_atom_site_fract_y
_atom_site_fract_z
Si Si1 0.918110 0.049946 0.467999
Si Si2 0.914779 0.684213 0.164415
Si Si3 0.098330 0.865797 0.089113
Si Si4 0.413170 0.755118 0.052953
Si Si5 0.695594 0.390071 0.278283
Si Si6 0.514606 0.289475 0.640922
O O1 0.772022 0.734905 0.359796
O O2 0.000000 0.000000 0.500000
O O3 0.085032 0.200214 0.753526
O O4 0.790602 0.231892 0.232230
O O5 0.112346 0.657558 0.447336
O O6 0.738290 0.364623 0.941614
O O7 0.914516 0.951144 0.051529
O O8 0.324818 0.979920 0.413487
O O9 0.000000 0.500000 0.000000
O O10 0.000000 0.000000 0.000000
O O11 0.482997 0.623990 0.263497
O O12 0.559728 0.111302 0.192351
O O13 0.399157 0.619911 0.955779
O O14 0.500000 0.500000 0.500000
#
# Coordination Sequence:
#
# PCOD9007778 Si02
#       6
#     2   2   2   2   2   2
#     4  11  22  37  64 100 138 177 226 285 356 418
#     4  10  23  42  68  99 138 179 231 288 354 418
#     4  11  26  49  73 103 138 189 239 294 352 418
#     4  10  21  39  62  96 133 178 232 281 351 413
#     4  10  21  39  66  95 134 177 225 292 345 418
#     4  10  22  44  65  97 136 181 230 285 351 420
#
# _framework density 24.106542000000001
#
# number of rings (size 3 to 8) (size 9 to 14) (size 15 to 20)
#    0.000    1.667    0.000    3.500    4.667    2.667 
#    9.000    2.500    0.000    0.000    0.000    0.000 
#    0.000    0.000    0.000    0.000    0.000    0.000 
#
# Total GULP energy -66953.190504 kJ/mol
# GULP energy per Si atom -5579.432542 kJ/mol
# Density = 2.405167 g / cm^3
# Si number density = 24.106542 Si / 1000 Ang^3
#
#
#
# Elastic Constant Matrix: (Units=GPa)
#
#
# Indices 1 2 3 4 5 6 
#
# 1 102.9760 34.2169 61.1420 -5.8705 -8.5652 15.6044
# 2 34.2169 119.9116 65.0929 34.9493 -12.7358 10.3482
# 3 61.1420 65.0929 173.3203 25.9184 -15.9252 16.9340
# 4 -5.8705 34.9493 25.9184 47.1403 13.7386 1.0964
# 5 -8.5652 -12.7358 -15.9252 13.7386 43.4220 -10.1437
# 6 15.6044 10.3482 16.9340 1.0964 -10.1437 34.1892
#
#
#
# Elastic Compliance Matrix: (Units=1/GPa)
#
#
# Indices 1 2 3 4 5 6 
#
# 1 0.014920 -0.004226 -0.004943 0.008987 -0.004019 -0.004562
# 2 -0.004226 0.014809 -0.001586 -0.012730 0.007133 0.000756
# 3 -0.004943 -0.001586 0.009343 -0.005615 0.003614 -0.000639
# 4 0.008987 -0.012730 -0.005615 0.040090 -0.017636 -0.003985
# 5 -0.004019 0.007133 0.003614 -0.017636 0.033172 0.008293
# 6 -0.004562 0.000756 -0.000639 -0.003985 0.008293 0.034007
#
#
# Mechanical properties :
#
#
# Convention : Reuss Voigt Hill
#
# Bulk Modulus (GPa) = 56.94328 79.67907 68.31118
# Shear Modulus (GPa) = 28.78442 40.66738 34.72590
#
# Velocity S-wave (km/s) = 3.45925 4.11175 3.79953
# Velocity P-wave (km/s) = 6.29508 7.46101 6.90270
#
# Compressibility (1/GPa) = 0.01756133
#
# Stress axis : x y z
#
# Youngs Moduli (GPa) = 67.02485 67.52796 107.02847
#
# Poissons Ratio (x) = 0.28539 0.52908
# Poissons Ratio (y) = 0.28326 0.16971
# Poissons Ratio (z) = 0.33133 0.10708
#
# Static dielectric constant tensor:
#      x y z
#    x 2.014320 0.022600 0.035170 
#    y 0.022600 1.939730 0.048990 
#    z 0.035170 0.048990 1.943210 
# 
# From -- ./inp_files/32816.got.cif
#   From: 2010.05.17/outbox.cif.g08.bks.cpg/sg2_17_cif.got.tgz:32816.got - 2010.06.03 11:33:40.
