data_PCOD9007356
_publ_section_title
;
Structure prediction by ZEFSAII (Michael W. Deem and Ramdas Pophale) SiO2 
 PCOD9007356
Probable space group: P -1
;
_chemical_formula_sum "Si O2"
_cell_formula_units_Z 16
_cell_length_a 18.845026
_cell_length_b 7.756177
_cell_length_c 12.629378
_cell_angle_alpha 45.616545
_cell_angle_beta 149.086324
_cell_angle_gamma 127.528421
_cell_volume 677.565083
_symmetry_space_group_name_H-M "P -1"
_symmetry_group_IT_number 2
_symmetry_cell_setting 'triclinic'
loop_
_space_group_symop_operation_xyz
x,y,z
-x,-y,-z
loop_
_atom_site_type_symbol
_atom_site_label
_atom_site_fract_x
_atom_site_fract_y
_atom_site_fract_z
Si Si1 0.799652 0.602491 0.395445
Si Si2 0.687461 0.101805 0.454743
Si Si3 0.221282 0.228588 0.934068
Si Si4 0.566565 0.969368 0.984045
Si Si5 0.669855 0.276791 0.804296
Si Si6 0.967241 0.915477 0.808216
Si Si7 0.971494 0.462577 0.135013
Si Si8 0.565959 0.773917 0.621433
O O1 0.732373 0.352910 0.457429
O O2 0.796229 0.607922 0.261511
O O3 0.956096 0.614469 0.631470
O O4 0.703984 0.812243 0.227293
O O5 0.552399 0.149634 0.191449
O O6 0.815712 0.013579 0.588498
O O7 0.650795 0.898825 0.580855
O O8 0.329302 0.332661 0.113409
O O9 0.077519 0.134117 0.841244
O O10 0.281892 0.980139 0.070561
O O11 0.606353 0.210248 0.865506
O O12 0.500000 0.000000 0.000000
O O13 0.560618 0.365510 0.539633
O O14 0.807109 0.434685 0.928650
O O15 0.972379 0.729306 0.796339
O O16 0.008003 0.738441 0.032671
O O17 0.500000 0.000000 0.500000
#
# Coordination Sequence:
#
# PCOD9007356 Si02
#       8
#     2   2   2   2   2   2   2   2
#     4  11  23  38  63  93 124 160 197 246 305 363
#     4  11  23  40  61  90 124 158 204 251 296 357
#     4   9  19  36  59  88 121 157 197 246 303 356
#     4  10  21  39  61  89 124 161 199 249 304 355
#     4   8  18  36  60  87 116 159 205 246 293 352
#     4  10  22  40  62  89 120 160 203 248 299 354
#     4  10  21  40  64  90 121 159 202 245 301 363
#     4   9  18  37  60  82 119 161 200 248 296 349
#
# _framework density 23.613966999999999
#
# number of rings (size 3 to 8) (size 9 to 14) (size 15 to 20)
#    0.000    2.250    0.000    2.625    0.000    9.000 
#    0.000    6.250    0.000    0.000    0.000    0.000 
#    0.000    0.000    0.000    0.000    0.000    0.000 
#
# Total GULP energy -89476.759841 kJ/mol
# GULP energy per Si atom -5592.297490 kJ/mol
# Density = 2.356022 g / cm^3
# Si number density = 23.613967 Si / 1000 Ang^3
#
#
#
# Elastic Constant Matrix: (Units=GPa)
#
#
# Indices 1 2 3 4 5 6 
#
# 1 107.0118 20.5376 43.8771 16.5305 2.5163 10.9241
# 2 20.5376 12.8395 60.9445 5.4342 15.9636 -25.3270
# 3 43.8771 60.9445 153.0605 27.8386 -21.4203 17.3471
# 4 16.5305 5.4342 27.8386 34.6022 -9.2945 7.8427
# 5 2.5163 15.9636 -21.4203 -9.2945 37.3526 7.5609
# 6 10.9241 -25.3270 17.3471 7.8427 7.5609 13.5998
#
#
#
# Elastic Compliance Matrix: (Units=1/GPa)
#
#
# Indices 1 2 3 4 5 6 
#
# 1 0.011276 0.000204 -0.003007 -0.003692 -0.003314 -0.000870
# 2 0.000204 -0.004249 0.004787 0.004573 0.010243 -0.022516
# 3 -0.003007 0.004787 0.005213 -0.006342 -0.002388 0.009666
# 4 -0.003692 0.004573 -0.006342 0.037460 0.004946 -0.004780
# 5 -0.003314 0.010243 -0.002388 0.004946 0.020327 0.010631
# 6 -0.000870 -0.022516 0.009666 -0.004780 0.010631 0.016815
#
#
# Mechanical properties :
#
#
# Convention : Reuss Voigt Hill
#
# Bulk Modulus (GPa) = 61.70182 58.18113 59.94148
# Shear Modulus (GPa) = 56.64104 26.94777 41.79441
#
# Velocity S-wave (km/s) = 4.90289 3.38180 4.21158
# Velocity P-wave (km/s) = 7.63133 6.31986 7.00635
#
# Compressibility (1/GPa) = 0.01620698
#
# Stress axis : x y z
#
# Youngs Moduli (GPa) = 88.68601 -235.32439 191.83002
#
# Poissons Ratio (x) = 0.04798 0.57686
# Poissons Ratio (y) = -0.01808 -0.91831
# Poissons Ratio (z) = 0.26669 1.12652
#
# Static dielectric constant tensor:
#      x y z
#    x 1.901950 -0.018950 0.004570 
#    y -0.018950 1.914520 0.011070 
#    z 0.004570 0.011070 1.888440 
# 
# From -- ./inp_files/461933.got.cif
#   From: 2010.05.17/outbox.cif.g08.bks.cpg/sg2_231_cif.got.tgz:461933.got - 2010.06.03 11:33:40.
