data_PCOD9007473
_publ_section_title
;
Structure prediction by ZEFSAII (Michael W. Deem and Ramdas Pophale) SiO2 
 PCOD9007473
Probable space group: P -1
;
_chemical_formula_sum "Si O2"
_cell_formula_units_Z 12
_cell_length_a 5.116268
_cell_length_b 5.078969
_cell_length_c 22.976151
_cell_angle_alpha 125.031897
_cell_angle_beta 81.370986
_cell_angle_gamma 89.237299
_cell_volume 479.685126
_symmetry_space_group_name_H-M "P -1"
_symmetry_group_IT_number 2
_symmetry_cell_setting 'triclinic'
loop_
_space_group_symop_operation_xyz
x,y,z
-x,-y,-z
loop_
_atom_site_type_symbol
_atom_site_label
_atom_site_fract_x
_atom_site_fract_y
_atom_site_fract_z
Si Si1 0.602682 0.929646 0.152131
Si Si2 0.722455 0.883462 0.271115
Si Si3 0.008195 0.117158 0.581135
Si Si4 0.512905 0.802008 0.579069
Si Si5 0.286278 0.838655 0.948958
Si Si6 0.776843 0.512699 0.735585
O O1 0.736964 0.979142 0.216067
O O2 0.644595 0.545122 0.093181
O O3 0.699973 0.084816 0.110179
O O4 0.307328 0.116404 0.196865
O O5 0.483479 0.664333 0.263377
O O6 0.987880 0.674620 0.258201
O O7 0.635202 0.193707 0.354002
O O8 0.865190 0.448070 0.657063
O O9 0.815829 0.870992 0.584697
O O10 0.000000 0.000000 0.500000
O O11 0.313403 0.073734 0.585991
O O12 0.500000 0.500000 0.500000
O O13 0.500000 0.000000 0.000000
O O14 0.000000 0.000000 0.000000
#
# Coordination Sequence:
#
# PCOD9007473 Si02
#       6
#     2   2   2   2   2   2
#     4  12  26  52  82 108 155 190 241 306 358 448
#     4  10  24  44  69 106 145 194 248 297 361 426
#     4  10  21  39  61  95 140 187 243 300 353 415
#     4  10  21  39  61  95 140 187 243 300 353 415
#     4  12  30  52  80 114 147 190 237 296 378 448
#     4  10  24  44  69 106 145 194 248 297 361 426
#
# _framework density 25.016413
#
# number of rings (size 3 to 8) (size 9 to 14) (size 15 to 20)
#    0.000    1.333    1.667    2.000    4.667    4.000 
#    0.000    0.000    0.000    0.000    0.000    0.000 
#    0.000    0.000    0.000    0.000    0.000    0.000 
#
# Total GULP energy -67143.138640 kJ/mol
# GULP energy per Si atom -5595.261553 kJ/mol
# Density = 2.495947 g / cm^3
# Si number density = 25.016413 Si / 1000 Ang^3
#
#
#
# Elastic Constant Matrix: (Units=GPa)
#
#
# Indices 1 2 3 4 5 6 
#
# 1 152.9963 44.7461 36.6799 -3.7148 -23.5693 -24.7715
# 2 44.7461 104.6383 48.3533 5.0606 -27.8631 -17.1082
# 3 36.6799 48.3533 200.9520 -0.6480 -47.5405 -10.8034
# 4 -3.7148 5.0606 -0.6480 55.4949 -14.6585 3.6556
# 5 -23.5693 -27.8631 -47.5405 -14.6585 30.7882 2.5159
# 6 -24.7715 -17.1082 -10.8034 3.6556 2.5159 40.6103
#
#
#
# Elastic Compliance Matrix: (Units=1/GPa)
#
#
# Indices 1 2 3 4 5 6 
#
# 1 0.008640 -0.001581 0.000693 0.002311 0.007016 0.004146
# 2 -0.001581 0.013966 -0.000101 0.001422 0.011619 0.004044
# 3 0.000693 -0.000101 0.008688 0.004232 0.015761 0.001334
# 4 0.002311 0.001422 0.004232 0.023623 0.020861 -0.000284
# 5 0.007016 0.011619 0.015761 0.020861 0.082111 0.006402
# 6 0.004146 0.004044 0.001334 -0.000284 0.006402 0.028841
#
#
# Mechanical properties :
#
#
# Convention : Reuss Voigt Hill
#
# Bulk Modulus (GPa) = 34.10973 79.79391 56.95182
# Shear Modulus (GPa) = 28.15001 47.29916 37.72459
#
# Velocity S-wave (km/s) = 3.35813 4.35296 3.88750
# Velocity P-wave (km/s) = 5.35729 7.56507 6.55480
#
# Compressibility (1/GPa) = 0.02931715
#
# Stress axis : x y z
#
# Youngs Moduli (GPa) = 115.73451 71.60258 115.10091
#
# Poissons Ratio (x) = 0.11320 -0.07981
# Poissons Ratio (y) = 0.18298 0.01163
# Poissons Ratio (z) = -0.08025 0.00723
#
# Static dielectric constant tensor:
#      x y z
#    x 1.967000 0.033780 0.036820 
#    y 0.033780 1.994110 0.017620 
#    z 0.036820 0.017620 2.014920 
# 
# From -- ./inp_files/125868.got.cif
#   From: 2010.05.17/outbox.cif.g08.bks.cpg/sg2_63_cif.got.tgz:125868.got - 2010.06.03 11:33:40.
