data_PCOD9007375
_publ_section_title
;
Structure prediction by ZEFSAII (Michael W. Deem and Ramdas Pophale) SiO2 
 PCOD9007375
Probable space group: P -1
;
_chemical_formula_sum "Si O2"
_cell_formula_units_Z 16
_cell_length_a 18.787400
_cell_length_b 7.578552
_cell_length_c 7.671460
_cell_angle_alpha 98.183961
_cell_angle_beta 135.950785
_cell_angle_gamma 89.848942
_cell_volume 743.770274
_symmetry_space_group_name_H-M "P -1"
_symmetry_group_IT_number 2
_symmetry_cell_setting 'triclinic'
loop_
_space_group_symop_operation_xyz
x,y,z
-x,-y,-z
loop_
_atom_site_type_symbol
_atom_site_label
_atom_site_fract_x
_atom_site_fract_y
_atom_site_fract_z
Si Si1 0.896456 0.081089 0.115106
Si Si2 0.058417 0.546134 0.926184
Si Si3 0.048479 0.817536 0.386852
Si Si4 0.664788 0.103411 0.585120
Si Si5 0.350551 0.465251 0.895017
Si Si6 0.227990 0.686251 0.474376
Si Si7 0.619721 0.487508 0.670914
Si Si8 0.571820 0.714423 0.307811
O O1 0.953000 0.266414 0.156602
O O2 0.903399 0.095752 0.338689
O O3 0.777407 0.059805 0.840653
O O4 0.964503 0.926488 0.167809
O O5 0.015510 0.377827 0.709817
O O6 0.177059 0.574855 0.201646
O O7 0.000000 0.500000 0.000000
O O8 0.141333 0.793437 0.416867
O O9 0.679598 0.175010 0.422470
O O10 0.634311 0.277823 0.654770
O O11 0.586502 0.919446 0.425992
O O12 0.260898 0.553918 0.657201
O O13 0.380931 0.305921 0.804732
O O14 0.324033 0.426327 0.044551
O O15 0.453751 0.615954 0.087763
O O16 0.500000 0.500000 0.500000
O O17 0.634369 0.598347 0.532590
#
# Coordination Sequence:
#
# PCOD9007375 Si02
#       8
#     2   2   2   2   2   2   2   2
#     4  10  22  38  61  89 125 156 209 257 303 372
#     4   9  20  36  60  83 117 164 196 249 309 361
#     4  10  21  40  59  89 122 161 204 258 308 366
#     4  11  23  40  65  91 127 169 205 264 313 372
#     4  10  21  42  65  90 128 165 211 262 305 381
#     4  10  21  39  61  90 124 159 212 253 306 377
#     4  10  22  43  63  90 127 163 209 265 309 368
#     4  10  23  43  64  92 127 168 210 258 318 367
#
# _framework density 21.512017
#
# number of rings (size 3 to 8) (size 9 to 14) (size 15 to 20)
#    0.000    2.000    1.250    1.125    1.750    7.000 
#    6.750    2.500    0.000    0.000    0.000    0.000 
#    0.000    0.000    0.000    0.000    0.000    0.000 
#
# Total GULP energy -89233.243970 kJ/mol
# GULP energy per Si atom -5577.077748 kJ/mol
# Density = 2.146306 g / cm^3
# Si number density = 21.512017 Si / 1000 Ang^3
#
#
#
# Elastic Constant Matrix: (Units=GPa)
#
#
# Indices 1 2 3 4 5 6 
#
# 1 46.0866 11.9008 -2.3545 2.6884 -1.5692 -19.5129
# 2 11.9008 58.7288 -9.2543 2.2958 3.3977 -5.2044
# 3 -2.3545 -9.2543 42.0291 -5.3855 -15.8504 -5.1933
# 4 2.6884 2.2958 -5.3855 26.4032 -6.3595 3.7849
# 5 -1.5692 3.3977 -15.8504 -6.3595 27.0837 -1.2062
# 6 -19.5129 -5.2044 -5.1933 3.7849 -1.2062 31.6729
#
#
#
# Elastic Compliance Matrix: (Units=1/GPa)
#
#
# Indices 1 2 3 4 5 6 
#
# 1 0.032100 -0.004065 0.005025 -0.003538 0.005396 0.020560
# 2 -0.004065 0.018608 0.003739 -0.000739 -0.000500 0.001236
# 3 0.005025 0.003739 0.036642 0.011156 0.024301 0.009311
# 4 -0.003538 -0.000739 0.011156 0.045383 0.016839 -0.005254
# 5 0.005396 -0.000500 0.024301 0.016839 0.055801 0.007339
# 6 0.020560 0.001236 0.009311 -0.005254 0.007339 0.046876
#
#
# Mechanical properties :
#
#
# Convention : Reuss Voigt Hill
#
# Bulk Modulus (GPa) = 10.33607 16.38094 13.35851
# Shear Modulus (GPa) = 19.36030 26.80213 23.08121
#
# Velocity S-wave (km/s) = 3.00321 3.53358 3.27914
# Velocity P-wave (km/s) = 4.10377 4.92743 4.53434
#
# Compressibility (1/GPa) = 0.09674855
#
# Stress axis : x y z
#
# Youngs Moduli (GPa) = 31.15280 53.74159 27.29093
#
# Poissons Ratio (x) = 0.21844 -0.13715
# Poissons Ratio (y) = 0.12663 -0.10203
# Poissons Ratio (z) = -0.15655 -0.20093
#
# Static dielectric constant tensor:
#      x y z
#    x 1.859860 0.004520 -0.006330 
#    y 0.004520 1.798770 0.019460 
#    z -0.006330 0.019460 1.819590 
# 
# From -- ./inp_files/350784.got.cif
#   From: 2010.05.17/outbox.cif.g08.bks.cpg/sg2_176_cif.got.tgz:350784.got - 2010.06.03 11:33:40.
