data_PCOD9007149
_publ_section_title
;
Structure prediction by ZEFSAII (Michael W. Deem and Ramdas Pophale) SiO2 
 PCOD9007149
Probable space group: P -1
;
_chemical_formula_sum "Si O2"
_cell_formula_units_Z 16
_cell_length_a 9.287288
_cell_length_b 12.543182
_cell_length_c 8.639249
_cell_angle_alpha 76.278370
_cell_angle_beta 97.917254
_cell_angle_gamma 47.523097
_cell_volume 655.796096
_symmetry_space_group_name_H-M "P -1"
_symmetry_group_IT_number 2
_symmetry_cell_setting 'triclinic'
loop_
_space_group_symop_operation_xyz
x,y,z
-x,-y,-z
loop_
_atom_site_type_symbol
_atom_site_label
_atom_site_fract_x
_atom_site_fract_y
_atom_site_fract_z
Si Si1 0.137481 0.836447 0.970914
Si Si2 0.494451 0.291893 0.143805
Si Si3 0.261106 0.443595 0.372109
Si Si4 0.228722 0.113658 0.033931
Si Si5 0.574565 0.994339 0.346711
Si Si6 0.380039 0.676632 0.367564
Si Si7 0.115225 0.429869 0.876334
Si Si8 0.978366 0.802925 0.329871
O O1 0.315065 0.705111 0.170471
O O2 0.276835 0.793049 0.856820
O O3 0.966694 0.833335 0.917844
O O4 0.000000 0.000000 0.000000
O O5 0.379260 0.407605 0.238670
O O6 0.515754 0.153923 0.250393
O O7 0.323259 0.389420 0.942184
O O8 0.456855 0.317858 0.563120
O O9 0.080486 0.450924 0.314598
O O10 0.120593 0.623103 0.352330
O O11 0.449657 0.989343 0.202800
O O12 0.193886 0.260660 0.939918
O O13 0.196117 0.075624 0.874454
O O14 0.831004 0.848619 0.430276
O O15 0.500000 0.000000 0.500000
O O16 0.500000 0.500000 0.500000
O O17 0.149778 0.804453 0.377292
O O18 0.000000 0.500000 0.000000
#
# Coordination Sequence:
#
# PCOD9007149 Si02
#       8
#     2   2   2   2   2   2   2   2
#     4  11  23  39  62  92 126 167 207 249 311 381
#     4  10  21  39  60  87 123 158 202 255 307 373
#     4   9  18  36  60  84 115 154 196 249 304 352
#     4   9  19  37  61  86 117 163 206 245 308 377
#     4  11  23  39  60  87 118 158 208 259 307 361
#     4   9  19  38  60  89 124 158 202 255 308 363
#     4   8  16  35  59  83 117 156 198 250 303 362
#     4   9  18  37  59  82 118 158 197 244 302 371
#
# _framework density 24.397826999999999
#
# number of rings (size 3 to 8) (size 9 to 14) (size 15 to 20)
#    0.000    2.500    0.000    2.625    0.000    4.000 
#    0.000   33.750    0.000    0.000    0.000    0.000 
#    0.000    0.000    0.000    0.000    0.000    0.000 
#
# Total GULP energy -89144.740123 kJ/mol
# GULP energy per Si atom -5571.546258 kJ/mol
# Density = 2.434230 g / cm^3
# Si number density = 24.397827 Si / 1000 Ang^3
#
#
#
# Elastic Constant Matrix: (Units=GPa)
#
#
# Indices 1 2 3 4 5 6 
#
# 1 100.8390 29.4867 29.5269 -3.4902 6.5264 -45.5922
# 2 29.4867 97.5044 17.4982 8.3978 -7.5948 -27.4082
# 3 29.5269 17.4982 50.1668 -11.7557 3.3156 -8.2218
# 4 -3.4902 8.3978 -11.7557 18.8015 -10.0947 -3.7940
# 5 6.5264 -7.5948 3.3156 -10.0947 45.6550 3.4009
# 6 -45.5922 -27.4082 -8.2218 -3.7940 3.4009 42.9498
#
#
#
# Elastic Compliance Matrix: (Units=1/GPa)
#
#
# Indices 1 2 3 4 5 6 
#
# 1 0.023934 0.001119 -0.010104 0.000289 -0.004266 0.024549
# 2 0.001119 0.014051 -0.006124 -0.008119 0.000213 0.008248
# 3 -0.010104 -0.006124 0.031560 0.020944 0.003286 -0.007003
# 4 0.000289 -0.008119 0.020944 0.078522 0.014080 0.004956
# 5 -0.004266 0.000213 0.003286 0.014080 0.025763 -0.004560
# 6 0.024549 0.008248 -0.007003 0.004956 -0.004560 0.054064
#
#
# Mechanical properties :
#
#
# Convention : Reuss Voigt Hill
#
# Bulk Modulus (GPa) = 25.42888 44.61486 35.02187
# Shear Modulus (GPa) = 18.43512 32.94783 25.69148
#
# Velocity S-wave (km/s) = 2.75181 3.67882 3.24855
# Velocity P-wave (km/s) = 4.53231 6.03084 5.33446
#
# Compressibility (1/GPa) = 0.03932537
#
# Stress axis : x y z
#
# Youngs Moduli (GPa) = 41.78190 71.16958 31.68601
#
# Poissons Ratio (x) = -0.07964 0.32016
# Poissons Ratio (y) = -0.04675 0.19406
# Poissons Ratio (z) = 0.42217 0.43587
#
# Static dielectric constant tensor:
#      x y z
#    x 4.132590 3.269030 -0.341780 
#    y 3.269030 7.129240 -0.634380 
#    z -0.341780 -0.634380 2.095150 
# 
# From -- ./inp_files/200833.got.cif
#   From: 2010.05.17/outbox.cif.g08.bks.cpg/sg2_101_cif.got.tgz:200833.got - 2010.06.03 11:33:40.
