data_PCOD9007986
_publ_section_title
;
Structure prediction by ZEFSAII (Michael W. Deem and Ramdas Pophale) SiO2 
 PCOD9007986
Probable space group: P -1
;
_chemical_formula_sum "Si O2"
_cell_formula_units_Z 16
_cell_length_a 14.020638
_cell_length_b 11.729022
_cell_length_c 8.997570
_cell_angle_alpha 126.249774
_cell_angle_beta 39.945672
_cell_angle_gamma 111.544380
_cell_volume 755.470132
_symmetry_space_group_name_H-M "P -1"
_symmetry_group_IT_number 2
_symmetry_cell_setting 'triclinic'
loop_
_space_group_symop_operation_xyz
x,y,z
-x,-y,-z
loop_
_atom_site_type_symbol
_atom_site_label
_atom_site_fract_x
_atom_site_fract_y
_atom_site_fract_z
Si Si1 0.833722 0.821502 0.515259
Si Si2 0.043705 0.634759 0.363974
Si Si3 0.691998 0.316726 0.093098
Si Si4 0.649129 0.947833 0.096260
Si Si5 0.629811 0.645468 0.449127
Si Si6 0.374059 0.193742 0.697322
Si Si7 0.960338 0.699143 0.853561
Si Si8 0.107071 0.869473 0.046313
O O1 0.761342 0.723350 0.411891
O O2 0.930406 0.719786 0.444064
O O3 0.947842 0.906830 0.355074
O O4 0.698208 0.910246 0.840384
O O5 0.050311 0.463306 0.205579
O O6 0.001468 0.678114 0.615403
O O7 0.203639 0.679102 0.170050
O O8 0.667328 0.478811 0.309856
O O9 0.526865 0.285341 0.235008
O O10 0.780991 0.216925 0.033661
O O11 0.499107 0.065400 0.387413
O O12 0.621397 0.818181 0.138511
O O13 0.798567 0.008815 0.022666
O O14 0.599695 0.669752 0.326539
O O15 0.199605 0.195370 0.868961
O O16 0.074640 0.769065 0.872131
#
# Coordination Sequence:
#
# PCOD9007986 Si02
#       8
#     2   2   2   2   2   2   2   2
#     4  11  22  40  62  93 119 158 200 250 299 352
#     4  10  21  39  63  93 124 150 198 255 298 356
#     4  10  21  39  63  93 124 150 198 255 298 356
#     4  11  25  42  60  84 125 165 202 246 288 357
#     4  11  21  40  65  90 120 160 199 245 308 352
#     4  11  22  44  59  84 121 169 198 244 296 360
#     4  11  21  40  65  90 120 160 199 245 308 352
#     4  11  22  40  62  93 119 158 200 250 299 352
#
# _framework density 21.178864999999998
#
# number of rings (size 3 to 8) (size 9 to 14) (size 15 to 20)
#    0.000    1.250    5.000    1.125    0.000    3.000 
#    4.500    0.000    0.000    6.000    0.000    0.000 
#    0.000    0.000    0.000    0.000    0.000    0.000 
#
# Total GULP energy -89216.782895 kJ/mol
# GULP energy per Si atom -5576.048931 kJ/mol
# Density = 2.113066 g / cm^3
# Si number density = 21.178865 Si / 1000 Ang^3
#
#
#
# Elastic Constant Matrix: (Units=GPa)
#
#
# Indices 1 2 3 4 5 6 
#
# 1 44.7723 23.8320 31.3979 -7.2860 6.3277 1.2560
# 2 23.8320 78.6863 23.7297 -15.6449 4.0493 -5.5544
# 3 31.3979 23.7297 109.9172 -22.4478 -2.7287 -1.5161
# 4 -7.2860 -15.6449 -22.4478 28.3002 3.5911 -0.9814
# 5 6.3277 4.0493 -2.7287 3.5911 33.3643 -2.6490
# 6 1.2560 -5.5544 -1.5161 -0.9814 -2.6490 25.9689
#
#
#
# Elastic Compliance Matrix: (Units=1/GPa)
#
#
# Indices 1 2 3 4 5 6 
#
# 1 0.033063 -0.007860 -0.008333 -0.001816 -0.006157 -0.004464
# 2 -0.007860 0.016922 0.000212 0.007779 -0.001050 0.004199
# 3 -0.008333 0.000212 0.013188 0.008254 0.001881 0.001722
# 4 -0.001816 0.007779 0.008254 0.046426 -0.004642 0.003514
# 5 -0.006157 -0.001050 0.001881 -0.004642 0.032182 0.003291
# 6 -0.004464 0.004199 0.001722 0.003514 0.003291 0.040191
#
#
# Mechanical properties :
#
#
# Convention : Reuss Voigt Hill
#
# Bulk Modulus (GPa) = 32.03888 43.47723 37.75806
# Shear Modulus (GPa) = 22.28788 27.82109 25.05449
#
# Velocity S-wave (km/s) = 3.24754 3.62833 3.44320
# Velocity P-wave (km/s) = 5.40579 6.17464 5.80296
#
# Compressibility (1/GPa) = 0.03121207
#
# Stress axis : x y z
#
# Youngs Moduli (GPa) = 30.24568 59.09373 75.82464
#
# Poissons Ratio (x) = 0.46449 0.63183
# Poissons Ratio (y) = 0.23774 -0.01611
# Poissons Ratio (z) = 0.25203 -0.01255
#
# Static dielectric constant tensor:
#      x y z
#    x 1.713210 -0.015950 -0.018230 
#    y -0.015950 1.791850 -0.027290 
#    z -0.018230 -0.027290 1.825980 
# 
# From -- ./inp_files/206396.got.cif
#   From: 2010.05.17/outbox.cif.g08.bks.cpg/sg2_104_cif.got.tgz:206396.got - 2010.06.03 11:33:40.
