data_PCOD9007641
_publ_section_title
;
Structure prediction by ZEFSAII (Michael W. Deem and Ramdas Pophale) SiO2 
 PCOD9007641
Probable space group: P -1
;
_chemical_formula_sum "Si O2"
_cell_formula_units_Z 14
_cell_length_a 12.815354
_cell_length_b 7.206070
_cell_length_c 10.420132
_cell_angle_alpha 134.974034
_cell_angle_beta 108.457372
_cell_angle_gamma 59.802909
_cell_volume 587.175741
_symmetry_space_group_name_H-M "P -1"
_symmetry_group_IT_number 2
_symmetry_cell_setting 'triclinic'
loop_
_space_group_symop_operation_xyz
x,y,z
-x,-y,-z
loop_
_atom_site_type_symbol
_atom_site_label
_atom_site_fract_x
_atom_site_fract_y
_atom_site_fract_z
Si Si1 0.249735 0.498491 0.478340
Si Si2 0.828248 0.887487 0.128554
Si Si3 0.407858 0.754223 0.913654
Si Si4 0.493970 0.842405 0.720630
Si Si5 0.379378 0.190760 0.623810
Si Si6 0.948415 0.683122 0.698927
Si Si7 0.911738 0.299374 0.993366
O O1 0.200870 0.834994 0.657072
O O2 0.377512 0.372164 0.393115
O O3 0.143171 0.441980 0.341842
O O4 0.176149 0.391430 0.943135
O O5 0.727030 0.002685 0.036679
O O6 0.723265 0.679843 0.461955
O O7 0.960979 0.797282 0.079109
O O8 0.460940 0.706299 0.765806
O O9 0.395922 0.471165 0.817484
O O10 0.483402 0.885413 0.086876
O O11 0.387866 0.978232 0.640093
O O12 0.500000 0.000000 0.500000
O O13 0.000000 0.500000 0.500000
O O14 0.877683 0.030667 0.827199
O O15 0.055484 0.657830 0.826372
#
# Coordination Sequence:
#
# PCOD9007641 Si02
#       7
#     2   2   2   2   2   2   2
#     4  10  21  39  65  90 127 163 213 258 315 378
#     4  10  21  42  62  92 125 166 206 263 316 369
#     4  10  21  39  62  90 128 163 212 256 316 377
#     4  10  21  40  62  92 124 168 207 261 311 378
#     4   9  20  37  60  86 122 163 203 260 307 371
#     4  11  22  42  64  95 122 166 212 258 316 379
#     4  10  23  42  66  89 131 161 209 266 310 374
#
# _framework density 23.842946999999999
#
# number of rings (size 3 to 8) (size 9 to 14) (size 15 to 20)
#    0.000    2.000    1.429    1.286    0.000    6.857 
#   18.000    0.000    0.000    0.000    0.000    0.000 
#    0.000    0.000    0.000    0.000    0.000    0.000 
#
# Total GULP energy -78254.857401 kJ/mol
# GULP energy per Si atom -5589.632671 kJ/mol
# Density = 2.378868 g / cm^3
# Si number density = 23.842947 Si / 1000 Ang^3
#
#
#
# Elastic Constant Matrix: (Units=GPa)
#
#
# Indices 1 2 3 4 5 6 
#
# 1 59.7965 5.8566 21.1761 5.9340 -17.0035 -4.7424
# 2 5.8566 123.5579 39.6260 29.0710 -6.5426 8.6034
# 3 21.1761 39.6260 140.5089 12.6789 -9.2329 5.9958
# 4 5.9340 29.0710 12.6789 23.2978 2.4156 -3.0513
# 5 -17.0035 -6.5426 -9.2329 2.4156 48.9638 4.5986
# 6 -4.7424 8.6034 5.9958 -3.0513 4.5986 17.1302
#
#
#
# Elastic Compliance Matrix: (Units=1/GPa)
#
#
# Indices 1 2 3 4 5 6 
#
# 1 0.020231 0.001380 -0.002604 -0.005764 0.006723 0.002988
# 2 0.001380 0.013846 -0.001758 -0.018419 0.003872 -0.010277
# 3 -0.002604 -0.001758 0.008413 -0.002261 0.000880 -0.003422
# 4 -0.005764 -0.018419 -0.002261 0.072907 -0.010771 0.024325
# 5 0.006723 0.003872 0.000880 -0.010771 0.024815 -0.008972
# 6 0.002988 -0.010277 -0.003422 0.024325 -0.008972 0.072304
#
#
# Mechanical properties :
#
#
# Convention : Reuss Voigt Hill
#
# Bulk Modulus (GPa) = 27.37697 50.79788 39.08743
# Shear Modulus (GPa) = 21.67736 35.02532 28.35134
#
# Velocity S-wave (km/s) = 3.01852 3.83691 3.45206
# Velocity P-wave (km/s) = 4.86372 6.40161 5.68491
#
# Compressibility (1/GPa) = 0.03652705
#
# Stress axis : x y z
#
# Youngs Moduli (GPa) = 49.42933 72.22257 118.86287
#
# Poissons Ratio (x) = -0.09968 0.30951
# Poissons Ratio (y) = -0.06822 0.20894
# Poissons Ratio (z) = 0.12871 0.12695
#
# Static dielectric constant tensor:
#      x y z
#    x 2.015370 0.077910 0.079270 
#    y 0.077910 1.951370 0.017460 
#    z 0.079270 0.017460 2.023160 
# 
# From -- ./inp_files/350132.got.cif
#   From: 2010.05.17/outbox.cif.g08.bks.cpg/sg2_176_cif.got.tgz:350132.got - 2010.06.03 11:33:40.
