data_PCOD9007408
_publ_section_title
;
Structure prediction by ZEFSAII (Michael W. Deem and Ramdas Pophale) SiO2 
 PCOD9007408
Probable space group: P -1
;
_chemical_formula_sum "Si O2"
_cell_formula_units_Z 16
_cell_length_a 15.389915
_cell_length_b 8.019380
_cell_length_c 7.981882
_cell_angle_alpha 88.552585
_cell_angle_beta 112.315539
_cell_angle_gamma 119.266837
_cell_volume 779.142975
_symmetry_space_group_name_H-M "P -1"
_symmetry_group_IT_number 2
_symmetry_cell_setting 'triclinic'
loop_
_space_group_symop_operation_xyz
x,y,z
-x,-y,-z
loop_
_atom_site_type_symbol
_atom_site_label
_atom_site_fract_x
_atom_site_fract_y
_atom_site_fract_z
Si Si1 0.717188 0.323654 0.531735
Si Si2 0.492313 0.306151 0.932719
Si Si3 0.061145 0.409193 0.147736
Si Si4 0.814878 0.734751 0.977133
Si Si5 0.592631 0.468457 0.648044
Si Si6 0.935947 0.072314 0.329452
Si Si7 0.731085 0.064164 0.288171
Si Si8 0.714045 0.392828 0.179565
O O1 0.821294 0.404948 0.723164
O O2 0.624714 0.342262 0.557722
O O3 0.694494 0.126070 0.430225
O O4 0.752557 0.468529 0.393157
O O5 0.537304 0.347136 0.777199
O O6 0.368157 0.134197 0.849512
O O7 0.500000 0.500000 0.000000
O O8 0.581604 0.277692 0.095698
O O9 0.004980 0.280540 0.277845
O O10 0.092345 0.278749 0.058112
O O11 0.000000 0.500000 0.000000
O O12 0.762158 0.560187 0.077457
O O13 0.870570 0.925606 0.129198
O O14 0.708254 0.667873 0.779288
O O15 0.500000 0.500000 0.500000
O O16 0.843067 0.068084 0.380057
O O17 0.000000 0.000000 0.500000
O O18 0.750034 0.238099 0.173805
#
# Coordination Sequence:
#
# PCOD9007408 Si02
#       8
#     2   2   2   2   2   2   2   2
#     4   9  22  39  62  91 124 167 218 265 322 395
#     4  11  21  37  65  93 128 167 209 269 329 391
#     4  11  24  43  67  91 131 172 218 274 338 378
#     4  10  22  41  63  96 127 165 216 273 328 390
#     4  10  21  39  61  91 128 167 204 264 336 390
#     4  12  26  42  67  95 128 173 229 275 329 387
#     4  10  23  39  62  94 124 165 221 263 324 390
#     4   9  19  39  64  89 128 162 214 259 330 390
#
# _framework density 20.535381999999998
#
# number of rings (size 3 to 8) (size 9 to 14) (size 15 to 20)
#    0.750    1.000    0.000    4.500    1.750    3.000 
#    2.250    0.000    0.000    0.000    0.000    0.000 
#    0.000    0.000    0.000    0.000    0.000    0.000 
#
# Total GULP energy -89119.788909 kJ/mol
# GULP energy per Si atom -5569.986807 kJ/mol
# Density = 2.048864 g / cm^3
# Si number density = 20.535382 Si / 1000 Ang^3
#
#
#
# Elastic Constant Matrix: (Units=GPa)
#
#
# Indices 1 2 3 4 5 6 
#
# 1 138.1058 24.4183 54.6846 -2.1185 18.6945 -13.2974
# 2 24.4183 47.0205 11.8822 4.1484 7.8139 -5.4711
# 3 54.6846 11.8822 91.9086 -8.0564 18.2524 -18.2655
# 4 -2.1185 4.1484 -8.0564 29.2463 -9.0338 -6.0703
# 5 18.6945 7.8139 18.2524 -9.0338 48.1535 -5.1811
# 6 -13.2974 -5.4711 -18.2655 -6.0703 -5.1811 27.8226
#
#
#
# Elastic Compliance Matrix: (Units=1/GPa)
#
#
# Indices 1 2 3 4 5 6 
#
# 1 0.010197 -0.003630 -0.005310 -0.000596 -0.001439 0.000276
# 2 -0.003630 0.024337 -0.000558 -0.004586 -0.003069 0.001112
# 3 -0.005310 -0.000558 0.016874 0.005580 -0.002204 0.009237
# 4 -0.000596 -0.004586 0.005580 0.041531 0.008055 0.013037
# 5 -0.001439 -0.003069 -0.002204 0.008055 0.024557 0.003592
# 6 0.000276 0.001112 0.009237 0.013037 0.003592 0.045870
#
#
# Mechanical properties :
#
#
# Convention : Reuss Voigt Hill
#
# Bulk Modulus (GPa) = 30.85099 51.00056 40.92578
# Shear Modulus (GPa) = 25.88445 33.44782 29.66614
#
# Velocity S-wave (km/s) = 3.55418 4.04021 3.80496
# Velocity P-wave (km/s) = 5.64791 6.83035 6.26708
#
# Compressibility (1/GPa) = 0.03241387
#
# Stress axis : x y z
#
# Youngs Moduli (GPa) = 98.06541 41.08892 59.26224
#
# Poissons Ratio (x) = 0.14915 0.31466
# Poissons Ratio (y) = 0.35597 0.03307
# Poissons Ratio (z) = 0.52068 0.02293
#
# Static dielectric constant tensor:
#      x y z
#    x 1.635980 -0.033890 -0.030070 
#    y -0.033890 1.744720 -0.000190 
#    z -0.030070 -0.000190 1.767610 
# 
# From -- ./inp_files/298597.got.cif
#   From: 2010.05.17/outbox.cif.g08.bks.cpg/sg2_150_cif.got.tgz:298597.got - 2010.06.03 11:33:40.
