data_PCOD9007512
_publ_section_title
;
Structure prediction by ZEFSAII (Michael W. Deem and Ramdas Pophale) SiO2 
 PCOD9007512
Probable space group: P -1
;
_chemical_formula_sum "Si O2"
_cell_formula_units_Z 14
_cell_length_a 19.630499
_cell_length_b 15.804210
_cell_length_c 13.643287
_cell_angle_alpha 25.964611
_cell_angle_beta 161.463129
_cell_angle_gamma 151.226228
_cell_volume 580.246077
_symmetry_space_group_name_H-M "P -1"
_symmetry_group_IT_number 2
_symmetry_cell_setting 'triclinic'
loop_
_space_group_symop_operation_xyz
x,y,z
-x,-y,-z
loop_
_atom_site_type_symbol
_atom_site_label
_atom_site_fract_x
_atom_site_fract_y
_atom_site_fract_z
Si Si1 0.279176 0.241124 0.798206
Si Si2 0.708742 0.059208 0.536173
Si Si3 0.074013 0.707533 0.234192
Si Si4 0.010822 0.728367 0.802898
Si Si5 0.253611 0.418951 0.224036
Si Si6 0.380768 0.711347 0.458788
Si Si7 0.014708 0.715156 0.485635
O O1 0.094293 0.178817 0.528235
O O2 0.355828 0.477697 0.655665
O O3 0.169125 0.195909 0.800904
O O4 0.488916 0.147372 0.162357
O O5 0.867222 0.151082 0.742988
O O6 0.817451 0.138173 0.501022
O O7 0.623784 0.828266 0.670303
O O8 0.247073 0.746610 0.338895
O O9 0.078995 0.478365 0.504728
O O10 0.832001 0.700056 0.866865
O O11 0.848456 0.716119 0.685864
O O12 0.000000 0.500000 0.000000
O O13 0.252688 0.789360 0.111243
O O14 0.500000 0.500000 0.500000
O O15 0.136118 0.608856 0.848135
#
# Coordination Sequence:
#
# PCOD9007512 Si02
#       7
#     2   2   2   2   2   2   2
#     4  10  21  39  62  84 120 164 189 244 305 335
#     4  12  21  36  65  85 120 164 188 242 310 334
#     4   8  19  37  56  85 121 154 196 242 288 360
#     4   9  15  35  59  78 115 154 194 239 287 347
#     4   9  16  31  58  87 108 150 204 234 288 356
#     4   9  20  37  59  89 117 152 208 241 278 372
#     4   9  20  36  55  92 118 146 208 244 271 374
#
# _framework density 24.127694000000002
#
# number of rings (size 3 to 8) (size 9 to 14) (size 15 to 20)
#    0.857    1.714    2.857    1.714    0.000    2.857 
#    0.000    3.571    3.143    3.429    0.000    0.000 
#    0.000    0.000    0.000    0.000    0.000    0.000 
#
# Total GULP energy -78224.144407 kJ/mol
# GULP energy per Si atom -5587.438886 kJ/mol
# Density = 2.407278 g / cm^3
# Si number density = 24.127694 Si / 1000 Ang^3
#
#
#
# Elastic Constant Matrix: (Units=GPa)
#
#
# Indices 1 2 3 4 5 6 
#
# 1 88.6512 47.4547 30.9898 11.1583 -3.4844 15.3972
# 2 47.4547 114.9147 37.7076 22.0267 -2.0633 16.7058
# 3 30.9898 37.7076 80.7902 10.3532 2.0721 -2.2148
# 4 11.1583 22.0267 10.3532 44.2116 -6.7235 -2.3923
# 5 -3.4844 -2.0633 2.0721 -6.7235 29.2155 7.4551
# 6 15.3972 16.7058 -2.2148 -2.3923 7.4551 31.1272
#
#
#
# Elastic Compliance Matrix: (Units=1/GPa)
#
#
# Indices 1 2 3 4 5 6 
#
# 1 0.016597 -0.004007 -0.004672 -0.000935 0.003687 -0.007347
# 2 -0.004007 0.013709 -0.004438 -0.004927 0.001299 -0.006381
# 3 -0.004672 -0.004438 0.016622 -0.000736 -0.003945 0.006764
# 4 -0.000935 -0.004927 -0.000736 0.026404 0.004657 0.003968
# 5 0.003687 0.001299 -0.003945 0.004657 0.039126 -0.011815
# 6 -0.007347 -0.006381 0.006764 0.003968 -0.011815 0.042801
#
#
# Mechanical properties :
#
#
# Convention : Reuss Voigt Hill
#
# Bulk Modulus (GPa) = 48.32581 57.40671 52.86626
# Shear Modulus (GPa) = 26.54041 32.12444 29.33243
#
# Velocity S-wave (km/s) = 3.32022 3.65284 3.49049
# Velocity P-wave (km/s) = 5.89671 6.45256 6.18088
#
# Compressibility (1/GPa) = 0.02069288
#
# Stress axis : x y z
#
# Youngs Moduli (GPa) = 60.25145 72.94742 60.16038
#
# Poissons Ratio (x) = 0.29232 0.28108
# Poissons Ratio (y) = 0.24145 0.26699
# Poissons Ratio (z) = 0.28151 0.32374
#
# Static dielectric constant tensor:
#      x y z
#    x 1.931650 -0.028840 -0.005860 
#    y -0.028840 1.948310 -0.021930 
#    z -0.005860 -0.021930 1.973370 
# 
# From -- ./inp_files/541407.got.cif
#   From: 2010.05.17/outbox.cif.g08.bks.cpg/sg2_271_cif.got.tgz:541407.got - 2010.06.03 11:33:40.
