data_PCOD9007948
_publ_section_title
;
Structure prediction by ZEFSAII (Michael W. Deem and Ramdas Pophale) SiO2 
 PCOD9007948
Probable space group: P -1
;
_chemical_formula_sum "Si O2"
_cell_formula_units_Z 13
_cell_length_a 7.217023
_cell_length_b 20.540484
_cell_length_c 9.371407
_cell_angle_alpha 147.532140
_cell_angle_beta 115.087421
_cell_angle_gamma 48.460608
_cell_volume 525.524510
_symmetry_space_group_name_H-M "P -1"
_symmetry_group_IT_number 2
_symmetry_cell_setting 'triclinic'
loop_
_space_group_symop_operation_xyz
x,y,z
-x,-y,-z
loop_
_atom_site_type_symbol
_atom_site_label
_atom_site_fract_x
_atom_site_fract_y
_atom_site_fract_z
Si Si1 0.141033 0.556618 0.235602
Si Si2 0.586911 0.839852 0.663315
Si Si3 0.650649 0.599632 0.704467
Si Si4 0.500000 0.500000 0.000000
Si Si5 0.932118 0.336364 0.087746
Si Si6 0.695812 0.138730 0.130651
Si Si7 0.418676 0.012613 0.661023
O O1 0.347316 0.429264 0.182182
O O2 0.282430 0.583094 0.213297
O O3 0.898857 0.710043 0.521642
O O4 0.000000 0.500000 0.000000
O O5 0.459066 0.787788 0.631994
O O6 0.490637 0.872648 0.528031
O O7 0.500000 0.000000 0.000000
O O8 0.783914 0.439209 0.368457
O O9 0.389375 0.730549 0.772744
O O10 0.851587 0.638386 0.826513
O O11 0.737805 0.398422 0.007924
O O12 0.108980 0.152623 0.830683
O O13 0.579694 0.060101 0.877630
O O14 0.000000 0.000000 0.000000
O O15 0.500000 0.000000 0.500000
#
# Coordination Sequence:
#
# PCOD9007948 Si02
#       7
#     2   2   2   1   2   2   2
#     4  12  25  45  71 104 144 181 231 297 355 405
#     4  10  22  43  67  95 138 183 225 283 349 407
#     4  10  21  42  68  92 140 179 226 288 350 402
#     4  12  26  40  70 110 136 180 240 282 348 426
#     4  10  21  40  65  99 132 183 228 280 344 417
#     4  10  23  41  67  98 129 180 229 275 337 419
#     4  10  21  39  63  91 138 175 216 282 344 394
#
# _framework density 24.737189999999998
#
# number of rings (size 3 to 8) (size 9 to 14) (size 15 to 20)
#    0.000    1.538    1.538    4.615    2.154    5.538 
#    0.000    0.769    0.000    0.000    0.000    0.000 
#    0.000    0.000    0.000    0.000    0.000    0.000 
#
# Total GULP energy -72489.762113 kJ/mol
# GULP energy per Si atom -5576.135547 kJ/mol
# Density = 2.468089 g / cm^3
# Si number density = 24.737190 Si / 1000 Ang^3
#
#
#
# Elastic Constant Matrix: (Units=GPa)
#
#
# Indices 1 2 3 4 5 6 
#
# 1 82.1086 48.6581 30.6593 -2.1067 -21.4925 4.1743
# 2 48.6581 265.3815 66.7026 -6.9345 -26.3058 7.2351
# 3 30.6593 66.7026 90.4610 5.5138 -32.2034 13.6567
# 4 -2.1067 -6.9345 5.5138 51.4531 0.5207 -21.2827
# 5 -21.4925 -26.3058 -32.2034 0.5207 34.2976 -3.6936
# 6 4.1743 7.2351 13.6567 -21.2827 -3.6936 50.7486
#
#
#
# Elastic Compliance Matrix: (Units=1/GPa)
#
#
# Indices 1 2 3 4 5 6 
#
# 1 0.015649 -0.001773 -0.001562 0.000550 0.006985 0.000125
# 2 -0.001773 0.004913 -0.003399 0.001323 -0.000460 0.000881
# 3 -0.001562 -0.003399 0.020834 -0.005459 0.015395 -0.006162
# 4 0.000550 0.001323 -0.005459 0.025013 -0.002906 0.011513
# 5 0.006985 -0.000460 0.015395 -0.002906 0.047420 -0.002419
# 6 0.000125 0.000881 -0.006162 0.011513 -0.002419 0.025880
#
#
# Mechanical properties :
#
#
# Convention : Reuss Voigt Hill
#
# Bulk Modulus (GPa) = 35.80756 81.11011 58.45884
# Shear Modulus (GPa) = 30.77208 46.76192 38.76700
#
# Velocity S-wave (km/s) = 3.53081 4.35253 3.96303
# Velocity P-wave (km/s) = 5.57932 7.62360 6.68012
#
# Compressibility (1/GPa) = 0.02792706
#
# Stress axis : x y z
#
# Youngs Moduli (GPa) = 63.90066 203.56203 47.99939
#
# Poissons Ratio (x) = 0.36098 0.07498
# Poissons Ratio (y) = 0.11332 0.16313
# Poissons Ratio (z) = 0.09983 0.69183
#
# Static dielectric constant tensor:
#      x y z
#    x 2.110590 0.068360 0.038140 
#    y 0.068360 1.968330 0.038530 
#    z 0.038140 0.038530 1.960940 
# 
# From -- ./inp_files/226691.got.cif
#   From: 2010.05.17/outbox.cif.g08.bks.cpg/sg2_114_cif.got.tgz:226691.got - 2010.06.03 11:33:40.
