data_PCOD9007814
_publ_section_title
;
Structure prediction by ZEFSAII (Michael W. Deem and Ramdas Pophale) SiO2 
 PCOD9007814
Probable space group: P -1
;
_chemical_formula_sum "Si O2"
_cell_formula_units_Z 14
_cell_length_a 11.223604
_cell_length_b 16.849057
_cell_length_c 6.809543
_cell_angle_alpha 68.116246
_cell_angle_beta 67.969639
_cell_angle_gamma 30.166904
_cell_volume 596.613288
_symmetry_space_group_name_H-M "P -1"
_symmetry_group_IT_number 2
_symmetry_cell_setting 'triclinic'
loop_
_space_group_symop_operation_xyz
x,y,z
-x,-y,-z
loop_
_atom_site_type_symbol
_atom_site_label
_atom_site_fract_x
_atom_site_fract_y
_atom_site_fract_z
Si Si1 0.184679 0.200434 0.543018
Si Si2 0.561106 0.111382 0.280335
Si Si3 0.650824 0.535174 0.512833
Si Si4 0.428215 0.813032 0.181816
Si Si5 0.263432 0.088876 0.151720
Si Si6 0.008836 0.936970 0.359384
Si Si7 0.235592 0.657175 0.711278
O O1 0.278476 0.062272 0.718978
O O2 0.225607 0.152371 0.331968
O O3 0.913833 0.377873 0.581528
O O4 0.359292 0.183428 0.477121
O O5 0.754443 0.064772 0.302174
O O6 0.447730 0.219335 0.060176
O O7 0.575432 0.672494 0.371309
O O8 0.451251 0.596581 0.706629
O O9 0.660676 0.480465 0.346104
O O10 0.212705 0.874215 0.176350
O O11 0.324331 0.954428 0.224143
O O12 0.985221 0.247311 0.104028
O O13 0.500000 0.000000 0.000000
O O14 0.115721 0.786299 0.500086
O O15 0.000000 0.000000 0.500000
#
# Coordination Sequence:
#
# PCOD9007814 Si02
#       7
#     2   2   2   2   2   2   2
#     4  10  21  39  63  83 123 167 196 237 306 365
#     4  11  21  36  58  93 118 154 203 255 292 351
#     4   9  19  36  60  91 116 162 200 237 298 363
#     4  11  22  33  62  96 115 151 205 258 286 346
#     4  11  19  37  59  91 116 159 200 243 290 363
#     4  11  19  36  62  87 114 155 205 248 291 354
#     4   9  18  36  61  84 114 160 203 230 292 367
#
# _framework density 23.465786999999999
#
# number of rings (size 3 to 8) (size 9 to 14) (size 15 to 20)
#    0.000    1.714    5.714    0.429    0.000    0.571 
#    0.000    0.000    0.000   25.714    0.000    0.000 
#    0.000    0.000    0.000    0.000    0.000    0.000 
#
# Total GULP energy -78063.934782 kJ/mol
# GULP energy per Si atom -5575.995342 kJ/mol
# Density = 2.341238 g / cm^3
# Si number density = 23.465787 Si / 1000 Ang^3
#
#
#
# Elastic Constant Matrix: (Units=GPa)
#
#
# Indices 1 2 3 4 5 6 
#
# 1 113.1047 41.5874 26.3520 0.6759 -28.1306 -23.3914
# 2 41.5874 121.9006 22.2335 4.6394 -17.7974 -24.4007
# 3 26.3520 22.2335 73.2631 9.2168 -22.3136 -10.5227
# 4 0.6759 4.6394 9.2168 30.0841 -5.8253 -11.9480
# 5 -28.1306 -17.7974 -22.3136 -5.8253 35.6478 5.9412
# 6 -23.3914 -24.4007 -10.5227 -11.9480 5.9412 52.5000
#
#
#
# Elastic Compliance Matrix: (Units=1/GPa)
#
#
# Indices 1 2 3 4 5 6 
#
# 1 0.012867 -0.002234 -0.001332 0.003765 0.008091 0.004369
# 2 -0.002234 0.010145 -0.001238 0.000605 0.002063 0.003376
# 3 -0.001332 -0.001238 0.017671 -0.003242 0.008755 0.000645
# 4 0.003765 0.000605 -0.003242 0.038997 0.006033 0.009501
# 5 0.008091 0.002063 0.008755 0.006033 0.041433 0.003003
# 6 0.004369 0.003376 0.000645 0.009501 0.003003 0.024515
#
#
# Mechanical properties :
#
#
# Convention : Reuss Voigt Hill
#
# Bulk Modulus (GPa) = 32.18019 54.29050 43.23534
# Shear Modulus (GPa) = 30.19427 38.18609 34.19018
#
# Velocity S-wave (km/s) = 3.59100 4.03837 3.82124
# Velocity P-wave (km/s) = 5.56212 6.70304 6.15906
#
# Compressibility (1/GPa) = 0.03107502
#
# Stress axis : x y z
#
# Youngs Moduli (GPa) = 77.72085 98.56675 56.58974
#
# Poissons Ratio (x) = 0.22021 0.07537
# Poissons Ratio (y) = 0.17364 0.07006
# Poissons Ratio (z) = 0.10351 0.12203
#
# Static dielectric constant tensor:
#      x y z
#    x 2.005560 -0.046630 -0.012880 
#    y -0.046630 1.902890 0.065730 
#    z -0.012880 0.065730 2.000150 
# 
# From -- ./inp_files/276333.got.cif
#   From: 2010.05.17/outbox.cif.g08.bks.cpg/sg2_139_cif.got.tgz:276333.got - 2010.06.03 11:33:40.
