data_PCOD9007849
_publ_section_title
;
Structure prediction by ZEFSAII (Michael W. Deem and Ramdas Pophale) SiO2 
 PCOD9007849
Probable space group: P -1
;
_chemical_formula_sum "Si O2"
_cell_formula_units_Z 14
_cell_length_a 11.748544
_cell_length_b 8.275142
_cell_length_c 17.125234
_cell_angle_alpha 111.666654
_cell_angle_beta 28.775120
_cell_angle_gamma 93.082040
_cell_volume 594.067751
_symmetry_space_group_name_H-M "P -1"
_symmetry_group_IT_number 2
_symmetry_cell_setting 'triclinic'
loop_
_space_group_symop_operation_xyz
x,y,z
-x,-y,-z
loop_
_atom_site_type_symbol
_atom_site_label
_atom_site_fract_x
_atom_site_fract_y
_atom_site_fract_z
Si Si1 0.600263 0.164179 0.183726
Si Si2 0.819891 0.931915 0.644651
Si Si3 0.297048 0.201677 0.760376
Si Si4 0.420980 0.595686 0.291096
Si Si5 0.625261 0.596198 0.993785
Si Si6 0.151056 0.714723 0.817512
Si Si7 0.236491 0.305871 0.642124
O O1 0.332728 0.146893 0.331266
O O2 0.540193 0.352147 0.196242
O O3 0.915545 0.922392 0.941404
O O4 0.635312 0.245049 0.260381
O O5 0.062687 0.751441 0.526384
O O6 0.537629 0.156336 0.890833
O O7 0.000000 0.000000 0.500000
O O8 0.469802 0.302476 0.697101
O O9 0.067000 0.258939 0.977206
O O10 0.146958 0.284031 0.780469
O O11 0.527295 0.942484 0.568099
O O12 0.534766 0.603998 0.139406
O O13 0.500000 0.500000 0.000000
O O14 0.975949 0.433028 0.758608
O O15 0.307281 0.475843 0.646747
#
# Coordination Sequence:
#
# PCOD9007849 Si02
#       7
#     2   2   2   2   2   2   2
#     4  11  22  37  66  94 133 173 210 270 336 385
#     4  10  21  39  63  88 121 172 218 260 324 389
#     4  11  22  39  71 100 125 175 216 265 327 386
#     4  11  21  39  66  97 131 171 219 268 328 380
#     4  11  22  39  65  92 128 174 225 267 313 390
#     4  11  21  41  66  94 136 174 210 266 329 390
#     4  11  21  39  68  99 131 164 228 265 310 396
#
# _framework density 23.566337000000001
#
# number of rings (size 3 to 8) (size 9 to 14) (size 15 to 20)
#    0.000    1.143    4.286    3.429    0.000    1.143 
#    0.000    3.571   12.571    0.000    0.000    0.000 
#    0.000    0.000    0.000    0.000    0.000    0.000 
#
# Total GULP energy -78274.874405 kJ/mol
# GULP energy per Si atom -5591.062458 kJ/mol
# Density = 2.351270 g / cm^3
# Si number density = 23.566337 Si / 1000 Ang^3
#
#
#
# Elastic Constant Matrix: (Units=GPa)
#
#
# Indices 1 2 3 4 5 6 
#
# 1 86.5440 28.2845 32.2585 -2.0327 -24.9896 36.9439
# 2 28.2845 132.5192 48.0012 13.0663 -14.5724 31.1251
# 3 32.2585 48.0012 105.1874 31.9325 -20.1810 10.1522
# 4 -2.0327 13.0663 31.9325 49.0918 4.8238 -8.2744
# 5 -24.9896 -14.5724 -20.1810 4.8238 48.1378 2.7693
# 6 36.9439 31.1251 10.1522 -8.2744 2.7693 60.0854
#
#
#
# Elastic Compliance Matrix: (Units=1/GPa)
#
#
# Indices 1 2 3 4 5 6 
#
# 1 0.021527 0.001191 -0.003571 -0.000502 0.010884 -0.013821
# 2 0.001191 0.010424 -0.003482 -0.001734 0.002828 -0.005913
# 3 -0.003571 -0.003482 0.016363 -0.010431 0.005022 -0.000433
# 4 -0.000502 -0.001734 -0.010431 0.029694 -0.008563 0.007453
# 5 0.010884 0.002828 0.005022 -0.008563 0.030911 -0.011610
# 6 -0.013821 -0.005913 -0.000433 0.007453 -0.011610 0.029838
#
#
# Mechanical properties :
#
#
# Convention : Reuss Voigt Hill
#
# Bulk Modulus (GPa) = 27.32981 60.14879 43.73930
# Shear Modulus (GPa) = 30.73529 45.84342 38.28936
#
# Velocity S-wave (km/s) = 3.61529 4.41533 4.03519
# Velocity P-wave (km/s) = 5.38974 7.18137 6.34907
#
# Compressibility (1/GPa) = 0.03659009
#
# Stress axis : x y z
#
# Youngs Moduli (GPa) = 46.45230 95.93217 61.11292
#
# Poissons Ratio (x) = -0.11428 0.21824
# Poissons Ratio (y) = -0.05534 0.21282
# Poissons Ratio (z) = 0.16589 0.33407
#
# Static dielectric constant tensor:
#      x y z
#    x 1.166240 -0.395110 0.977180 
#    y -0.395110 1.731880 0.471470 
#    z 0.977180 0.471470 0.628700 
# 
# From -- ./inp_files/283193.got.cif
#   From: 2010.05.17/outbox.cif.g08.bks.cpg/sg2_142_cif.got.tgz:283193.got - 2010.06.03 11:33:40.
