data_PCOD9007224
_publ_section_title
;
Structure prediction by ZEFSAII (Michael W. Deem and Ramdas Pophale) SiO2 
 PCOD9007224
Probable space group: P -1
;
_chemical_formula_sum "Si O2"
_cell_formula_units_Z 16
_cell_length_a 21.103091
_cell_length_b 9.589207
_cell_length_c 20.232608
_cell_angle_alpha 48.827419
_cell_angle_beta 19.483303
_cell_angle_gamma 36.678798
_cell_volume 710.784131
_symmetry_space_group_name_H-M "P -1"
_symmetry_group_IT_number 2
_symmetry_cell_setting 'triclinic'
loop_
_space_group_symop_operation_xyz
x,y,z
-x,-y,-z
loop_
_atom_site_type_symbol
_atom_site_label
_atom_site_fract_x
_atom_site_fract_y
_atom_site_fract_z
Si Si1 0.323972 0.657319 0.928001
Si Si2 0.126471 0.208469 0.477696
Si Si3 0.267767 0.284473 0.943538
Si Si4 0.311036 0.285909 0.632149
Si Si5 0.113912 0.746425 0.426870
Si Si6 0.702720 0.923728 0.161521
Si Si7 0.931561 0.635083 0.368650
Si Si8 0.298928 0.692208 0.793646
O O1 0.562847 0.484600 0.801696
O O2 0.432665 0.595165 0.765751
O O3 0.169550 0.961929 0.994176
O O4 0.139827 0.604031 0.129170
O O5 0.093023 0.218504 0.586551
O O6 0.000000 0.500000 0.500000
O O7 0.962255 0.190005 0.595604
O O8 0.451110 0.968844 0.216981
O O9 0.269800 0.165910 0.911401
O O10 0.286846 0.489933 0.847075
O O11 0.964202 0.471634 0.213713
O O12 0.208654 0.274666 0.805716
O O13 0.506375 0.322681 0.438548
O O14 0.500000 0.000000 0.500000
O O15 0.992294 0.631370 0.605511
O O16 0.000000 0.000000 0.500000
O O17 0.373883 0.167874 0.420861
O O18 0.000000 0.000000 0.000000
#
# Coordination Sequence:
#
# PCOD9007224 Si02
#       8
#     2   2   2   2   2   2   2   2
#     4  11  22  39  63  89 125 173 214 261 326 383
#     4   9  20  44  65  91 128 167 216 271 319 377
#     4  11  24  40  66  98 128 168 218 271 322 388
#     4  12  23  41  67  95 129 175 213 260 325 385
#     4  10  21  39  60  91 126 162 215 272 318 384
#     4  10  22  42  62  93 130 164 218 263 311 391
#     4   9  21  38  65  88 124 170 209 262 326 379
#     4  12  24  40  64  96 135 172 212 266 323 390
#
# _framework density 22.510351
#
# number of rings (size 3 to 8) (size 9 to 14) (size 15 to 20)
#    0.000    1.500    2.500    2.625    0.000    3.500 
#    0.000    6.250    0.000    0.000    0.000    0.000 
#    0.000    0.000    0.000    0.000    0.000    0.000 
#
# Total GULP energy -89325.479125 kJ/mol
# GULP energy per Si atom -5582.842445 kJ/mol
# Density = 2.245912 g / cm^3
# Si number density = 22.510351 Si / 1000 Ang^3
#
#
#
# Elastic Constant Matrix: (Units=GPa)
#
#
# Indices 1 2 3 4 5 6 
#
# 1 90.2453 4.7829 -0.8825 1.9813 -16.7013 12.5689
# 2 4.7829 95.2002 46.8163 -6.2676 -12.8481 15.0237
# 3 -0.8825 46.8163 93.6051 3.5625 -19.8502 -7.1016
# 4 1.9813 -6.2676 3.5625 41.6858 -0.8343 -14.3442
# 5 -16.7013 -12.8481 -19.8502 -0.8343 25.9248 2.1935
# 6 12.5689 15.0237 -7.1016 -14.3442 2.1935 41.0910
#
#
#
# Elastic Compliance Matrix: (Units=1/GPa)
#
#
# Indices 1 2 3 4 5 6 
#
# 1 0.013958 0.000617 0.001845 -0.002440 0.011108 -0.005621
# 2 0.000617 0.015970 -0.007954 0.000579 0.002862 -0.007353
# 3 0.001845 -0.007954 0.017171 -0.001031 0.009987 0.004419
# 4 -0.002440 0.000579 -0.001031 0.027730 -0.002041 0.010146
# 5 0.011108 0.002862 0.009987 -0.002041 0.055269 -0.006381
# 6 -0.005621 -0.007353 0.004419 0.010146 -0.006381 0.033390
#
#
# Mechanical properties :
#
#
# Convention : Reuss Voigt Hill
#
# Bulk Modulus (GPa) = 27.68965 42.27600 34.98282
# Shear Modulus (GPa) = 26.80805 36.96258 31.88531
#
# Velocity S-wave (km/s) = 3.45472 4.05659 3.76769
# Velocity P-wave (km/s) = 5.31422 6.38457 5.87383
#
# Compressibility (1/GPa) = 0.03611458
#
# Stress axis : x y z
#
# Youngs Moduli (GPa) = 71.64157 62.61909 58.23688
#
# Poissons Ratio (x) = -0.03863 -0.10745
# Poissons Ratio (y) = -0.04420 0.46323
# Poissons Ratio (z) = -0.13218 0.49809
#
# Static dielectric constant tensor:
#      x y z
#    x 1.897790 -0.038990 -0.008150 
#    y -0.038990 1.874790 0.024580 
#    z -0.008150 0.024580 1.787260 
# 
# From -- ./inp_files/601142.got.cif
#   From: 2010.05.17/outbox.cif.g08.bks.cpg/sg2_301_cif.got.tgz:601142.got - 2010.06.03 11:33:40.
