data_PCOD9007905
_publ_section_title
;
Structure prediction by ZEFSAII (Michael W. Deem and Ramdas Pophale) SiO2 
 PCOD9007905
Probable space group: P -1
;
_chemical_formula_sum "Si O2"
_cell_formula_units_Z 16
_cell_length_a 7.092662
_cell_length_b 17.650716
_cell_length_c 16.294072
_cell_angle_alpha 143.332523
_cell_angle_beta 44.965989
_cell_angle_gamma 112.806361
_cell_volume 778.711187
_symmetry_space_group_name_H-M "P -1"
_symmetry_group_IT_number 2
_symmetry_cell_setting 'triclinic'
loop_
_space_group_symop_operation_xyz
x,y,z
-x,-y,-z
loop_
_atom_site_type_symbol
_atom_site_label
_atom_site_fract_x
_atom_site_fract_y
_atom_site_fract_z
Si Si1 0.503595 0.372233 0.332518
Si Si2 0.307767 0.404258 0.774506
Si Si3 0.800805 0.054151 0.027002
Si Si4 0.165377 0.078379 0.267588
Si Si5 0.081895 0.012927 0.579558
Si Si6 0.078559 0.545658 0.817305
Si Si7 0.683624 0.787522 0.262965
Si Si8 0.915827 0.406734 0.597489
O O1 0.500000 0.500000 0.500000
O O2 0.677904 0.221672 0.192613
O O3 0.693539 0.385963 0.210471
O O4 0.165561 0.395048 0.442788
O O5 0.225295 0.406334 0.706770
O O6 0.427132 0.260235 0.662432
O O7 0.567718 0.455827 0.735998
O O8 0.000000 0.500000 0.000000
O O9 0.516676 0.023665 0.104124
O O10 0.935802 0.977621 0.832038
O O11 0.000000 0.000000 0.000000
O O12 0.093185 0.026551 0.330596
O O13 0.032340 0.246339 0.452179
O O14 0.421675 0.905892 0.397219
O O15 0.074832 0.162096 0.735556
O O16 0.000000 0.000000 0.500000
O O17 0.958933 0.505364 0.738039
O O18 0.819374 0.657841 0.047556
#
# Coordination Sequence:
#
# PCOD9007905 Si02
#       8
#     2   2   2   2   2   2   2   2
#     4   9  20  40  62  96 126 163 215 262 328 388
#     4  10  22  38  60  90 120 169 215 257 321 388
#     4  10  22  41  69  93 129 171 211 273 330 381
#     4  10  22  40  61  97 125 163 223 261 317 404
#     4  11  24  40  63  89 127 173 209 269 328 376
#     4  10  22  39  64  88 130 167 207 270 326 378
#     4  10  23  40  57  92 124 161 222 263 307 394
#     4  10  21  39  63  90 130 166 209 277 318 388
#
# _framework density 20.546769000000001
#
# number of rings (size 3 to 8) (size 9 to 14) (size 15 to 20)
#    0.000    2.000    1.250    0.750    1.750   10.500 
#    0.000    8.750    0.000    0.000    0.000    0.000 
#    0.000    0.000    0.000    0.000    0.000    0.000 
#
# Total GULP energy -89099.389116 kJ/mol
# GULP energy per Si atom -5568.711820 kJ/mol
# Density = 2.050000 g / cm^3
# Si number density = 20.546769 Si / 1000 Ang^3
#
#
#
# Elastic Constant Matrix: (Units=GPa)
#
#
# Indices 1 2 3 4 5 6 
#
# 1 99.3931 25.9364 27.7930 0.3866 1.0852 -13.1630
# 2 25.9364 86.1895 17.6072 -3.2512 5.4761 -3.7585
# 3 27.7930 17.6072 65.9845 1.6379 6.8587 -1.9755
# 4 0.3866 -3.2512 1.6379 29.7790 9.4993 0.3828
# 5 1.0852 5.4761 6.8587 9.4993 27.5294 -6.3787
# 6 -13.1630 -3.7585 -1.9755 0.3828 -6.3787 34.0086
#
#
#
# Elastic Compliance Matrix: (Units=1/GPa)
#
#
# Indices 1 2 3 4 5 6 
#
# 1 0.012752 -0.002882 -0.004716 -0.001170 0.002780 0.004878
# 2 -0.002882 0.013158 -0.002065 0.002532 -0.002947 -0.000362
# 3 -0.004716 -0.002065 0.018091 0.000278 -0.004432 -0.001837
# 4 -0.001170 0.002532 0.000278 0.038558 -0.014603 -0.003330
# 5 0.002780 -0.002947 -0.004432 -0.014603 0.045055 0.009108
# 6 0.004878 -0.000362 -0.001837 -0.003330 0.009108 0.032891
#
#
# Mechanical properties :
#
#
# Convention : Reuss Voigt Hill
#
# Bulk Modulus (GPa) = 40.52466 43.80448 42.16457
# Shear Modulus (GPa) = 26.58771 30.27878 28.43324
#
# Velocity S-wave (km/s) = 3.60114 3.84298 3.72402
# Velocity P-wave (km/s) = 6.08743 6.40758 6.24956
#
# Compressibility (1/GPa) = 0.02467633
#
# Stress axis : x y z
#
# Youngs Moduli (GPa) = 78.41902 75.99739 55.27546
#
# Poissons Ratio (x) = 0.21902 0.26068
# Poissons Ratio (y) = 0.22600 0.11412
# Poissons Ratio (z) = 0.36982 0.15691
#
# Static dielectric constant tensor:
#      x y z
#    x 1.730150 0.005100 -0.038190 
#    y 0.005100 1.784720 -0.017380 
#    z -0.038190 -0.017380 1.813920 
# 
# From -- ./inp_files/410077.got.cif
#   From: 2010.05.17/outbox.cif.g08.bks.cpg/sg2_206_cif.got.tgz:410077.got - 2010.06.03 11:33:40.
