data_PCOD9007073
_publ_section_title
;
Structure prediction by ZEFSAII (Michael W. Deem and Ramdas Pophale) SiO2 
 PCOD9007073
Probable space group: P -1
;
_chemical_formula_sum "Si O2"
_cell_formula_units_Z 16
_cell_length_a 10.821946
_cell_length_b 12.486588
_cell_length_c 12.107146
_cell_angle_alpha 61.014559
_cell_angle_beta 138.941554
_cell_angle_gamma 88.659451
_cell_volume 692.089714
_symmetry_space_group_name_H-M "P -1"
_symmetry_group_IT_number 2
_symmetry_cell_setting 'triclinic'
loop_
_space_group_symop_operation_xyz
x,y,z
-x,-y,-z
loop_
_atom_site_type_symbol
_atom_site_label
_atom_site_fract_x
_atom_site_fract_y
_atom_site_fract_z
Si Si1 0.778951 0.011161 0.945896
Si Si2 0.076899 0.172996 0.335088
Si Si3 0.258435 0.409094 0.654508
Si Si4 0.264282 0.319872 0.095250
Si Si5 0.440548 0.519612 0.080146
Si Si6 0.733802 0.640345 0.573974
Si Si7 0.555667 0.860842 0.923088
Si Si8 0.216004 0.994195 0.296764
O O1 0.574384 0.214287 0.690597
O O2 0.666233 0.949094 0.972198
O O3 0.807287 0.947165 0.872542
O O4 0.045656 0.945345 0.202730
O O5 0.184339 0.261964 0.378886
O O6 0.085200 0.132538 0.233541
O O7 0.272068 0.999439 0.616144
O O8 0.805132 0.291534 0.149484
O O9 0.340493 0.511483 0.685725
O O10 0.240468 0.387985 0.525267
O O11 0.000000 0.500000 0.500000
O O12 0.439409 0.228969 0.924281
O O13 0.365335 0.415670 0.114527
O O14 0.287905 0.266219 0.010813
O O15 0.485556 0.154062 0.396664
O O16 0.967315 0.451080 0.869605
O O17 0.500000 0.500000 0.000000
#
# Coordination Sequence:
#
# PCOD9007073 Si02
#       8
#     2   2   2   2   2   2   2   2
#     4  10  23  41  64  88 121 153 205 256 298 355
#     4   9  21  39  60  86 121 155 203 241 297 360
#     4  12  22  36  61  88 127 162 192 245 300 352
#     4  10  21  39  61  90 122 158 202 239 302 362
#     4  11  21  39  60  88 126 158 192 249 293 358
#     4  10  21  39  59  92 123 157 203 245 296 360
#     4  10  21  39  60  90 119 159 202 241 298 360
#     4  10  22  43  63  88 118 161 199 253 306 347
#
# _framework density 23.118390999999999
#
# number of rings (size 3 to 8) (size 9 to 14) (size 15 to 20)
#    0.000    1.750    2.500    1.500    1.750    7.500 
#    2.250    1.250    0.000    8.250    0.000    0.000 
#    0.000    0.000    0.000    0.000    0.000    0.000 
#
# Total GULP energy -89364.019110 kJ/mol
# GULP energy per Si atom -5585.251194 kJ/mol
# Density = 2.306577 g / cm^3
# Si number density = 23.118391 Si / 1000 Ang^3
#
#
#
# Elastic Constant Matrix: (Units=GPa)
#
#
# Indices 1 2 3 4 5 6 
#
# 1 56.4277 34.0158 16.0995 1.6191 4.3745 -5.0349
# 2 34.0158 116.3521 38.1467 10.1424 -10.2423 -23.4179
# 3 16.0995 38.1467 87.6992 -7.7544 11.3722 -12.5376
# 4 1.6191 10.1424 -7.7544 38.5273 -9.3170 -0.4824
# 5 4.3745 -10.2423 11.3722 -9.3170 34.6094 -2.1206
# 6 -5.0349 -23.4179 -12.5376 -0.4824 -2.1206 45.4455
#
#
#
# Elastic Compliance Matrix: (Units=1/GPa)
#
#
# Indices 1 2 3 4 5 6 
#
# 1 0.022411 -0.007039 -0.000678 -0.000431 -0.004905 -0.001565
# 2 -0.007039 0.014266 -0.005225 -0.002902 0.006378 0.005397
# 3 -0.000678 -0.005225 0.014945 0.003104 -0.005466 0.001133
# 4 -0.000431 -0.002902 0.003104 0.028793 0.005920 -0.000105
# 5 -0.004905 0.006378 -0.005466 0.005920 0.034971 0.002930
# 6 -0.001565 0.005397 0.001133 -0.000105 0.002930 0.025060
#
#
# Mechanical properties :
#
#
# Convention : Reuss Voigt Hill
#
# Bulk Modulus (GPa) = 38.85292 48.55588 43.70440
# Shear Modulus (GPa) = 28.58600 35.19759 31.89179
#
# Velocity S-wave (km/s) = 3.52021 3.90615 3.71819
# Velocity P-wave (km/s) = 5.77625 6.43372 6.11383
#
# Compressibility (1/GPa) = 0.02573809
#
# Stress axis : x y z
#
# Youngs Moduli (GPa) = 44.62012 70.09620 66.91051
#
# Poissons Ratio (x) = 0.49339 0.04539
# Poissons Ratio (y) = 0.31407 0.34963
# Poissons Ratio (z) = 0.03027 0.36627
#
# Static dielectric constant tensor:
#      x y z
#    x 1.840680 0.022690 0.009510 
#    y 0.022690 1.864650 -0.060610 
#    z 0.009510 -0.060610 2.014910 
# 
# From -- ./inp_files/218664.got.cif
#   From: 2010.05.17/outbox.cif.g08.bks.cpg/sg2_110_cif.got.tgz:218664.got - 2010.06.03 11:33:40.
