data_PCOD9007883
_publ_section_title
;
Structure prediction by ZEFSAII (Michael W. Deem and Ramdas Pophale) SiO2 
 PCOD9007883
Probable space group: P -1
;
_chemical_formula_sum "Si O2"
_cell_formula_units_Z 14
_cell_length_a 8.523854
_cell_length_b 11.665907
_cell_length_c 15.179641
_cell_angle_alpha 27.213194
_cell_angle_beta 56.708887
_cell_angle_gamma 53.295301
_cell_volume 552.788141
_symmetry_space_group_name_H-M "P -1"
_symmetry_group_IT_number 2
_symmetry_cell_setting 'triclinic'
loop_
_space_group_symop_operation_xyz
x,y,z
-x,-y,-z
loop_
_atom_site_type_symbol
_atom_site_label
_atom_site_fract_x
_atom_site_fract_y
_atom_site_fract_z
Si Si1 0.730779 0.180936 0.921086
Si Si2 0.384341 0.346297 0.488099
Si Si3 0.940116 0.677391 0.984462
Si Si4 0.669053 0.222473 0.121408
Si Si5 0.911173 0.653337 0.279079
Si Si6 0.761021 0.001370 0.677455
Si Si7 0.939948 0.728034 0.647417
O O1 0.603676 0.427278 0.737420
O O2 0.949388 0.197978 0.819053
O O3 0.679742 0.217115 0.015433
O O4 0.761194 0.869756 0.116112
O O5 0.208012 0.450751 0.540574
O O6 0.582675 0.251376 0.547257
O O7 0.355827 0.068141 0.649263
O O8 0.127026 0.759058 0.909297
O O9 0.760881 0.896740 0.847739
O O10 0.898015 0.481969 0.202180
O O11 0.000000 0.500000 0.000000
O O12 0.500000 0.500000 0.000000
O O13 0.070438 0.435660 0.323794
O O14 0.972114 0.050569 0.567281
O O15 0.769225 0.829057 0.702679
#
# Coordination Sequence:
#
# PCOD9007883 Si02
#       7
#     2   2   2   2   2   2   2
#     4  10  23  42  65  94 134 169 219 267 330 382
#     4  11  25  42  66  99 134 165 222 274 319 391
#     4  10  21  39  63  89 130 170 206 259 324 390
#     4  11  23  39  68 103 129 168 218 274 329 380
#     4  10  22  42  67  93 127 178 218 266 322 392
#     4  10  24  41  64 100 131 168 217 266 326 393
#     4  10  21  41  68  89 129 172 216 258 331 383
#
# _framework density 25.326158
#
# number of rings (size 3 to 8) (size 9 to 14) (size 15 to 20)
#    0.000    1.714    1.429    2.143    2.000    8.000 
#    0.000    1.429    0.000    0.000    0.000    0.000 
#    0.000    0.000    0.000    0.000    0.000    0.000 
#
# Total GULP energy -77957.047737 kJ/mol
# GULP energy per Si atom -5568.360553 kJ/mol
# Density = 2.526851 g / cm^3
# Si number density = 25.326158 Si / 1000 Ang^3
#
#
#
# Elastic Constant Matrix: (Units=GPa)
#
#
# Indices 1 2 3 4 5 6 
#
# 1 48.6829 -6.0111 26.3964 -10.8736 17.3644 -1.2371
# 2 -6.0111 80.9783 1.0463 -6.5359 11.5292 8.4731
# 3 26.3964 1.0463 132.6371 -2.9309 31.2195 7.0732
# 4 -10.8736 -6.5359 -2.9309 29.6998 -0.7225 0.5118
# 5 17.3644 11.5292 31.2195 -0.7225 50.8184 -11.2180
# 6 -1.2371 8.4731 7.0732 0.5118 -11.2180 24.9940
#
#
#
# Elastic Compliance Matrix: (Units=1/GPa)
#
#
# Indices 1 2 3 4 5 6 
#
# 1 0.028619 0.004871 -0.002971 0.011088 -0.009787 -0.004014
# 2 0.004871 0.015157 0.001340 0.005214 -0.007815 -0.008890
# 3 -0.002971 0.001340 0.010111 0.000149 -0.006952 -0.006586
# 4 0.011088 0.005214 0.000149 0.038836 -0.005511 -0.004530
# 5 -0.009787 -0.007815 -0.006952 -0.005511 0.033215 0.019153
# 6 -0.004014 -0.008890 -0.006586 -0.004530 0.019153 0.053378
#
#
# Mechanical properties :
#
#
# Convention : Reuss Voigt Hill
#
# Bulk Modulus (GPa) = 16.56562 33.90681 25.23621
# Shear Modulus (GPa) = 25.91229 37.16022 31.53625
#
# Velocity S-wave (km/s) = 3.20213 3.83465 3.53257
# Velocity P-wave (km/s) = 4.49740 5.74658 5.15993
#
# Compressibility (1/GPa) = 0.06036600
#
# Stress axis : x y z
#
# Youngs Moduli (GPa) = 34.94181 65.97631 98.90305
#
# Poissons Ratio (x) = -0.32138 0.29387
# Poissons Ratio (y) = -0.17021 -0.13250
# Poissons Ratio (z) = 0.10382 -0.08839
#
# Static dielectric constant tensor:
#      x y z
#    x 2.086090 0.057370 -0.021140 
#    y 0.057370 2.084700 -0.104360 
#    z -0.021140 -0.104360 2.168890 
# 
# From -- ./inp_files/257251.got.cif
#   From: 2010.05.17/outbox.cif.g08.bks.cpg/sg2_129_cif.got.tgz:257251.got - 2010.06.03 11:33:40.
