data_PCOD9007652
_publ_section_title
;
Structure prediction by ZEFSAII (Michael W. Deem and Ramdas Pophale) SiO2 
 PCOD9007652
Probable space group: P -1
;
_chemical_formula_sum "Si O2"
_cell_formula_units_Z 16
_cell_length_a 13.807531
_cell_length_b 20.744727
_cell_length_c 22.659591
_cell_angle_alpha 159.361817
_cell_angle_beta 159.166576
_cell_angle_gamma 29.445938
_cell_volume 813.235216
_symmetry_space_group_name_H-M "P -1"
_symmetry_group_IT_number 2
_symmetry_cell_setting 'triclinic'
loop_
_space_group_symop_operation_xyz
x,y,z
-x,-y,-z
loop_
_atom_site_type_symbol
_atom_site_label
_atom_site_fract_x
_atom_site_fract_y
_atom_site_fract_z
Si Si1 0.304174 0.433245 0.603961
Si Si2 0.031138 0.062063 0.138256
Si Si3 0.872353 0.571218 0.077774
Si Si4 0.834173 0.681819 0.382265
Si Si5 0.884878 0.781474 0.140399
Si Si6 0.322859 0.740822 0.077839
Si Si7 0.132763 0.178746 0.603706
Si Si8 0.293668 0.744500 0.788987
O O1 0.552544 0.510987 0.850725
O O2 0.358011 0.530528 0.655002
O O3 0.000000 0.500000 0.500000
O O4 0.272570 0.217272 0.406538
O O5 0.771003 0.154982 0.099885
O O6 0.000000 0.000000 0.000000
O O7 0.105808 0.894586 0.079065
O O8 0.020710 0.382250 0.988050
O O9 0.903560 0.698412 0.146193
O O10 0.965212 0.689879 0.288025
O O11 0.803903 0.462003 0.174905
O O12 0.971392 0.756827 0.464406
O O13 0.017867 0.747788 0.597380
O O14 0.520819 0.745992 0.252585
O O15 0.568680 0.825295 0.987120
O O16 0.060227 0.967827 0.393362
O O17 0.542174 0.784687 0.188360
#
# Coordination Sequence:
#
# PCOD9007652 Si02
#       8
#     2   2   2   2   2   2   2   2
#     4   9  20  34  60  87 122 150 192 255 310 359
#     4  11  22  34  60  95 116 158 199 253 321 361
#     4  10  21  39  62  91 119 165 200 249 317 354
#     4   9  21  40  59  85 123 163 196 254 305 356
#     4  10  22  41  59  90 121 162 209 249 300 371
#     4   9  21  38  60  89 121 150 208 247 308 372
#     4  10  21  39  65  84 120 162 201 252 294 371
#     4  10  22  39  57  85 128 156 197 259 297 360
#
# _framework density 19.674503999999999
#
# number of rings (size 3 to 8) (size 9 to 14) (size 15 to 20)
#    0.750    1.500    0.000    1.875    8.750    1.000 
#   11.250    0.625    0.000    0.000    0.000    0.000 
#    0.000    0.000    0.000    0.000    0.000    0.000 
#
# Total GULP energy -89074.981404 kJ/mol
# GULP energy per Si atom -5567.186338 kJ/mol
# Density = 1.962972 g / cm^3
# Si number density = 19.674504 Si / 1000 Ang^3
#
#
#
# Elastic Constant Matrix: (Units=GPa)
#
#
# Indices 1 2 3 4 5 6 
#
# 1 53.7343 15.4414 40.4984 6.1200 -5.4745 -8.1508
# 2 15.4414 80.8572 33.3113 13.1218 -3.1821 -3.0859
# 3 40.4984 33.3113 86.2910 21.3800 4.6979 3.3107
# 4 6.1200 13.1218 21.3800 37.0706 7.2217 4.0964
# 5 -5.4745 -3.1821 4.6979 7.2217 29.5335 -0.1531
# 6 -8.1508 -3.0859 3.3107 4.0964 -0.1531 22.9176
#
#
#
# Elastic Compliance Matrix: (Units=1/GPa)
#
#
# Indices 1 2 3 4 5 6 
#
# 1 0.035310 0.001747 -0.018524 0.000663 0.009598 0.015415
# 2 0.001747 0.015505 -0.006352 -0.003331 0.003841 0.004248
# 3 -0.018524 -0.006352 0.025165 -0.006847 -0.006498 -0.009899
# 4 0.000663 -0.003331 -0.006847 0.034047 -0.007500 -0.005359
# 5 0.009598 0.003841 -0.006498 -0.007500 0.038954 0.006470
# 6 0.015415 0.004248 -0.009899 -0.005359 0.006470 0.052120
#
#
# Mechanical properties :
#
#
# Convention : Reuss Voigt Hill
#
# Bulk Modulus (GPa) = 33.64686 44.37608 39.01147
# Shear Modulus (GPa) = 19.43504 26.67979 23.05741
#
# Velocity S-wave (km/s) = 3.14638 3.68647 3.42708
# Velocity P-wave (km/s) = 5.50804 6.38155 5.96082
#
# Compressibility (1/GPa) = 0.02972046
#
# Stress axis : x y z
#
# Youngs Moduli (GPa) = 28.32039 64.49708 39.73807
#
# Poissons Ratio (x) = -0.11267 0.73613
# Poissons Ratio (y) = -0.04947 0.25242
# Poissons Ratio (z) = 0.52462 0.40969
#
# Static dielectric constant tensor:
#      x y z
#    x 1.721290 0.001620 0.028340 
#    y 0.001620 1.739140 -0.009910 
#    z 0.028340 -0.009910 1.735910 
# 
# From -- ./inp_files/612280.got.cif
#   From: 2010.05.17/outbox.cif.g08.bks.cpg/sg2_307_cif.got.tgz:612280.got - 2010.06.03 11:33:40.
