data_PCOD9007821
_publ_section_title
;
Structure prediction by ZEFSAII (Michael W. Deem and Ramdas Pophale) SiO2 
 PCOD9007821
Probable space group: P -1
;
_chemical_formula_sum "Si O2"
_cell_formula_units_Z 14
_cell_length_a 8.488441
_cell_length_b 15.059239
_cell_length_c 14.769638
_cell_angle_alpha 29.543637
_cell_angle_beta 120.303917
_cell_angle_gamma 100.340275
_cell_volume 637.172175
_symmetry_space_group_name_H-M "P -1"
_symmetry_group_IT_number 2
_symmetry_cell_setting 'triclinic'
loop_
_space_group_symop_operation_xyz
x,y,z
-x,-y,-z
loop_
_atom_site_type_symbol
_atom_site_label
_atom_site_fract_x
_atom_site_fract_y
_atom_site_fract_z
Si Si1 0.168339 0.000475 0.205422
Si Si2 0.417990 0.178552 0.397428
Si Si3 0.272793 0.631290 0.878438
Si Si4 0.770131 0.984750 0.361135
Si Si5 0.009835 0.268043 0.661763
Si Si6 0.476680 0.944238 0.177291
Si Si7 0.123477 0.525845 0.368583
O O1 0.346146 0.879193 0.445064
O O2 0.325353 0.947059 0.210620
O O3 0.031007 0.901935 0.238080
O O4 0.996040 0.272589 0.917149
O O5 0.308498 0.115612 0.497643
O O6 0.500000 0.000000 0.500000
O O7 0.262560 0.438829 0.090247
O O8 0.045943 0.803429 0.599687
O O9 0.284818 0.783263 0.822202
O O10 0.500000 0.500000 0.000000
O O11 0.635364 0.004799 0.213862
O O12 0.959383 0.455197 0.409421
O O13 0.869658 0.377037 0.618253
O O14 0.279790 0.128980 0.887969
O O15 0.641003 0.694142 0.405206
#
# Coordination Sequence:
#
# PCOD9007821 Si02
#       7
#     2   2   2   2   2   2   2
#     4  10  24  40  59  93 124 160 209 252 301 374
#     4  11  23  42  65  91 128 166 207 256 318 365
#     4  11  23  42  67  88 126 165 209 263 306 368
#     4  10  24  42  62  97 126 163 212 255 313 372
#     4  10  22  40  61  92 124 158 209 247 303 376
#     4  10  21  39  64  91 125 161 203 252 309 367
#     4  10  21  39  63  85 126 165 194 258 306 356
#
# _framework density 21.972085
#
# number of rings (size 3 to 8) (size 9 to 14) (size 15 to 20)
#    0.000    1.714    1.429    2.571    2.000    9.143 
#    0.000    0.000    0.000    0.000    0.000    0.000 
#    0.000    0.000    0.000    0.000    0.000    0.000 
#
# Total GULP energy -78258.687675 kJ/mol
# GULP energy per Si atom -5589.906262 kJ/mol
# Density = 2.192208 g / cm^3
# Si number density = 21.972085 Si / 1000 Ang^3
#
#
#
# Elastic Constant Matrix: (Units=GPa)
#
#
# Indices 1 2 3 4 5 6 
#
# 1 51.8894 32.3319 19.0586 -5.9723 10.2393 14.3147
# 2 32.3319 83.2248 61.1626 -5.4798 26.5861 22.8597
# 3 19.0586 61.1626 95.0301 -28.2757 9.9091 15.3702
# 4 -5.9723 -5.4798 -28.2757 30.5957 -2.2136 7.4959
# 5 10.2393 26.5861 9.9091 -2.2136 35.4109 -3.1051
# 6 14.3147 22.8597 15.3702 7.4959 -3.1051 29.6038
#
#
#
# Elastic Compliance Matrix: (Units=1/GPa)
#
#
# Indices 1 2 3 4 5 6 
#
# 1 0.029834 -0.013788 0.009625 0.015296 -0.001132 -0.012768
# 2 -0.013788 0.053794 -0.032607 -0.021530 -0.029994 -0.015637
# 3 0.009625 -0.032607 0.040580 0.036493 0.011875 -0.008539
# 4 0.015296 -0.021530 0.036493 0.072594 0.003637 -0.027718
# 5 -0.001132 -0.029994 0.011875 0.003637 0.049907 0.021857
# 6 -0.012768 -0.015637 -0.008539 -0.027718 0.021857 0.065773
#
#
# Mechanical properties :
#
#
# Convention : Reuss Voigt Hill
#
# Bulk Modulus (GPa) = 19.73610 50.58339 35.15974
# Shear Modulus (GPa) = 12.40969 26.96149 19.68559
#
# Velocity S-wave (km/s) = 2.37912 3.50677 2.99647
# Velocity P-wave (km/s) = 4.06802 6.28237 5.29231
#
# Compressibility (1/GPa) = 0.05066858
#
# Stress axis : x y z
#
# Youngs Moduli (GPa) = 33.51904 18.58934 24.64259
#
# Poissons Ratio (x) = 0.25631 -0.23719
# Poissons Ratio (y) = 0.46216 0.80352
# Poissons Ratio (z) = -0.32262 0.60614
#
# Static dielectric constant tensor:
#      x y z
#    x 1.823210 -0.011630 -0.026070 
#    y -0.011630 1.806280 0.020430 
#    z -0.026070 0.020430 1.835360 
# 
# From -- ./inp_files/503694.got.cif
#   From: 2010.05.17/outbox.cif.g08.bks.cpg/sg2_252_cif.got.tgz:503694.got - 2010.06.03 11:33:40.
