data_PCOD9007959
_publ_section_title
;
Structure prediction by ZEFSAII (Michael W. Deem and Ramdas Pophale) SiO2 
 PCOD9007959
Probable space group: P -1
;
_chemical_formula_sum "Si O2"
_cell_formula_units_Z 16
_cell_length_a 10.292502
_cell_length_b 9.998000
_cell_length_c 15.642318
_cell_angle_alpha 91.421333
_cell_angle_beta 156.940008
_cell_angle_gamma 86.600705
_cell_volume 627.562904
_symmetry_space_group_name_H-M "P -1"
_symmetry_group_IT_number 2
_symmetry_cell_setting 'triclinic'
loop_
_space_group_symop_operation_xyz
x,y,z
-x,-y,-z
loop_
_atom_site_type_symbol
_atom_site_label
_atom_site_fract_x
_atom_site_fract_y
_atom_site_fract_z
Si Si1 0.780744 0.878550 0.893006
Si Si2 0.867157 0.997141 0.263764
Si Si3 0.294042 0.394603 0.423647
Si Si4 0.299698 0.103857 0.668574
Si Si5 0.331938 0.666592 0.184335
Si Si6 0.644561 0.504356 0.234865
Si Si7 0.661910 0.182456 0.536353
Si Si8 0.762900 0.618866 0.129581
O O1 0.556143 0.828886 0.680326
O O2 0.526350 0.959052 0.805326
O O3 0.028954 0.744690 0.055643
O O4 0.000000 0.000000 0.000000
O O5 0.859543 0.885961 0.334109
O O6 0.121972 0.961364 0.338338
O O7 0.047287 0.102248 0.434453
O O8 0.500000 0.000000 0.000000
O O9 0.500000 0.500000 0.500000
O O10 0.408607 0.387431 0.589296
O O11 0.396959 0.248472 0.444421
O O12 0.931019 0.469312 0.205796
O O13 0.533591 0.218113 0.790750
O O14 0.347878 0.545152 0.124764
O O15 0.683786 0.606735 0.181225
O O16 0.000000 0.500000 0.500000
O O17 0.544007 0.370062 0.122642
O O18 0.961653 0.278882 0.716705
#
# Coordination Sequence:
#
# PCOD9007959 Si02
#       8
#     2   2   2   2   2   2   2   2
#     4   9  20  40  64  92 124 161 209 262 311 377
#     4  10  21  39  63  92 124 162 202 260 316 374
#     4  10  22  41  61  92 128 164 219 265 310 376
#     4   9  21  41  61  93 127 153 216 256 304 391
#     4  11  21  40  65  91 123 177 205 260 326 365
#     4  11  22  39  63  92 123 166 211 260 314 379
#     4  10  21  41  60  89 128 166 204 260 320 371
#     4  10  22  42  61  91 130 159 211 269 306 380
#
# _framework density 25.495452
#
# number of rings (size 3 to 8) (size 9 to 14) (size 15 to 20)
#    0.000    2.000    1.250    1.500    1.750    1.000 
#   11.250    5.625    0.000    0.000    0.000    0.000 
#    0.000    0.000    0.000    0.000    0.000    0.000 
#
# Total GULP energy -89071.965270 kJ/mol
# GULP energy per Si atom -5566.997829 kJ/mol
# Density = 2.543742 g / cm^3
# Si number density = 25.495452 Si / 1000 Ang^3
#
#
#
# Elastic Constant Matrix: (Units=GPa)
#
#
# Indices 1 2 3 4 5 6 
#
# 1 77.9509 40.3545 -3.0582 -0.9274 -9.2677 -28.5274
# 2 40.3545 73.6788 37.0050 -0.2813 -3.5332 -24.1791
# 3 -3.0582 37.0050 122.4683 9.4501 -18.6327 -7.5036
# 4 -0.9274 -0.2813 9.4501 45.5584 -8.3333 12.7825
# 5 -9.2677 -3.5332 -18.6327 -8.3333 40.9503 6.5459
# 6 -28.5274 -24.1791 -7.5036 12.7825 6.5459 41.9368
#
#
#
# Elastic Compliance Matrix: (Units=1/GPa)
#
#
# Indices 1 2 3 4 5 6 
#
# 1 0.023745 -0.012427 0.005916 -0.002788 0.004804 0.010146
# 2 -0.012427 0.026665 -0.008751 -0.001191 -0.005795 0.006622
# 3 0.005916 -0.008751 0.011977 -0.001602 0.005589 0.000737
# 4 -0.002788 -0.001191 -0.001602 0.026629 0.005858 -0.011901
# 5 0.004804 -0.005795 0.005589 0.005858 0.029619 -0.005482
# 6 0.010146 0.006622 0.000737 -0.011901 -0.005482 0.039180
#
#
# Mechanical properties :
#
#
# Convention : Reuss Voigt Hill
#
# Bulk Modulus (GPa) = 31.38637 46.96672 39.17655
# Shear Modulus (GPa) = 25.13054 39.00890 32.06972
#
# Velocity S-wave (km/s) = 3.14297 3.91581 3.55048
# Velocity P-wave (km/s) = 5.05058 6.23749 5.67515
#
# Compressibility (1/GPa) = 0.03186096
#
# Stress axis : x y z
#
# Youngs Moduli (GPa) = 42.11355 37.50230 83.49609
#
# Poissons Ratio (x) = 0.46605 -0.49394
# Poissons Ratio (y) = 0.52336 0.73071
# Poissons Ratio (z) = -0.24913 0.32820
#
# Static dielectric constant tensor:
#      x y z
#    x 1.982690 -0.080620 0.074520 
#    y -0.080620 2.147970 -0.013430 
#    z 0.074520 -0.013430 2.286630 
# 
# From -- ./inp_files/568769.got.cif
#   From: 2010.05.17/outbox.cif.g08.bks.cpg/sg2_285_cif.got.tgz:568769.got - 2010.06.03 11:33:40.
