data_PCOD9007878
_publ_section_title
;
Structure prediction by ZEFSAII (Michael W. Deem and Ramdas Pophale) SiO2 
 PCOD9007878
Probable space group: P -1
;
_chemical_formula_sum "Si O2"
_cell_formula_units_Z 16
_cell_length_a 24.604367
_cell_length_b 6.405643
_cell_length_c 5.875828
_cell_angle_alpha 105.633066
_cell_angle_beta 81.211093
_cell_angle_gamma 136.248610
_cell_volume 615.496013
_symmetry_space_group_name_H-M "P -1"
_symmetry_group_IT_number 2
_symmetry_cell_setting 'triclinic'
loop_
_space_group_symop_operation_xyz
x,y,z
-x,-y,-z
loop_
_atom_site_type_symbol
_atom_site_label
_atom_site_fract_x
_atom_site_fract_y
_atom_site_fract_z
Si Si1 0.793961 0.193769 0.175064
Si Si2 0.355741 0.097707 0.078312
Si Si3 0.887400 0.158392 0.395718
Si Si4 0.887048 0.746374 0.974427
Si Si5 0.373288 0.731349 0.629783
Si Si6 0.469975 0.638691 0.461403
Si Si7 0.025381 0.745746 0.243264
Si Si8 0.254393 0.597775 0.366563
O O1 0.812779 0.044329 0.279371
O O2 0.862427 0.455582 0.028205
O O3 0.786832 0.372996 0.407144
O O4 0.712870 0.962219 0.021653
O O5 0.322625 0.927404 0.294466
O O6 0.429630 0.458389 0.193430
O O7 0.368269 0.910218 0.871144
O O8 0.896861 0.128750 0.643887
O O9 0.954329 0.526619 0.402625
O O10 0.905272 0.979398 0.216477
O O11 0.807865 0.604366 0.854721
O O12 0.954516 0.971459 0.807904
O O13 0.403230 0.576884 0.633557
O O14 0.296189 0.524138 0.458793
O O15 0.448199 0.002704 0.505874
O O16 0.500000 0.500000 0.500000
O O17 0.000000 0.500000 0.000000
#
# Coordination Sequence:
#
# PCOD9007878 Si02
#       8
#     2   2   2   2   2   2   2   2
#     4  10  23  40  62  94 127 169 220 268 321 393
#     4  10  22  43  62  94 134 169 223 272 324 393
#     4  10  21  40  63  92 125 168 217 265 327 388
#     4  10  21  39  63  89 128 169 210 270 327 383
#     4  10  23  42  63  93 130 169 218 271 327 390
#     4  11  22  42  67  94 129 173 216 271 328 390
#     4   9  20  39  62  92 128 164 214 266 324 394
#     4  10  21  42  59  90 130 162 217 267 320 390
#
# _framework density 25.995293
#
# number of rings (size 3 to 8) (size 9 to 14) (size 15 to 20)
#    0.000    2.000    1.250    1.125    1.750    5.000 
#    9.000    8.750    0.000    0.000    0.000    0.000 
#    0.000    0.000    0.000    0.000    0.000    0.000 
#
# Total GULP energy -89389.404913 kJ/mol
# GULP energy per Si atom -5586.837807 kJ/mol
# Density = 2.593613 g / cm^3
# Si number density = 25.995293 Si / 1000 Ang^3
#
#
#
# Elastic Constant Matrix: (Units=GPa)
#
#
# Indices 1 2 3 4 5 6 
#
# 1 129.8184 7.8008 37.7633 8.4036 21.0764 -21.1054
# 2 7.8008 45.9553 25.1265 -5.4512 7.3473 -0.6989
# 3 37.7633 25.1265 97.9192 16.8682 24.6447 -8.0416
# 4 8.4036 -5.4512 16.8682 53.6938 -0.1627 6.5262
# 5 21.0764 7.3473 24.6447 -0.1627 49.0165 3.2924
# 6 -21.1054 -0.6989 -8.0416 6.5262 3.2924 25.6323
#
#
#
# Elastic Compliance Matrix: (Units=1/GPa)
#
#
# Indices 1 2 3 4 5 6 
#
# 1 0.010581 -0.000263 -0.001798 -0.002256 -0.004236 0.009259
# 2 -0.000263 0.026841 -0.008194 0.005778 0.000470 -0.003586
# 3 -0.001798 -0.008194 0.016247 -0.006388 -0.006583 0.005865
# 4 -0.002256 0.005778 -0.006388 0.022802 0.004065 -0.010032
# 5 -0.004236 0.000470 -0.006583 0.004065 0.026143 -0.009933
# 6 0.009259 -0.003586 0.005865 -0.010032 -0.009933 0.052210
#
#
# Mechanical properties :
#
#
# Convention : Reuss Voigt Hill
#
# Bulk Modulus (GPa) = 30.15738 46.11936 38.13837
# Shear Modulus (GPa) = 26.82592 39.20199 33.01396
#
# Velocity S-wave (km/s) = 3.21589 3.88756 3.56757
# Velocity P-wave (km/s) = 5.04138 6.15880 5.62789
#
# Compressibility (1/GPa) = 0.03315938
#
# Stress axis : x y z
#
# Youngs Moduli (GPa) = 94.50895 37.25664 61.54814
#
# Poissons Ratio (x) = 0.00978 0.11067
# Poissons Ratio (y) = 0.02481 0.50434
# Poissons Ratio (z) = 0.16994 0.30529
#
# Static dielectric constant tensor:
#      x y z
#    x 2.154540 -0.036560 0.005740 
#    y -0.036560 2.159130 -0.026880 
#    z 0.005740 -0.026880 2.035050 
# 
# From -- ./inp_files/125877.got.cif
#   From: 2010.05.17/outbox.cif.g08.bks.cpg/sg2_63_cif.got.tgz:125877.got - 2010.06.03 11:33:40.
