data_PCOD9007011
_publ_section_title
;
Structure prediction by ZEFSAII (Michael W. Deem and Ramdas Pophale) SiO2 
 PCOD9007011
Probable space group: P -1
;
_chemical_formula_sum "Si O2"
_cell_formula_units_Z 16
_cell_length_a 7.785934
_cell_length_b 7.445963
_cell_length_c 19.155628
_cell_angle_alpha 127.912153
_cell_angle_beta 83.441803
_cell_angle_gamma 122.694139
_cell_volume 696.583673
_symmetry_space_group_name_H-M "P -1"
_symmetry_group_IT_number 2
_symmetry_cell_setting 'triclinic'
loop_
_space_group_symop_operation_xyz
x,y,z
-x,-y,-z
loop_
_atom_site_type_symbol
_atom_site_label
_atom_site_fract_x
_atom_site_fract_y
_atom_site_fract_z
Si Si1 0.435952 0.572224 0.319382
Si Si2 0.687442 0.467001 0.528783
Si Si3 0.757263 0.074895 0.614034
Si Si4 0.124358 0.894675 0.539205
Si Si5 0.171154 0.209093 0.118398
Si Si6 0.405926 0.090125 0.966495
Si Si7 0.050488 0.494346 0.816031
Si Si8 0.133264 0.389031 0.939855
O O1 0.356543 0.459770 0.375250
O O2 0.337057 0.744004 0.350238
O O3 0.349962 0.358294 0.207621
O O4 0.693786 0.793892 0.364637
O O5 0.779123 0.281494 0.491692
O O6 0.888711 0.736029 0.544265
O O7 0.461575 0.246282 0.445976
O O8 0.872729 0.099645 0.542849
O O9 0.927690 0.239880 0.706756
O O10 0.256333 0.138356 0.031067
O O11 0.110803 0.415480 0.145062
O O12 0.975015 0.920675 0.096983
O O13 0.616350 0.380439 0.996172
O O14 0.500000 0.000000 0.000000
O O15 0.265038 0.806511 0.857890
O O16 0.106076 0.394647 0.858805
O O17 0.000000 0.500000 0.000000
#
# Coordination Sequence:
#
# PCOD9007011 Si02
#       8
#     2   2   2   2   2   2   2   2
#     4   8  16  27  48  75 111 144 180 228 274 324
#     4   8  13  25  46  74 108 144 183 220 271 331
#     4   8  15  29  45  77 111 143 181 227 274 322
#     4   8  13  25  45  71 110 148 175 223 275 324
#     4  11  21  39  60  87 117 150 192 240 284 335
#     4  10  21  39  59  82 113 150 190 236 288 344
#     4  10  21  39  59  87 119 147 194 241 277 344
#     4  11  23  41  60  80 114 154 189 235 296 340
#
# _framework density 22.969242999999999
#
# number of rings (size 3 to 8) (size 9 to 14) (size 15 to 20)
#    0.000    2.750    2.500    1.875    0.000    1.500 
#    2.250    2.500    0.000    3.000    0.000   15.750 
#    0.000    0.000    0.000    0.000    0.000    0.000 
#
# Total GULP energy -89364.979439 kJ/mol
# GULP energy per Si atom -5585.311215 kJ/mol
# Density = 2.291696 g / cm^3
# Si number density = 22.969243 Si / 1000 Ang^3
#
#
#
# Elastic Constant Matrix: (Units=GPa)
#
#
# Indices 1 2 3 4 5 6 
#
# 1 88.0301 35.8168 26.1287 4.3869 7.2254 9.6184
# 2 35.8168 152.4610 79.0167 20.4243 14.3434 22.6285
# 3 26.1287 79.0167 191.3391 19.4965 31.5036 17.1751
# 4 4.3869 20.4243 19.4965 20.7020 -6.2569 8.4736
# 5 7.2254 14.3434 31.5036 -6.2569 30.0143 9.4998
# 6 9.6184 22.6285 17.1751 8.4736 9.4998 45.7478
#
#
#
# Elastic Compliance Matrix: (Units=1/GPa)
#
#
# Indices 1 2 3 4 5 6 
#
# 1 0.012713 -0.002548 -0.000487 0.000481 -0.000871 -0.001138
# 2 -0.002548 0.009827 -0.002462 -0.006909 -0.002428 -0.001617
# 3 -0.000487 -0.002462 0.008919 -0.009976 -0.010800 0.002062
# 4 0.000481 -0.006909 -0.009976 0.081450 0.035511 -0.015399
# 5 -0.000871 -0.002428 -0.010800 0.035511 0.057571 -0.013094
# 6 -0.001138 -0.001617 0.002062 -0.015399 -0.013094 0.027695
#
#
# Mechanical properties :
#
#
# Convention : Reuss Voigt Hill
#
# Bulk Modulus (GPa) = 48.86115 79.30607 64.08361
# Shear Modulus (GPa) = 23.14918 38.68402 30.91660
#
# Velocity S-wave (km/s) = 3.17808 4.10831 3.67277
# Velocity P-wave (km/s) = 5.89793 7.55687 6.77834
#
# Compressibility (1/GPa) = 0.02046616
#
# Stress axis : x y z
#
# Youngs Moduli (GPa) = 78.66087 101.75703 112.11859
#
# Poissons Ratio (x) = 0.25923 0.05466
# Poissons Ratio (y) = 0.20039 0.27599
# Poissons Ratio (z) = 0.03835 0.25048
#
# Static dielectric constant tensor:
#      x y z
#    x 1.935920 -0.044910 0.036660 
#    y -0.044910 1.892620 0.023440 
#    z 0.036660 0.023440 1.847010 
# 
# From -- ./inp_files/586828.got.cif
#   From: 2010.05.17/outbox.cif.g08.bks.cpg/sg2_294_cif.got.tgz:586828.got - 2010.06.03 11:33:40.
