data_PCOD9007116
_publ_section_title
;
Structure prediction by ZEFSAII (Michael W. Deem and Ramdas Pophale) SiO2 
 PCOD9007116
Probable space group: P -1
;
_chemical_formula_sum "Si O2"
_cell_formula_units_Z 12
_cell_length_a 8.093901
_cell_length_b 13.736760
_cell_length_c 11.904137
_cell_angle_alpha 32.871299
_cell_angle_beta 50.265488
_cell_angle_gamma 43.692754
_cell_volume 494.433229
_symmetry_space_group_name_H-M "P -1"
_symmetry_group_IT_number 2
_symmetry_cell_setting 'triclinic'
loop_
_space_group_symop_operation_xyz
x,y,z
-x,-y,-z
loop_
_atom_site_type_symbol
_atom_site_label
_atom_site_fract_x
_atom_site_fract_y
_atom_site_fract_z
Si Si1 0.771670 0.575912 0.644088
Si Si2 0.883517 0.956933 0.872846
Si Si3 0.331348 0.386290 0.884175
Si Si4 0.481510 0.083169 0.759792
Si Si5 0.184011 0.553091 0.021775
Si Si6 0.186737 0.675227 0.328113
O O1 0.619316 0.758856 0.449840
O O2 0.676681 0.589602 0.797414
O O3 0.815489 0.372351 0.757145
O O4 0.033831 0.570470 0.545474
O O5 0.704526 0.088214 0.723681
O O6 0.943522 0.098852 0.790314
O O7 0.719342 0.884916 0.089373
O O8 0.094543 0.775299 0.894502
O O9 0.530121 0.399813 0.703886
O O10 0.065114 0.462556 0.878020
O O11 0.312230 0.502241 0.896156
O O12 0.427840 0.147505 0.095711
#
# Coordination Sequence:
#
# PCOD9007116 Si02
#       6
#     2   2   2   2   2   2
#     4  11  23  34  55  90 117 137 187 246 275 308
#     4   9  18  36  60  79 109 154 189 217 273 347
#     4   9  21  41  61  78 111 157 187 215 280 352
#     4   9  19  36  57  84 112 145 187 230 275 331
#     4  10  21  39  60  85 112 144 188 234 276 332
#     4  10  22  37  59  84 113 149 188 229 277 330
#
# _framework density 24.270215
#
# number of rings (size 3 to 8) (size 9 to 14) (size 15 to 20)
#    0.000    2.333    0.000    3.000    0.000   10.000 
#    0.000    1.667    0.000    9.000    0.000    0.000 
#    0.000    0.000    0.000    0.000    0.000    0.000 
#
# Total GULP energy -67064.859877 kJ/mol
# GULP energy per Si atom -5588.738323 kJ/mol
# Density = 2.421497 g / cm^3
# Si number density = 24.270215 Si / 1000 Ang^3
#
#
#
# Elastic Constant Matrix: (Units=GPa)
#
#
# Indices 1 2 3 4 5 6 
#
# 1 86.5145 40.6186 55.7952 -6.6863 6.6399 3.9331
# 2 40.6186 151.2420 46.5650 -1.1347 12.8420 27.9452
# 3 55.7952 46.5650 78.8028 -5.4977 28.6332 16.4880
# 4 -6.6863 -1.1347 -5.4977 32.2672 4.3797 -8.4272
# 5 6.6399 12.8420 28.6332 4.3797 50.7278 0.8994
# 6 3.9331 27.9452 16.4880 -8.4272 0.8994 42.8933
#
#
#
# Elastic Compliance Matrix: (Units=1/GPa)
#
#
# Indices 1 2 3 4 5 6 
#
# 1 0.025729 -0.002481 -0.021508 0.002389 0.009056 0.007804
# 2 -0.002481 0.008999 -0.002547 -0.001909 -0.000262 -0.005026
# 3 -0.021508 -0.002547 0.038299 0.001731 -0.018123 -0.010370
# 4 0.002389 -0.001909 0.001731 0.034105 -0.003877 0.007141
# 5 0.009056 -0.000262 -0.018123 -0.003877 0.029071 0.004935
# 6 0.007804 -0.005026 -0.010370 0.007141 0.004935 0.031158
#
#
# Mechanical properties :
#
#
# Convention : Reuss Voigt Hill
#
# Bulk Modulus (GPa) = 50.11338 66.94633 58.52986
# Shear Modulus (GPa) = 22.01805 36.74970 29.38388
#
# Velocity S-wave (km/s) = 3.01525 3.89548 3.48328
# Velocity P-wave (km/s) = 5.72846 6.91930 6.35185
#
# Compressibility (1/GPa) = 0.01995475
#
# Stress axis : x y z
#
# Youngs Moduli (GPa) = 38.86605 111.12228 26.11022
#
# Poissons Ratio (x) = 0.27571 0.56158
# Poissons Ratio (y) = 0.09643 0.06651
# Poissons Ratio (z) = 0.83593 0.28308
#
# Static dielectric constant tensor:
#      x y z
#    x 2.004820 -0.011900 -0.010850 
#    y -0.011900 1.894230 -0.028290 
#    z -0.010850 -0.028290 1.924040 
# 
# From -- ./inp_files/391826.got.cif
#   From: 2010.05.17/outbox.cif.g08.bks.cpg/sg2_196_cif.got.tgz:391826.got - 2010.06.03 11:33:40.
