data_PCOD9007210
_publ_section_title
;
Structure prediction by ZEFSAII (Michael W. Deem and Ramdas Pophale) SiO2 
 PCOD9007210
Probable space group: P -1
;
_chemical_formula_sum "Si O2"
_cell_formula_units_Z 14
_cell_length_a 18.016694
_cell_length_b 7.607902
_cell_length_c 13.914651
_cell_angle_alpha 110.575396
_cell_angle_beta 22.781188
_cell_angle_gamma 121.027035
_cell_volume 587.162113
_symmetry_space_group_name_H-M "P -1"
_symmetry_group_IT_number 2
_symmetry_cell_setting 'triclinic'
loop_
_space_group_symop_operation_xyz
x,y,z
-x,-y,-z
loop_
_atom_site_type_symbol
_atom_site_label
_atom_site_fract_x
_atom_site_fract_y
_atom_site_fract_z
Si Si1 0.101672 0.870418 0.083190
Si Si2 0.718848 0.415251 0.151226
Si Si3 0.708976 0.833709 0.265269
Si Si4 0.231093 0.658070 0.391334
Si Si5 0.697864 0.812770 0.917569
Si Si6 0.717813 0.919853 0.487219
Si Si7 0.107752 0.769774 0.366959
O O1 0.223074 0.980474 0.858787
O O2 0.859463 0.845655 0.366131
O O3 0.255100 0.052492 0.014418
O O4 0.094685 0.645801 0.067233
O O5 0.780249 0.662781 0.113555
O O6 0.559286 0.322638 0.420277
O O7 0.546426 0.265212 0.243277
O O8 0.796821 0.931862 0.285084
O O9 0.995218 0.426070 0.625895
O O10 0.246966 0.738703 0.277462
O O11 0.242168 0.851903 0.478192
O O12 0.436009 0.634386 0.178425
O O13 0.879400 0.740710 0.680534
O O14 0.760843 0.993641 0.793509
#
# Coordination Sequence:
#
# PCOD9007210 Si02
#       7
#     2   2   2   2   2   2   2
#     4  12  21  38  65  89 125 168 201 261 315 371
#     4   9  21  41  59  89 128 160 212 252 309 379
#     4   9  21  42  59  92 129 162 209 254 309 383
#     4  11  21  43  66  89 124 167 204 268 322 367
#     4  11  22  42  62  93 127 160 213 263 317 377
#     4  10  21  39  60  90 126 157 209 255 308 379
#     4  10  24  41  64  93 122 161 217 260 319 383
#
# _framework density 23.843498
#
# number of rings (size 3 to 8) (size 9 to 14) (size 15 to 20)
#    0.857    0.857    2.857    1.714    0.000    1.714 
#    2.571    1.429    0.000    0.000    0.000    0.000 
#    0.000    0.000    0.000    0.000    0.000    0.000 
#
# Total GULP energy -78257.938965 kJ/mol
# GULP energy per Si atom -5589.852783 kJ/mol
# Density = 2.378923 g / cm^3
# Si number density = 23.843498 Si / 1000 Ang^3
#
#
#
# Elastic Constant Matrix: (Units=GPa)
#
#
# Indices 1 2 3 4 5 6 
#
# 1 79.9685 9.7601 17.6963 8.7086 -16.2287 8.6461
# 2 9.7601 122.7826 9.4510 11.8645 -13.4665 17.4759
# 3 17.6963 9.4510 78.5668 6.2310 -24.4003 5.3821
# 4 8.7086 11.8645 6.2310 25.7582 -9.3690 -7.6896
# 5 -16.2287 -13.4665 -24.4003 -9.3690 28.2303 -0.7494
# 6 8.6461 17.4759 5.3821 -7.6896 -0.7494 38.9438
#
#
#
# Elastic Compliance Matrix: (Units=1/GPa)
#
#
# Indices 1 2 3 4 5 6 
#
# 1 0.014833 0.000575 -0.000714 -0.003854 0.006797 -0.004083
# 2 0.000575 0.009737 0.000622 -0.005150 0.003657 -0.005529
# 3 -0.000714 0.000622 0.017664 0.000605 0.015298 -0.002148
# 4 -0.003854 -0.005150 0.000605 0.051159 0.013186 0.013439
# 5 0.006797 0.003657 0.015298 0.013186 0.058632 -0.001532
# 6 -0.004083 -0.005529 -0.002148 0.013439 -0.001532 0.031987
#
#
# Mechanical properties :
#
#
# Convention : Reuss Voigt Hill
#
# Bulk Modulus (GPa) = 23.14811 39.45918 31.30364
# Shear Modulus (GPa) = 25.32332 34.88048 30.10190
#
# Velocity S-wave (km/s) = 3.26247 3.82893 3.55699
# Velocity P-wave (km/s) = 4.89091 6.01105 5.47968
#
# Compressibility (1/GPa) = 0.04320007
#
# Stress axis : x y z
#
# Youngs Moduli (GPa) = 67.41648 102.70462 56.61179
#
# Poissons Ratio (x) = -0.05903 0.04042
# Poissons Ratio (y) = -0.03875 -0.03522
# Poissons Ratio (z) = 0.04813 -0.06390
#
# Static dielectric constant tensor:
#      x y z
#    x 1.861640 0.031550 0.025820 
#    y 0.031550 1.887260 0.015340 
#    z 0.025820 0.015340 1.991860 
# 
# From -- ./inp_files/577099.got.cif
#   From: 2010.05.17/outbox.cif.g08.bks.cpg/sg2_289_cif.got.tgz:577099.got - 2010.06.03 11:33:40.
