data_PCOD9007510
_publ_section_title
;
Structure prediction by ZEFSAII (Michael W. Deem and Ramdas Pophale) SiO2 
 PCOD9007510
Probable space group: P -1
;
_chemical_formula_sum "Si O2"
_cell_formula_units_Z 16
_cell_length_a 16.102592
_cell_length_b 19.951676
_cell_length_c 11.933087
_cell_angle_alpha 29.414263
_cell_angle_beta 24.781737
_cell_angle_gamma 37.079432
_cell_volume 788.774381
_symmetry_space_group_name_H-M "P -1"
_symmetry_group_IT_number 2
_symmetry_cell_setting 'triclinic'
loop_
_space_group_symop_operation_xyz
x,y,z
-x,-y,-z
loop_
_atom_site_type_symbol
_atom_site_label
_atom_site_fract_x
_atom_site_fract_y
_atom_site_fract_z
Si Si1 0.925467 0.230459 0.252626
Si Si2 0.564929 0.439465 0.389632
Si Si3 0.747009 0.091424 0.467153
Si Si4 0.669275 0.800217 0.076105
Si Si5 0.413917 0.863896 0.627059
Si Si6 0.840025 0.947811 0.186915
Si Si7 0.550233 0.720145 0.875735
Si Si8 0.278705 0.921633 0.072791
O O1 0.783451 0.366312 0.228707
O O2 0.899043 0.156465 0.273427
O O3 0.824730 0.138524 0.605386
O O4 0.151220 0.242533 0.998350
O O5 0.500000 0.500000 0.500000
O O6 0.404157 0.327250 0.719210
O O7 0.562837 0.564446 0.123781
O O8 0.531775 0.148622 0.691197
O O9 0.747798 0.144736 0.260168
O O10 0.737908 0.927879 0.731034
O O11 0.476227 0.735657 0.814274
O O12 0.345685 0.965797 0.661008
O O13 0.589683 0.952517 0.233248
O O14 0.762113 0.795202 0.508539
O O15 0.867401 0.008243 0.942206
O O16 0.000000 0.000000 0.000000
O O17 0.406300 0.801366 0.025338
#
# Coordination Sequence:
#
# PCOD9007510 Si02
#       8
#     2   2   2   2   2   2   2   2
#     4  11  22  38  60  89 118 151 199 241 282 343
#     4  11  22  38  59  84 123 162 186 228 295 353
#     4  10  21  39  62  84 114 153 194 246 297 327
#     4  10  23  38  58  89 117 151 200 240 283 344
#     4   9  18  35  57  79 111 149 189 234 292 340
#     4   9  19  32  54  88 112 142 190 242 291 340
#     4   9  19  37  54  78 118 153 183 230 292 347
#     4   9  17  33  55  80 114 147 184 237 288 336
#
# _framework density 20.284634
#
# number of rings (size 3 to 8) (size 9 to 14) (size 15 to 20)
#    0.000    2.250    1.250    4.125    3.500    0.500 
#    6.750    2.500    0.000    1.500    0.000    0.000 
#    0.000    0.000    0.000    0.000    0.000    0.000 
#
# Total GULP energy -89188.857820 kJ/mol
# GULP energy per Si atom -5574.303614 kJ/mol
# Density = 2.023847 g / cm^3
# Si number density = 20.284634 Si / 1000 Ang^3
#
#
#
# Elastic Constant Matrix: (Units=GPa)
#
#
# Indices 1 2 3 4 5 6 
#
# 1 171.7243 52.8045 40.0779 -18.0665 -17.7358 -7.5426
# 2 52.8045 87.5409 41.6232 -23.6464 -7.0255 -9.7601
# 3 40.0779 41.6232 53.8189 -16.8539 -8.1413 -1.4487
# 4 -18.0665 -23.6464 -16.8539 33.5399 -5.5444 3.4039
# 5 -17.7358 -7.0255 -8.1413 -5.5444 36.3334 7.5024
# 6 -7.5426 -9.7601 -1.4487 3.4039 7.5024 36.4308
#
#
#
# Elastic Compliance Matrix: (Units=1/GPa)
#
#
# Indices 1 2 3 4 5 6 
#
# 1 0.007756 -0.002766 -0.002812 0.001272 0.002803 0.000057
# 2 -0.002766 0.021126 -0.011902 0.007087 0.000348 0.003880
# 3 -0.002812 -0.011902 0.033237 0.008230 0.005946 -0.004443
# 4 0.001272 0.007087 0.008230 0.041820 0.010976 -0.003679
# 5 0.002803 0.000348 0.005946 0.010976 0.033411 -0.006996
# 6 0.000057 0.003880 -0.004443 -0.003679 -0.006996 0.030108
#
#
# Mechanical properties :
#
#
# Convention : Reuss Voigt Hill
#
# Bulk Modulus (GPa) = 36.82226 64.67726 50.74976
# Shear Modulus (GPa) = 23.64372 33.16605 28.40489
#
# Velocity S-wave (km/s) = 3.41779 4.04794 3.74614
# Velocity P-wave (km/s) = 5.81096 7.33497 6.61699
#
# Compressibility (1/GPa) = 0.02715748
#
# Stress axis : x y z
#
# Youngs Moduli (GPa) = 128.92962 47.33534 30.08666
#
# Poissons Ratio (x) = 0.13095 0.08462
# Poissons Ratio (y) = 0.35667 0.35809
# Poissons Ratio (z) = 0.36261 0.56339
#
# Static dielectric constant tensor:
#      x y z
#    x 1.763640 -0.036110 0.002820 
#    y -0.036110 1.814110 0.087680 
#    z 0.002820 0.087680 1.766800 
# 
# From -- ./inp_files/457228.got.cif
#   From: 2010.05.17/outbox.cif.g08.bks.cpg/sg2_229_cif.got.tgz:457228.got - 2010.06.03 11:33:40.
