data_PCOD9007611
_publ_section_title
;
Structure prediction by ZEFSAII (Michael W. Deem and Ramdas Pophale) SiO2 
 PCOD9007611
Probable space group: P -1
;
_chemical_formula_sum "Si O2"
_cell_formula_units_Z 14
_cell_length_a 30.088455
_cell_length_b 27.417357
_cell_length_c 30.580758
_cell_angle_alpha 8.401756
_cell_angle_beta 10.294032
_cell_angle_gamma 9.122637
_cell_volume 555.897084
_symmetry_space_group_name_H-M "P -1"
_symmetry_group_IT_number 2
_symmetry_cell_setting 'triclinic'
loop_
_space_group_symop_operation_xyz
x,y,z
-x,-y,-z
loop_
_atom_site_type_symbol
_atom_site_label
_atom_site_fract_x
_atom_site_fract_y
_atom_site_fract_z
Si Si1 0.357537 0.741205 0.879399
Si Si2 0.739720 0.713907 0.393018
Si Si3 0.390724 0.222113 0.638974
Si Si4 0.401430 0.839743 0.330121
Si Si5 0.688180 0.389911 0.055069
Si Si6 0.991764 0.287128 0.106447
Si Si7 0.038160 0.879813 0.810062
O O1 0.500000 0.000000 0.500000
O O2 0.500000 0.500000 0.000000
O O3 0.411030 0.491249 0.004376
O O4 0.000000 0.000000 0.000000
O O5 0.676321 0.741227 0.379361
O O6 0.961751 0.842853 0.076945
O O7 0.458579 0.842819 0.580152
O O8 0.938320 0.224431 0.637746
O O9 0.612221 0.349221 0.325323
O O10 0.588465 0.733683 0.883189
O O11 0.112022 0.349223 0.825517
O O12 0.500000 0.500000 0.500000
O O13 0.202505 0.782723 0.608887
O O14 0.703021 0.782719 0.108375
O O15 0.206652 0.265827 0.117077
O O16 0.055672 0.015472 0.242285
#
# Coordination Sequence:
#
# PCOD9007611 Si02
#       7
#     2   2   2   2   2   2   2
#     4  12  28  49  73 105 139 181 232 295 344 409
#     4  10  21  39  63  90 128 167 218 271 330 421
#     4  10  21  39  62  89 130 167 218 271 330 421
#     4  12  26  47  71 103 140 189 240 289 347 411
#     4  10  23  39  63  93 123 175 218 270 342 399
#     4  12  26  44  74 102 141 185 231 298 347 411
#     4  10  23  37  60  97 126 171 221 273 344 399
#
# _framework density 25.184518000000001
#
# number of rings (size 3 to 8) (size 9 to 14) (size 15 to 20)
#    0.000    1.143    0.000    5.143    8.000    0.000 
#    0.000    0.000    0.000    0.000    0.000    0.000 
#    0.000    0.000    0.000    0.000    0.000    0.000 
#
# Total GULP energy -78288.121321 kJ/mol
# GULP energy per Si atom -5592.008666 kJ/mol
# Density = 2.512720 g / cm^3
# Si number density = 25.184518 Si / 1000 Ang^3
#
#
#
# Elastic Constant Matrix: (Units=GPa)
#
#
# Indices 1 2 3 4 5 6 
#
# 1 166.7946 52.8603 86.3503 38.3440 -1.4770 -2.6292
# 2 52.8603 108.7273 79.1087 29.4889 -16.3794 -14.4827
# 3 86.3503 79.1087 218.6588 75.3197 26.2027 -9.8914
# 4 38.3440 29.4889 75.3197 73.1710 -1.5416 -19.5227
# 5 -1.4770 -16.3794 26.2027 -1.5416 57.4441 -0.7351
# 6 -2.6292 -14.4827 -9.8914 -19.5227 -0.7351 63.2242
#
#
#
# Elastic Compliance Matrix: (Units=1/GPa)
#
#
# Indices 1 2 3 4 5 6 
#
# 1 0.008031 -0.002107 -0.001959 -0.001583 0.000445 -0.000939
# 2 -0.002107 0.015883 -0.006520 0.002477 0.007559 0.003383
# 3 -0.001959 -0.006520 0.011662 -0.009225 -0.007511 -0.002686
# 4 -0.001583 0.002477 -0.009225 0.024934 0.005630 0.006823
# 5 0.000445 0.007559 -0.007511 0.005630 0.023185 0.002583
# 6 -0.000939 0.003383 -0.002686 0.006823 0.002583 0.018269
#
#
# Mechanical properties :
#
#
# Convention : Reuss Voigt Hill
#
# Bulk Modulus (GPa) = 69.43014 103.42436 86.42725
# Shear Modulus (GPa) = 39.08110 57.15863 48.11986
#
# Velocity S-wave (km/s) = 3.94355 4.76919 4.37589
# Velocity P-wave (km/s) = 6.95441 8.45475 7.74101
#
# Compressibility (1/GPa) = 0.01440297
#
# Stress axis : x y z
#
# Youngs Moduli (GPa) = 124.52107 62.95862 85.74583
#
# Poissons Ratio (x) = 0.13268 0.16801
# Poissons Ratio (y) = 0.26241 0.55907
# Poissons Ratio (z) = 0.24398 0.41049
#
# Static dielectric constant tensor:
#      x y z
#    x 1.890860 -0.016620 0.010220 
#    y -0.016620 2.182800 -0.181240 
#    z 0.010220 -0.181240 2.006310 
# 
# From -- ./inp_files/12870.got.cif
#   From: 2010.05.17/outbox.cif.g08.bks.cpg/sg2_7_cif.got.tgz:12870.got - 2010.06.03 11:33:40.
