data_PCOD9007674
_publ_section_title
;
Structure prediction by ZEFSAII (Michael W. Deem and Ramdas Pophale) SiO2 
 PCOD9007674
Probable space group: P -1
;
_chemical_formula_sum "Si O2"
_cell_formula_units_Z 11
_cell_length_a 11.878114
_cell_length_b 11.902780
_cell_length_c 6.355800
_cell_angle_alpha 100.464374
_cell_angle_beta 67.854977
_cell_angle_gamma 146.657321
_cell_volume 441.520901
_symmetry_space_group_name_H-M "P -1"
_symmetry_group_IT_number 2
_symmetry_cell_setting 'triclinic'
loop_
_space_group_symop_operation_xyz
x,y,z
-x,-y,-z
loop_
_atom_site_type_symbol
_atom_site_label
_atom_site_fract_x
_atom_site_fract_y
_atom_site_fract_z
Si Si1 0.678871 0.868067 0.710977
Si Si2 0.372466 0.820597 0.859509
Si Si3 0.003458 0.590749 0.724164
Si Si4 0.649314 0.761286 0.130021
Si Si5 0.956696 0.815704 0.720572
Si Si6 0.500000 0.500000 0.500000
O O1 0.559271 0.877044 0.679166
O O2 0.581990 0.671408 0.639600
O O3 0.947464 0.088885 0.552350
O O4 0.615527 0.822633 0.986066
O O5 0.242748 0.776692 0.742417
O O6 0.181054 0.599363 0.044695
O O7 0.500000 0.000000 0.000000
O O8 0.941429 0.669821 0.726824
O O9 0.000000 0.500000 0.500000
O O10 0.459990 0.560133 0.345871
O O11 0.832605 0.964263 0.221271
O O12 0.763220 0.739661 0.934508
#
# Coordination Sequence:
#
# PCOD9007674 Si02
#       6
#     2   2   2   2   2   1
#     4  11  22  38  63  91 128 172 216 271 331 394
#     4  11  25  44  66  96 133 176 226 275 329 397
#     4  11  25  43  66  96 132 176 224 277 332 391
#     4  10  21  39  62  91 128 170 216 271 331 393
#     4  10  22  39  61  92 128 170 218 270 329 393
#     4  10  22  36  58  92 122 162 214 264 326 390
#
# _framework density 24.913882000000001
#
# number of rings (size 3 to 8) (size 9 to 14) (size 15 to 20)
#    0.000    1.455    0.000    4.364    0.000    8.727 
#    0.000    0.000    0.000    0.000    0.000    0.000 
#    0.000    0.000    0.000    0.000    0.000    0.000 
#
# Total GULP energy -61248.764398 kJ/mol
# GULP energy per Si atom -5568.069491 kJ/mol
# Density = 2.485718 g / cm^3
# Si number density = 24.913882 Si / 1000 Ang^3
#
#
#
# Elastic Constant Matrix: (Units=GPa)
#
#
# Indices 1 2 3 4 5 6 
#
# 1 137.3608 21.4629 23.4446 0.8326 -4.0847 -12.5272
# 2 21.4629 80.3545 11.4603 16.0956 -8.0162 -14.5876
# 3 23.4446 11.4603 81.2064 -10.7403 7.9968 -0.0414
# 4 0.8326 16.0956 -10.7403 45.7459 -8.1763 -4.7000
# 5 -4.0847 -8.0162 7.9968 -8.1763 47.7628 -1.1222
# 6 -12.5272 -14.5876 -0.0414 -4.7000 -1.1222 42.5322
#
#
#
# Elastic Compliance Matrix: (Units=1/GPa)
#
#
# Indices 1 2 3 4 5 6 
#
# 1 0.008081 -0.001449 -0.002188 0.000207 0.000895 0.001928
# 2 -0.001449 0.015216 -0.002611 -0.005127 0.002090 0.004278
# 3 -0.002188 -0.002611 0.014038 0.003710 -0.002368 -0.001179
# 4 0.000207 -0.005127 0.003710 0.025164 0.002871 0.001162
# 5 0.000895 0.002090 -0.002368 0.002871 0.022296 0.001884
# 6 0.001928 0.004278 -0.001179 0.001162 0.001884 0.025724
#
#
# Mechanical properties :
#
#
# Convention : Reuss Voigt Hill
#
# Bulk Modulus (GPa) = 40.25857 45.73972 42.99915
# Shear Modulus (GPa) = 38.08219 43.37843 40.73031
#
# Velocity S-wave (km/s) = 3.91391 4.17722 4.04771
# Velocity P-wave (km/s) = 6.05137 6.45481 6.25634
#
# Compressibility (1/GPa) = 0.02483943
#
# Stress axis : x y z
#
# Youngs Moduli (GPa) = 123.74512 65.71871 71.23583
#
# Poissons Ratio (x) = 0.09520 0.15590
# Poissons Ratio (y) = 0.17925 0.18600
# Poissons Ratio (z) = 0.27081 0.17159
#
# Static dielectric constant tensor:
#      x y z
#    x 2.111110 0.118730 -0.129960 
#    y 0.118730 2.044300 0.009890 
#    z -0.129960 0.009890 2.527230 
# 
# From -- ./inp_files/21821.got.cif
#   From: 2010.05.17/outbox.cif.g08.bks.cpg/sg2_11_cif.got.tgz:21821.got - 2010.06.03 11:33:40.
