data_PCOD9007797
_publ_section_title
;
Structure prediction by ZEFSAII (Michael W. Deem and Ramdas Pophale) SiO2 
 PCOD9007797
Probable space group: P -1
;
_chemical_formula_sum "Si O2"
_cell_formula_units_Z 10
_cell_length_a 5.291131
_cell_length_b 7.104906
_cell_length_c 14.260027
_cell_angle_alpha 61.837224
_cell_angle_beta 57.787882
_cell_angle_gamma 59.923529
_cell_volume 376.822047
_symmetry_space_group_name_H-M "P -1"
_symmetry_group_IT_number 2
_symmetry_cell_setting 'triclinic'
loop_
_space_group_symop_operation_xyz
x,y,z
-x,-y,-z
loop_
_atom_site_type_symbol
_atom_site_label
_atom_site_fract_x
_atom_site_fract_y
_atom_site_fract_z
Si Si1 0.807379 0.041888 0.336389
Si Si2 0.110418 0.304710 0.446463
Si Si3 0.087215 0.343362 0.738300
Si Si4 0.870519 0.372329 0.977141
Si Si5 0.793172 0.015426 0.882657
O O1 0.918337 0.911489 0.442560
O O2 0.722893 0.863902 0.320734
O O3 0.481886 0.240538 0.366965
O O4 0.096777 0.090412 0.216050
O O5 0.000000 0.500000 0.500000
O O6 0.927572 0.423744 0.361785
O O7 0.097743 0.346073 0.847281
O O8 0.765746 0.275604 0.812322
O O9 0.500000 0.500000 0.000000
O O10 0.000000 0.500000 0.000000
O O11 0.917079 0.128794 0.073342
O O12 0.500000 0.000000 0.000000
#
# Coordination Sequence:
#
# PCOD9007797 Si02
#       5
#     2   2   2   2   2
#     4   8  18  31  63  97 133 179 232 286 350 418
#     4   9  15  34  61 100 127 180 233 298 346 411
#     4   9  20  36  62  94 136 177 230 287 345 415
#     4  12  25  42  68 102 142 192 239 290 357 428
#     4  10  21  39  62  99 144 182 228 281 353 426
#
# _framework density 26.537725999999999
#
# number of rings (size 3 to 8) (size 9 to 14) (size 15 to 20)
#    1.200    1.200    0.000    3.000    0.000    0.000 
#    0.000    0.000    0.000    2.400    0.000    0.000 
#    0.000    0.000    0.000    0.000    0.000    0.000 
#
# Total GULP energy -55729.038821 kJ/mol
# GULP energy per Si atom -5572.903882 kJ/mol
# Density = 2.647733 g / cm^3
# Si number density = 26.537726 Si / 1000 Ang^3
#
#
#
# Elastic Constant Matrix: (Units=GPa)
#
#
# Indices 1 2 3 4 5 6 
#
# 1 95.8831 35.8782 36.8990 16.4300 10.0824 -7.1325
# 2 35.8782 111.5552 50.4551 10.0283 8.0674 -7.5799
# 3 36.8990 50.4551 191.4253 14.3652 21.3996 -11.9752
# 4 16.4300 10.0283 14.3652 57.9780 -9.4783 11.6178
# 5 10.0824 8.0674 21.3996 -9.4783 51.9165 9.0798
# 6 -7.1325 -7.5799 -11.9752 11.6178 9.0798 35.3933
#
#
#
# Elastic Compliance Matrix: (Units=1/GPa)
#
#
# Indices 1 2 3 4 5 6 
#
# 1 0.013259 -0.002988 -0.000821 -0.004381 -0.003277 0.004033
# 2 -0.002988 0.011126 -0.002099 -0.000997 -0.000743 0.001588
# 3 -0.000821 -0.002099 0.006663 -0.002223 -0.003226 0.003197
# 4 -0.004381 -0.000997 -0.002223 0.022822 0.008085 -0.011414
# 5 -0.003277 -0.000743 -0.003226 0.008085 0.024727 -0.010908
# 6 0.004033 0.001588 0.003197 -0.011414 -0.010908 0.037033
#
#
# Mechanical properties :
#
#
# Convention : Reuss Voigt Hill
#
# Bulk Modulus (GPa) = 51.99831 71.70312 61.85072
# Shear Modulus (GPa) = 37.35347 47.43299 42.39323
#
# Velocity S-wave (km/s) = 3.75582 4.23233 4.00117
# Velocity P-wave (km/s) = 6.20039 7.13873 6.68604
#
# Compressibility (1/GPa) = 0.01923139
#
# Stress axis : x y z
#
# Youngs Moduli (GPa) = 75.42227 89.87948 150.08491
#
# Poissons Ratio (x) = 0.26857 0.12317
# Poissons Ratio (y) = 0.22537 0.31507
# Poissons Ratio (z) = 0.06190 0.18868
#
# Static dielectric constant tensor:
#      x y z
#    x 2.132600 0.083830 0.015610 
#    y 0.083830 2.243020 -0.015620 
#    z 0.015610 -0.015620 2.155390 
# 
# From -- ./inp_files/478841.got.cif
#   From: 2010.05.17/outbox.cif.g08.bks.cpg/sg2_240_cif.got.tgz:478841.got - 2010.06.03 11:33:40.
