data_PCOD9007906
_publ_section_title
;
Structure prediction by ZEFSAII (Michael W. Deem and Ramdas Pophale) SiO2 
 PCOD9007906
Probable space group: P -1
;
_chemical_formula_sum "Si O2"
_cell_formula_units_Z 16
_cell_length_a 10.688155
_cell_length_b 13.763482
_cell_length_c 8.851979
_cell_angle_alpha 107.796696
_cell_angle_beta 38.424341
_cell_angle_gamma 92.439072
_cell_volume 726.649113
_symmetry_space_group_name_H-M "P -1"
_symmetry_group_IT_number 2
_symmetry_cell_setting 'triclinic'
loop_
_space_group_symop_operation_xyz
x,y,z
-x,-y,-z
loop_
_atom_site_type_symbol
_atom_site_label
_atom_site_fract_x
_atom_site_fract_y
_atom_site_fract_z
Si Si1 0.086265 0.658815 0.223616
Si Si2 0.529047 0.534246 0.816667
Si Si3 0.199919 0.351588 0.259366
Si Si4 0.105281 0.031369 0.768887
Si Si5 0.257887 0.216070 0.619445
Si Si6 0.523620 0.113446 0.841415
Si Si7 0.255038 0.421758 0.906887
Si Si8 0.310355 0.937006 0.008287
O O1 0.003121 0.663548 0.476233
O O2 0.916467 0.751414 0.335071
O O3 0.336243 0.641457 0.995754
O O4 0.106467 0.543958 0.069844
O O5 0.487208 0.439498 0.713428
O O6 0.500000 0.500000 0.000000
O O7 0.734723 0.568706 0.649351
O O8 0.181481 0.397557 0.131128
O O9 0.391156 0.238651 0.017344
O O10 0.186149 0.134414 0.755339
O O11 0.311937 0.933568 0.472016
O O12 0.917526 0.058194 0.834984
O O13 0.000000 0.000000 0.000000
O O14 0.491368 0.153636 0.302720
O O15 0.258509 0.324451 0.751787
O O16 0.356693 0.047879 0.979553
O O17 0.660558 0.084270 0.851529
#
# Coordination Sequence:
#
# PCOD9007906 Si02
#       8
#     2   2   2   2   2   2   2   2
#     4  10  21  39  63  90 131 167 211 255 304 376
#     4   8  20  37  58  90 128 159 211 258 291 369
#     4  11  20  39  66  95 121 173 208 259 311 370
#     4  11  27  44  64  95 128 163 214 267 319 387
#     4  11  23  43  64  93 132 170 208 257 325 373
#     4  10  23  41  69  93 122 164 214 259 324 369
#     4   9  22  39  60  92 135 165 206 258 305 374
#     4  10  23  44  64  94 126 160 213 270 309 382
#
# _framework density 22.018878999999998
#
# number of rings (size 3 to 8) (size 9 to 14) (size 15 to 20)
#    0.750    1.250    1.250    1.125    5.250    2.000 
#    2.250    0.625    0.000    0.000    0.000    0.000 
#    0.000    0.000    0.000    0.000    0.000    0.000 
#
# Total GULP energy -89268.574697 kJ/mol
# GULP energy per Si atom -5579.285919 kJ/mol
# Density = 2.196876 g / cm^3
# Si number density = 22.018879 Si / 1000 Ang^3
#
#
#
# Elastic Constant Matrix: (Units=GPa)
#
#
# Indices 1 2 3 4 5 6 
#
# 1 47.8490 6.7144 0.9854 14.3418 -7.7361 10.4559
# 2 6.7144 74.8858 33.0098 16.6627 -0.2822 -0.3339
# 3 0.9854 33.0098 55.2415 9.9740 0.8287 2.5658
# 4 14.3418 16.6627 9.9740 24.1815 -5.2354 3.2453
# 5 -7.7361 -0.2822 0.8287 -5.2354 18.0210 5.1353
# 6 10.4559 -0.3339 2.5658 3.2453 5.1353 19.3594
#
#
#
# Elastic Compliance Matrix: (Units=1/GPa)
#
#
# Indices 1 2 3 4 5 6 
#
# 1 0.031689 -0.001366 0.003338 -0.013378 0.015051 -0.019331
# 2 -0.001366 0.020472 -0.010469 -0.010670 -0.004435 0.005443
# 3 0.003338 -0.010469 0.025338 -0.004583 0.000082 -0.004595
# 4 -0.013378 -0.010670 -0.004583 0.062531 0.014360 -0.006643
# 5 0.015051 -0.004435 0.000082 0.014360 0.074726 -0.030445
# 6 -0.019331 0.005443 -0.004595 -0.006643 -0.030445 0.071987
#
#
# Mechanical properties :
#
#
# Convention : Reuss Voigt Hill
#
# Bulk Modulus (GPa) = 16.52695 28.82172 22.67433
# Shear Modulus (GPa) = 15.43658 21.46350 18.45004
#
# Velocity S-wave (km/s) = 2.65063 3.12553 2.89782
# Velocity P-wave (km/s) = 4.10973 5.11304 4.63859
#
# Compressibility (1/GPa) = 0.06050722
#
# Stress axis : x y z
#
# Youngs Moduli (GPa) = 31.55643 48.84614 39.46623
#
# Poissons Ratio (x) = 0.06671 -0.13175
# Poissons Ratio (y) = 0.04309 0.41317
# Poissons Ratio (z) = -0.10534 0.51136
#
# Static dielectric constant tensor:
#      x y z
#    x 1.816270 0.002810 -0.000230 
#    y 0.002810 1.831020 -0.000060 
#    z -0.000230 -0.000060 1.765130 
# 
# From -- ./inp_files/52464.got.cif
#   From: 2010.05.17/outbox.cif.g08.bks.cpg/sg2_27_cif.got.tgz:52464.got - 2010.06.03 11:33:40.
