data_PCOD9007070
_publ_section_title
;
Structure prediction by ZEFSAII (Michael W. Deem and Ramdas Pophale) SiO2 
 PCOD9007070
Probable space group: P -1
;
_chemical_formula_sum "Si O2"
_cell_formula_units_Z 12
_cell_length_a 13.373983
_cell_length_b 19.143564
_cell_length_c 5.752434
_cell_angle_alpha 63.897631
_cell_angle_beta 67.205103
_cell_angle_gamma 20.865958
_cell_volume 469.780428
_symmetry_space_group_name_H-M "P -1"
_symmetry_group_IT_number 2
_symmetry_cell_setting 'triclinic'
loop_
_space_group_symop_operation_xyz
x,y,z
-x,-y,-z
loop_
_atom_site_type_symbol
_atom_site_label
_atom_site_fract_x
_atom_site_fract_y
_atom_site_fract_z
Si Si1 0.276994 0.409357 0.785320
Si Si2 0.028895 0.800270 0.422113
Si Si3 0.534175 0.575957 0.151095
Si Si4 0.148251 0.349269 0.779903
Si Si5 0.150354 0.919451 0.727984
Si Si6 0.782965 0.824840 0.356539
O O1 0.486905 0.338921 0.768970
O O2 0.367717 0.265259 0.818707
O O3 0.045372 0.603403 0.549752
O O4 0.099992 0.505872 0.031811
O O5 0.305659 0.659731 0.274643
O O6 0.159529 0.662712 0.718443
O O7 0.880804 0.847565 0.288026
O O8 0.826866 0.002514 0.395145
O O9 0.442505 0.678032 0.844293
O O10 0.260267 0.193500 0.815195
O O11 0.000000 0.500000 0.500000
O O12 0.000000 0.000000 0.500000
O O13 0.000000 0.000000 0.000000
O O14 0.500000 0.000000 0.500000
#
# Coordination Sequence:
#
# PCOD9007070 Si02
#       6
#     2   2   2   2   2   2
#     4   9  19  39  62  93 122 168 225 264 335 392
#     4   9  20  41  63  96 133 170 223 274 338 404
#     4   9  19  41  66  94 130 170 216 280 338 404
#     4   9  19  37  60  87 124 163 217 267 316 396
#     4  10  22  43  63  97 135 175 224 273 340 412
#     4  10  21  39  59  91 130 170 219 269 332 395
#
# _framework density 25.543849999999999
#
# number of rings (size 3 to 8) (size 9 to 14) (size 15 to 20)
#    0.000    2.667    0.000    0.000    0.000    5.333 
#   39.000    0.000    0.000    0.000    0.000    0.000 
#    0.000    0.000    0.000    0.000    0.000    0.000 
#
# Total GULP energy -66910.978087 kJ/mol
# GULP energy per Si atom -5575.914841 kJ/mol
# Density = 2.548571 g / cm^3
# Si number density = 25.543850 Si / 1000 Ang^3
#
#
#
# Elastic Constant Matrix: (Units=GPa)
#
#
# Indices 1 2 3 4 5 6 
#
# 1 263.6257 50.7690 28.3178 5.3973 18.4659 26.3106
# 2 50.7690 75.1038 48.9778 -4.7273 2.0751 0.2844
# 3 28.3178 48.9778 117.1751 -33.4602 5.0316 19.8166
# 4 5.3973 -4.7273 -33.4602 61.2147 1.7551 -1.4194
# 5 18.4659 2.0751 5.0316 1.7551 27.5383 1.3558
# 6 26.3106 0.2844 19.8166 -1.4194 1.3558 35.0114
#
#
#
# Elastic Compliance Matrix: (Units=1/GPa)
#
#
# Indices 1 2 3 4 5 6 
#
# 1 0.005145 -0.004333 0.001473 0.000002 -0.003169 -0.004542
# 2 -0.004333 0.023447 -0.011618 -0.004028 0.003058 0.009360
# 3 0.001473 -0.011618 0.017287 0.008277 -0.003289 -0.010334
# 4 0.000002 -0.004028 0.008277 0.020529 -0.002335 -0.003731
# 5 -0.003169 0.003058 -0.003289 -0.002335 0.038828 0.002620
# 6 -0.004542 0.009360 -0.010334 -0.003731 0.002620 0.037496
#
#
# Mechanical properties :
#
#
# Convention : Reuss Voigt Hill
#
# Bulk Modulus (GPa) = 59.09544 79.11487 69.10515
# Shear Modulus (GPa) = 28.19605 46.60887 37.40246
#
# Velocity S-wave (km/s) = 3.32600 4.27624 3.83070
# Velocity P-wave (km/s) = 6.15912 7.44453 6.83212
#
# Compressibility (1/GPa) = 0.01692178
#
# Stress axis : x y z
#
# Youngs Moduli (GPa) = 194.37174 42.64900 57.84729
#
# Poissons Ratio (x) = 0.18481 -0.08520
# Poissons Ratio (y) = 0.84228 0.67207
# Poissons Ratio (z) = -0.28627 0.49550
#
# Static dielectric constant tensor:
#      x y z
#    x 2.108160 0.001950 0.047830 
#    y 0.001950 2.013360 -0.013560 
#    z 0.047830 -0.013560 2.109650 
# 
# From -- ./inp_files/48678.got.cif
#   From: 2010.05.17/outbox.cif.g08.bks.cpg/sg2_25_cif.got.tgz:48678.got - 2010.06.03 11:33:40.
