data_PCOD9007818
_publ_section_title
;
Structure prediction by ZEFSAII (Michael W. Deem and Ramdas Pophale) SiO2 
 PCOD9007818
Probable space group: P -1
;
_chemical_formula_sum "Si O2"
_cell_formula_units_Z 16
_cell_length_a 22.818771
_cell_length_b 8.571492
_cell_length_c 23.356766
_cell_angle_alpha 149.206987
_cell_angle_beta 160.765588
_cell_angle_gamma 30.018651
_cell_volume 728.659623
_symmetry_space_group_name_H-M "P -1"
_symmetry_group_IT_number 2
_symmetry_cell_setting 'triclinic'
loop_
_space_group_symop_operation_xyz
x,y,z
-x,-y,-z
loop_
_atom_site_type_symbol
_atom_site_label
_atom_site_fract_x
_atom_site_fract_y
_atom_site_fract_z
Si Si1 0.475612 0.057014 0.427622
Si Si2 0.638143 0.154997 0.144211
Si Si3 0.118915 0.502339 0.862812
Si Si4 0.954765 0.622702 0.867749
Si Si5 0.784897 0.558360 0.483862
Si Si6 0.934610 0.033208 0.713365
Si Si7 0.259909 0.525524 0.219654
Si Si8 0.323201 0.785964 0.047313
O O1 0.255520 0.153568 0.242915
O O2 0.569835 0.332325 0.586887
O O3 0.500000 0.000000 0.500000
O O4 0.597815 0.751349 0.407146
O O5 0.766990 0.243616 0.338828
O O6 0.761463 0.865835 0.127518
O O7 0.509116 0.500118 0.110281
O O8 0.500000 0.000000 0.000000
O O9 0.246149 0.664260 0.995130
O O10 0.028033 0.686967 0.894085
O O11 0.952954 0.503994 0.666622
O O12 0.922744 0.270817 0.725005
O O13 0.115301 0.597931 0.055392
O O14 0.819161 0.789165 0.538073
O O15 0.862014 0.279750 0.778178
O O16 0.152743 0.834922 0.861222
O O17 0.337673 0.141880 0.179944
#
# Coordination Sequence:
#
# PCOD9007818 Si02
#       8
#     2   2   2   2   2   2   2   2
#     4  11  24  39  61 103 125 159 202 250 319 370
#     4  10  22  37  64  88 114 164 215 254 299 358
#     4  10  21  41  59  92 123 161 211 254 312 347
#     4  11  22  40  64  89 137 157 197 255 316 361
#     4  10  21  39  63  84 126 158 207 256 294 374
#     4   9  21  39  59  92 121 164 199 244 314 374
#     4  10  23  41  62  91 133 164 201 248 302 385
#     4   9  19  38  62  87 116 161 211 242 295 368
#
# _framework density 21.958124999999999
#
# number of rings (size 3 to 8) (size 9 to 14) (size 15 to 20)
#    0.000    2.000    1.250    1.875    5.250    3.500 
#    0.000    3.125    0.000    0.000    0.000    0.000 
#    0.000    0.000    0.000    0.000    0.000    0.000 
#
# Total GULP energy -89424.756812 kJ/mol
# GULP energy per Si atom -5589.047301 kJ/mol
# Density = 2.190815 g / cm^3
# Si number density = 21.958125 Si / 1000 Ang^3
#
#
#
# Elastic Constant Matrix: (Units=GPa)
#
#
# Indices 1 2 3 4 5 6 
#
# 1 44.6312 12.5465 5.7831 1.6227 17.4086 0.2848
# 2 12.5465 135.0494 30.2712 -11.1484 8.4199 -11.8062
# 3 5.7831 30.2712 90.1160 4.6849 10.3721 -6.8270
# 4 1.6227 -11.1484 4.6849 39.6076 -3.2456 5.7293
# 5 17.4086 8.4199 10.3721 -3.2456 20.9427 -2.9194
# 6 0.2848 -11.8062 -6.8270 5.7293 -2.9194 31.0441
#
#
#
# Elastic Compliance Matrix: (Units=1/GPa)
#
#
# Indices 1 2 3 4 5 6 
#
# 1 0.034675 -0.002421 0.002051 -0.004394 -0.029936 -0.002792
# 2 -0.002421 0.008624 -0.002777 0.002578 0.000637 0.002275
# 3 0.002051 -0.002777 0.013038 -0.003253 -0.007312 0.001705
# 4 -0.004394 0.002578 -0.003253 0.027780 0.007965 -0.004073
# 5 -0.029936 0.000637 -0.007312 0.007965 0.077897 0.004765
# 6 -0.002792 0.002275 0.001705 -0.004073 0.004765 0.034678
#
#
# Mechanical properties :
#
#
# Convention : Reuss Voigt Hill
#
# Bulk Modulus (GPa) = 19.98325 40.77758 30.38041
# Shear Modulus (GPa) = 22.76174 33.06528 27.91351
#
# Velocity S-wave (km/s) = 3.22312 3.88472 3.56928
# Velocity P-wave (km/s) = 4.79288 6.22353 5.55446
#
# Compressibility (1/GPa) = 0.05004192
#
# Stress axis : x y z
#
# Youngs Moduli (GPa) = 28.83923 115.95512 76.70010
#
# Poissons Ratio (x) = 0.28078 -0.15728
# Poissons Ratio (y) = 0.06983 0.21296
# Poissons Ratio (z) = -0.05914 0.32195
#
# Static dielectric constant tensor:
#      x y z
#    x 1.782830 0.025670 0.005760 
#    y 0.025670 1.856350 -0.000090 
#    z 0.005760 -0.000090 1.821730 
# 
# From -- ./inp_files/614048.got.cif
#   From: 2010.05.17/outbox.cif.g08.bks.cpg/sg2_308_cif.got.tgz:614048.got - 2010.06.03 11:33:40.
