data_PCOD9007650
_publ_section_title
;
Structure prediction by ZEFSAII (Michael W. Deem and Ramdas Pophale) SiO2 
 PCOD9007650
Probable space group: P -1
;
_chemical_formula_sum "Si O2"
_cell_formula_units_Z 16
_cell_length_a 5.695328
_cell_length_b 10.870751
_cell_length_c 19.406007
_cell_angle_alpha 147.943437
_cell_angle_beta 97.909541
_cell_angle_gamma 83.611896
_cell_volume 631.590411
_symmetry_space_group_name_H-M "P -1"
_symmetry_group_IT_number 2
_symmetry_cell_setting 'triclinic'
loop_
_space_group_symop_operation_xyz
x,y,z
-x,-y,-z
loop_
_atom_site_type_symbol
_atom_site_label
_atom_site_fract_x
_atom_site_fract_y
_atom_site_fract_z
Si Si1 0.894236 0.059632 0.895938
Si Si2 0.474452 0.296579 0.516832
Si Si3 0.990251 0.533582 0.652705
Si Si4 0.553888 0.118949 0.789860
Si Si5 0.736074 0.617035 0.996361
Si Si6 0.517557 0.296622 0.674911
Si Si7 0.021762 0.244839 0.654707
Si Si8 0.417775 0.777677 0.931070
O O1 0.020453 0.811367 0.785366
O O2 0.680217 0.012195 0.811648
O O3 0.830078 0.148938 0.011516
O O4 0.022319 0.282409 0.974699
O O5 0.718293 0.445495 0.581461
O O6 0.496372 0.192905 0.547213
O O7 0.215089 0.422370 0.567637
O O8 0.468687 0.085174 0.362755
O O9 0.007103 0.436154 0.685035
O O10 0.698927 0.346526 0.878797
O O11 0.318998 0.238742 0.867839
O O12 0.556332 0.699715 0.968565
O O13 0.782984 0.266101 0.698260
O O14 0.479237 0.567248 0.784012
O O15 0.291712 0.256458 0.696642
O O16 0.000000 0.000000 0.500000
O O17 0.500000 0.000000 0.000000
#
# Coordination Sequence:
#
# PCOD9007650 Si02
#       8
#     2   2   2   2   2   2   2   2
#     4  11  25  45  72 101 142 189 242 302 355 431
#     4  10  23  45  70 103 141 183 234 299 361 431
#     4  10  24  41  67 101 141 180 235 289 363 425
#     4  10  24  47  73 101 138 186 244 303 361 426
#     4  10  25  46  72 102 138 189 247 294 361 429
#     4  10  23  41  64 101 137 181 235 284 354 424
#     4  10  21  39  62  90 136 184 227 277 342 420
#     4  11  25  42  68 102 142 190 232 293 357 430
#
# _framework density 25.332872999999999
#
# number of rings (size 3 to 8) (size 9 to 14) (size 15 to 20)
#    0.000    1.750    0.000    2.250   10.500    5.500 
#    0.000    0.000    0.000    0.000    0.000    0.000 
#    0.000    0.000    0.000    0.000    0.000    0.000 
#
# Total GULP energy -89324.770956 kJ/mol
# GULP energy per Si atom -5582.798185 kJ/mol
# Density = 2.527521 g / cm^3
# Si number density = 25.332873 Si / 1000 Ang^3
#
#
#
# Elastic Constant Matrix: (Units=GPa)
#
#
# Indices 1 2 3 4 5 6 
#
# 1 196.7265 17.0066 54.8530 5.9085 -15.6570 22.9111
# 2 17.0066 66.7694 22.2057 7.9651 -9.4527 3.1890
# 3 54.8530 22.2057 108.2635 -25.4206 -24.4455 1.7907
# 4 5.9085 7.9651 -25.4206 32.4778 3.3091 -7.5603
# 5 -15.6570 -9.4527 -24.4455 3.3091 32.5519 2.1736
# 6 22.9111 3.1890 1.7907 -7.5603 2.1736 41.7085
#
#
#
# Elastic Compliance Matrix: (Units=1/GPa)
#
#
# Indices 1 2 3 4 5 6 
#
# 1 0.007374 0.001130 -0.005340 -0.007115 0.000938 -0.005246
# 2 0.001130 0.018632 -0.006298 -0.010872 0.002589 -0.003880
# 3 -0.005340 -0.006298 0.019113 0.017951 0.007768 0.005443
# 4 -0.007115 -0.010872 0.017951 0.051827 0.000744 0.013325
# 5 0.000938 0.002589 0.007768 0.000744 0.037874 -0.002886
# 6 -0.005246 -0.003880 0.005443 0.013325 -0.002886 0.029486
#
#
# Mechanical properties :
#
#
# Convention : Reuss Voigt Hill
#
# Bulk Modulus (GPa) = 41.48835 62.21000 51.84917
# Shear Modulus (GPa) = 25.85896 39.86060 32.85978
#
# Velocity S-wave (km/s) = 3.19841 3.97101 3.60546
# Velocity P-wave (km/s) = 5.48203 6.75541 6.15175
#
# Compressibility (1/GPa) = 0.02410315
#
# Stress axis : x y z
#
# Youngs Moduli (GPa) = 135.61684 53.66981 52.32093
#
# Poissons Ratio (x) = -0.06064 0.27937
# Poissons Ratio (y) = -0.15322 0.32952
# Poissons Ratio (z) = 0.72414 0.33802
#
# Static dielectric constant tensor:
#      x y z
#    x 2.145110 -0.048180 0.038150 
#    y -0.048180 1.907720 -0.001370 
#    z 0.038150 -0.001370 2.056380 
# 
# From -- ./inp_files/583369.got.cif
#   From: 2010.05.17/outbox.cif.g08.bks.cpg/sg2_292_cif.got.tgz:583369.got - 2010.06.03 11:33:40.
