data_PCOD9007346
_publ_section_title
;
Structure prediction by ZEFSAII (Michael W. Deem and Ramdas Pophale) SiO2 
 PCOD9007346
Probable space group: P -1
;
_chemical_formula_sum "Si O2"
_cell_formula_units_Z 16
_cell_length_a 17.256716
_cell_length_b 7.210004
_cell_length_c 6.370874
_cell_angle_alpha 114.500681
_cell_angle_beta 73.969132
_cell_angle_gamma 110.223780
_cell_volume 668.591590
_symmetry_space_group_name_H-M "P -1"
_symmetry_group_IT_number 2
_symmetry_cell_setting 'triclinic'
loop_
_space_group_symop_operation_xyz
x,y,z
-x,-y,-z
loop_
_atom_site_type_symbol
_atom_site_label
_atom_site_fract_x
_atom_site_fract_y
_atom_site_fract_z
Si Si1 0.111228 0.684708 0.042910
Si Si2 0.043800 0.272123 0.653110
Si Si3 0.194668 0.174046 0.741945
Si Si4 0.519676 0.665459 0.871861
Si Si5 0.143857 0.394259 0.256504
Si Si6 0.418303 0.030871 0.685350
Si Si7 0.374224 0.407654 0.625994
Si Si8 0.240689 0.765627 0.641171
O O1 0.124331 0.548215 0.167283
O O2 0.049488 0.819352 0.232978
O O3 0.064265 0.519209 0.822247
O O4 0.197988 0.780249 0.905884
O O5 0.112082 0.182235 0.680852
O O6 0.062123 0.280345 0.397213
O O7 0.274495 0.356458 0.685857
O O8 0.213969 0.947634 0.611180
O O9 0.181163 0.232524 0.021133
O O10 0.432786 0.619351 0.786414
O O11 0.587325 0.614627 0.639831
O O12 0.500000 0.500000 0.000000
O O13 0.557881 0.887829 0.058977
O O14 0.206671 0.544466 0.443055
O O15 0.391909 0.217659 0.665678
O O16 0.500000 0.000000 0.500000
O O17 0.339658 0.830529 0.626304
#
# Coordination Sequence:
#
# PCOD9007346 Si02
#       8
#     2   2   2   2   2   2   2   2
#     4   9  19  39  61  89 124 157 201 252 296 359
#     4   9  19  37  62  91 120 160 203 243 301 364
#     4  10  22  38  61  89 123 157 201 248 301 362
#     4   9  19  38  59  81 113 153 192 245 293 352
#     4  10  21  39  61  89 118 167 197 247 302 359
#     4  10  22  38  58  87 119 155 197 247 300 357
#     4   9  20  39  58  86 114 155 197 244 300 356
#     4  10  23  40  59  91 125 156 203 254 301 358
#
# _framework density 23.930904000000002
#
# number of rings (size 3 to 8) (size 9 to 14) (size 15 to 20)
#    0.000    2.500    0.000    0.375    1.750    8.000 
#   18.000    1.250    0.000    0.000    0.000    0.000 
#    0.000    0.000    0.000    0.000    0.000    0.000 
#
# Total GULP energy -89448.830755 kJ/mol
# GULP energy per Si atom -5590.551922 kJ/mol
# Density = 2.387644 g / cm^3
# Si number density = 23.930904 Si / 1000 Ang^3
#
#
#
# Elastic Constant Matrix: (Units=GPa)
#
#
# Indices 1 2 3 4 5 6 
#
# 1 96.0926 7.2267 25.0839 -4.2906 -15.9990 -2.7651
# 2 7.2267 45.8121 19.8885 2.1890 -1.4929 -0.1695
# 3 25.0839 19.8885 128.1826 -13.2983 1.7342 15.2575
# 4 -4.2906 2.1890 -13.2983 38.4961 8.2866 -0.8829
# 5 -15.9990 -1.4929 1.7342 8.2866 28.2358 -12.3147
# 6 -2.7651 -0.1695 15.2575 -0.8829 -12.3147 28.9365
#
#
#
# Elastic Compliance Matrix: (Units=1/GPa)
#
#
# Indices 1 2 3 4 5 6 
#
# 1 0.013729 0.000215 -0.004194 -0.002443 0.012610 0.008817
# 2 0.000215 0.024265 -0.004844 -0.003980 0.004914 0.004687
# 3 -0.004194 -0.004844 0.011286 0.005494 -0.009390 -0.010208
# 4 -0.002443 -0.003980 0.005494 0.030789 -0.014653 -0.008450
# 5 0.012610 0.004914 -0.009390 -0.014653 0.061642 0.031971
# 6 0.008817 0.004687 -0.010208 -0.008450 0.031971 0.054159
#
#
# Mechanical properties :
#
#
# Convention : Reuss Voigt Hill
#
# Bulk Modulus (GPa) = 31.61086 41.60951 36.61019
# Shear Modulus (GPa) = 22.31534 33.65957 27.98746
#
# Velocity S-wave (km/s) = 3.05698 3.75444 3.42352
# Velocity P-wave (km/s) = 5.06933 6.01827 5.56407
#
# Compressibility (1/GPa) = 0.03163470
#
# Stress axis : x y z
#
# Youngs Moduli (GPa) = 72.83679 41.21153 88.60768
#
# Poissons Ratio (x) = -0.00886 0.37158
# Poissons Ratio (y) = -0.01567 0.42924
# Poissons Ratio (z) = 0.30544 0.19964
#
# Static dielectric constant tensor:
#      x y z
#    x 1.938020 0.014730 -0.008850 
#    y 0.014730 1.977240 0.013320 
#    z -0.008850 0.013320 1.884290 
# 
# From -- ./inp_files/43603.got.cif
#   From: 2010.05.17/outbox.cif.g08.bks.cpg/sg2_22_cif.got.tgz:43603.got - 2010.06.03 11:33:40.
