data_PCOD9007845
_publ_section_title
;
Structure prediction by ZEFSAII (Michael W. Deem and Ramdas Pophale) SiO2 
 PCOD9007845
Probable space group: P -1
;
_chemical_formula_sum "Si O2"
_cell_formula_units_Z 16
_cell_length_a 16.838973
_cell_length_b 19.456176
_cell_length_c 25.399731
_cell_angle_alpha 19.959101
_cell_angle_beta 16.884846
_cell_angle_gamma 31.258615
_cell_volume 736.914803
_symmetry_space_group_name_H-M "P -1"
_symmetry_group_IT_number 2
_symmetry_cell_setting 'triclinic'
loop_
_space_group_symop_operation_xyz
x,y,z
-x,-y,-z
loop_
_atom_site_type_symbol
_atom_site_label
_atom_site_fract_x
_atom_site_fract_y
_atom_site_fract_z
Si Si1 0.078679 0.355696 0.093757
Si Si2 0.031006 0.703847 0.158287
Si Si3 0.546345 0.982703 0.819701
Si Si4 0.228082 0.382131 0.091267
Si Si5 0.655345 0.959021 0.880372
Si Si6 0.833530 0.694059 0.634100
Si Si7 0.617310 0.924017 0.245106
Si Si8 0.472271 0.817024 0.695261
O O1 0.744563 0.156783 0.463126
O O2 0.228045 0.484192 0.960078
O O3 0.288970 0.257682 0.005219
O O4 0.000000 0.500000 0.000000
O O5 0.991745 0.459266 0.376846
O O6 0.722332 0.730985 0.328074
O O7 0.223315 0.782850 0.924280
O O8 0.217750 0.879272 0.959374
O O9 0.467453 0.957346 0.949182
O O10 0.313970 0.005469 0.910233
O O11 0.875654 0.204813 0.452878
O O12 0.601897 0.774183 0.913456
O O13 0.363188 0.578696 0.905978
O O14 0.000778 0.157785 0.526736
O O15 0.500000 0.000000 0.000000
O O16 0.771144 0.841244 0.522428
O O17 0.500000 0.500000 0.000000
O O18 0.500000 0.000000 0.500000
#
# Coordination Sequence:
#
# PCOD9007845 Si02
#       8
#     2   2   2   2   2   2   2   2
#     4  10  22  38  62  84 123 167 201 253 321 373
#     4  10  22  39  63  90 124 167 219 257 309 381
#     4   9  18  40  62  88 117 159 215 252 312 375
#     4   9  19  36  62  86 114 163 209 253 303 382
#     4  11  24  39  64  96 127 160 206 272 323 375
#     4  10  21  40  63  86 122 168 210 249 313 382
#     4  10  21  39  63  88 118 165 214 264 298 380
#     4  11  23  37  60  95 129 164 205 266 325 376
#
# _framework density 21.712142
#
# number of rings (size 3 to 8) (size 9 to 14) (size 15 to 20)
#    0.000    2.000    0.000    4.500    5.250    1.000 
#    0.000    1.875    0.000    4.500    0.000    0.000 
#    0.000    0.000    0.000    0.000    0.000    0.000 
#
# Total GULP energy -89200.763239 kJ/mol
# GULP energy per Si atom -5575.047702 kJ/mol
# Density = 2.166272 g / cm^3
# Si number density = 21.712142 Si / 1000 Ang^3
#
#
#
# Elastic Constant Matrix: (Units=GPa)
#
#
# Indices 1 2 3 4 5 6 
#
# 1 171.2855 60.0553 25.4421 -13.9336 -2.7270 -2.0109
# 2 60.0553 94.8627 8.1338 1.3776 4.5577 6.3973
# 3 25.4421 8.1338 34.5010 -4.8759 -1.5954 6.6954
# 4 -13.9336 1.3776 -4.8759 28.9743 0.3676 1.9318
# 5 -2.7270 4.5577 -1.5954 0.3676 32.1094 -9.0286
# 6 -2.0109 6.3973 6.6954 1.9318 -9.0286 41.1827
#
#
#
# Elastic Compliance Matrix: (Units=1/GPa)
#
#
# Indices 1 2 3 4 5 6 
#
# 1 0.008858 -0.005470 -0.005123 0.003476 0.001900 0.002369
# 2 -0.005470 0.014364 0.000700 -0.002940 -0.003336 -0.003206
# 3 -0.005123 0.000700 0.034304 0.003700 -0.000629 -0.006247
# 4 0.003476 -0.002940 0.003700 0.037062 -0.000010 -0.001716
# 5 0.001900 -0.003336 -0.000629 -0.000010 0.034047 0.008178
# 6 0.002369 -0.003206 -0.006247 -0.001716 0.008178 0.027785
#
#
# Mechanical properties :
#
#
# Convention : Reuss Voigt Hill
#
# Bulk Modulus (GPa) = 26.49791 54.21241 40.35516
# Shear Modulus (GPa) = 26.48522 34.25448 30.36985
#
# Velocity S-wave (km/s) = 3.49640 3.97629 3.74404
# Velocity P-wave (km/s) = 5.34139 6.79000 6.10879
#
# Compressibility (1/GPa) = 0.03773882
#
# Stress axis : x y z
#
# Youngs Moduli (GPa) = 112.89491 69.62050 29.15126
#
# Poissons Ratio (x) = 0.38082 0.14934
# Poissons Ratio (y) = 0.61753 -0.02040
# Poissons Ratio (z) = 0.57837 -0.04872
#
# Static dielectric constant tensor:
#      x y z
#    x 1.884430 -0.006620 0.126630 
#    y -0.006620 1.791040 0.065150 
#    z 0.126630 0.065150 1.951240 
# 
# From -- ./inp_files/612179.got.cif
#   From: 2010.05.17/outbox.cif.g08.bks.cpg/sg2_307_cif.got.tgz:612179.got - 2010.06.03 11:33:40.
