data_PCOD9007469
_publ_section_title
;
Structure prediction by ZEFSAII (Michael W. Deem and Ramdas Pophale) SiO2 
 PCOD9007469
Probable space group: P -1
;
_chemical_formula_sum "Si O2"
_cell_formula_units_Z 16
_cell_length_a 8.150938
_cell_length_b 11.674736
_cell_length_c 11.936915
_cell_angle_alpha 49.494534
_cell_angle_beta 65.070506
_cell_angle_gamma 74.445397
_cell_volume 783.189736
_symmetry_space_group_name_H-M "P -1"
_symmetry_group_IT_number 2
_symmetry_cell_setting 'triclinic'
loop_
_space_group_symop_operation_xyz
x,y,z
-x,-y,-z
loop_
_atom_site_type_symbol
_atom_site_label
_atom_site_fract_x
_atom_site_fract_y
_atom_site_fract_z
Si Si1 0.315090 0.214184 0.661560
Si Si2 0.923849 0.336338 0.101979
Si Si3 0.076907 0.358484 0.800301
Si Si4 0.290747 0.635986 0.487077
Si Si5 0.892285 0.150239 0.447671
Si Si6 0.498101 0.634243 0.828119
Si Si7 0.764582 0.518163 0.636816
Si Si8 0.473120 0.027407 0.360154
O O1 0.179006 0.220166 0.800630
O O2 0.507419 0.300574 0.582225
O O3 0.209856 0.319660 0.535161
O O4 0.363382 0.048555 0.707575
O O5 0.963024 0.243115 0.261638
O O6 0.707989 0.332054 0.162692
O O7 0.000000 0.500000 0.000000
O O8 0.001252 0.305647 0.975287
O O9 0.233707 0.489669 0.671518
O O10 0.919320 0.437192 0.718958
O O11 0.129139 0.749005 0.499055
O O12 0.279473 0.589129 0.389404
O O13 0.691088 0.084347 0.543432
O O14 0.000000 0.000000 0.500000
O O15 0.605403 0.566640 0.735537
O O16 0.568101 0.795464 0.753730
O O17 0.500000 0.500000 0.000000
O O18 0.500000 0.000000 0.500000
#
# Coordination Sequence:
#
# PCOD9007469 Si02
#       8
#     2   2   2   2   2   2   2   2
#     4  10  21  39  63  94 130 174 218 264 322 387
#     4  12  25  42  64  98 134 168 217 269 330 386
#     4  11  22  37  62  98 129 172 213 270 330 378
#     4  10  21  39  61  95 129 169 224 260 321 383
#     4  11  25  42  66  97 129 175 218 270 325 386
#     4  12  25  43  66  99 131 170 218 269 328 386
#     4  11  21  36  65  95 129 169 216 271 317 386
#     4  11  22  42  67  89 128 174 217 265 321 384
#
# _framework density 20.429276000000002
#
# number of rings (size 3 to 8) (size 9 to 14) (size 15 to 20)
#    0.000    1.000    5.000    3.750    5.250    1.000 
#    0.000    1.875    0.000    3.000    0.000    0.000 
#    0.000    0.000    0.000    0.000    0.000    0.000 
#
# Total GULP energy -89072.462756 kJ/mol
# GULP energy per Si atom -5567.028922 kJ/mol
# Density = 2.038278 g / cm^3
# Si number density = 20.429276 Si / 1000 Ang^3
#
#
#
# Elastic Constant Matrix: (Units=GPa)
#
#
# Indices 1 2 3 4 5 6 
#
# 1 38.6895 30.9148 16.7278 15.8045 -6.6176 -1.3530
# 2 30.9148 198.3952 82.6321 39.3631 4.7369 -19.5783
# 3 16.7278 82.6321 119.1354 16.0045 1.1221 -6.9924
# 4 15.8045 39.3631 16.0045 50.5195 -7.8669 -13.3115
# 5 -6.6176 4.7369 1.1221 -7.8669 22.6793 2.2224
# 6 -1.3530 -19.5783 -6.9924 -13.3115 2.2224 29.4493
#
#
#
# Elastic Compliance Matrix: (Units=1/GPa)
#
#
# Indices 1 2 3 4 5 6 
#
# 1 0.033884 -0.004034 -0.001411 -0.007025 0.008883 -0.005306
# 2 -0.004034 0.008895 -0.004839 -0.004018 -0.004493 0.003102
# 3 -0.001411 -0.004839 0.011876 0.000400 0.000179 -0.000295
# 4 -0.007025 -0.004018 0.000400 0.028711 0.007799 0.009490
# 5 0.008883 -0.004493 0.000179 0.007799 0.050597 -0.002830
# 6 -0.005306 0.003102 -0.000295 0.009490 -0.002830 0.040208
#
#
# Mechanical properties :
#
#
# Convention : Reuss Voigt Hill
#
# Bulk Modulus (GPa) = 29.33742 68.52993 48.93367
# Shear Modulus (GPa) = 24.25992 35.59266 29.92629
#
# Velocity S-wave (km/s) = 3.44976 4.17854 3.83152
# Velocity P-wave (km/s) = 5.50086 7.54308 6.60142
#
# Compressibility (1/GPa) = 0.03408616
#
# Stress axis : x y z
#
# Youngs Moduli (GPa) = 29.51274 112.42040 84.20648
#
# Poissons Ratio (x) = 0.45352 0.11881
# Poissons Ratio (y) = 0.11906 0.40748
# Poissons Ratio (z) = 0.04164 0.54401
#
# Static dielectric constant tensor:
#      x y z
#    x 1.793690 0.029890 -0.040230 
#    y 0.029890 2.097140 0.016030 
#    z -0.040230 0.016030 1.746490 
# 
# From -- ./inp_files/388986.got.cif
#   From: 2010.05.17/outbox.cif.g08.bks.cpg/sg2_195_cif.got.tgz:388986.got - 2010.06.03 11:33:40.
