data_PCOD9007692
_publ_section_title
;
Structure prediction by ZEFSAII (Michael W. Deem and Ramdas Pophale) SiO2 
 PCOD9007692
Probable space group: P -1
;
_chemical_formula_sum "Si O2"
_cell_formula_units_Z 14
_cell_length_a 7.695314
_cell_length_b 8.802566
_cell_length_c 17.254972
_cell_angle_alpha 123.434894
_cell_angle_beta 41.472764
_cell_angle_gamma 127.545729
_cell_volume 603.738795
_symmetry_space_group_name_H-M "P -1"
_symmetry_group_IT_number 2
_symmetry_cell_setting 'triclinic'
loop_
_space_group_symop_operation_xyz
x,y,z
-x,-y,-z
loop_
_atom_site_type_symbol
_atom_site_label
_atom_site_fract_x
_atom_site_fract_y
_atom_site_fract_z
Si Si1 0.679675 0.034569 0.540990
Si Si2 0.959168 0.761978 0.857127
Si Si3 0.739086 0.326048 0.466598
Si Si4 0.564532 0.387321 0.309781
Si Si5 0.369415 0.203138 0.875982
Si Si6 0.364773 0.453992 0.235122
Si Si7 0.823679 0.060416 0.672902
O O1 0.681449 0.206954 0.533407
O O2 0.815830 0.111720 0.599317
O O3 0.386831 0.858519 0.601037
O O4 0.865690 0.922951 0.405640
O O5 0.144577 0.621737 0.757914
O O6 0.749625 0.709939 0.839630
O O7 0.162136 0.988793 0.858021
O O8 0.781436 0.725431 0.985623
O O9 0.571341 0.473359 0.562502
O O10 0.067752 0.430868 0.369839
O O11 0.563551 0.431143 0.230771
O O12 0.346580 0.168346 0.328129
O O13 0.470720 0.351002 0.812485
O O14 0.650209 0.171649 0.805195
#
# Coordination Sequence:
#
# PCOD9007692 Si02
#       7
#     2   2   2   2   2   2   2
#     4  10  22  38  62  91 133 171 205 256 329 383
#     4  10  25  48  66  93 130 170 220 265 318 383
#     4  11  23  39  60  97 132 164 209 267 318 383
#     4  11  24  41  65  98 128 167 218 263 316 388
#     4  10  23  45  69  91 130 170 214 272 317 379
#     4  12  24  42  67  96 133 167 213 271 322 376
#     4  10  21  39  62  92 125 168 215 256 317 387
#
# _framework density 23.188835999999998
#
# number of rings (size 3 to 8) (size 9 to 14) (size 15 to 20)
#    0.000    1.429    1.429    3.429    6.000    2.857 
#    0.000    6.429    0.000    0.000    0.000    0.000 
#    0.000    0.000    0.000    0.000    0.000    0.000 
#
# Total GULP energy -78252.337712 kJ/mol
# GULP energy per Si atom -5589.452694 kJ/mol
# Density = 2.313606 g / cm^3
# Si number density = 23.188836 Si / 1000 Ang^3
#
#
#
# Elastic Constant Matrix: (Units=GPa)
#
#
# Indices 1 2 3 4 5 6 
#
# 1 64.7121 18.6566 13.4835 0.0514 10.0378 -4.4660
# 2 18.6566 102.3736 30.9385 -28.7643 4.3058 -10.8447
# 3 13.4835 30.9385 94.3668 -9.3285 1.8026 -18.2405
# 4 0.0514 -28.7643 -9.3285 29.9361 1.1445 -1.2634
# 5 10.0378 4.3058 1.8026 1.1445 29.4760 -2.2306
# 6 -4.4660 -10.8447 -18.2405 -1.2634 -2.2306 33.4690
#
#
#
# Elastic Compliance Matrix: (Units=1/GPa)
#
#
# Indices 1 2 3 4 5 6 
#
# 1 0.017634 -0.003579 -0.001661 -0.003794 -0.005249 -0.000205
# 2 -0.003579 0.015687 -0.002451 0.014519 -0.001204 0.003737
# 3 -0.001661 -0.002451 0.013016 0.001945 0.000520 0.006186
# 4 -0.003794 0.014519 0.001945 0.048348 -0.002301 0.006930
# 5 -0.005249 -0.001204 0.000520 -0.002301 0.036061 0.001510
# 6 -0.000205 0.003737 0.006186 0.006930 0.001510 0.034796
#
#
# Mechanical properties :
#
#
# Convention : Reuss Voigt Hill
#
# Bulk Modulus (GPa) = 32.30405 43.06775 37.68590
# Shear Modulus (GPa) = 26.14497 31.80117 28.97307
#
# Velocity S-wave (km/s) = 3.36144 3.70726 3.53858
# Velocity P-wave (km/s) = 5.38765 6.07766 5.74303
#
# Compressibility (1/GPa) = 0.03095587
#
# Stress axis : x y z
#
# Youngs Moduli (GPa) = 56.70888 63.74644 76.82951
#
# Poissons Ratio (x) = 0.22814 0.12759
# Poissons Ratio (y) = 0.20295 0.18831
# Poissons Ratio (z) = 0.09418 0.15624
#
# Static dielectric constant tensor:
#      x y z
#    x 1.911410 0.037730 0.000710 
#    y 0.037730 1.894120 0.027480 
#    z 0.000710 0.027480 1.915180 
# 
# From -- ./inp_files/236775.got.cif
#   From: 2010.05.17/outbox.cif.g08.bks.cpg/sg2_119_cif.got.tgz:236775.got - 2010.06.03 11:33:40.
