data_PCOD9007028
_publ_section_title
;
Structure prediction by ZEFSAII (Michael W. Deem and Ramdas Pophale) SiO2 
 PCOD9007028
Probable space group: P -1
;
_chemical_formula_sum "Si O2"
_cell_formula_units_Z 14
_cell_length_a 5.158516
_cell_length_b 5.476428
_cell_length_c 19.874026
_cell_angle_alpha 98.854593
_cell_angle_beta 112.650323
_cell_angle_gamma 86.373782
_cell_volume 511.963018
_symmetry_space_group_name_H-M "P -1"
_symmetry_group_IT_number 2
_symmetry_cell_setting 'triclinic'
loop_
_space_group_symop_operation_xyz
x,y,z
-x,-y,-z
loop_
_atom_site_type_symbol
_atom_site_label
_atom_site_fract_x
_atom_site_fract_y
_atom_site_fract_z
Si Si1 0.769970 0.856412 0.895822
Si Si2 0.812738 0.135566 0.575825
Si Si3 0.165467 0.716468 0.563271
Si Si4 0.380073 0.609815 0.061205
Si Si5 0.556784 0.859069 0.338694
Si Si6 0.115461 0.831396 0.794358
Si Si7 0.781161 0.689153 0.228180
O O1 0.803871 0.604268 0.930918
O O2 0.454833 0.833312 0.832704
O O3 0.986577 0.869192 0.856808
O O4 0.756466 0.117280 0.945120
O O5 0.721858 0.161089 0.490777
O O6 0.614904 0.230516 0.618250
O O7 0.125731 0.249142 0.620047
O O8 0.900189 0.849682 0.578285
O O9 0.000000 0.500000 0.500000
O O10 0.403922 0.839986 0.641891
O O11 0.644751 0.648284 0.139627
O O12 0.500000 0.500000 0.000000
O O13 0.526938 0.749611 0.256699
O O14 0.049937 0.559113 0.750549
O O15 0.036388 0.061514 0.748919
#
# Coordination Sequence:
#
# PCOD9007028 Si02
#       7
#     2   2   2   2   2   2   2
#     4  10  21  40  64  91 120 163 209 260 313 374
#     4   9  21  39  57  85 120 151 201 242 305 364
#     4   9  20  38  61  89 116 158 199 248 301 365
#     4  10  21  41  66  95 128 170 213 264 317 375
#     4  10  21  39  59  86 119 161 197 253 308 363
#     4  10  22  41  63  89 124 166 202 262 312 373
#     4  10  23  42  62  93 129 165 214 262 316 377
#
# _framework density 27.345725999999999
#
# number of rings (size 3 to 8) (size 9 to 14) (size 15 to 20)
#    0.857    1.429    0.000    1.714    0.000    6.286 
#    2.571   17.143    0.000    0.000    0.000    0.000 
#    0.000    0.000    0.000    0.000    0.000    0.000 
#
# Total GULP energy -78084.164642 kJ/mol
# GULP energy per Si atom -5577.440332 kJ/mol
# Density = 2.728349 g / cm^3
# Si number density = 27.345726 Si / 1000 Ang^3
#
#
#
# Elastic Constant Matrix: (Units=GPa)
#
#
# Indices 1 2 3 4 5 6 
#
# 1 114.2133 8.8127 40.1487 7.1049 -44.0064 -1.9352
# 2 8.8127 170.0806 31.2914 27.3175 -17.4995 15.7708
# 3 40.1487 31.2914 168.9529 37.4680 -37.5497 -0.6025
# 4 7.1049 27.3175 37.4680 50.5905 -1.3351 0.5823
# 5 -44.0064 -17.4995 -37.5497 -1.3351 66.1748 5.3589
# 6 -1.9352 15.7708 -0.6025 0.5823 5.3589 30.8014
#
#
#
# Elastic Compliance Matrix: (Units=1/GPa)
#
#
# Indices 1 2 3 4 5 6 
#
# 1 0.012073 0.000601 -0.001059 -0.001024 0.007637 -0.000879
# 2 0.000601 0.007085 -0.000094 -0.003730 0.002464 -0.003950
# 3 -0.001059 -0.000094 0.008366 -0.005888 0.003934 -0.000428
# 4 -0.001024 -0.003730 -0.005888 0.026139 -0.004647 0.002044
# 5 0.007637 0.002464 0.003934 -0.004647 0.023360 -0.004681
# 6 -0.000879 -0.003950 -0.000428 0.002044 -0.004681 0.035201
#
#
# Mechanical properties :
#
#
# Convention : Reuss Voigt Hill
#
# Bulk Modulus (GPa) = 37.85052 68.19470 53.02261
# Shear Modulus (GPa) = 40.93880 54.37960 47.65920
#
# Velocity S-wave (km/s) = 3.87341 4.46421 4.17926
# Velocity P-wave (km/s) = 5.82031 7.18083 6.53606
#
# Compressibility (1/GPa) = 0.02641972
#
# Stress axis : x y z
#
# Youngs Moduli (GPa) = 82.83110 141.15156 119.52445
#
# Poissons Ratio (x) = -0.08484 0.12656
# Poissons Ratio (y) = -0.04979 0.01127
# Poissons Ratio (z) = 0.08771 0.01330
#
# Static dielectric constant tensor:
#      x y z
#    x 2.274150 0.036970 0.088580 
#    y 0.036970 2.473460 -0.107500 
#    z 0.088580 -0.107500 2.116860 
# 
# From -- ./inp_files/580858.got.cif
#   From: 2010.05.17/outbox.cif.g08.bks.cpg/sg2_291_cif.got.tgz:580858.got - 2010.06.03 11:33:40.
