data_PCOD9007596
_publ_section_title
;
Structure prediction by ZEFSAII (Michael W. Deem and Ramdas Pophale) SiO2 
 PCOD9007596
Probable space group: P -1
;
_chemical_formula_sum "Si O2"
_cell_formula_units_Z 16
_cell_length_a 21.120512
_cell_length_b 17.883267
_cell_length_c 7.177329
_cell_angle_alpha 52.982737
_cell_angle_beta 132.819293
_cell_angle_gamma 161.626616
_cell_volume 615.849100
_symmetry_space_group_name_H-M "P -1"
_symmetry_group_IT_number 2
_symmetry_cell_setting 'triclinic'
loop_
_space_group_symop_operation_xyz
x,y,z
-x,-y,-z
loop_
_atom_site_type_symbol
_atom_site_label
_atom_site_fract_x
_atom_site_fract_y
_atom_site_fract_z
Si Si1 0.511247 0.133511 0.601398
Si Si2 0.216305 0.771572 0.088014
Si Si3 0.414664 0.730092 0.886075
Si Si4 0.949614 0.091929 0.202558
Si Si5 0.783696 0.838962 0.871710
Si Si6 0.488754 0.611018 0.090150
Si Si7 0.585335 0.400763 0.471412
Si Si8 0.050386 0.692701 0.252943
O O1 0.598758 0.116829 0.783260
O O2 0.556737 0.213357 0.359108
O O3 0.624879 0.328077 0.661737
O O4 0.252188 0.877573 0.521783
O O5 0.130640 0.707057 0.224109
O O6 0.348218 0.999744 0.962329
O O7 0.000000 0.500000 0.000000
O O8 0.375120 0.578318 0.036855
O O9 0.195708 0.562644 0.775469
O O10 0.195709 0.328773 0.420241
O O11 0.928302 0.178302 0.964152
O O12 0.869361 0.945779 0.093469
O O13 0.747812 0.873197 0.269596
O O14 0.651783 0.803308 0.614111
O O15 0.598758 0.580686 0.815503
O O16 0.000000 0.000000 0.000000
O O17 0.443266 0.599887 0.802370
#
# Coordination Sequence:
#
# PCOD9007596 Si02
#       8
#     2   2   2   2   2   2   2   2
#     4  10  21  39  63  89 118 165 206 250 310 367
#     4  11  23  39  62  89 126 161 207 257 305 369
#     4  10  21  39  62  89 120 160 209 251 309 366
#     4  11  20  39  64  87 124 167 203 255 308 362
#     4  11  23  39  62  89 126 161 207 257 305 369
#     4  10  21  39  63  89 118 165 206 250 310 367
#     4  10  21  39  62  89 120 160 209 251 309 366
#     4  11  20  39  64  87 124 167 203 255 308 362
#
# _framework density 25.980392999999999
#
# number of rings (size 3 to 8) (size 9 to 14) (size 15 to 20)
#    0.000    1.500    5.000    4.500    0.000    5.000 
#    0.000    2.500    0.000    0.000    0.000    0.000 
#    0.000    0.000    0.000    0.000    0.000    0.000 
#
# Total GULP energy -89153.438861 kJ/mol
# GULP energy per Si atom -5572.089929 kJ/mol
# Density = 2.592126 g / cm^3
# Si number density = 25.980393 Si / 1000 Ang^3
#
#
#
# Elastic Constant Matrix: (Units=GPa)
#
#
# Indices 1 2 3 4 5 6 
#
# 1 169.4048 66.5742 51.3882 24.4248 28.1714 -13.2253
# 2 66.5742 132.9939 31.1669 47.3111 -7.3663 -14.4824
# 3 51.3882 31.1669 60.8751 27.5651 11.6320 6.9621
# 4 24.4248 47.3111 27.5651 53.6026 -2.3711 14.4883
# 5 28.1714 -7.3663 11.6320 -2.3711 37.0056 6.0566
# 6 -13.2253 -14.4824 6.9621 14.4883 6.0566 51.9105
#
#
#
# Elastic Compliance Matrix: (Units=1/GPa)
#
#
# Indices 1 2 3 4 5 6 
#
# 1 0.010916 -0.004468 -0.006288 0.001061 -0.007642 0.002973
# 2 -0.004468 0.015254 0.000311 -0.013064 0.004488 0.006198
# 3 -0.006288 0.000311 0.027782 -0.011477 -0.004369 -0.001528
# 4 0.001061 -0.013064 -0.011477 0.039450 0.004923 -0.013420
# 5 -0.007642 0.004488 -0.004369 0.004923 0.036360 -0.005725
# 6 0.002973 0.006198 -0.001528 -0.013420 -0.005725 0.026369
#
#
# Mechanical properties :
#
#
# Convention : Reuss Voigt Hill
#
# Bulk Modulus (GPa) = 30.24535 73.50360 51.87447
# Shear Modulus (GPa) = 26.58988 42.78004 34.68496
#
# Velocity S-wave (km/s) = 3.20263 4.06227 3.65779
# Velocity P-wave (km/s) = 5.03415 7.09620 6.15218
#
# Compressibility (1/GPa) = 0.03306294
#
# Stress axis : x y z
#
# Youngs Moduli (GPa) = 91.60741 65.55733 35.99431
#
# Poissons Ratio (x) = 0.29290 0.22633
# Poissons Ratio (y) = 0.40929 -0.01120
# Poissons Ratio (z) = 0.57602 -0.02040
#
# Static dielectric constant tensor:
#      x y z
#    x 2.096720 -0.057230 -0.072130 
#    y -0.057230 1.875110 -0.164560 
#    z -0.072130 -0.164560 1.999690 
# 
# From -- ./inp_files/348454.got.cif
#   From: 2010.05.17/outbox.cif.g08.bks.cpg/sg2_175_cif.got.tgz:348454.got - 2010.06.03 11:33:40.
