data_PCOD9007677
_publ_section_title
;
Structure prediction by ZEFSAII (Michael W. Deem and Ramdas Pophale) SiO2 
 PCOD9007677
Probable space group: P -1
;
_chemical_formula_sum "Si O2"
_cell_formula_units_Z 16
_cell_length_a 11.792890
_cell_length_b 10.349253
_cell_length_c 8.280969
_cell_angle_alpha 135.886414
_cell_angle_beta 81.618913
_cell_angle_gamma 86.899683
_cell_volume 677.257593
_symmetry_space_group_name_H-M "P -1"
_symmetry_group_IT_number 2
_symmetry_cell_setting 'triclinic'
loop_
_space_group_symop_operation_xyz
x,y,z
-x,-y,-z
loop_
_atom_site_type_symbol
_atom_site_label
_atom_site_fract_x
_atom_site_fract_y
_atom_site_fract_z
Si Si1 0.796083 0.763346 0.008480
Si Si2 0.132286 0.552278 0.725738
Si Si3 0.362129 0.572792 0.567438
Si Si4 0.326988 0.525977 0.153689
Si Si5 0.586271 0.061351 0.164925
Si Si6 0.009492 0.093964 0.752569
Si Si7 0.026193 0.249403 0.337536
Si Si8 0.481273 0.792504 0.358589
O O1 0.859936 0.873284 0.219956
O O2 0.670367 0.886528 0.084176
O O3 0.788502 0.560528 0.905332
O O4 0.876341 0.755381 0.825853
O O5 0.272735 0.494737 0.630673
O O6 0.066635 0.379689 0.583071
O O7 0.091110 0.654649 0.651907
O O8 0.081509 0.705455 0.010837
O O9 0.500000 0.500000 0.500000
O O10 0.344918 0.520316 0.338469
O O11 0.335971 0.802254 0.804846
O O12 0.358601 0.728146 0.284110
O O13 0.420039 0.369544 0.891733
O O14 0.513761 0.195782 0.438869
O O15 0.500000 0.000000 0.000000
O O16 0.985604 0.947418 0.762171
O O17 0.000000 0.000000 0.500000
O O18 0.500000 0.000000 0.500000
#
# Coordination Sequence:
#
# PCOD9007677 Si02
#       8
#     2   2   2   2   2   2   2   2
#     4  11  20  43  69  95 130 177 229 287 341 402
#     4  10  21  42  70  98 125 177 229 280 345 402
#     4  11  22  39  63  98 134 170 226 285 331 403
#     4  10  21  39  62  91 130 173 223 274 331 401
#     4  11  23  38  66  95 133 180 227 271 337 409
#     4  11  25  45  66 102 140 171 225 289 351 412
#     4  10  21  41  74  96 128 170 235 285 338 407
#     4  10  21  40  61  89 135 179 219 267 336 401
#
# _framework density 23.624687000000002
#
# number of rings (size 3 to 8) (size 9 to 14) (size 15 to 20)
#    0.000    1.500    2.500    3.750    0.000    0.500 
#    6.750    1.250    2.750    0.000    0.000    0.000 
#    0.000    0.000    0.000    0.000    0.000    0.000 
#
# Total GULP energy -89291.354152 kJ/mol
# GULP energy per Si atom -5580.709635 kJ/mol
# Density = 2.357092 g / cm^3
# Si number density = 23.624687 Si / 1000 Ang^3
#
#
#
# Elastic Constant Matrix: (Units=GPa)
#
#
# Indices 1 2 3 4 5 6 
#
# 1 121.8812 27.7963 52.6151 3.6354 8.5159 18.2720
# 2 27.7963 83.3717 21.9548 28.9197 19.2663 30.0389
# 3 52.6151 21.9548 159.6099 8.8111 28.1451 14.1228
# 4 3.6354 28.9197 8.8111 40.9433 14.4637 9.7109
# 5 8.5159 19.2663 28.1451 14.4637 41.7327 12.5634
# 6 18.2720 30.0389 14.1228 9.7109 12.5634 33.8404
#
#
#
# Elastic Compliance Matrix: (Units=1/GPa)
#
#
# Indices 1 2 3 4 5 6 
#
# 1 0.010461 -0.002432 -0.003192 0.001701 0.001517 -0.003210
# 2 -0.002432 0.022525 -0.000109 -0.011696 -0.001323 -0.014789
# 3 -0.003192 -0.000109 0.008177 0.000319 -0.004972 0.000162
# 4 0.001701 -0.011696 0.000319 0.034705 -0.007883 0.002298
# 5 0.001517 -0.001323 -0.004972 -0.007883 0.032577 -0.007402
# 6 -0.003210 -0.014789 0.000162 0.002298 -0.007402 0.046432
#
#
# Mechanical properties :
#
#
# Convention : Reuss Voigt Hill
#
# Bulk Modulus (GPa) = 33.67094 63.28836 48.47965
# Shear Modulus (GPa) = 28.37008 40.80306 34.58657
#
# Velocity S-wave (km/s) = 3.46911 4.16039 3.83038
# Velocity P-wave (km/s) = 5.50724 7.06581 6.33464
#
# Compressibility (1/GPa) = 0.02969920
#
# Stress axis : x y z
#
# Youngs Moduli (GPa) = 95.58915 44.39482 122.29024
#
# Poissons Ratio (x) = 0.10795 0.39029
# Poissons Ratio (y) = 0.23243 0.01336
# Poissons Ratio (z) = 0.30508 0.00485
#
# Static dielectric constant tensor:
#      x y z
#    x 1.986350 0.035980 -0.004880 
#    y 0.035980 2.088110 0.091610 
#    z -0.004880 0.091610 1.938140 
# 
# From -- ./inp_files/260974.got.cif
#   From: 2010.05.17/outbox.cif.g08.bks.cpg/sg2_131_cif.got.tgz:260974.got - 2010.06.03 11:33:40.
