data_PCOD9007623
_publ_section_title
;
Structure prediction by ZEFSAII (Michael W. Deem and Ramdas Pophale) SiO2 
 PCOD9007623
Probable space group: P -1
;
_chemical_formula_sum "Si O2"
_cell_formula_units_Z 12
_cell_length_a 8.351058
_cell_length_b 17.587136
_cell_length_c 5.636094
_cell_angle_alpha 55.831696
_cell_angle_beta 117.373788
_cell_angle_gamma 137.093130
_cell_volume 464.558295
_symmetry_space_group_name_H-M "P -1"
_symmetry_group_IT_number 2
_symmetry_cell_setting 'triclinic'
loop_
_space_group_symop_operation_xyz
x,y,z
-x,-y,-z
loop_
_atom_site_type_symbol
_atom_site_label
_atom_site_fract_x
_atom_site_fract_y
_atom_site_fract_z
Si Si1 0.054714 0.662153 0.326431
Si Si2 0.239323 0.533180 0.208972
Si Si3 0.721078 0.619538 0.809140
Si Si4 0.259721 0.996247 0.585907
Si Si5 0.798208 0.102771 0.777054
Si Si6 0.539673 0.740179 0.683653
O O1 0.076797 0.757967 0.345873
O O2 0.310996 0.701868 0.451709
O O3 0.852524 0.520698 0.496659
O O4 0.972877 0.677215 0.996623
O O5 0.283909 0.443442 0.315689
O O6 0.444494 0.660960 0.002799
O O7 0.000000 0.500000 0.000000
O O8 0.669886 0.709124 0.660852
O O9 0.500000 0.500000 0.000000
O O10 0.517402 0.031276 0.703037
O O11 0.310258 0.121118 0.396919
O O12 0.141702 0.925442 0.382210
O O13 0.154574 0.936048 0.877776
#
# Coordination Sequence:
#
# PCOD9007623 Si02
#       6
#     2   2   2   2   2   2
#     4  10  21  39  62  90 120 168 204 261 320 377
#     4   9  20  38  60  90 118 159 204 257 315 380
#     4  10  22  39  59  89 126 160 206 262 314 387
#     4   9  18  38  58  96 121 170 216 262 314 382
#     4   9  19  35  65  87 129 166 216 263 316 378
#     4   9  20  40  59  91 124 161 211 258 318 379
#
# _framework density 25.830988999999999
#
# number of rings (size 3 to 8) (size 9 to 14) (size 15 to 20)
#    0.000    2.667    0.000    0.000    2.333    8.667 
#   18.000    1.667    0.000    0.000    0.000    0.000 
#    0.000    0.000    0.000    0.000    0.000    0.000 
#
# Total GULP energy -66993.863316 kJ/mol
# GULP energy per Si atom -5582.821943 kJ/mol
# Density = 2.577220 g / cm^3
# Si number density = 25.830989 Si / 1000 Ang^3
#
#
#
# Elastic Constant Matrix: (Units=GPa)
#
#
# Indices 1 2 3 4 5 6 
#
# 1 127.1240 62.9916 70.3942 -14.1412 9.0132 -26.3397
# 2 62.9916 133.7729 71.8607 -0.2655 3.1327 -38.2932
# 3 70.3942 71.8607 142.4444 -5.9501 2.0674 -7.0540
# 4 -14.1412 -0.2655 -5.9501 41.2507 13.4086 6.3130
# 5 9.0132 3.1327 2.0674 13.4086 29.3224 -7.9999
# 6 -26.3397 -38.2932 -7.0540 6.3130 -7.9999 52.5223
#
#
#
# Elastic Compliance Matrix: (Units=1/GPa)
#
#
# Indices 1 2 3 4 5 6 
#
# 1 0.013399 -0.002896 -0.004743 0.005167 -0.005137 0.002567
# 2 -0.002896 0.014532 -0.005683 -0.004651 0.004490 0.009622
# 3 -0.004743 -0.005683 0.012032 0.001080 -0.000679 -0.005139
# 4 0.005167 -0.004651 0.001080 0.033266 -0.018414 -0.007458
# 5 -0.005137 0.004490 -0.000679 -0.018414 0.046368 0.009882
# 6 0.002567 0.009622 -0.005139 -0.007458 0.009882 0.029054
#
#
# Mechanical properties :
#
#
# Convention : Reuss Voigt Hill
#
# Bulk Modulus (GPa) = 75.08283 90.42603 82.75443
# Shear Modulus (GPa) = 27.81900 37.82539 32.82220
#
# Velocity S-wave (km/s) = 3.28527 3.83082 3.56849
# Velocity P-wave (km/s) = 6.59702 7.39255 7.00609
#
# Compressibility (1/GPa) = 0.01331862
#
# Stress axis : x y z
#
# Youngs Moduli (GPa) = 74.63402 68.81449 83.11431
#
# Poissons Ratio (x) = 0.19928 0.39421
# Poissons Ratio (y) = 0.21613 0.47233
# Poissons Ratio (z) = 0.35399 0.39107
#
# Static dielectric constant tensor:
#      x y z
#    x 2.130680 -0.053930 -0.050360 
#    y -0.053930 2.043420 0.028160 
#    z -0.050360 0.028160 2.107020 
# 
# From -- ./inp_files/35219.got.cif
#   From: 2010.05.17/outbox.cif.g08.bks.cpg/sg2_18_cif.got.tgz:35219.got - 2010.06.03 11:33:40.
