data_PCOD9007072
_publ_section_title
;
Structure prediction by ZEFSAII (Michael W. Deem and Ramdas Pophale) SiO2 
 PCOD9007072
Probable space group: P -1
;
_chemical_formula_sum "Si O2"
_cell_formula_units_Z 14
_cell_length_a 15.459680
_cell_length_b 27.769605
_cell_length_c 15.022728
_cell_angle_alpha 160.912497
_cell_angle_beta 160.504496
_cell_angle_gamma 17.987685
_cell_volume 586.729673
_symmetry_space_group_name_H-M "P -1"
_symmetry_group_IT_number 2
_symmetry_cell_setting 'triclinic'
loop_
_space_group_symop_operation_xyz
x,y,z
-x,-y,-z
loop_
_atom_site_type_symbol
_atom_site_label
_atom_site_fract_x
_atom_site_fract_y
_atom_site_fract_z
Si Si1 0.948786 0.462254 0.783020
Si Si2 0.648069 0.398946 0.168361
Si Si3 0.914792 0.279954 0.706678
Si Si4 0.390409 0.851867 0.179083
Si Si5 0.164092 0.098995 0.803357
Si Si6 0.868907 0.200677 0.327511
Si Si7 0.095810 0.499150 0.692904
O O1 0.247391 0.300209 0.739286
O O2 0.753406 0.378920 0.470486
O O3 0.892016 0.631826 0.973720
O O4 0.000000 0.500000 0.000000
O O5 0.395360 0.572064 0.283106
O O6 0.913354 0.429340 0.448753
O O7 0.747039 0.231523 0.033935
O O8 0.456293 0.391452 0.885209
O O9 0.813278 0.237902 0.442230
O O10 0.127226 0.116057 0.690607
O O11 0.285667 0.874730 0.014178
O O12 0.235956 0.049390 0.410184
O O13 0.013425 0.300661 0.040715
O O14 0.000000 0.000000 0.500000
O O15 0.500000 0.000000 0.000000
O O16 0.000000 0.500000 0.500000
#
# Coordination Sequence:
#
# PCOD9007072 Si02
#       7
#     2   2   2   2   2   2   2
#     4   9  19  37  58  87 120 166 213 255 313 387
#     4  10  23  41  67  97 132 172 222 268 328 402
#     4   9  21  40  62  92 120 172 215 263 326 393
#     4  10  22  36  59  93 131 168 211 271 323 389
#     4  11  24  44  66  95 129 166 216 279 330 392
#     4  10  21  39  59  91 132 165 216 266 329 384
#     4  11  24  45  70  98 127 174 224 280 336 397
#
# _framework density 23.861073999999999
#
# number of rings (size 3 to 8) (size 9 to 14) (size 15 to 20)
#    0.000    2.000    0.000    2.571    6.000    7.429 
#   10.286    0.000    0.000    0.000    0.000    0.000 
#    0.000    0.000    0.000    0.000    0.000    0.000 
#
# Total GULP energy -78123.022069 kJ/mol
# GULP energy per Si atom -5580.215862 kJ/mol
# Density = 2.380677 g / cm^3
# Si number density = 23.861074 Si / 1000 Ang^3
#
#
#
# Elastic Constant Matrix: (Units=GPa)
#
#
# Indices 1 2 3 4 5 6 
#
# 1 127.9900 35.2453 52.3262 2.3549 1.5160 33.3655
# 2 35.2453 86.9326 30.5051 2.5074 16.3079 26.9721
# 3 52.3262 30.5051 120.4083 -4.2016 25.9579 14.7531
# 4 2.3549 2.5074 -4.2016 30.0650 8.9398 -1.0405
# 5 1.5160 16.3079 25.9579 8.9398 55.7743 1.9918
# 6 33.3655 26.9721 14.7531 -1.0405 1.9918 50.7679
#
#
#
# Elastic Compliance Matrix: (Units=1/GPa)
#
#
# Indices 1 2 3 4 5 6 
#
# 1 0.011678 -0.001888 -0.004657 -0.002489 0.002997 -0.005487
# 2 -0.001888 0.015469 -0.001601 -0.000574 -0.003406 -0.006390
# 3 -0.004657 -0.001601 0.011996 0.003876 -0.005635 0.000726
# 4 -0.002489 -0.000574 0.003876 0.036327 -0.007457 0.001852
# 5 0.002997 -0.003406 -0.005635 -0.007457 0.022646 0.000436
# 6 -0.005487 -0.006390 0.000726 0.001852 0.000436 0.026508
#
#
# Mechanical properties :
#
#
# Convention : Reuss Voigt Hill
#
# Bulk Modulus (GPa) = 43.76563 63.49823 53.63193
# Shear Modulus (GPa) = 33.66241 41.80504 37.73373
#
# Velocity S-wave (km/s) = 3.76009 4.19025 3.98099
# Velocity P-wave (km/s) = 6.10186 7.07675 6.60731
#
# Compressibility (1/GPa) = 0.02284898
#
# Stress axis : x y z
#
# Youngs Moduli (GPa) = 85.63293 64.64633 83.36294
#
# Poissons Ratio (x) = 0.12208 0.38823
# Poissons Ratio (y) = 0.16171 0.13347
# Poissons Ratio (z) = 0.39880 0.10350
#
# Static dielectric constant tensor:
#      x y z
#    x 1.939030 -0.010470 0.009940 
#    y -0.010470 2.026610 -0.086740 
#    z 0.009940 -0.086740 2.068000 
# 
# From -- ./inp_files/46038.got.cif
#   From: 2010.05.17/outbox.cif.g08.bks.cpg/sg2_24_cif.got.tgz:46038.got - 2010.06.03 11:33:40.
