data_PCOD9007926
_publ_section_title
;
Structure prediction by ZEFSAII (Michael W. Deem and Ramdas Pophale) SiO2 
 PCOD9007926
Probable space group: P -1
;
_chemical_formula_sum "Si O2"
_cell_formula_units_Z 16
_cell_length_a 8.057916
_cell_length_b 5.212077
_cell_length_c 17.489514
_cell_angle_alpha 113.346813
_cell_angle_beta 109.797381
_cell_angle_gamma 84.733320
_cell_volume 633.766558
_symmetry_space_group_name_H-M "P -1"
_symmetry_group_IT_number 2
_symmetry_cell_setting 'triclinic'
loop_
_space_group_symop_operation_xyz
x,y,z
-x,-y,-z
loop_
_atom_site_type_symbol
_atom_site_label
_atom_site_fract_x
_atom_site_fract_y
_atom_site_fract_z
Si Si1 0.636015 0.445104 0.767930
Si Si2 0.666271 0.345949 0.326764
Si Si3 0.467330 0.126265 0.402131
Si Si4 0.943713 0.928079 0.317758
Si Si5 0.218771 0.164853 0.503241
Si Si6 0.217827 0.345019 0.037717
Si Si7 0.975901 0.704016 0.773600
Si Si8 0.172667 0.758200 0.966628
O O1 0.441200 0.565667 0.752768
O O2 0.614453 0.160634 0.681957
O O3 0.709860 0.425667 0.862809
O O4 0.784697 0.650144 0.775569
O O5 0.750004 0.048738 0.301919
O O6 0.800403 0.582898 0.410713
O O7 0.514607 0.332777 0.365658
O O8 0.651667 0.050491 0.462129
O O9 0.334371 0.248630 0.455880
O O10 0.041022 0.042375 0.423017
O O11 0.020204 0.077157 0.269389
O O12 0.967325 0.600349 0.280706
O O13 0.009531 0.269785 0.014611
O O14 0.253174 0.472976 0.974739
O O15 0.290152 0.041645 0.031671
O O16 0.109714 0.779021 0.872158
#
# Coordination Sequence:
#
# PCOD9007926 Si02
#       8
#     2   2   2   2   2   2   2   2
#     4  10  22  38  64  96 123 166 207 260 311 372
#     4  11  25  39  62  90 131 164 212 260 310 369
#     4  10  21  39  63  91 125 161 211 260 312 364
#     4  12  26  41  65  92 127 172 209 257 309 371
#     4  10  22  40  61  92 119 168 210 262 309 366
#     4   9  18  32  61  92 123 151 201 255 313 358
#     4  11  24  42  66  93 128 164 212 255 313 373
#     4   9  18  35  58  93 122 154 197 261 307 361
#
# _framework density 25.245889999999999
#
# number of rings (size 3 to 8) (size 9 to 14) (size 15 to 20)
#    0.000    1.750    1.250    2.250    7.000    2.500 
#    0.000    0.000    0.000    4.500    0.000    0.000 
#    0.000    0.000    0.000    0.000    0.000    0.000 
#
# Total GULP energy -89444.545593 kJ/mol
# GULP energy per Si atom -5590.284100 kJ/mol
# Density = 2.518843 g / cm^3
# Si number density = 25.245890 Si / 1000 Ang^3
#
#
#
# Elastic Constant Matrix: (Units=GPa)
#
#
# Indices 1 2 3 4 5 6 
#
# 1 41.6052 17.1406 14.7539 -6.2779 4.0209 -3.5147
# 2 17.1406 92.1559 26.8896 0.3477 -5.8230 6.6032
# 3 14.7539 26.8896 110.3467 -9.2801 6.2276 5.0907
# 4 -6.2779 0.3477 -9.2801 33.4980 4.2950 -7.4238
# 5 4.0209 -5.8230 6.2276 4.2950 12.0170 -6.0781
# 6 -3.5147 6.6032 5.0907 -7.4238 -6.0781 39.5492
#
#
#
# Elastic Compliance Matrix: (Units=1/GPa)
#
#
# Indices 1 2 3 4 5 6 
#
# 1 0.029816 -0.006322 -0.001174 0.007786 -0.013580 0.003231
# 2 -0.006322 0.013869 -0.003449 -0.004060 0.011339 -0.001453
# 3 -0.001174 -0.003449 0.010956 0.003651 -0.009097 -0.001651
# 4 0.007786 -0.004060 0.003651 0.035614 -0.016652 0.005026
# 5 -0.013580 0.011339 -0.009097 -0.016652 0.109906 0.011836
# 6 0.003231 -0.001453 -0.001651 0.005026 0.011836 0.028790
#
#
# Mechanical properties :
#
#
# Convention : Reuss Voigt Hill
#
# Bulk Modulus (GPa) = 30.53200 40.18621 35.35911
# Shear Modulus (GPa) = 19.10155 29.36776 24.23466
#
# Velocity S-wave (km/s) = 2.75366 3.41437 3.10166
# Velocity P-wave (km/s) = 4.71490 5.61217 5.18299
#
# Compressibility (1/GPa) = 0.03275252
#
# Stress axis : x y z
#
# Youngs Moduli (GPa) = 33.53851 72.10176 91.27125
#
# Poissons Ratio (x) = 0.45584 0.10714
# Poissons Ratio (y) = 0.21204 0.31477
# Poissons Ratio (z) = 0.03937 0.24866
#
# Static dielectric constant tensor:
#      x y z
#    x 2.059860 -0.014060 0.006210 
#    y -0.014060 2.037820 -0.002300 
#    z 0.006210 -0.002300 2.005360 
# 
# From -- ./inp_files/39695.got.cif
#   From: 2010.05.17/outbox.cif.g08.bks.cpg/sg2_20_cif.got.tgz:39695.got - 2010.06.03 11:33:40.
