data_PCOD9007848
_publ_section_title
;
Structure prediction by ZEFSAII (Michael W. Deem and Ramdas Pophale) SiO2 
 PCOD9007848
Probable space group: P -1
;
_chemical_formula_sum "Si O2"
_cell_formula_units_Z 16
_cell_length_a 10.133882
_cell_length_b 16.634032
_cell_length_c 9.718137
_cell_angle_alpha 71.001204
_cell_angle_beta 64.618158
_cell_angle_gamma 36.005357
_cell_volume 869.357908
_symmetry_space_group_name_H-M "P -1"
_symmetry_group_IT_number 2
_symmetry_cell_setting 'triclinic'
loop_
_space_group_symop_operation_xyz
x,y,z
-x,-y,-z
loop_
_atom_site_type_symbol
_atom_site_label
_atom_site_fract_x
_atom_site_fract_y
_atom_site_fract_z
Si Si1 0.879981 0.351119 0.441133
Si Si2 0.258316 0.060803 0.583912
Si Si3 0.733208 0.386727 0.047858
Si Si4 0.495710 0.883987 0.124084
Si Si5 0.222335 0.090768 0.897848
Si Si6 0.430021 0.637101 0.604987
Si Si7 0.728845 0.105402 0.531422
Si Si8 0.016753 0.391523 0.082829
O O1 0.697196 0.487957 0.538312
O O2 0.729689 0.344075 0.440685
O O3 0.982520 0.366847 0.265941
O O4 0.067619 0.214982 0.524914
O O5 0.227311 0.052900 0.763126
O O6 0.500000 0.000000 0.500000
O O7 0.272224 0.971347 0.532951
O O8 0.665340 0.350506 0.214426
O O9 0.814892 0.436132 0.059197
O O10 0.500000 0.500000 0.000000
O O11 0.966307 0.248479 0.943931
O O12 0.577228 0.928702 0.152972
O O13 0.405034 0.858709 0.289049
O O14 0.727873 0.752988 0.007895
O O15 0.287856 0.998144 0.045240
O O16 0.391540 0.754195 0.545150
O O17 0.000000 0.000000 0.500000
O O18 0.000000 0.500000 0.000000
#
# Coordination Sequence:
#
# PCOD9007848 Si02
#       8
#     2   2   2   2   2   2   2   2
#     4  10  21  39  66  88 124 165 207 248 309 370
#     4  12  23  40  63  95 126 160 208 258 308 366
#     4  10  21  40  62  85 125 164 200 248 313 365
#     4  10  21  39  64  87 121 164 204 247 307 369
#     4  10  21  39  63  88 121 164 205 247 307 365
#     4  10  21  40  63  91 122 167 206 249 306 373
#     4  12  23  40  65  94 126 161 211 256 305 372
#     4  10  21  39  63  90 119 160 209 252 299 368
#
# _framework density 18.404387
#
# number of rings (size 3 to 8) (size 9 to 14) (size 15 to 20)
#    0.000    1.500    2.500    3.000    3.500    0.000 
#    6.750    1.875    0.000    0.000    0.000    0.000 
#    0.000    0.000    0.000    0.000    0.000    0.000 
#
# Total GULP energy -89260.250160 kJ/mol
# GULP energy per Si atom -5578.765635 kJ/mol
# Density = 1.836250 g / cm^3
# Si number density = 18.404387 Si / 1000 Ang^3
#
#
#
# Elastic Constant Matrix: (Units=GPa)
#
#
# Indices 1 2 3 4 5 6 
#
# 1 84.3445 54.5382 45.4672 -12.1038 -4.5702 2.5531
# 2 54.5382 115.2435 25.9232 -16.4874 1.7999 1.2446
# 3 45.4672 25.9232 92.2428 -5.0375 -9.8567 7.6469
# 4 -12.1038 -16.4874 -5.0375 30.2474 -0.0020 -1.7971
# 5 -4.5702 1.7999 -9.8567 -0.0020 27.1435 -7.0337
# 6 2.5531 1.2446 7.6469 -1.7971 -7.0337 38.6536
#
#
#
# Elastic Compliance Matrix: (Units=1/GPa)
#
#
# Indices 1 2 3 4 5 6 
#
# 1 0.022160 -0.008200 -0.008367 0.003056 0.001460 0.000863
# 2 -0.008200 0.013068 0.000365 0.003893 -0.002157 -0.000163
# 3 -0.008367 0.000365 0.015371 -0.000700 0.003665 -0.001865
# 4 0.003056 0.003893 -0.000700 0.036383 0.000414 0.001578
# 5 0.001460 -0.002157 0.003665 0.000414 0.040270 0.006595
# 6 0.000863 -0.000163 -0.001865 0.001578 0.006595 0.027462
#
#
# Mechanical properties :
#
#
# Convention : Reuss Voigt Hill
#
# Bulk Modulus (GPa) = 54.96110 60.40979 57.68544
# Shear Modulus (GPa) = 25.88218 30.26906 28.07562
#
# Velocity S-wave (km/s) = 3.75414 4.05985 3.90998
# Velocity P-wave (km/s) = 6.97992 7.40752 7.19690
#
# Compressibility (1/GPa) = 0.01819469
#
# Stress axis : x y z
#
# Youngs Moduli (GPa) = 45.12556 76.52163 65.05878
#
# Poissons Ratio (x) = 0.62748 0.54436
# Poissons Ratio (y) = 0.37003 -0.02374
# Poissons Ratio (z) = 0.37757 -0.02793
#
# Static dielectric constant tensor:
#      x y z
#    x 1.621720 0.005980 0.021670 
#    y 0.005980 1.609110 -0.014710 
#    z 0.021670 -0.014710 1.667130 
# 
# From -- ./inp_files/206821.got.cif
#   From: 2010.05.17/outbox.cif.g08.bks.cpg/sg2_104_cif.got.tgz:206821.got - 2010.06.03 11:33:40.
