data_PCOD9007564
_publ_section_title
;
Structure prediction by ZEFSAII (Michael W. Deem and Ramdas Pophale) SiO2 
 PCOD9007564
Probable space group: P -1
;
_chemical_formula_sum "Si O2"
_cell_formula_units_Z 15
_cell_length_a 21.383430
_cell_length_b 5.012921
_cell_length_c 6.934274
_cell_angle_alpha 89.296464
_cell_angle_beta 50.069789
_cell_angle_gamma 82.927410
_cell_volume 563.471730
_symmetry_space_group_name_H-M "P -1"
_symmetry_group_IT_number 2
_symmetry_cell_setting 'triclinic'
loop_
_space_group_symop_operation_xyz
x,y,z
-x,-y,-z
loop_
_atom_site_type_symbol
_atom_site_label
_atom_site_fract_x
_atom_site_fract_y
_atom_site_fract_z
Si Si1 0.200496 0.341751 0.277295
Si Si2 0.552685 0.784662 0.609786
Si Si3 0.596128 0.276037 0.277773
Si Si4 0.000000 0.500000 0.500000
Si Si5 0.242347 0.972865 0.881103
Si Si6 0.092951 0.878240 0.569038
Si Si7 0.877419 0.330107 0.068828
Si Si8 0.291041 0.275980 0.461766
O O1 0.171224 0.652122 0.367745
O O2 0.276458 0.246783 0.267032
O O3 0.226751 0.261567 0.011981
O O4 0.122114 0.173074 0.472247
O O5 0.577910 0.580064 0.384559
O O6 0.454942 0.769691 0.814009
O O7 0.618351 0.679402 0.647391
O O8 0.564975 0.077066 0.503190
O O9 0.693515 0.198052 0.103103
O O10 0.028123 0.764500 0.560224
O O11 0.058403 0.548625 0.193732
O O12 0.158148 0.877819 0.998734
O O13 0.281866 0.001825 0.594427
O O14 0.081725 0.820536 0.819624
O O15 0.794027 0.526013 0.308453
#
# Coordination Sequence:
#
# PCOD9007564 Si02
#       8
#     2   2   2   1   2   2   2   2
#     4  11  24  40  65  92 122 155 211 241 303 355
#     4   9  17  32  55  86 120 157 198 243 294 347
#     4   9  18  30  55  89 118 156 201 242 292 352
#     4  12  24  44  66  90 128 150 206 252 312 354
#     4  11  20  37  63  88 122 163 202 250 296 358
#     4  11  25  45  62  91 119 162 197 254 299 372
#     4  11  22  41  63  90 119 161 205 245 307 359
#     4  10  21  39  62  88 122 165 200 251 294 368
#
# _framework density 26.620678999999999
#
# number of rings (size 3 to 8) (size 9 to 14) (size 15 to 20)
#    0.000    1.600    4.000    1.200    0.000    0.533 
#    2.400    2.667    0.000    0.000    0.000   12.133 
#    0.000    0.000    0.000    0.000    0.000    0.000 
#
# Total GULP energy -83521.714417 kJ/mol
# GULP energy per Si atom -5568.114294 kJ/mol
# Density = 2.656009 g / cm^3
# Si number density = 26.620679 Si / 1000 Ang^3
#
#
#
# Elastic Constant Matrix: (Units=GPa)
#
#
# Indices 1 2 3 4 5 6 
#
# 1 166.6673 13.4125 34.9584 -4.2980 -7.9038 17.7657
# 2 13.4125 74.5841 29.4928 5.9312 -7.3425 3.8380
# 3 34.9584 29.4928 45.2988 -5.3236 9.4024 -5.7380
# 4 -4.2980 5.9312 -5.3236 33.6006 -5.0841 -11.5096
# 5 -7.9038 -7.3425 9.4024 -5.0841 41.5006 -1.0197
# 6 17.7657 3.8380 -5.7380 -11.5096 -1.0197 34.1743
#
#
#
# Elastic Compliance Matrix: (Units=1/GPa)
#
#
# Indices 1 2 3 4 5 6 
#
# 1 0.009364 0.004597 -0.012774 -0.003890 0.004800 -0.008696
# 2 0.004597 0.024529 -0.024219 -0.010470 0.009113 -0.012465
# 3 -0.012774 -0.024219 0.056268 0.017286 -0.016755 0.024130
# 4 -0.003890 -0.010470 0.017286 0.040432 -0.001073 0.019686
# 5 0.004800 0.009113 -0.016755 -0.001073 0.030145 -0.005794
# 6 -0.008696 -0.012465 0.024130 0.019686 -0.005794 0.045691
#
#
# Mechanical properties :
#
#
# Convention : Reuss Voigt Hill
#
# Bulk Modulus (GPa) = 39.41891 49.14197 44.28044
# Shear Modulus (GPa) = 17.87786 35.76754 26.82270
#
# Velocity S-wave (km/s) = 2.59429 3.66949 3.17770
# Velocity P-wave (km/s) = 4.87992 6.03769 5.48941
#
# Compressibility (1/GPa) = 0.02536853
#
# Stress axis : x y z
#
# Youngs Moduli (GPa) = 106.79602 40.76805 17.77221
#
# Poissons Ratio (x) = -0.18740 0.22702
# Poissons Ratio (y) = -0.49092 0.43042
# Poissons Ratio (z) = 1.36422 0.98734
#
# Static dielectric constant tensor:
#      x y z
#    x 2.229660 -0.055610 -0.123410 
#    y -0.055610 2.187920 -0.000310 
#    z -0.123410 -0.000310 2.107240 
# 
# From -- ./inp_files/339838.got.cif
#   From: 2010.05.17/outbox.cif.g08.bks.cpg/sg2_170_cif.got.tgz:339838.got - 2010.06.03 11:33:40.
