data_PCOD9007165
_publ_section_title
;
Structure prediction by ZEFSAII (Michael W. Deem and Ramdas Pophale) SiO2 
 PCOD9007165
Probable space group: P -1
;
_chemical_formula_sum "Si O2"
_cell_formula_units_Z 14
_cell_length_a 13.098316
_cell_length_b 21.631871
_cell_length_c 8.209734
_cell_angle_alpha 139.797253
_cell_angle_beta 57.407087
_cell_angle_gamma 153.016567
_cell_volume 595.918493
_symmetry_space_group_name_H-M "P -1"
_symmetry_group_IT_number 2
_symmetry_cell_setting 'triclinic'
loop_
_space_group_symop_operation_xyz
x,y,z
-x,-y,-z
loop_
_atom_site_type_symbol
_atom_site_label
_atom_site_fract_x
_atom_site_fract_y
_atom_site_fract_z
Si Si1 0.834350 0.981112 0.613753
Si Si2 0.058569 0.755252 0.103836
Si Si3 0.988413 0.856594 0.650905
Si Si4 0.365655 0.221769 0.291081
Si Si5 0.594165 0.087789 0.409847
Si Si6 0.677538 0.366417 0.837325
Si Si7 0.138457 0.384281 0.507377
O O1 0.694331 0.881062 0.705975
O O2 0.614908 0.819509 0.339556
O O3 0.974518 0.181176 0.868771
O O4 0.000000 0.000000 0.500000
O O5 0.063144 0.821756 0.400444
O O6 0.338958 0.902988 0.146687
O O7 0.850511 0.529067 0.867621
O O8 0.799657 0.795613 0.595364
O O9 0.837258 0.707606 0.635857
O O10 0.237950 0.081702 0.962239
O O11 0.663857 0.451405 0.472491
O O12 0.696093 0.267213 0.660809
O O13 0.836117 0.192694 0.361297
O O14 0.500000 0.000000 0.500000
O O15 0.766812 0.484068 0.157968
#
# Coordination Sequence:
#
# PCOD9007165 Si02
#       7
#     2   2   2   2   2   2   2
#     4  11  23  40  60  86 124 166 200 238 299 362
#     4  10  21  41  61  93 119 157 206 248 291 357
#     4  10  21  39  60  88 122 156 201 252 293 353
#     4  11  23  38  59  86 128 159 195 247 302 353
#     4  11  20  36  66  94 118 151 203 255 298 347
#     4  10  23  38  63  93 121 152 207 250 293 360
#     4  11  23  37  63  94 120 153 200 254 303 345
#
# _framework density 23.493145999999999
#
# number of rings (size 3 to 8) (size 9 to 14) (size 15 to 20)
#    0.000    1.429    4.286    2.571    2.000    1.714 
#    0.000    2.857    0.000    5.143    0.000    0.000 
#    0.000    0.000    0.000    0.000    0.000    0.000 
#
# Total GULP energy -78249.411184 kJ/mol
# GULP energy per Si atom -5589.243656 kJ/mol
# Density = 2.343967 g / cm^3
# Si number density = 23.493146 Si / 1000 Ang^3
#
#
#
# Elastic Constant Matrix: (Units=GPa)
#
#
# Indices 1 2 3 4 5 6 
#
# 1 137.5117 56.0228 24.8397 16.8674 -23.1260 -21.7164
# 2 56.0228 134.4508 30.9464 34.4219 -7.5445 -27.8683
# 3 24.8397 30.9464 58.5979 21.4640 -9.4241 6.0272
# 4 16.8674 34.4219 21.4640 34.2717 -17.3163 -9.0579
# 5 -23.1260 -7.5445 -9.4241 -17.3163 26.1384 15.5353
# 6 -21.7164 -27.8683 6.0272 -9.0579 15.5353 48.8091
#
#
#
# Elastic Compliance Matrix: (Units=1/GPa)
#
#
# Indices 1 2 3 4 5 6 
#
# 1 0.011073 -0.005438 -0.002658 0.008066 0.012882 -0.000454
# 2 -0.005438 0.016395 -0.003721 -0.018861 -0.020022 0.010273
# 3 -0.002658 -0.003721 0.026241 -0.011990 0.004078 -0.010071
# 4 0.008066 -0.018861 -0.011990 0.076110 0.052766 -0.008370
# 5 0.012882 -0.020022 0.004078 0.052766 0.096408 -0.027097
# 6 -0.000454 0.010273 -0.010071 -0.008370 -0.027097 0.034467
#
#
# Mechanical properties :
#
#
# Convention : Reuss Voigt Hill
#
# Bulk Modulus (GPa) = 33.25151 61.57535 47.41343
# Shear Modulus (GPa) = 16.98633 36.42726 26.70680
#
# Velocity S-wave (km/s) = 2.69185 3.94197 3.37529
# Velocity P-wave (km/s) = 4.88322 6.85461 5.95111
#
# Compressibility (1/GPa) = 0.03007382
#
# Stress axis : x y z
#
# Youngs Moduli (GPa) = 90.30701 60.99470 38.10852
#
# Poissons Ratio (x) = 0.33172 0.10129
# Poissons Ratio (y) = 0.49113 0.14181
# Poissons Ratio (z) = 0.24003 0.22697
#
# Static dielectric constant tensor:
#      x y z
#    x 1.928850 -0.055490 0.013320 
#    y -0.055490 1.945410 -0.007890 
#    z 0.013320 -0.007890 1.886930 
# 
# From -- ./inp_files/279045.got.cif
#   From: 2010.05.17/outbox.cif.g08.bks.cpg/sg2_140_cif.got.tgz:279045.got - 2010.06.03 11:33:40.
