data_PCOD9007884
_publ_section_title
;
Structure prediction by ZEFSAII (Michael W. Deem and Ramdas Pophale) SiO2 
 PCOD9007884
Probable space group: P -1
;
_chemical_formula_sum "Si O2"
_cell_formula_units_Z 15
_cell_length_a 6.138751
_cell_length_b 18.978488
_cell_length_c 7.706813
_cell_angle_alpha 121.796664
_cell_angle_beta 123.230202
_cell_angle_gamma 68.942897
_cell_volume 635.185291
_symmetry_space_group_name_H-M "P -1"
_symmetry_group_IT_number 2
_symmetry_cell_setting 'triclinic'
loop_
_space_group_symop_operation_xyz
x,y,z
-x,-y,-z
loop_
_atom_site_type_symbol
_atom_site_label
_atom_site_fract_x
_atom_site_fract_y
_atom_site_fract_z
Si Si1 0.099747 0.362856 0.790674
Si Si2 0.112245 0.802788 0.485392
Si Si3 0.591073 0.905847 0.459865
Si Si4 0.581014 0.902561 0.866008
Si Si5 0.882985 0.194391 0.912277
Si Si6 0.906026 0.469867 0.161626
Si Si7 0.500000 0.500000 0.500000
Si Si8 0.661420 0.355067 0.177009
O O1 0.179431 0.432702 0.781743
O O2 0.983967 0.278824 0.575427
O O3 0.373577 0.332833 0.967879
O O4 0.909284 0.417733 0.914829
O O5 0.354914 0.842200 0.729463
O O6 0.156992 0.779155 0.272043
O O7 0.874053 0.874966 0.471963
O O8 0.607860 0.896257 0.661852
O O9 0.367677 0.853807 0.218569
O O10 0.500000 0.000000 0.500000
O O11 0.851988 0.865228 0.021517
O O12 0.500000 0.000000 0.000000
O O13 0.867618 0.277016 0.128689
O O14 0.734666 0.429062 0.175805
O O15 0.209499 0.465998 0.338945
O O16 0.635008 0.403200 0.408231
#
# Coordination Sequence:
#
# PCOD9007884 Si02
#       8
#     2   2   2   2   2   2   1   2
#     4  10  21  39  64  92 122 178 230 271 342 398
#     4  11  23  44  68  99 137 178 233 284 338 418
#     4  11  24  44  71  99 137 177 224 284 349 419
#     4  11  26  45  68 106 137 180 228 281 357 417
#     4  11  24  43  70  99 137 183 227 289 341 415
#     4  10  21  39  63  89 132 171 221 283 332 404
#     4  10  24  38  58  96 126 174 226 278 348 398
#     4  11  21  42  64  92 134 178 232 279 347 396
#
# _framework density 23.615158999999998
#
# number of rings (size 3 to 8) (size 9 to 14) (size 15 to 20)
#    0.000    1.333    2.667    2.400    0.000    7.467 
#    0.000    0.000    0.000    0.000    0.000    0.000 
#    0.000    0.000    0.000    0.000    0.000    0.000 
#
# Total GULP energy -83639.545929 kJ/mol
# GULP energy per Si atom -5575.969729 kJ/mol
# Density = 2.356141 g / cm^3
# Si number density = 23.615159 Si / 1000 Ang^3
#
#
#
# Elastic Constant Matrix: (Units=GPa)
#
#
# Indices 1 2 3 4 5 6 
#
# 1 24.1539 -8.1969 16.5121 -5.1288 10.5911 -13.6936
# 2 -8.1969 93.4939 17.5421 20.3324 -8.3035 -13.4640
# 3 16.5121 17.5421 97.6774 13.7709 2.2181 0.0684
# 4 -5.1288 20.3324 13.7709 41.1962 -7.3578 -2.7125
# 5 10.5911 -8.3035 2.2181 -7.3578 38.5585 5.5725
# 6 -13.6936 -13.4640 0.0684 -2.7125 5.5725 40.2058
#
#
#
# Elastic Compliance Matrix: (Units=1/GPa)
#
#
# Indices 1 2 3 4 5 6 
#
# 1 0.097400 0.013785 -0.019758 0.009909 -0.026858 0.042214
# 2 0.013785 0.014754 -0.004379 -0.003910 -0.002509 0.009727
# 3 -0.019758 -0.004379 0.015016 -0.005214 0.003943 -0.009119
# 4 0.009909 -0.003910 -0.005214 0.029765 0.001863 0.003824
# 5 -0.026858 -0.002509 0.003943 0.001863 0.035028 -0.014724
# 6 0.042214 0.009727 -0.009119 0.003824 -0.014724 0.044821
#
#
# Mechanical properties :
#
#
# Convention : Reuss Voigt Hill
#
# Bulk Modulus (GPa) = 9.39248 29.67107 19.53178
# Shear Modulus (GPa) = 17.06622 36.62328 26.84475
#
# Velocity S-wave (km/s) = 2.69119 3.94234 3.37524
# Velocity P-wave (km/s) = 3.69359 5.77186 4.84546
#
# Compressibility (1/GPa) = 0.10646815
#
# Stress axis : x y z
#
# Youngs Moduli (GPa) = 10.26696 67.77683 66.59512
#
# Poissons Ratio (x) = -0.93432 1.31576
# Poissons Ratio (y) = -0.14153 0.29160
# Poissons Ratio (z) = 0.20285 0.29678
#
# Static dielectric constant tensor:
#      x y z
#    x 1.935730 0.023600 -0.063740 
#    y 0.023600 1.915400 -0.046520 
#    z -0.063740 -0.046520 1.971350 
# 
# From -- ./inp_files/141648.got.cif
#   From: 2010.05.17/outbox.cif.g08.bks.cpg/sg2_71_cif.got.tgz:141648.got - 2010.06.03 11:33:40.
