data_PCOD9007110
_publ_section_title
;
Structure prediction by ZEFSAII (Michael W. Deem and Ramdas Pophale) SiO2 
 PCOD9007110
Probable space group: P -1
;
_chemical_formula_sum "Si O2"
_cell_formula_units_Z 12
_cell_length_a 13.133667
_cell_length_b 9.885458
_cell_length_c 5.209530
_cell_angle_alpha 48.726671
_cell_angle_beta 82.804563
_cell_angle_gamma 77.337451
_cell_volume 495.800355
_symmetry_space_group_name_H-M "P -1"
_symmetry_group_IT_number 2
_symmetry_cell_setting 'triclinic'
loop_
_space_group_symop_operation_xyz
x,y,z
-x,-y,-z
loop_
_atom_site_type_symbol
_atom_site_label
_atom_site_fract_x
_atom_site_fract_y
_atom_site_fract_z
Si Si1 0.854049 0.053911 0.513300
Si Si2 0.362411 0.724477 0.668353
Si Si3 0.568175 0.600969 0.543634
Si Si4 0.247921 0.465708 0.732525
Si Si5 0.908140 0.666502 0.738875
Si Si6 0.072622 0.754974 0.242359
O O1 0.728327 0.106615 0.446842
O O2 0.891878 0.125740 0.681773
O O3 0.891772 0.841761 0.710934
O O4 0.903143 0.160096 0.139061
O O5 0.478845 0.749300 0.523822
O O6 0.306106 0.632640 0.573003
O O7 0.382766 0.560401 0.074894
O O8 0.500000 0.500000 0.500000
O O9 0.662523 0.668467 0.281022
O O10 0.148536 0.557032 0.483025
O O11 0.200406 0.400686 0.090547
O O12 0.955401 0.733075 0.379415
O O13 0.000000 0.500000 0.000000
#
# Coordination Sequence:
#
# PCOD9007110 Si02
#       6
#     2   2   2   2   2   2
#     4  11  21  40  60  86 116 156 197 236 277 346
#     4   9  18  32  59  85 108 153 193 234 282 347
#     4   9  16  32  58  83 111 144 195 234 286 342
#     4   9  18  36  54  87 118 149 189 242 286 336
#     4  10  22  39  57  86 119 153 191 239 292 334
#     4  10  21  39  60  84 115 159 197 232 278 344
#
# _framework density 24.203292000000001
#
# number of rings (size 3 to 8) (size 9 to 14) (size 15 to 20)
#    0.000    2.333    1.667    1.000    0.000    0.000 
#    6.000    6.667    0.000    9.000    0.000    0.000 
#    0.000    0.000    0.000    0.000    0.000    0.000 
#
# Total GULP energy -66947.905936 kJ/mol
# GULP energy per Si atom -5578.992161 kJ/mol
# Density = 2.414820 g / cm^3
# Si number density = 24.203292 Si / 1000 Ang^3
#
#
#
# Elastic Constant Matrix: (Units=GPa)
#
#
# Indices 1 2 3 4 5 6 
#
# 1 102.3172 67.5182 34.2919 7.6472 -18.8725 -50.4946
# 2 67.5182 124.7124 45.3906 2.5528 -7.4342 -39.8432
# 3 34.2919 45.3906 86.5520 19.4524 -11.6333 -23.0346
# 4 7.6472 2.5528 19.4524 37.0317 -12.4843 -9.6610
# 5 -18.8725 -7.4342 -11.6333 -12.4843 39.6945 19.4983
# 6 -50.4946 -39.8432 -23.0346 -9.6610 19.4983 55.5165
#
#
#
# Elastic Compliance Matrix: (Units=1/GPa)
#
#
# Indices 1 2 3 4 5 6 
#
# 1 0.021908 -0.006836 -0.001335 0.001025 0.002264 0.013849
# 2 -0.006836 0.014450 -0.004966 0.003013 -0.002824 0.003608
# 3 -0.001335 -0.004966 0.016670 -0.007790 0.000588 0.000577
# 4 0.001025 0.003013 -0.007790 0.034168 0.008050 0.002981
# 5 0.002264 -0.002824 0.000588 0.008050 0.033379 -0.010046
# 6 0.013849 0.003608 0.000577 0.002981 -0.010046 0.037485
#
#
# Mechanical properties :
#
#
# Convention : Reuss Voigt Hill
#
# Bulk Modulus (GPa) = 37.37852 67.55367 52.46610
# Shear Modulus (GPa) = 25.87297 37.54060 31.70679
#
# Velocity S-wave (km/s) = 3.27308 3.94261 3.62335
# Velocity P-wave (km/s) = 5.45538 6.97833 6.26332
#
# Compressibility (1/GPa) = 0.02675333
#
# Stress axis : x y z
#
# Youngs Moduli (GPa) = 45.64573 69.20566 59.98740
#
# Poissons Ratio (x) = 0.47311 0.08008
# Poissons Ratio (y) = 0.31205 0.29789
# Poissons Ratio (z) = 0.06093 0.34367
#
# Static dielectric constant tensor:
#      x y z
#    x 2.025980 -0.036100 -0.015550 
#    y -0.036100 2.061590 0.054490 
#    z -0.015550 0.054490 1.967490 
# 
# From -- ./inp_files/31433.got.cif
#   From: 2010.05.17/outbox.cif.g08.bks.cpg/sg2_16_cif.got.tgz:31433.got - 2010.06.03 11:33:40.
