data_PCOD9007195
_publ_section_title
;
Structure prediction by ZEFSAII (Michael W. Deem and Ramdas Pophale) SiO2 
 PCOD9007195
Probable space group: P -1
;
_chemical_formula_sum "Si O2"
_cell_formula_units_Z 16
_cell_length_a 8.821698
_cell_length_b 13.432212
_cell_length_c 18.493173
_cell_angle_alpha 151.999220
_cell_angle_beta 131.373021
_cell_angle_gamma 49.950021
_cell_volume 760.807320
_symmetry_space_group_name_H-M "P -1"
_symmetry_group_IT_number 2
_symmetry_cell_setting 'triclinic'
loop_
_space_group_symop_operation_xyz
x,y,z
-x,-y,-z
loop_
_atom_site_type_symbol
_atom_site_label
_atom_site_fract_x
_atom_site_fract_y
_atom_site_fract_z
Si Si1 0.290403 0.037177 0.002737
Si Si2 0.576305 0.363246 0.006714
Si Si3 0.792559 0.963226 0.871830
Si Si4 0.433787 0.360269 0.454315
Si Si5 0.984000 0.499601 0.214704
Si Si6 0.876107 0.659442 0.120142
Si Si7 0.155161 0.664003 0.635189
Si Si8 0.151896 0.850607 0.589788
O O1 0.159684 0.861319 0.817782
O O2 0.151377 0.277406 0.116642
O O3 0.500000 0.000000 0.000000
O O4 0.356123 0.988237 0.074657
O O5 0.770352 0.461868 0.160798
O O6 0.500000 0.500000 0.000000
O O7 0.702079 0.121696 0.880961
O O8 0.365698 0.350193 0.972602
O O9 0.771150 0.726895 0.689095
O O10 0.000000 0.000000 0.000000
O O11 0.500000 0.500000 0.500000
O O12 0.378590 0.508366 0.601212
O O13 0.622401 0.168011 0.388497
O O14 0.058121 0.683934 0.403342
O O15 0.933611 0.583250 0.171218
O O16 0.929836 0.896748 0.277632
O O17 0.000000 0.500000 0.000000
O O18 0.136834 0.769481 0.616147
O O19 0.000000 0.500000 0.500000
#
# Coordination Sequence:
#
# PCOD9007195 Si02
#       8
#     2   2   2   2   2   2   2   2
#     4  12  24  38  63 101 132 163 215 275 327 374
#     4  10  24  44  66  94 129 175 220 263 327 399
#     4  12  22  39  69  93 127 174 222 264 320 399
#     4  10  21  39  60  89 127 172 209 259 324 388
#     4  11  24  43  69  97 128 177 224 261 324 408
#     4  11  24  45  71  96 128 169 221 280 330 381
#     4  11  24  37  57  93 136 168 205 271 330 370
#     4  11  22  44  65  92 130 175 220 261 325 403
#
# _framework density 21.030290000000001
#
# number of rings (size 3 to 8) (size 9 to 14) (size 15 to 20)
#    0.000    1.000    2.500    5.625    3.500    0.000 
#    0.000    0.625    0.000    0.000    0.000    0.000 
#    0.000    0.000    0.000    0.000    0.000    0.000 
#
# Total GULP energy -89102.219956 kJ/mol
# GULP energy per Si atom -5568.888747 kJ/mol
# Density = 2.098242 g / cm^3
# Si number density = 21.030290 Si / 1000 Ang^3
#
#
#
# Elastic Constant Matrix: (Units=GPa)
#
#
# Indices 1 2 3 4 5 6 
#
# 1 86.3267 27.0921 54.2937 1.5350 3.7271 -12.8023
# 2 27.0921 101.2401 51.1925 17.0299 0.3768 -2.7792
# 3 54.2937 51.1925 188.5075 4.0174 1.7371 -12.8659
# 4 1.5350 17.0299 4.0174 37.9305 -1.5957 3.9622
# 5 3.7271 0.3768 1.7371 -1.5957 47.1882 -4.4678
# 6 -12.8023 -2.7792 -12.8659 3.9622 -4.4678 34.1211
#
#
#
# Elastic Compliance Matrix: (Units=1/GPa)
#
#
# Indices 1 2 3 4 5 6 
#
# 1 0.015084 -0.002222 -0.003465 0.000303 -0.000652 0.004051
# 2 -0.002222 0.012736 -0.002719 -0.005320 -0.000026 -0.000207
# 3 -0.003465 -0.002719 0.007106 0.000498 0.000157 0.001120
# 4 0.000303 -0.005320 0.000498 0.029073 0.000659 -0.003421
# 5 -0.000652 -0.000026 0.000157 0.000659 0.021502 0.002551
# 6 0.004051 -0.000207 0.001120 -0.003421 0.002551 0.031964
#
#
# Mechanical properties :
#
#
# Convention : Reuss Voigt Hill
#
# Bulk Modulus (GPa) = 55.20690 71.24785 63.22738
# Shear Modulus (GPa) = 35.63407 40.08103 37.85755
#
# Velocity S-wave (km/s) = 4.12079 4.37036 4.24741
# Velocity P-wave (km/s) = 6.99638 7.70837 7.36099
#
# Compressibility (1/GPa) = 0.01811368
#
# Stress axis : x y z
#
# Youngs Moduli (GPa) = 66.29512 78.51498 140.73126
#
# Poissons Ratio (x) = 0.17445 0.48764
# Poissons Ratio (y) = 0.14730 0.38271
# Poissons Ratio (z) = 0.22972 0.21351
#
# Static dielectric constant tensor:
#      x y z
#    x 1.866650 -0.059780 0.062030 
#    y -0.059780 1.850410 0.035660 
#    z 0.062030 0.035660 1.821610 
# 
# From -- ./inp_files/590567.got.cif
#   From: 2010.05.17/outbox.cif.g08.bks.cpg/sg2_296_cif.got.tgz:590567.got - 2010.06.03 11:33:40.
