data_PCOD9007659
_publ_section_title
;
Structure prediction by ZEFSAII (Michael W. Deem and Ramdas Pophale) SiO2 
 PCOD9007659
Probable space group: P -1
;
_chemical_formula_sum "Si O2"
_cell_formula_units_Z 14
_cell_length_a 8.991906
_cell_length_b 12.186556
_cell_length_c 15.280716
_cell_angle_alpha 44.241945
_cell_angle_beta 33.270412
_cell_angle_gamma 38.490600
_cell_volume 562.222722
_symmetry_space_group_name_H-M "P -1"
_symmetry_group_IT_number 2
_symmetry_cell_setting 'triclinic'
loop_
_space_group_symop_operation_xyz
x,y,z
-x,-y,-z
loop_
_atom_site_type_symbol
_atom_site_label
_atom_site_fract_x
_atom_site_fract_y
_atom_site_fract_z
Si Si1 0.016795 0.531832 0.662707
Si Si2 0.417772 0.902980 0.792952
Si Si3 0.351610 0.683156 0.316457
Si Si4 0.820771 0.746210 0.406218
Si Si5 0.807848 0.973464 0.691699
Si Si6 0.187643 0.652647 0.017744
Si Si7 0.730089 0.342587 0.231149
O O1 0.723937 0.727215 0.706314
O O2 0.055365 0.410487 0.796890
O O3 0.302325 0.561677 0.482497
O O4 0.989825 0.413097 0.665235
O O5 0.535013 0.949294 0.797068
O O6 0.322797 0.066093 0.680428
O O7 0.167474 0.833981 0.961575
O O8 0.628002 0.543111 0.200835
O O9 0.047726 0.745550 0.368966
O O10 0.325355 0.856977 0.275474
O O11 0.551894 0.705092 0.594891
O O12 0.018106 0.800678 0.745609
O O13 0.000000 0.000000 0.500000
O O14 0.192777 0.666336 0.903682
O O15 0.500000 0.500000 0.000000
#
# Coordination Sequence:
#
# PCOD9007659 Si02
#       7
#     2   2   2   2   2   2   2
#     4  10  21  39  62  91 124 160 201 253 312 362
#     4  11  22  39  61  92 126 160 204 253 307 364
#     4  11  22  38  66  97 121 153 212 261 308 359
#     4  11  21  37  67  97 117 154 215 267 302 347
#     4  12  24  40  62  94 129 165 202 254 314 364
#     4  10  21  40  66  89 124 164 204 253 309 363
#     4  11  23  40  65  94 124 160 208 261 303 359
#
# _framework density 24.901164000000001
#
# number of rings (size 3 to 8) (size 9 to 14) (size 15 to 20)
#    0.000    1.143    2.857    6.000    0.000    4.000 
#    0.000    5.714    0.000   10.286    0.000    0.000 
#    0.000    0.000    0.000    0.000    0.000    0.000 
#
# Total GULP energy -78452.164647 kJ/mol
# GULP energy per Si atom -5603.726046 kJ/mol
# Density = 2.484449 g / cm^3
# Si number density = 24.901164 Si / 1000 Ang^3
#
#
#
# Elastic Constant Matrix: (Units=GPa)
#
#
# Indices 1 2 3 4 5 6 
#
# 1 209.6099 95.2102 57.8719 -15.9225 -6.0843 -7.4006
# 2 95.2102 153.4942 40.1040 -31.4845 -17.3651 20.7404
# 3 57.8719 40.1040 68.0560 -13.0721 4.5965 4.5418
# 4 -15.9225 -31.4845 -13.0721 31.6120 -3.9013 -12.4385
# 5 -6.0843 -17.3651 4.5965 -3.9013 35.4443 -17.9660
# 6 -7.4006 20.7404 4.5418 -12.4385 -17.9660 45.8902
#
#
#
# Elastic Compliance Matrix: (Units=1/GPa)
#
#
# Indices 1 2 3 4 5 6 
#
# 1 0.008308 -0.004172 -0.005068 0.000084 0.002432 0.004702
# 2 -0.004172 0.012588 -0.002338 0.009871 0.006349 -0.000969
# 3 -0.005068 -0.002338 0.021401 0.001537 -0.006690 -0.004082
# 4 0.000084 0.009871 0.001537 0.050929 0.018617 0.016493
# 5 0.002432 0.006349 -0.006690 0.018617 0.045281 0.020958
# 6 0.004702 -0.000969 -0.004082 0.016493 0.020958 0.036067
#
#
# Mechanical properties :
#
#
# Convention : Reuss Voigt Hill
#
# Bulk Modulus (GPa) = 52.24745 90.83692 71.54219
# Shear Modulus (GPa) = 24.49649 38.45423 31.47536
#
# Velocity S-wave (km/s) = 3.13988 3.93399 3.55915
# Velocity P-wave (km/s) = 5.84573 7.56262 6.75891
#
# Compressibility (1/GPa) = 0.01913969
#
# Stress axis : x y z
#
# Youngs Moduli (GPa) = 120.36316 79.44265 46.72752
#
# Poissons Ratio (x) = 0.33146 0.23683
# Poissons Ratio (y) = 0.50219 0.10924
# Poissons Ratio (z) = 0.61003 0.18573
#
# Static dielectric constant tensor:
#      x y z
#    x 1.964570 0.008240 0.003670 
#    y 0.008240 1.967960 0.054770 
#    z 0.003670 0.054770 2.056510 
# 
# From -- ./inp_files/314577.got.cif
#   From: 2010.05.17/outbox.cif.g08.bks.cpg/sg2_158_cif.got.tgz:314577.got - 2010.06.03 11:33:40.
