data_PCOD9007775
_publ_section_title
;
Structure prediction by ZEFSAII (Michael W. Deem and Ramdas Pophale) SiO2 
 PCOD9007775
Probable space group: P -1
;
_chemical_formula_sum "Si O2"
_cell_formula_units_Z 16
_cell_length_a 15.703105
_cell_length_b 7.282465
_cell_length_c 8.212640
_cell_angle_alpha 72.596185
_cell_angle_beta 124.416576
_cell_angle_gamma 130.867755
_cell_volume 582.123444
_symmetry_space_group_name_H-M "P -1"
_symmetry_group_IT_number 2
_symmetry_cell_setting 'triclinic'
loop_
_space_group_symop_operation_xyz
x,y,z
-x,-y,-z
loop_
_atom_site_type_symbol
_atom_site_label
_atom_site_fract_x
_atom_site_fract_y
_atom_site_fract_z
Si Si1 0.255772 0.904022 0.188915
Si Si2 0.171661 0.292609 0.479577
Si Si3 0.382064 0.659328 0.807573
Si Si4 0.099873 0.875101 0.762781
Si Si5 0.171106 0.385403 0.104150
Si Si6 0.581507 0.538057 0.797762
Si Si7 0.444429 0.062898 0.578546
Si Si8 0.878868 0.460436 0.287469
O O1 0.381495 0.193092 0.212429
O O2 0.289376 0.909201 0.412801
O O3 0.232422 0.657510 0.168183
O O4 0.137185 0.890653 0.988023
O O5 0.326074 0.504017 0.619360
O O6 0.144158 0.225258 0.276696
O O7 0.056323 0.318438 0.368845
O O8 0.137913 0.099114 0.634381
O O9 0.240525 0.571048 0.745572
O O10 0.466444 0.941900 0.782837
O O11 0.443775 0.584885 0.020764
O O12 0.182570 0.798856 0.794073
O O13 0.281051 0.394580 0.127625
O O14 0.076400 0.351750 0.865725
O O15 0.489671 0.322288 0.624568
O O16 0.500000 0.000000 0.500000
O O17 0.000000 0.500000 0.500000
#
# Coordination Sequence:
#
# PCOD9007775 Si02
#       8
#     2   2   2   2   2   2   2   2
#     4  11  22  41  65  94 123 170 213 268 317 381
#     4  11  20  41  63  94 129 173 204 259 329 378
#     4  11  22  40  68  91 128 171 210 262 325 382
#     4  10  23  38  65  92 134 166 210 264 320 387
#     4  10  23  40  66  92 133 168 212 267 318 378
#     4  11  23  44  66  91 129 167 218 268 319 378
#     4  12  24  44  67  92 130 171 216 273 324 370
#     4  10  21  39  62  96 132 167 213 260 317 389
#
# _framework density 27.485575000000001
#
# number of rings (size 3 to 8) (size 9 to 14) (size 15 to 20)
#    0.000    1.250    5.000    0.750    0.000    4.000 
#    0.000    3.125    0.000    0.000    0.000    0.000 
#    0.000    0.000    0.000    0.000    0.000    0.000 
#
# Total GULP energy -89075.711057 kJ/mol
# GULP energy per Si atom -5567.231941 kJ/mol
# Density = 2.742302 g / cm^3
# Si number density = 27.485575 Si / 1000 Ang^3
#
#
#
# Elastic Constant Matrix: (Units=GPa)
#
#
# Indices 1 2 3 4 5 6 
#
# 1 61.1937 18.3653 31.7513 -5.9420 -5.8354 -10.3316
# 2 18.3653 131.1289 11.0405 -6.4065 0.5775 -23.2431
# 3 31.7513 11.0405 121.5679 -11.7635 10.0903 -14.5246
# 4 -5.9420 -6.4065 -11.7635 40.2037 9.8906 1.3989
# 5 -5.8354 0.5775 10.0903 9.8906 28.9842 -4.0612
# 6 -10.3316 -23.2431 -14.5246 1.3989 -4.0612 25.1426
#
#
#
# Elastic Compliance Matrix: (Units=1/GPa)
#
#
# Indices 1 2 3 4 5 6 
#
# 1 0.021136 -0.001641 -0.005400 -0.000653 0.007124 0.005236
# 2 -0.001641 0.009321 0.000681 0.001151 0.000014 0.008274
# 3 -0.005400 0.000681 0.010830 0.003746 -0.005653 0.003545
# 4 -0.000653 0.001151 0.003746 0.028873 -0.011379 -0.000484
# 5 0.007124 0.000014 -0.005653 -0.011379 0.042798 0.007221
# 6 0.005236 0.008274 0.003545 -0.000484 0.007221 0.052815
#
#
# Mechanical properties :
#
#
# Convention : Reuss Voigt Hill
#
# Bulk Modulus (GPa) = 35.00566 48.46719 41.73642
# Shear Modulus (GPa) = 26.59354 35.71499 31.15427
#
# Velocity S-wave (km/s) = 3.11391 3.60864 3.37037
# Velocity P-wave (km/s) = 5.06875 5.91904 5.51032
#
# Compressibility (1/GPa) = 0.02856681
#
# Stress axis : x y z
#
# Youngs Moduli (GPa) = 47.31283 107.28007 92.33870
#
# Poissons Ratio (x) = 0.17601 0.49865
# Poissons Ratio (y) = 0.07763 -0.06287
# Poissons Ratio (z) = 0.25550 -0.07304
#
# Static dielectric constant tensor:
#      x y z
#    x 2.340590 -0.058100 -0.318330 
#    y -0.058100 2.216420 0.086680 
#    z -0.318330 0.086680 2.521870 
# 
# From -- ./inp_files/177389.got.cif
#   From: 2010.05.17/outbox.cif.g08.bks.cpg/sg2_89_cif.got.tgz:177389.got - 2010.06.03 11:33:40.
