data_PCOD9007758
_publ_section_title
;
Structure prediction by ZEFSAII (Michael W. Deem and Ramdas Pophale) SiO2 
 PCOD9007758
Probable space group: P -1
;
_chemical_formula_sum "Si O2"
_cell_formula_units_Z 16
_cell_length_a 18.617115
_cell_length_b 25.265548
_cell_length_c 13.946013
_cell_angle_alpha 160.217126
_cell_angle_beta 149.906378
_cell_angle_gamma 18.840738
_cell_volume 697.430975
_symmetry_space_group_name_H-M "P -1"
_symmetry_group_IT_number 2
_symmetry_cell_setting 'triclinic'
loop_
_space_group_symop_operation_xyz
x,y,z
-x,-y,-z
loop_
_atom_site_type_symbol
_atom_site_label
_atom_site_fract_x
_atom_site_fract_y
_atom_site_fract_z
Si Si1 0.725538 0.105298 0.119443
Si Si2 0.088135 0.038844 0.252472
Si Si3 0.853575 0.267343 0.676268
Si Si4 0.335644 0.991369 0.308108
Si Si5 0.272816 0.373229 0.130942
Si Si6 0.222543 0.653517 0.893902
Si Si7 0.038892 0.492003 0.866297
Si Si8 0.345683 0.692919 0.296634
O O1 0.767122 0.243102 0.443053
O O2 0.535680 0.192376 0.116961
O O3 0.636860 0.158893 0.999702
O O4 0.968959 0.809908 0.895053
O O5 0.310389 0.933171 0.282865
O O6 0.889958 0.334353 0.548757
O O7 0.156507 0.874107 0.140223
O O8 0.000000 0.000000 0.000000
O O9 0.687723 0.360226 0.730140
O O10 0.882342 0.425423 0.960144
O O11 0.113527 0.990559 0.525987
O O12 0.090863 0.288156 0.523593
O O13 0.500000 0.000000 0.500000
O O14 0.211220 0.309318 0.037794
O O15 0.193276 0.364637 0.924344
O O16 0.414983 0.424075 0.651597
O O17 0.331583 0.583267 0.005043
#
# Coordination Sequence:
#
# PCOD9007758 Si02
#       8
#     2   2   2   2   2   2   2   2
#     4  11  22  38  62  92 130 166 206 265 297 379
#     4  11  23  37  62  99 126 164 204 254 318 382
#     4  10  22  40  68  94 112 168 226 263 312 355
#     4  11  23  39  54  97 137 165 196 244 328 387
#     4  10  22  38  57  92 135 169 201 246 324 387
#     4  10  21  39  62  95 127 157 212 270 315 353
#     4  10  22  39  61  88 133 171 202 253 317 390
#     4   9  21  40  64  93 121 160 218 280 302 359
#
# _framework density 22.941337999999998
#
# number of rings (size 3 to 8) (size 9 to 14) (size 15 to 20)
#    0.000    1.750    2.500    1.500    3.500    2.000 
#    0.000    0.000    0.000   19.500    0.000    0.000 
#    0.000    0.000    0.000    0.000    0.000    0.000 
#
# Total GULP energy -89201.774962 kJ/mol
# GULP energy per Si atom -5575.110935 kJ/mol
# Density = 2.288912 g / cm^3
# Si number density = 22.941338 Si / 1000 Ang^3
#
#
#
# Elastic Constant Matrix: (Units=GPa)
#
#
# Indices 1 2 3 4 5 6 
#
# 1 127.6424 28.0267 34.4597 -2.5506 -18.1772 -21.6695
# 2 28.0267 103.0771 17.2654 14.1224 -7.8110 -37.3104
# 3 34.4597 17.2654 99.9688 5.1583 -16.6507 6.0242
# 4 -2.5506 14.1224 5.1583 22.3802 -8.2739 -10.0464
# 5 -18.1772 -7.8110 -16.6507 -8.2739 28.8266 3.5985
# 6 -21.6695 -37.3104 6.0242 -10.0464 3.5985 41.1085
#
#
#
# Elastic Compliance Matrix: (Units=1/GPa)
#
#
# Indices 1 2 3 4 5 6 
#
# 1 0.011225 -0.000330 -0.003643 0.008033 0.006246 0.007568
# 2 -0.000330 0.015791 -0.003377 -0.003168 -0.000527 0.013925
# 3 -0.003643 -0.003377 0.013254 -0.003325 0.004505 -0.008134
# 4 0.008033 -0.003168 -0.003325 0.061992 0.018156 0.015407
# 5 0.006246 -0.000527 0.004505 0.018156 0.045979 0.002566
# 6 0.007568 0.013925 -0.008134 0.015407 0.002566 0.045687
#
#
# Mechanical properties :
#
#
# Convention : Reuss Voigt Hill
#
# Bulk Modulus (GPa) = 39.10661 54.46577 46.78619
# Shear Modulus (GPa) = 23.02550 35.19218 29.10884
#
# Velocity S-wave (km/s) = 3.17151 3.92089 3.56594
# Velocity P-wave (km/s) = 5.52220 6.65513 6.11496
#
# Compressibility (1/GPa) = 0.02557113
#
# Stress axis : x y z
#
# Youngs Moduli (GPa) = 89.08716 63.32558 75.44854
#
# Poissons Ratio (x) = 0.02090 0.27483
# Poissons Ratio (y) = 0.02940 0.25480
# Poissons Ratio (z) = 0.32451 0.21386
#
# Static dielectric constant tensor:
#      x y z
#    x 1.886310 -0.064760 -0.027860 
#    y -0.064760 2.011330 0.004080 
#    z -0.027860 0.004080 1.890290 
# 
# From -- ./inp_files/539360.got.cif
#   From: 2010.05.17/outbox.cif.g08.bks.cpg/sg2_270_cif.got.tgz:539360.got - 2010.06.03 11:33:40.
