data_PCOD9007950
_publ_section_title
;
Structure prediction by ZEFSAII (Michael W. Deem and Ramdas Pophale) SiO2 
 PCOD9007950
Probable space group: P -1
;
_chemical_formula_sum "Si O2"
_cell_formula_units_Z 12
_cell_length_a 8.317993
_cell_length_b 9.688782
_cell_length_c 9.926387
_cell_angle_alpha 105.188707
_cell_angle_beta 136.131571
_cell_angle_gamma 67.025198
_cell_volume 510.177573
_symmetry_space_group_name_H-M "P -1"
_symmetry_group_IT_number 2
_symmetry_cell_setting 'triclinic'
loop_
_space_group_symop_operation_xyz
x,y,z
-x,-y,-z
loop_
_atom_site_type_symbol
_atom_site_label
_atom_site_fract_x
_atom_site_fract_y
_atom_site_fract_z
Si Si1 0.783501 0.083079 0.172194
Si Si2 0.548443 0.006242 0.253472
Si Si3 0.873258 0.740079 0.540630
Si Si4 0.971051 0.860001 0.027317
Si Si5 0.766966 0.450584 0.504402
Si Si6 0.763900 0.447532 0.818514
O O1 0.914707 0.205910 0.248677
O O2 0.722167 0.075707 0.289583
O O3 0.953107 0.919457 0.185778
O O4 0.548492 0.094103 0.940370
O O5 0.672212 0.894622 0.417546
O O6 0.302820 0.137744 0.175521
O O7 0.003448 0.656048 0.462726
O O8 0.781116 0.620344 0.535359
O O9 0.178331 0.706751 0.103359
O O10 0.000000 0.000000 0.000000
O O11 0.766061 0.416699 0.652413
O O12 0.506949 0.448925 0.285913
O O13 0.000000 0.500000 0.000000
#
# Coordination Sequence:
#
# PCOD9007950 Si02
#       6
#     2   2   2   2   2   2
#     4   9  21  36  62  91 120 161 199 258 321 338
#     4   9  20  37  60  92 122 150 210 258 302 363
#     4  11  21  41  64  92 126 157 210 264 303 362
#     4  10  21  39  63  92 119 156 212 255 292 373
#     4  10  26  40  61  94 124 166 211 246 305 387
#     4  11  25  45  64  85 134 169 201 248 318 370
#
# _framework density 23.521222999999999
#
# number of rings (size 3 to 8) (size 9 to 14) (size 15 to 20)
#    1.000    1.000    0.000    2.500    4.667    0.000 
#    3.000    5.000    0.000    0.000    0.000    0.000 
#    0.000    0.000    0.000    0.000    0.000    0.000 
#
# Total GULP energy -66961.281467 kJ/mol
# GULP energy per Si atom -5580.106789 kJ/mol
# Density = 2.346769 g / cm^3
# Si number density = 23.521223 Si / 1000 Ang^3
#
#
#
# Elastic Constant Matrix: (Units=GPa)
#
#
# Indices 1 2 3 4 5 6 
#
# 1 39.7638 3.3701 6.7691 -16.6538 7.2911 6.3640
# 2 3.3701 80.8349 32.5869 -13.8494 6.2632 16.8436
# 3 6.7691 32.5869 84.0327 -6.0361 15.2435 8.0636
# 4 -16.6538 -13.8494 -6.0361 37.6020 7.3244 6.5048
# 5 7.2911 6.2632 15.2435 7.3244 25.5750 1.9454
# 6 6.3640 16.8436 8.0636 6.5048 1.9454 35.2913
#
#
#
# Elastic Compliance Matrix: (Units=1/GPa)
#
#
# Indices 1 2 3 4 5 6 
#
# 1 0.043087 0.007760 0.001130 0.029157 -0.021999 -0.015893
# 2 0.007760 0.019123 -0.004745 0.013052 -0.006933 -0.011465
# 3 0.001130 -0.004745 0.015756 0.003398 -0.009399 -0.001647
# 4 0.029157 0.013052 0.003398 0.053765 -0.027360 -0.020665
# 5 -0.021999 -0.006933 -0.009399 -0.027360 0.059657 0.011178
# 6 -0.015893 -0.011465 -0.001647 -0.020665 0.011178 0.040243
#
#
# Mechanical properties :
#
#
# Convention : Reuss Voigt Hill
#
# Bulk Modulus (GPa) = 11.59351 32.23151 21.91251
# Shear Modulus (GPa) = 19.83383 30.48734 25.16058
#
# Velocity S-wave (km/s) = 2.90699 3.60413 3.27417
# Velocity P-wave (km/s) = 4.02581 5.57249 4.86106
#
# Compressibility (1/GPa) = 0.08625518
#
# Stress axis : x y z
#
# Youngs Moduli (GPa) = 23.20873 52.29368 63.46611
#
# Poissons Ratio (x) = -0.40578 -0.07172
# Poissons Ratio (y) = -0.18009 0.30117
# Poissons Ratio (z) = -0.02623 0.24815
#
# Static dielectric constant tensor:
#      x y z
#    x 1.965780 0.008230 -0.003340 
#    y 0.008230 1.873770 0.049720 
#    z -0.003340 0.049720 1.926200 
# 
# From -- ./inp_files/382471.got.cif
#   From: 2010.05.17/outbox.cif.g08.bks.cpg/sg2_192_cif.got.tgz:382471.got - 2010.06.03 11:33:40.
