data_PCOD9007714
_publ_section_title
;
Structure prediction by ZEFSAII (Michael W. Deem and Ramdas Pophale) SiO2 
 PCOD9007714
Probable space group: P -1
;
_chemical_formula_sum "Si O2"
_cell_formula_units_Z 14
_cell_length_a 7.290511
_cell_length_b 11.872122
_cell_length_c 15.441492
_cell_angle_alpha 47.621244
_cell_angle_beta 140.858126
_cell_angle_gamma 118.404168
_cell_volume 620.038231
_symmetry_space_group_name_H-M "P -1"
_symmetry_group_IT_number 2
_symmetry_cell_setting 'triclinic'
loop_
_space_group_symop_operation_xyz
x,y,z
-x,-y,-z
loop_
_atom_site_type_symbol
_atom_site_label
_atom_site_fract_x
_atom_site_fract_y
_atom_site_fract_z
Si Si1 0.545569 0.997647 0.839128
Si Si2 0.308266 0.787475 0.983231
Si Si3 0.600622 0.329724 0.731935
Si Si4 0.587038 0.494617 0.934518
Si Si5 0.937862 0.113620 0.495999
Si Si6 0.954660 0.552173 0.641984
Si Si7 0.303658 0.161059 0.209380
O O1 0.685144 0.158400 0.811862
O O2 0.201066 0.061782 0.682477
O O3 0.632253 0.904915 0.830557
O O4 0.556131 0.884732 0.983519
O O5 0.400816 0.701569 0.150823
O O6 0.239607 0.663557 0.949011
O O7 0.002177 0.884622 0.845320
O O8 0.831612 0.441354 0.724630
O O9 0.291101 0.411150 0.540693
O O10 0.725548 0.653337 0.891665
O O11 0.284750 0.491675 0.770915
O O12 0.500000 0.500000 0.000000
O O13 0.599978 0.113919 0.396230
O O14 0.993569 0.279332 0.393354
O O15 0.000000 0.000000 0.500000
#
# Coordination Sequence:
#
# PCOD9007714 Si02
#       7
#     2   2   2   2   2   2   2
#     4  10  21  41  62  91 128 164 202 259 305 366
#     4  12  24  37  63  96 127 163 207 255 309 374
#     4  10  22  41  62  94 122 167 215 242 307 372
#     4  11  21  40  63  90 124 162 205 262 317 359
#     4   8  17  37  66  89 121 160 203 250 312 363
#     4   9  20  40  67  85 124 167 203 256 304 363
#     4  10  21  39  62  93 122 165 205 256 313 363
#
# _framework density 22.579252
#
# number of rings (size 3 to 8) (size 9 to 14) (size 15 to 20)
#    0.000    2.000    1.429    1.714    0.000    1.714 
#    2.571    0.000   12.571    0.000    0.000    0.000 
#    0.000    0.000    0.000    0.000    0.000    0.000 
#
# Total GULP energy -78042.806527 kJ/mol
# GULP energy per Si atom -5574.486181 kJ/mol
# Density = 2.252786 g / cm^3
# Si number density = 22.579252 Si / 1000 Ang^3
#
#
#
# Elastic Constant Matrix: (Units=GPa)
#
#
# Indices 1 2 3 4 5 6 
#
# 1 111.3336 59.2471 30.6533 -15.8069 -2.8393 8.4057
# 2 59.2471 76.7255 30.4781 -6.7133 -7.5204 5.6643
# 3 30.6533 30.4781 65.2266 -3.9632 -0.8570 6.2561
# 4 -15.8069 -6.7133 -3.9632 25.0930 8.9141 -0.0579
# 5 -2.8393 -7.5204 -0.8570 8.9141 34.7186 -6.5099
# 6 8.4057 5.6643 6.2561 -0.0579 -6.5099 30.9915
#
#
#
# Elastic Compliance Matrix: (Units=1/GPa)
#
#
# Indices 1 2 3 4 5 6 
#
# 1 0.017223 -0.012030 -0.001707 0.008794 -0.004053 -0.002963
# 2 -0.012030 0.024928 -0.006262 -0.003833 0.005453 0.001109
# 3 -0.001707 -0.006262 0.019348 0.000922 -0.001755 -0.002665
# 4 0.008794 -0.003833 0.000922 0.049342 -0.013627 -0.004641
# 5 -0.004053 0.005453 -0.001755 -0.013627 0.034550 0.007689
# 6 -0.002963 0.001109 -0.002665 -0.004641 0.007689 0.035012
#
#
# Mechanical properties :
#
#
# Convention : Reuss Voigt Hill
#
# Bulk Modulus (GPa) = 46.51201 54.89364 50.70283
# Shear Modulus (GPa) = 21.97135 27.02111 24.49623
#
# Velocity S-wave (km/s) = 3.12280 3.46312 3.29736
# Velocity P-wave (km/s) = 5.80058 6.35258 6.08284
#
# Compressibility (1/GPa) = 0.02149982
#
# Stress axis : x y z
#
# Youngs Moduli (GPa) = 58.06160 40.11553 51.68466
#
# Poissons Ratio (x) = 0.48261 0.08824
# Poissons Ratio (y) = 0.69851 0.32364
# Poissons Ratio (z) = 0.09913 0.25120
#
# Static dielectric constant tensor:
#      x y z
#    x 1.933920 0.024330 0.126130 
#    y 0.024330 1.883690 0.014380 
#    z 0.126130 0.014380 2.030770 
# 
# From -- ./inp_files/83086.got.cif
#   From: 2010.05.17/outbox.cif.g08.bks.cpg/sg2_42_cif.got.tgz:83086.got - 2010.06.03 11:33:40.
