data_PCOD9007737
_publ_section_title
;
Structure prediction by ZEFSAII (Michael W. Deem and Ramdas Pophale) SiO2 
 PCOD9007737
Probable space group: P -1
;
_chemical_formula_sum "Si O2"
_cell_formula_units_Z 16
_cell_length_a 12.341606
_cell_length_b 11.144011
_cell_length_c 11.365569
_cell_angle_alpha 78.256997
_cell_angle_beta 38.114596
_cell_angle_gamma 106.131470
_cell_volume 650.890209
_symmetry_space_group_name_H-M "P -1"
_symmetry_group_IT_number 2
_symmetry_cell_setting 'triclinic'
loop_
_space_group_symop_operation_xyz
x,y,z
-x,-y,-z
loop_
_atom_site_type_symbol
_atom_site_label
_atom_site_fract_x
_atom_site_fract_y
_atom_site_fract_z
Si Si1 0.184529 0.777738 0.403587
Si Si2 0.719849 0.679990 0.707078
Si Si3 0.635254 0.973574 0.303516
Si Si4 0.485009 0.178689 0.070934
Si Si5 0.135364 0.681534 0.085595
Si Si6 0.092897 0.639583 0.768503
Si Si7 0.624498 0.537975 0.569029
Si Si8 0.860196 0.750674 0.082686
O O1 0.354661 0.760097 0.197730
O O2 0.078242 0.681991 0.638398
O O3 0.972732 0.728497 0.506911
O O4 0.357927 0.983413 0.239538
O O5 0.637792 0.635039 0.649414
O O6 0.500000 0.500000 0.000000
O O7 0.713892 0.812230 0.743057
O O8 0.500000 0.000000 0.500000
O O9 0.396834 0.772425 0.504385
O O10 0.753251 0.126653 0.075358
O O11 0.880267 0.043304 0.149499
O O12 0.690712 0.297211 0.974139
O O13 0.092278 0.571655 0.032282
O O14 0.849197 0.556549 0.398083
O O15 0.975935 0.684911 0.941674
O O16 0.714893 0.652450 0.349472
O O17 0.359873 0.334624 0.807726
#
# Coordination Sequence:
#
# PCOD9007737 Si02
#       8
#     2   2   2   2   2   2   2   2
#     4  11  24  44  68  99 138 173 228 280 330 409
#     4  12  25  41  67 101 135 176 225 275 338 406
#     4   9  20  38  62  93 130 168 223 274 321 399
#     4  11  24  42  68  97 134 183 220 276 344 393
#     4  11  21  39  67  94 133 177 218 275 338 393
#     4  11  22  40  69  97 128 176 226 271 337 401
#     4  10  21  39  62  93 134 171 220 279 326 401
#     4   9  20  39  64  89 131 173 215 278 331 388
#
# _framework density 24.581719
#
# number of rings (size 3 to 8) (size 9 to 14) (size 15 to 20)
#    0.000    1.500    2.500    2.625    1.750    5.500 
#    0.000    0.625    0.000    0.000    0.000    0.000 
#    0.000    0.000    0.000    0.000    0.000    0.000 
#
# Total GULP energy -89329.824371 kJ/mol
# GULP energy per Si atom -5583.114023 kJ/mol
# Density = 2.452577 g / cm^3
# Si number density = 24.581719 Si / 1000 Ang^3
#
#
#
# Elastic Constant Matrix: (Units=GPa)
#
#
# Indices 1 2 3 4 5 6 
#
# 1 77.9529 31.6394 42.1179 -3.4691 -7.3155 23.5876
# 2 31.6394 106.5580 41.0223 12.4296 -2.5057 20.3361
# 3 42.1179 41.0223 95.1705 -0.5558 -10.6198 12.5003
# 4 -3.4691 12.4296 -0.5558 57.2934 10.7217 -11.1526
# 5 -7.3155 -2.5057 -10.6198 10.7217 44.7760 -8.8363
# 6 23.5876 20.3361 12.5003 -11.1526 -8.8363 37.3799
#
#
#
# Elastic Compliance Matrix: (Units=1/GPa)
#
#
# Indices 1 2 3 4 5 6 
#
# 1 0.020108 -0.001339 -0.007072 -0.000410 -0.000301 -0.009789
# 2 -0.001339 0.013091 -0.004345 -0.004026 -0.000778 -0.006209
# 3 -0.007072 -0.004345 0.015481 0.000657 0.002601 0.002460
# 4 -0.000410 -0.004026 0.000657 0.020431 -0.003551 0.007486
# 5 -0.000301 -0.000778 0.002601 -0.003551 0.024596 0.004498
# 6 -0.009789 -0.006209 0.002460 0.007486 0.004498 0.038781
#
#
# Mechanical properties :
#
#
# Convention : Reuss Voigt Hill
#
# Bulk Modulus (GPa) = 43.16244 56.58230 49.87237
# Shear Modulus (GPa) = 30.17078 38.88330 34.52704
#
# Velocity S-wave (km/s) = 3.50718 3.98150 3.75184
# Velocity P-wave (km/s) = 5.83072 6.64864 6.25307
#
# Compressibility (1/GPa) = 0.02316829
#
# Stress axis : x y z
#
# Youngs Moduli (GPa) = 49.73092 76.38647 64.59538
#
# Poissons Ratio (x) = 0.10230 0.45681
# Poissons Ratio (y) = 0.06660 0.28066
# Poissons Ratio (z) = 0.35169 0.33190
#
# Static dielectric constant tensor:
#      x y z
#    x 2.195980 -0.009790 0.029500 
#    y -0.009790 2.053960 -0.025820 
#    z 0.029500 -0.025820 2.021970 
# 
# From -- ./inp_files/452450.got.cif
#   From: 2010.05.17/outbox.cif.g08.bks.cpg/sg2_227_cif.got.tgz:452450.got - 2010.06.03 11:33:40.
