data_PCOD9007180
_publ_section_title
;
Structure prediction by ZEFSAII (Michael W. Deem and Ramdas Pophale) SiO2 
 PCOD9007180
Probable space group: P -1
;
_chemical_formula_sum "Si O2"
_cell_formula_units_Z 16
_cell_length_a 4.925183
_cell_length_b 12.879273
_cell_length_c 25.171231
_cell_angle_alpha 31.254909
_cell_angle_beta 94.654919
_cell_angle_gamma 77.219725
_cell_volume 683.011536
_symmetry_space_group_name_H-M "P -1"
_symmetry_group_IT_number 2
_symmetry_cell_setting 'triclinic'
loop_
_space_group_symop_operation_xyz
x,y,z
-x,-y,-z
loop_
_atom_site_type_symbol
_atom_site_label
_atom_site_fract_x
_atom_site_fract_y
_atom_site_fract_z
Si Si1 0.365748 0.208525 0.056958
Si Si2 0.756389 0.604855 0.644271
Si Si3 0.146388 0.762012 0.889559
Si Si4 0.288343 0.480395 0.839873
Si Si5 0.152409 0.058680 0.427685
Si Si6 0.920555 0.264286 0.883708
Si Si7 0.680837 0.687222 0.298354
Si Si8 0.787163 0.297050 0.632562
O O1 0.722426 0.152754 0.098404
O O2 0.139023 0.260284 0.081800
O O3 0.467325 0.949021 0.151465
O O4 0.207712 0.434094 0.917054
O O5 0.740272 0.774399 0.617537
O O6 0.758336 0.396875 0.766979
O O7 0.072866 0.501776 0.658246
O O8 0.435438 0.803326 0.520372
O O9 0.500000 0.500000 0.000000
O O10 0.963046 0.011328 0.742311
O O11 0.660214 0.386542 0.874051
O O12 0.093906 0.759600 0.699576
O O13 0.199856 0.317804 0.874541
O O14 0.000000 0.000000 0.500000
O O15 0.000000 0.000000 0.000000
O O16 0.416021 0.661929 0.334633
O O17 0.913788 0.681577 0.352566
O O18 0.500000 0.500000 0.500000
#
# Coordination Sequence:
#
# PCOD9007180 Si02
#       8
#     2   2   2   2   2   2   2   2
#     4  10  21  39  60  89 120 150 197 254 295 358
#     4  10  22  38  58  86 118 166 207 242 308 351
#     4  10  21  41  64  87 120 157 190 243 316 371
#     4  11  22  38  57  83 119 157 196 245 301 340
#     4  10  21  40  57  78 129 166 200 256 293 354
#     4  11  22  35  58  85 116 154 198 247 290 355
#     4  10  22  38  64  88 119 156 199 248 300 364
#     4  10  22  42  63  90 124 152 194 252 307 365
#
# _framework density 23.425664999999999
#
# number of rings (size 3 to 8) (size 9 to 14) (size 15 to 20)
#    0.000    1.750    1.250    2.625    1.750    3.000 
#    4.500    0.000    0.000    0.000    0.000    0.000 
#    0.000    0.000    0.000    0.000    0.000    0.000 
#
# Total GULP energy -89114.026796 kJ/mol
# GULP energy per Si atom -5569.626675 kJ/mol
# Density = 2.337235 g / cm^3
# Si number density = 23.425665 Si / 1000 Ang^3
#
#
#
# Elastic Constant Matrix: (Units=GPa)
#
#
# Indices 1 2 3 4 5 6 
#
# 1 96.2576 -0.9672 13.2211 -5.0560 -1.1720 -13.2891
# 2 -0.9672 29.5921 22.4045 -16.2530 -1.0328 -15.8619
# 3 13.2211 22.4045 181.4916 -4.8291 -4.6946 -13.6773
# 4 -5.0560 -16.2530 -4.8291 40.0223 -9.8343 8.2173
# 5 -1.1720 -1.0328 -4.6946 -9.8343 26.3040 -3.3435
# 6 -13.2891 -15.8619 -13.6773 8.2173 -3.3435 29.5812
#
#
#
# Elastic Compliance Matrix: (Units=1/GPa)
#
#
# Indices 1 2 3 4 5 6 
#
# 1 0.011994 0.007741 -0.001021 0.003557 0.003057 0.008424
# 2 0.007741 0.071512 -0.005730 0.026415 0.016287 0.033677
# 3 -0.001021 -0.005730 0.006241 -0.001614 0.000218 -0.000172
# 4 0.003557 0.026415 -0.001614 0.038684 0.016145 0.006095
# 5 0.003057 0.016287 0.000218 0.016145 0.046260 0.010951
# 6 0.008424 0.033677 -0.000172 0.006095 0.010951 0.055113
#
#
# Mechanical properties :
#
#
# Convention : Reuss Voigt Hill
#
# Bulk Modulus (GPa) = 10.90189 41.85089 26.37639
# Shear Modulus (GPa) = 19.34997 37.36036 28.35516
#
# Velocity S-wave (km/s) = 2.87717 3.99789 3.48290
# Velocity P-wave (km/s) = 3.96250 6.26219 5.24006
#
# Compressibility (1/GPa) = 0.09172724
#
# Stress axis : x y z
#
# Youngs Moduli (GPa) = 83.37598 13.98376 160.22313
#
# Poissons Ratio (x) = -0.10824 0.16354
# Poissons Ratio (y) = -0.64539 0.91803
# Poissons Ratio (z) = 0.08510 0.08012
#
# Static dielectric constant tensor:
#      x y z
#    x 1.920900 0.103440 0.090920 
#    y 0.103440 1.929300 0.047790 
#    z 0.090920 0.047790 1.912540 
# 
# From -- ./inp_files/119255.got.cif
#   From: 2010.05.17/outbox.cif.g08.bks.cpg/sg2_60_cif.got.tgz:119255.got - 2010.06.03 11:33:40.
