data_PCOD9007213
_publ_section_title
;
Structure prediction by ZEFSAII (Michael W. Deem and Ramdas Pophale) SiO2 
 PCOD9007213
Probable space group: P -1
;
_chemical_formula_sum "Si O2"
_cell_formula_units_Z 12
_cell_length_a 13.709650
_cell_length_b 11.469547
_cell_length_c 7.503973
_cell_angle_alpha 90.128456
_cell_angle_beta 57.509659
_cell_angle_gamma 139.064117
_cell_volume 445.549630
_symmetry_space_group_name_H-M "P -1"
_symmetry_group_IT_number 2
_symmetry_cell_setting 'triclinic'
loop_
_space_group_symop_operation_xyz
x,y,z
-x,-y,-z
loop_
_atom_site_type_symbol
_atom_site_label
_atom_site_fract_x
_atom_site_fract_y
_atom_site_fract_z
Si Si1 0.223043 0.114134 0.220697
Si Si2 0.385427 0.642101 0.580790
Si Si3 0.753205 0.999909 0.493946
Si Si4 0.712777 0.293959 0.994487
Si Si5 0.199028 0.249795 0.933966
Si Si6 0.037142 0.368203 0.599871
O O1 0.382884 0.219898 0.240203
O O2 0.331379 0.280574 0.944726
O O3 0.000000 0.000000 0.500000
O O4 0.095900 0.877098 0.288579
O O5 0.673546 0.930222 0.363797
O O6 0.279938 0.576478 0.493364
O O7 0.234493 0.588653 0.873178
O O8 0.357066 0.481029 0.658045
O O9 0.601755 0.978585 0.712699
O O10 0.031514 0.193576 0.212085
O O11 0.854118 0.485889 0.693354
O O12 0.828935 0.270925 0.881267
O O13 0.000000 0.000000 0.000000
#
# Coordination Sequence:
#
# PCOD9007213 Si02
#       6
#     2   2   2   2   2   2
#     4  10  21  39  60  90 128 159 205 255 311 364
#     4  10  22  42  65  91 128 160 210 262 302 372
#     4   9  23  40  60  95 123 161 212 258 307 364
#     4   9  22  40  64  94 124 159 217 256 305 371
#     4  11  21  40  62  91 125 164 205 253 312 372
#     4  11  20  41  70  86 125 176 198 255 325 358
#
# _framework density 26.933025000000001
#
# number of rings (size 3 to 8) (size 9 to 14) (size 15 to 20)
#    1.000    1.000    1.667    2.500    0.000    3.333 
#    3.000    0.833    0.000    0.000    0.000    0.000 
#    0.000    0.000    0.000    0.000    0.000    0.000 
#
# Total GULP energy -66980.688664 kJ/mol
# GULP energy per Si atom -5581.724055 kJ/mol
# Density = 2.687172 g / cm^3
# Si number density = 26.933025 Si / 1000 Ang^3
#
#
#
# Elastic Constant Matrix: (Units=GPa)
#
#
# Indices 1 2 3 4 5 6 
#
# 1 154.9779 44.9426 33.5967 11.4163 -15.6592 -9.8542
# 2 44.9426 110.9870 14.5563 9.8461 3.1146 -11.8083
# 3 33.5967 14.5563 94.2828 22.6430 -6.8436 -9.9685
# 4 11.4163 9.8461 22.6430 24.3893 -5.2450 -10.1086
# 5 -15.6592 3.1146 -6.8436 -5.2450 44.9477 11.3912
# 6 -9.8542 -11.8083 -9.9685 -10.1086 11.3912 56.6484
#
#
#
# Elastic Compliance Matrix: (Units=1/GPa)
#
#
# Indices 1 2 3 4 5 6 
#
# 1 0.008095 -0.003084 -0.002241 0.000055 0.002742 -0.000171
# 2 -0.003084 0.010752 0.000118 -0.002840 -0.002573 0.001736
# 3 -0.002241 0.000118 0.014343 -0.012337 -0.000036 -0.000036
# 4 0.000055 -0.002840 -0.012337 0.057090 0.003283 0.006774
# 5 0.002742 -0.002573 -0.000036 0.003283 0.024896 -0.004486
# 6 -0.000171 0.001736 -0.000036 0.006774 -0.004486 0.020090
#
#
# Mechanical properties :
#
#
# Convention : Reuss Voigt Hill
#
# Bulk Modulus (GPa) = 43.90428 60.71543 52.30986
# Shear Modulus (GPa) = 32.62175 43.00722 37.81449
#
# Velocity S-wave (km/s) = 3.48403 4.00036 3.75109
# Velocity P-wave (km/s) = 5.70274 6.62791 6.18266
#
# Compressibility (1/GPa) = 0.02277682
#
# Stress axis : x y z
#
# Youngs Moduli (GPa) = 123.53646 93.00310 69.71938
#
# Poissons Ratio (x) = 0.28682 0.15621
# Poissons Ratio (y) = 0.38099 -0.00822
# Poissons Ratio (z) = 0.27679 -0.01096
#
# Static dielectric constant tensor:
#      x y z
#    x 2.068760 0.066820 0.045060 
#    y 0.066820 2.238500 -0.029250 
#    z 0.045060 -0.029250 2.296380 
# 
# From -- ./inp_files/86438.got.cif
#   From: 2010.05.17/outbox.cif.g08.bks.cpg/sg2_44_cif.got.tgz:86438.got - 2010.06.03 11:33:40.
