data_PCOD9007275
_publ_section_title
;
Structure prediction by ZEFSAII (Michael W. Deem and Ramdas Pophale) SiO2 
 PCOD9007275
Probable space group: P -1
;
_chemical_formula_sum "Si O2"
_cell_formula_units_Z 16
_cell_length_a 23.663267
_cell_length_b 5.268958
_cell_length_c 7.515875
_cell_angle_alpha 46.579543
_cell_angle_beta 78.667779
_cell_angle_gamma 90.824775
_cell_volume 652.501549
_symmetry_space_group_name_H-M "P -1"
_symmetry_group_IT_number 2
_symmetry_cell_setting 'triclinic'
loop_
_space_group_symop_operation_xyz
x,y,z
-x,-y,-z
loop_
_atom_site_type_symbol
_atom_site_label
_atom_site_fract_x
_atom_site_fract_y
_atom_site_fract_z
Si Si1 0.741904 0.069789 0.707123
Si Si2 0.068682 0.160652 0.846343
Si Si3 0.431125 0.387520 0.066337
Si Si4 0.175054 0.070897 0.010506
Si Si5 0.775426 0.131492 0.283445
Si Si6 0.660603 0.278069 0.147876
Si Si7 0.039023 0.802066 0.698355
Si Si8 0.635629 0.278627 0.775508
O O1 0.779087 0.014448 0.538499
O O2 0.696596 0.340036 0.597586
O O3 0.788865 0.169747 0.786935
O O4 0.696583 0.689188 0.932601
O O5 0.106031 0.996154 0.047523
O O6 0.077227 0.581415 0.667337
O O7 0.078909 0.067913 0.681899
O O8 0.000000 0.000000 0.000000
O O9 0.397217 0.431129 0.253883
O O10 0.410883 0.000271 0.176404
O O11 0.500000 0.500000 0.000000
O O12 0.405963 0.663271 0.816826
O O13 0.192358 0.449261 0.921353
O O14 0.199836 0.063316 0.798114
O O15 0.704967 0.098438 0.316515
O O16 0.656749 0.123932 0.023294
O O17 0.000000 0.000000 0.500000
O O18 0.000000 0.500000 0.000000
#
# Coordination Sequence:
#
# PCOD9007275 Si02
#       8
#     2   2   2   2   2   2   2   2
#     4  10  21  39  61  84 122 156 201 252 313 364
#     4  10  22  43  66  92 126 168 201 264 322 391
#     4   9  16  28  53  83 111 157 200 241 306 355
#     4  11  23  42  59  93 126 147 212 251 307 380
#     4  11  23  37  64  89 118 162 198 256 317 361
#     4   8  19  35  55  82 117 151 201 248 293 372
#     4  10  21  42  68  93 124 171 216 261 317 390
#     4   9  17  31  53  79 112 154 194 249 295 360
#
# _framework density 24.521015999999999
#
# number of rings (size 3 to 8) (size 9 to 14) (size 15 to 20)
#    0.750    1.500    1.250    1.500    1.750    0.000 
#   13.500    0.000    0.000    3.750    0.000    0.000 
#    0.000    0.000    0.000    0.000    0.000    0.000 
#
# Total GULP energy -89127.761197 kJ/mol
# GULP energy per Si atom -5570.485075 kJ/mol
# Density = 2.446521 g / cm^3
# Si number density = 24.521016 Si / 1000 Ang^3
#
#
#
# Elastic Constant Matrix: (Units=GPa)
#
#
# Indices 1 2 3 4 5 6 
#
# 1 181.7360 14.8155 22.0386 1.3595 -1.3617 30.5280
# 2 14.8155 167.3799 12.1911 4.0369 -0.7793 13.8944
# 3 22.0386 12.1911 39.2902 3.8415 8.7668 3.2933
# 4 1.3595 4.0369 3.8415 26.8093 -0.7967 8.8774
# 5 -1.3617 -0.7793 8.7668 -0.7967 22.6106 7.9500
# 6 30.5280 13.8944 3.2933 8.8774 7.9500 32.3664
#
#
#
# Elastic Compliance Matrix: (Units=1/GPa)
#
#
# Indices 1 2 3 4 5 6 
#
# 1 0.007707 0.000426 -0.005354 0.003589 0.005972 -0.009358
# 2 0.000426 0.006428 -0.002563 0.000686 0.002573 -0.003720
# 3 -0.005354 -0.002563 0.032937 -0.007513 -0.016587 0.008934
# 4 0.003589 0.000686 -0.007513 0.044297 0.010957 -0.017756
# 5 0.005972 0.002573 -0.016587 0.010957 0.059460 -0.022659
# 6 -0.009358 -0.003720 0.008934 -0.017756 -0.022659 0.050847
#
#
# Mechanical properties :
#
#
# Convention : Reuss Voigt Hill
#
# Bulk Modulus (GPa) = 31.16251 54.05517 42.60884
# Shear Modulus (GPa) = 21.99222 38.98131 30.48676
#
# Velocity S-wave (km/s) = 2.99803 3.99144 3.52986
# Velocity P-wave (km/s) = 4.97195 6.58289 5.83330
#
# Compressibility (1/GPa) = 0.03208984
#
# Stress axis : x y z
#
# Youngs Moduli (GPa) = 129.75331 155.57759 30.36118
#
# Poissons Ratio (x) = -0.06626 0.16255
# Poissons Ratio (y) = -0.05526 0.07781
# Poissons Ratio (z) = 0.69470 0.39869
#
# Static dielectric constant tensor:
#      x y z
#    x 1.948100 -0.019050 0.045440 
#    y -0.019050 2.203980 -0.006600 
#    z 0.045440 -0.006600 2.037890 
# 
# From -- ./inp_files/340040.got.cif
#   From: 2010.05.17/outbox.cif.g08.bks.cpg/sg2_171_cif.got.tgz:340040.got - 2010.06.03 11:33:40.
