data_PCOD9007887
_publ_section_title
;
Structure prediction by ZEFSAII (Michael W. Deem and Ramdas Pophale) SiO2 
 PCOD9007887
Probable space group: P -1
;
_chemical_formula_sum "Si O2"
_cell_formula_units_Z 12
_cell_length_a 15.421334
_cell_length_b 9.261377
_cell_length_c 8.386634
_cell_angle_alpha 114.299450
_cell_angle_beta 122.753929
_cell_angle_gamma 29.922952
_cell_volume 497.776832
_symmetry_space_group_name_H-M "P -1"
_symmetry_group_IT_number 2
_symmetry_cell_setting 'triclinic'
loop_
_space_group_symop_operation_xyz
x,y,z
-x,-y,-z
loop_
_atom_site_type_symbol
_atom_site_label
_atom_site_fract_x
_atom_site_fract_y
_atom_site_fract_z
Si Si1 0.151675 0.484231 0.287817
Si Si2 0.307239 0.823377 0.386749
Si Si3 0.500236 0.135668 0.287817
Si Si4 0.775766 0.973137 0.947192
Si Si5 0.577479 0.673617 0.052808
Si Si6 0.051106 0.818278 0.613252
O O1 0.342266 0.330798 0.357596
O O2 0.188882 0.252435 0.183283
O O3 0.097188 0.595926 0.463800
O O4 0.976144 0.762876 0.127287
O O5 0.500000 0.500000 0.500000
O O6 0.326505 0.980381 0.536201
O O7 0.292151 0.842790 0.190150
O O8 0.125082 0.978335 0.353581
O O9 0.553083 0.888233 0.183285
O O10 0.412122 0.326896 0.127285
O O11 0.611216 0.173304 0.006952
O O12 0.763059 0.371882 0.190149
O O13 0.000000 0.000000 0.500000
#
# Coordination Sequence:
#
# PCOD9007887 Si02
#       6
#     2   2   2   2   2   2
#     4  10  21  39  63  90 119 152 193 240 289 343
#     4  12  25  40  59  85 119 157 197 240 291 348
#     4  10  21  39  63  90 119 152 193 240 289 343
#     4  10  21  39  63  90 119 152 193 240 289 343
#     4  10  21  39  63  90 119 152 193 240 289 343
#     4  12  25  40  59  85 119 157 197 240 291 348
#
# _framework density 24.107187
#
# number of rings (size 3 to 8) (size 9 to 14) (size 15 to 20)
#    0.000    1.333    0.000    6.000    0.000    9.333 
#    0.000    6.667    0.000    0.000    0.000    0.000 
#    0.000    0.000    0.000    0.000    0.000    0.000 
#
# Total GULP energy -67269.990776 kJ/mol
# GULP energy per Si atom -5605.832565 kJ/mol
# Density = 2.405232 g / cm^3
# Si number density = 24.107187 Si / 1000 Ang^3
#
#
#
# Elastic Constant Matrix: (Units=GPa)
#
#
# Indices 1 2 3 4 5 6 
#
# 1 102.0001 28.0985 10.9220 -17.3753 -10.0652 -11.7215
# 2 28.0985 85.4042 12.9320 -19.5114 -11.5828 -2.1505
# 3 10.9220 12.9320 89.0431 -21.7728 -13.6432 3.7873
# 4 -17.3753 -19.5114 -21.7728 51.8596 8.2202 -3.5502
# 5 -10.0652 -11.5828 -13.6432 8.2202 44.3504 -2.7873
# 6 -11.7215 -2.1505 3.7873 -3.5502 -2.7873 40.4915
#
#
#
# Elastic Compliance Matrix: (Units=1/GPa)
#
#
# Indices 1 2 3 4 5 6 
#
# 1 0.011650 -0.002875 -0.000266 0.002713 0.001534 0.003588
# 2 -0.002875 0.013885 -0.000429 0.003766 0.002171 0.000425
# 3 -0.000266 -0.000429 0.012943 0.004676 0.002898 -0.000701
# 4 0.002713 0.003766 0.004676 0.023944 -0.001239 0.002562
# 5 0.001534 0.002171 0.002898 -0.001239 0.024702 0.001880
# 6 0.003588 0.000425 -0.000701 0.002562 0.001880 0.026177
#
#
# Mechanical properties :
#
#
# Convention : Reuss Voigt Hill
#
# Bulk Modulus (GPa) = 31.90799 42.26138 37.08469
# Shear Modulus (GPa) = 38.20125 42.30662 40.25394
#
# Velocity S-wave (km/s) = 3.98507 4.19374 4.09074
# Velocity P-wave (km/s) = 5.86848 6.40458 6.14238
#
# Compressibility (1/GPa) = 0.03134011
#
# Stress axis : x y z
#
# Youngs Moduli (GPa) = 85.83658 72.01924 77.26377
#
# Poissons Ratio (x) = 0.20702 0.02053
# Poissons Ratio (y) = 0.24674 0.03311
# Poissons Ratio (z) = 0.02281 0.03087
#
# Static dielectric constant tensor:
#      x y z
#    x 1.866730 0.106090 0.035290 
#    y 0.106090 1.976200 0.062470 
#    z 0.035290 0.062470 1.901410 
# 
# From -- ./inp_files/144736.got.cif
#   From: 2010.05.17/outbox.cif.g08.bks.cpg/sg2_73_cif.got.tgz:144736.got - 2010.06.03 11:33:40.
