data_PCOD9007255
_publ_section_title
;
Structure prediction by ZEFSAII (Michael W. Deem and Ramdas Pophale) SiO2 
 PCOD9007255
Probable space group: P -1
;
_chemical_formula_sum "Si O2"
_cell_formula_units_Z 16
_cell_length_a 8.575072
_cell_length_b 8.160712
_cell_length_c 16.096465
_cell_angle_alpha 57.029948
_cell_angle_beta 52.524293
_cell_angle_gamma 49.850113
_cell_volume 661.517698
_symmetry_space_group_name_H-M "P -1"
_symmetry_group_IT_number 2
_symmetry_cell_setting 'triclinic'
loop_
_space_group_symop_operation_xyz
x,y,z
-x,-y,-z
loop_
_atom_site_type_symbol
_atom_site_label
_atom_site_fract_x
_atom_site_fract_y
_atom_site_fract_z
Si Si1 0.932518 0.052301 0.664271
Si Si2 0.384839 0.870213 0.677439
Si Si3 0.321478 0.922753 0.854793
Si Si4 0.594087 0.373653 0.819626
Si Si5 0.887526 0.687361 0.553474
Si Si6 0.817148 0.643854 0.955152
Si Si7 0.857232 0.994795 0.938845
Si Si8 0.832420 0.650441 0.767728
O O1 0.988076 0.166365 0.537140
O O2 0.727479 0.237889 0.732159
O O3 0.164201 0.953018 0.670726
O O4 0.869886 0.866109 0.706203
O O5 0.332696 0.026017 0.733911
O O6 0.455887 0.622303 0.758480
O O7 0.624030 0.831708 0.578078
O O8 0.569540 0.724100 0.837075
O O9 0.275377 0.024468 0.933260
O O10 0.112637 0.878899 0.917491
O O11 0.789230 0.246089 0.862717
O O12 0.409533 0.337259 0.940696
O O13 0.906063 0.581774 0.668035
O O14 0.000000 0.500000 0.500000
O O15 0.905389 0.541818 0.864131
O O16 0.809600 0.881044 0.906626
O O17 0.000000 0.500000 0.000000
#
# Coordination Sequence:
#
# PCOD9007255 Si02
#       8
#     2   2   2   2   2   2   2   2
#     4  12  23  46  75 100 138 183 234 291 344 407
#     4  11  24  44  70 102 136 183 233 282 357 407
#     4  10  21  39  61 101 137 178 227 276 339 417
#     4  12  22  39  74  98 141 183 222 287 341 417
#     4  11  25  48  71 101 137 183 237 296 347 402
#     4  12  24  43  66 106 146 186 225 280 346 424
#     4  11  21  40  63  96 145 181 226 274 343 417
#     4  11  23  43  72 101 138 185 235 281 348 411
#
# _framework density 24.186805
#
# number of rings (size 3 to 8) (size 9 to 14) (size 15 to 20)
#    0.000    0.750    5.000    3.375    0.000    0.500 
#   11.250    0.625    5.500    0.000    0.000    0.000 
#    0.000    0.000    0.000    0.000    0.000    0.000 
#
# Total GULP energy -89157.518270 kJ/mol
# GULP energy per Si atom -5572.344892 kJ/mol
# Density = 2.413175 g / cm^3
# Si number density = 24.186805 Si / 1000 Ang^3
#
#
#
# Elastic Constant Matrix: (Units=GPa)
#
#
# Indices 1 2 3 4 5 6 
#
# 1 78.4443 19.4309 36.7449 7.3972 27.8558 -5.9831
# 2 19.4309 62.9683 51.3326 8.2830 12.2184 -12.7268
# 3 36.7449 51.3326 160.4981 25.4318 13.8624 -5.5980
# 4 7.3972 8.2830 25.4318 51.7349 9.0420 6.2145
# 5 27.8558 12.2184 13.8624 9.0420 43.9426 4.5455
# 6 -5.9831 -12.7268 -5.5980 6.2145 4.5455 29.3132
#
#
#
# Elastic Compliance Matrix: (Units=1/GPa)
#
#
# Indices 1 2 3 4 5 6 
#
# 1 0.018608 -0.000022 -0.003147 0.000289 -0.011362 0.004888
# 2 -0.000022 0.024902 -0.006974 -0.000837 -0.005627 0.010525
# 3 -0.003147 -0.006974 0.009492 -0.003233 0.001754 -0.001444
# 4 0.000289 -0.000837 -0.003233 0.022147 -0.002954 -0.005159
# 5 -0.011362 -0.005627 0.001754 -0.002954 0.032493 -0.008839
# 6 0.004888 0.010525 -0.001444 -0.005159 -0.008839 0.041870
#
#
# Mechanical properties :
#
#
# Convention : Reuss Voigt Hill
#
# Bulk Modulus (GPa) = 30.56589 57.43639 44.00114
# Shear Modulus (GPa) = 27.66978 37.95830 32.81404
#
# Velocity S-wave (km/s) = 3.38598 3.96584 3.68733
# Velocity P-wave (km/s) = 5.28690 6.69097 6.02994
#
# Compressibility (1/GPa) = 0.03271621
#
# Stress axis : x y z
#
# Youngs Moduli (GPa) = 53.74133 40.15724 105.35305
#
# Poissons Ratio (x) = 0.00088 0.33154
# Poissons Ratio (y) = 0.00118 0.73472
# Poissons Ratio (z) = 0.16912 0.28005
#
# Static dielectric constant tensor:
#      x y z
#    x 2.011590 0.122410 -0.012830 
#    y 0.122410 2.181610 -0.066010 
#    z -0.012830 -0.066010 1.987250 
# 
# From -- ./inp_files/556036.got.cif
#   From: 2010.05.17/outbox.cif.g08.bks.cpg/sg2_279_cif.got.tgz:556036.got - 2010.06.03 11:33:40.
