data_PCOD9007307
_publ_section_title
;
Structure prediction by ZEFSAII (Michael W. Deem and Ramdas Pophale) SiO2 
 PCOD9007307
Probable space group: P -1
;
_chemical_formula_sum "Si O2"
_cell_formula_units_Z 16
_cell_length_a 22.867917
_cell_length_b 15.932403
_cell_length_c 6.434690
_cell_angle_alpha 95.242933
_cell_angle_beta 106.045792
_cell_angle_gamma 19.336335
_cell_volume 631.477949
_symmetry_space_group_name_H-M "P -1"
_symmetry_group_IT_number 2
_symmetry_cell_setting 'triclinic'
loop_
_space_group_symop_operation_xyz
x,y,z
-x,-y,-z
loop_
_atom_site_type_symbol
_atom_site_label
_atom_site_fract_x
_atom_site_fract_y
_atom_site_fract_z
Si Si1 0.207395 0.392112 0.872326
Si Si2 0.766965 0.218672 0.386934
Si Si3 0.307758 0.758084 0.104979
Si Si4 0.943386 0.508572 0.622070
Si Si5 0.895331 0.284285 0.114108
Si Si6 0.645468 0.547666 0.564559
Si Si7 0.552022 0.021093 0.658040
Si Si8 0.801639 0.912441 0.895543
O O1 0.141791 0.457300 0.588586
O O2 0.233442 0.456882 0.945438
O O3 0.006261 0.641733 0.885699
O O4 0.385474 0.091388 0.072554
O O5 0.723419 0.268455 0.111481
O O6 0.757239 0.325923 0.490398
O O7 0.563147 0.433342 0.324794
O O8 0.003113 0.870825 0.598954
O O9 0.236825 0.945946 0.004617
O O10 0.123727 0.985155 0.144879
O O11 0.757353 0.778740 0.665317
O O12 0.000000 0.500000 0.500000
O O13 0.152648 0.210848 0.898348
O O14 0.749910 0.415583 0.864294
O O15 0.622278 0.672895 0.473423
O O16 0.401874 0.836934 0.389328
O O17 0.500000 0.000000 0.500000
#
# Coordination Sequence:
#
# PCOD9007307 Si02
#       8
#     2   2   2   2   2   2   2   2
#     4  10  21  40  65  89 119 166 211 253 304 371
#     4  10  21  39  61  87 118 155 205 255 301 370
#     4   9  20  39  63  87 116 161 204 249 308 373
#     4  11  22  38  66  95 119 163 222 261 302 369
#     4  11  21  38  61  89 122 157 200 251 314 367
#     4  11  22  39  59  87 126 162 199 253 314 364
#     4  11  23  43  61  89 132 168 203 257 317 368
#     4   9  20  39  62  88 127 161 202 261 310 363
#
# _framework density 25.337384
#
# number of rings (size 3 to 8) (size 9 to 14) (size 15 to 20)
#    0.000    1.750    1.250    3.000    0.000    3.000 
#    0.000    7.500    0.000    0.000    0.000    0.000 
#    0.000    0.000    0.000    0.000    0.000    0.000 
#
# Total GULP energy -89452.970584 kJ/mol
# GULP energy per Si atom -5590.810661 kJ/mol
# Density = 2.527972 g / cm^3
# Si number density = 25.337384 Si / 1000 Ang^3
#
#
#
# Elastic Constant Matrix: (Units=GPa)
#
#
# Indices 1 2 3 4 5 6 
#
# 1 72.8320 17.5660 37.8773 -1.2061 15.3574 8.2071
# 2 17.5660 86.0094 40.4033 5.6273 -0.7724 2.3728
# 3 37.8773 40.4033 151.2081 -10.4874 20.3038 12.1309
# 4 -1.2061 5.6273 -10.4874 40.2326 10.6006 6.4980
# 5 15.3574 -0.7724 20.3038 10.6006 32.2378 12.0887
# 6 8.2071 2.3728 12.1309 6.4980 12.0887 39.3027
#
#
#
# Elastic Compliance Matrix: (Units=1/GPa)
#
#
# Indices 1 2 3 4 5 6 
#
# 1 0.017270 -0.002563 -0.002453 0.002264 -0.007164 -0.000865
# 2 -0.002563 0.014576 -0.004380 -0.004814 0.005918 -0.000017
# 3 -0.002453 -0.004380 0.009658 0.004870 -0.006208 -0.001100
# 4 0.002264 -0.004814 0.004870 0.030826 -0.013400 -0.002660
# 5 -0.007164 0.005918 -0.006208 -0.013400 0.046248 -0.008955
# 6 -0.000865 -0.000017 -0.001100 -0.002660 -0.008955 0.029159
#
#
# Mechanical properties :
#
#
# Convention : Reuss Voigt Hill
#
# Bulk Modulus (GPa) = 44.03051 55.74919 49.88985
# Shear Modulus (GPa) = 28.71928 36.63482 32.67705
#
# Velocity S-wave (km/s) = 3.37036 3.80660 3.59510
# Velocity P-wave (km/s) = 5.70624 6.43201 6.07997
#
# Compressibility (1/GPa) = 0.02271152
#
# Stress axis : x y z
#
# Youngs Moduli (GPa) = 57.90537 68.60490 103.54441
#
# Poissons Ratio (x) = 0.17587 0.25396
# Poissons Ratio (y) = 0.14844 0.45351
# Poissons Ratio (z) = 0.14202 0.30048
#
# Static dielectric constant tensor:
#      x y z
#    x 2.082910 -0.021510 -0.000860 
#    y -0.021510 1.986060 -0.000550 
#    z -0.000860 -0.000550 2.009480 
# 
# From -- ./inp_files/127443.got.cif
#   From: 2010.05.17/outbox.cif.g08.bks.cpg/sg2_64_cif.got.tgz:127443.got - 2010.06.03 11:33:40.
