data_PCOD9007555
_publ_section_title
;
Structure prediction by ZEFSAII (Michael W. Deem and Ramdas Pophale) SiO2 
 PCOD9007555
Probable space group: P -1
;
_chemical_formula_sum "Si O2"
_cell_formula_units_Z 16
_cell_length_a 9.096505
_cell_length_b 12.083247
_cell_length_c 18.649813
_cell_angle_alpha 137.149049
_cell_angle_beta 44.321339
_cell_angle_gamma 149.204949
_cell_volume 691.803196
_symmetry_space_group_name_H-M "P -1"
_symmetry_group_IT_number 2
_symmetry_cell_setting 'triclinic'
loop_
_space_group_symop_operation_xyz
x,y,z
-x,-y,-z
loop_
_atom_site_type_symbol
_atom_site_label
_atom_site_fract_x
_atom_site_fract_y
_atom_site_fract_z
Si Si1 0.121909 0.430300 0.079231
Si Si2 0.359913 0.313030 0.581831
Si Si3 0.537821 0.268816 0.238057
Si Si4 0.346342 0.034895 0.340539
Si Si5 0.265581 0.255141 0.059138
Si Si6 0.900088 0.999176 0.865893
Si Si7 0.470448 0.121093 0.682179
Si Si8 0.717779 0.285609 0.538605
O O1 0.219948 0.406747 0.110476
O O2 0.879588 0.436678 0.175602
O O3 0.418187 0.632585 0.028067
O O4 0.952669 0.193390 0.983438
O O5 0.517536 0.572782 0.648494
O O6 0.443859 0.244026 0.453119
O O7 0.452879 0.260250 0.593887
O O8 0.008296 0.146940 0.625278
O O9 0.482634 0.125691 0.257878
O O10 0.319634 0.099869 0.170408
O O11 0.443019 0.928932 0.300721
O O12 0.234780 0.212187 0.134195
O O13 0.000000 0.000000 0.000000
O O14 0.224051 0.118526 0.784219
O O15 0.748350 0.319908 0.629838
O O16 0.329673 0.917169 0.576833
O O17 0.000000 0.500000 0.500000
#
# Coordination Sequence:
#
# PCOD9007555 Si02
#       8
#     2   2   2   2   2   2   2   2
#     4  10  23  41  64  92 125 165 211 256 309 375
#     4  10  23  40  61  90 125 167 210 260 317 379
#     4  12  24  39  63  94 129 171 208 255 319 375
#     4  10  23  42  63  90 127 165 213 266 314 375
#     4   9  21  43  64  86 120 162 210 262 308 362
#     4  11  23  39  63  94 129 164 208 259 310 372
#     4  10  22  39  62  89 117 160 207 256 312 368
#     4  10  21  39  62  88 119 156 206 261 313 369
#
# _framework density 23.127965
#
# number of rings (size 3 to 8) (size 9 to 14) (size 15 to 20)
#    0.000    1.750    0.000    3.000    0.000   14.500 
#    0.000    0.000    0.000    0.000    0.000    0.000 
#    0.000    0.000    0.000    0.000    0.000    0.000 
#
# Total GULP energy -89517.862198 kJ/mol
# GULP energy per Si atom -5594.866387 kJ/mol
# Density = 2.307533 g / cm^3
# Si number density = 23.127965 Si / 1000 Ang^3
#
#
#
# Elastic Constant Matrix: (Units=GPa)
#
#
# Indices 1 2 3 4 5 6 
#
# 1 115.4407 28.4469 48.5364 -8.2556 12.9181 -0.4894
# 2 28.4469 71.3742 21.2232 -16.0673 15.6442 1.3445
# 3 48.5364 21.2232 72.3836 -6.3029 7.8714 -5.0312
# 4 -8.2556 -16.0673 -6.3029 31.7247 -2.2228 0.8533
# 5 12.9181 15.6442 7.8714 -2.2228 38.6422 -9.7607
# 6 -0.4894 1.3445 -5.0312 0.8533 -9.7607 35.7562
#
#
#
# Elastic Compliance Matrix: (Units=1/GPa)
#
#
# Indices 1 2 3 4 5 6 
#
# 1 0.012706 -0.002148 -0.007707 0.000576 -0.002135 -0.001426
# 2 -0.002148 0.019120 -0.002943 0.008152 -0.006763 -0.003203
# 3 -0.007707 -0.002943 0.020039 0.000438 0.000453 0.002938
# 4 0.000576 0.008152 0.000438 0.035795 -0.001932 -0.001619
# 5 -0.002135 -0.006763 0.000453 -0.001932 0.031375 0.008900
# 6 -0.001426 -0.003203 0.002938 -0.001619 0.008900 0.030950
#
#
# Mechanical properties :
#
#
# Convention : Reuss Voigt Hill
#
# Bulk Modulus (GPa) = 38.06750 50.62349 44.34550
# Shear Modulus (GPa) = 27.12422 31.95742 29.54082
#
# Velocity S-wave (km/s) = 3.42832 3.72124 3.57778
# Velocity P-wave (km/s) = 5.67154 6.35606 6.02353
#
# Compressibility (1/GPa) = 0.02626913
#
# Stress axis : x y z
#
# Youngs Moduli (GPa) = 78.70137 52.30198 49.90212
#
# Poissons Ratio (x) = 0.11234 0.38460
# Poissons Ratio (y) = 0.16904 0.14687
# Poissons Ratio (z) = 0.60656 0.15393
#
# Static dielectric constant tensor:
#      x y z
#    x 1.974110 -0.142660 0.047920 
#    y -0.142660 2.032430 -0.019480 
#    z 0.047920 -0.019480 1.866240 
# 
# From -- ./inp_files/469735.got.cif
#   From: 2010.05.17/outbox.cif.g08.bks.cpg/sg2_235_cif.got.tgz:469735.got - 2010.06.03 11:33:40.
