data_PCOD9007357
_publ_section_title
;
Structure prediction by ZEFSAII (Michael W. Deem and Ramdas Pophale) SiO2 
 PCOD9007357
Probable space group: P -1
;
_chemical_formula_sum "Si O2"
_cell_formula_units_Z 14
_cell_length_a 9.583300
_cell_length_b 7.133282
_cell_length_c 16.827351
_cell_angle_alpha 133.726429
_cell_angle_beta 126.375009
_cell_angle_gamma 47.016214
_cell_volume 591.758737
_symmetry_space_group_name_H-M "P -1"
_symmetry_group_IT_number 2
_symmetry_cell_setting 'triclinic'
loop_
_space_group_symop_operation_xyz
x,y,z
-x,-y,-z
loop_
_atom_site_type_symbol
_atom_site_label
_atom_site_fract_x
_atom_site_fract_y
_atom_site_fract_z
Si Si1 0.497503 0.578413 0.389474
Si Si2 0.116074 0.539726 0.936183
Si Si3 0.862047 0.433411 0.375834
Si Si4 0.928309 0.984794 0.143774
Si Si5 0.737276 0.780152 0.791367
Si Si6 0.482127 0.969566 0.362595
Si Si7 0.451673 0.831651 0.005072
O O1 0.349489 0.448408 0.311682
O O2 0.534244 0.725270 0.522542
O O3 0.708799 0.366872 0.357932
O O4 0.408782 0.838756 0.370982
O O5 0.090377 0.271468 0.887657
O O6 0.346277 0.423887 0.969605
O O7 0.970557 0.638589 0.840811
O O8 0.049493 0.801119 0.054815
O O9 0.000000 0.500000 0.500000
O O10 0.711838 0.732009 0.366879
O O11 0.979443 0.174254 0.278014
O O12 0.715212 0.221573 0.107936
O O13 0.639269 0.990914 0.745816
O O14 0.651265 0.945983 0.893234
O O15 0.500000 0.000000 0.000000
#
# Coordination Sequence:
#
# PCOD9007357 Si02
#       7
#     2   2   2   2   2   2   2
#     4   9  20  40  60  84 125 168 195 255 313 351
#     4   9  19  33  61  96 116 156 214 249 297 377
#     4  10  21  39  61  89 124 163 202 250 310 368
#     4   9  18  34  59  88 121 161 201 254 304 361
#     4  11  20  38  67  90 124 161 206 254 307 364
#     4   9  22  40  57  91 125 162 205 252 307 365
#     4   9  18  36  57  95 120 153 209 247 307 360
#
# _framework density 23.658287999999999
#
# number of rings (size 3 to 8) (size 9 to 14) (size 15 to 20)
#    0.857    1.714    0.000    3.000    2.000    0.000 
#    5.143    3.571    0.000    1.714    0.000    0.000 
#    0.000    0.000    0.000    0.000    0.000    0.000 
#
# Total GULP energy -78209.258042 kJ/mol
# GULP energy per Si atom -5586.375574 kJ/mol
# Density = 2.360444 g / cm^3
# Si number density = 23.658288 Si / 1000 Ang^3
#
#
#
# Elastic Constant Matrix: (Units=GPa)
#
#
# Indices 1 2 3 4 5 6 
#
# 1 55.9432 32.6058 32.9320 -8.6519 13.5733 -6.5714
# 2 32.6058 99.1729 52.6981 -40.9436 6.7311 -14.4006
# 3 32.9320 52.6981 167.9882 -25.7309 -0.5815 -5.0766
# 4 -8.6519 -40.9436 -25.7309 49.6066 -5.6854 2.2290
# 5 13.5733 6.7311 -0.5815 -5.6854 30.6463 -4.7617
# 6 -6.5714 -14.4006 -5.0766 2.2290 -4.7617 45.5108
#
#
#
# Elastic Compliance Matrix: (Units=1/GPa)
#
#
# Indices 1 2 3 4 5 6 
#
# 1 0.026633 -0.008388 -0.003446 -0.005325 -0.011020 -0.000085
# 2 -0.008388 0.020549 -0.002464 0.014303 0.002520 0.004579
# 3 -0.003446 -0.002464 0.007652 0.001629 0.002477 -0.000244
# 4 -0.005325 0.014303 0.001629 0.032403 0.005717 0.002950
# 5 -0.011020 0.002520 0.002477 0.005717 0.038568 0.003238
# 6 -0.000085 0.004579 -0.000244 0.002950 0.003238 0.023577
#
#
# Mechanical properties :
#
#
# Convention : Reuss Voigt Hill
#
# Bulk Modulus (GPa) = 38.11237 62.17512 50.14375
# Shear Modulus (GPa) = 26.77754 38.81062 32.79408
#
# Velocity S-wave (km/s) = 3.36794 4.05466 3.72715
# Velocity P-wave (km/s) = 5.59183 6.94679 6.30581
#
# Compressibility (1/GPa) = 0.02623820
#
# Stress axis : x y z
#
# Youngs Moduli (GPa) = 37.54768 48.66356 130.68321
#
# Poissons Ratio (x) = 0.40818 0.45034
# Poissons Ratio (y) = 0.31494 0.32202
# Poissons Ratio (z) = 0.12939 0.11991
#
# Static dielectric constant tensor:
#      x y z
#    x 1.973130 0.008200 0.026860 
#    y 0.008200 1.945690 -0.042930 
#    z 0.026860 -0.042930 1.905790 
# 
# From -- ./inp_files/566291.got.cif
#   From: 2010.05.17/outbox.cif.g08.bks.cpg/sg2_284_cif.got.tgz:566291.got - 2010.06.03 11:33:40.
