data_PCOD9007156
_publ_section_title
;
Structure prediction by ZEFSAII (Michael W. Deem and Ramdas Pophale) SiO2 
 PCOD9007156
Probable space group: P -1
;
_chemical_formula_sum "Si O2"
_cell_formula_units_Z 16
_cell_length_a 20.867342
_cell_length_b 16.790946
_cell_length_c 11.257915
_cell_angle_alpha 157.851597
_cell_angle_beta 32.623970
_cell_angle_gamma 149.419670
_cell_volume 735.609500
_symmetry_space_group_name_H-M "P -1"
_symmetry_group_IT_number 2
_symmetry_cell_setting 'triclinic'
loop_
_space_group_symop_operation_xyz
x,y,z
-x,-y,-z
loop_
_atom_site_type_symbol
_atom_site_label
_atom_site_fract_x
_atom_site_fract_y
_atom_site_fract_z
Si Si1 0.834024 0.152223 0.285946
Si Si2 0.035377 0.478085 0.601871
Si Si3 0.465367 0.063978 0.514858
Si Si4 0.558383 0.034346 0.824144
Si Si5 0.895797 0.742635 0.322214
Si Si6 0.171104 0.350528 0.436339
Si Si7 0.531396 0.467955 0.759621
Si Si8 0.384329 0.466472 0.546956
O O1 0.861288 0.329859 0.379215
O O2 0.945619 0.270500 0.371696
O O3 0.688664 0.082674 0.463721
O O4 0.838497 0.910489 0.910387
O O5 0.097650 0.401194 0.509950
O O6 0.942256 0.593172 0.956243
O O7 0.500000 0.000000 0.500000
O O8 0.523296 0.992784 0.208905
O O9 0.496014 0.336001 0.855253
O O10 0.577640 0.794051 0.441212
O O11 0.647015 0.303881 0.069251
O O12 0.500000 0.000000 0.000000
O O13 0.881986 0.637623 0.332360
O O14 0.754895 0.735779 0.499681
O O15 0.000000 0.000000 0.500000
O O16 0.323385 0.513343 0.411670
O O17 0.558922 0.548648 0.691109
O O18 0.500000 0.500000 0.500000
#
# Coordination Sequence:
#
# PCOD9007156 Si02
#       8
#     2   2   2   2   2   2   2   2
#     4  10  23  41  60  93 127 163 214 271 314 394
#     4  11  22  39  66  86 128 169 210 264 331 375
#     4  11  22  38  64  91 127 164 213 264 326 385
#     4  10  21  39  60  87 128 165 207 262 317 380
#     4  11  22  40  64  95 131 167 224 268 314 394
#     4  10  21  40  64  93 125 168 213 269 324 382
#     4   9  21  37  60  92 126 161 216 266 315 390
#     4  10  21  39  63  91 132 173 209 265 328 381
#
# _framework density 21.750671000000001
#
# number of rings (size 3 to 8) (size 9 to 14) (size 15 to 20)
#    0.000    1.750    1.250    2.625    1.750    1.000 
#    0.000    5.000    5.500    0.000    0.000    0.000 
#    0.000    0.000    0.000    0.000    0.000    0.000 
#
# Total GULP energy -89145.299289 kJ/mol
# GULP energy per Si atom -5571.581206 kJ/mol
# Density = 2.170117 g / cm^3
# Si number density = 21.750671 Si / 1000 Ang^3
#
#
#
# Elastic Constant Matrix: (Units=GPa)
#
#
# Indices 1 2 3 4 5 6 
#
# 1 123.1397 37.1359 0.9088 -8.5190 7.9529 -0.4396
# 2 37.1359 138.9092 15.1275 11.3770 -1.1235 0.0585
# 3 0.9088 15.1275 59.8677 10.6688 28.9437 -5.1895
# 4 -8.5190 11.3770 10.6688 24.2656 -3.9649 3.9431
# 5 7.9529 -1.1235 28.9437 -3.9649 43.6161 -5.8881
# 6 -0.4396 0.0585 -5.1895 3.9431 -5.8881 24.0874
#
#
#
# Elastic Compliance Matrix: (Units=1/GPa)
#
#
# Indices 1 2 3 4 5 6 
#
# 1 0.009425 -0.002961 0.000784 0.004153 -0.002050 -0.000833
# 2 -0.002961 0.008578 -0.002428 -0.003736 0.002104 0.000528
# 3 0.000784 -0.002428 0.031159 -0.016519 -0.021830 0.004101
# 4 0.004153 -0.003736 -0.016519 0.055443 0.013914 -0.009149
# 5 -0.002050 0.002104 -0.021830 0.013914 0.039461 0.002623
# 6 -0.000833 0.000528 0.004101 -0.009149 0.002623 0.044521
#
#
# Mechanical properties :
#
#
# Convention : Reuss Voigt Hill
#
# Bulk Modulus (GPa) = 25.03113 47.58455 36.30784
# Shear Modulus (GPa) = 23.68386 36.31014 29.99700
#
# Velocity S-wave (km/s) = 3.30340 4.09024 3.71769
# Velocity P-wave (km/s) = 5.10716 6.65068 5.92936
#
# Compressibility (1/GPa) = 0.03995025
#
# Stress axis : x y z
#
# Youngs Moduli (GPa) = 106.10208 116.57942 32.09392
#
# Poissons Ratio (x) = 0.34524 -0.02516
# Poissons Ratio (y) = 0.31421 0.07793
# Poissons Ratio (z) = -0.08319 0.28308
#
# Static dielectric constant tensor:
#      x y z
#    x 1.890340 -0.043620 -0.014200 
#    y -0.043620 1.895390 0.025750 
#    z -0.014200 0.025750 1.815240 
# 
# From -- ./inp_files/472537.got.cif
#   From: 2010.05.17/outbox.cif.g08.bks.cpg/sg2_237_cif.got.tgz:472537.got - 2010.06.03 11:33:40.
