data_PCOD9007433
_publ_section_title
;
Structure prediction by ZEFSAII (Michael W. Deem and Ramdas Pophale) SiO2 
 PCOD9007433
Probable space group: P -1
;
_chemical_formula_sum "Si O2"
_cell_formula_units_Z 12
_cell_length_a 17.105806
_cell_length_b 5.274189
_cell_length_c 9.472058
_cell_angle_alpha 97.800726
_cell_angle_beta 135.242037
_cell_angle_gamma 57.589242
_cell_volume 462.876583
_symmetry_space_group_name_H-M "P -1"
_symmetry_group_IT_number 2
_symmetry_cell_setting 'triclinic'
loop_
_space_group_symop_operation_xyz
x,y,z
-x,-y,-z
loop_
_atom_site_type_symbol
_atom_site_label
_atom_site_fract_x
_atom_site_fract_y
_atom_site_fract_z
Si Si1 0.943260 0.993519 0.577018
Si Si2 0.648227 0.543048 0.173761
Si Si3 0.765879 0.640033 0.071468
Si Si4 0.517968 0.361931 0.784165
Si Si5 0.073510 0.656741 0.148577
Si Si6 0.361145 0.379078 0.354946
O O1 0.777643 0.163773 0.356910
O O2 0.939441 0.236522 0.698447
O O3 0.000000 0.000000 0.500000
O O4 0.063361 0.613732 0.748685
O O5 0.564766 0.719153 0.223993
O O6 0.724811 0.641139 0.180994
O O7 0.538405 0.572524 0.926791
O O8 0.703460 0.508278 0.876495
O O9 0.675490 0.015814 0.935019
O O10 0.419265 0.533422 0.533049
O O11 0.235858 0.426724 0.286388
O O12 0.000000 0.500000 0.000000
O O13 0.000000 0.000000 0.000000
O O14 0.500000 0.000000 0.500000
#
# Coordination Sequence:
#
# PCOD9007433 Si02
#       6
#     2   2   2   2   2   2
#     4  10  22  43  66 101 138 182 242 293 362 431
#     4  10  21  39  61  92 135 176 231 285 354 428
#     4  10  21  39  62  92 132 174 234 284 364 412
#     4  10  21  39  61  92 135 176 231 285 354 428
#     4  12  26  52  75 107 150 196 248 305 368 440
#     4  10  22  43  66 101 138 182 242 293 362 431
#
# _framework density 25.924835999999999
#
# number of rings (size 3 to 8) (size 9 to 14) (size 15 to 20)
#    0.000    1.667    3.333    0.500    0.000    6.667 
#   12.000    0.000    0.000    0.000    0.000    0.000 
#    0.000    0.000    0.000    0.000    0.000    0.000 
#
# Total GULP energy -67058.424664 kJ/mol
# GULP energy per Si atom -5588.202055 kJ/mol
# Density = 2.586583 g / cm^3
# Si number density = 25.924836 Si / 1000 Ang^3
#
#
#
# Elastic Constant Matrix: (Units=GPa)
#
#
# Indices 1 2 3 4 5 6 
#
# 1 96.2599 68.2867 45.8679 0.2018 -2.1562 -21.9893
# 2 68.2867 83.6509 41.0429 -5.3144 7.5176 -16.9291
# 3 45.8679 41.0429 145.5463 4.2134 8.8854 -7.9005
# 4 0.2018 -5.3144 4.2134 59.3477 -23.5436 7.7271
# 5 -2.1562 7.5176 8.8854 -23.5436 44.9842 0.4696
# 6 -21.9893 -16.9291 -7.9005 7.7271 0.4696 48.7246
#
#
#
# Elastic Compliance Matrix: (Units=1/GPa)
#
#
# Indices 1 2 3 4 5 6 
#
# 1 0.027639 -0.020626 -0.002935 -0.000327 0.005130 0.004833
# 2 -0.020626 0.030332 -0.001694 0.000649 -0.005393 0.000905
# 3 -0.002935 -0.001694 0.008453 -0.001657 -0.002392 -0.000257
# 4 -0.000327 0.000649 -0.001657 0.022240 0.011883 -0.003832
# 5 0.005130 -0.005393 -0.002392 0.011883 0.030091 -0.002121
# 6 0.004833 0.000905 -0.000257 -0.003832 -0.002121 0.023606
#
#
# Mechanical properties :
#
#
# Convention : Reuss Voigt Hill
#
# Bulk Modulus (GPa) = 62.83570 70.65022 66.74296
# Shear Modulus (GPa) = 25.23019 41.96195 33.59607
#
# Velocity S-wave (km/s) = 3.12301 4.02755 3.60377
# Velocity P-wave (km/s) = 6.10692 6.99566 6.56635
#
# Compressibility (1/GPa) = 0.01591452
#
# Stress axis : x y z
#
# Youngs Moduli (GPa) = 36.18085 32.96850 118.29566
#
# Poissons Ratio (x) = 0.68001 0.34722
# Poissons Ratio (y) = 0.74626 0.20036
# Poissons Ratio (z) = 0.10620 0.05584
#
# Static dielectric constant tensor:
#      x y z
#    x 2.092420 0.025590 -0.012210 
#    y 0.025590 2.088340 0.033210 
#    z -0.012210 0.033210 2.112340 
# 
# From -- ./inp_files/38156.got.cif
#   From: 2010.05.17/outbox.cif.g08.bks.cpg/sg2_20_cif.got.tgz:38156.got - 2010.06.03 11:33:40.
