data_PCOD9007297
_publ_section_title
;
Structure prediction by ZEFSAII (Michael W. Deem and Ramdas Pophale) SiO2 
 PCOD9007297
Probable space group: P -1
;
_chemical_formula_sum "Si O2"
_cell_formula_units_Z 14
_cell_length_a 6.136642
_cell_length_b 11.982827
_cell_length_c 8.977427
_cell_angle_alpha 113.323596
_cell_angle_beta 86.090785
_cell_angle_gamma 104.625716
_cell_volume 586.184694
_symmetry_space_group_name_H-M "P -1"
_symmetry_group_IT_number 2
_symmetry_cell_setting 'triclinic'
loop_
_space_group_symop_operation_xyz
x,y,z
-x,-y,-z
loop_
_atom_site_type_symbol
_atom_site_label
_atom_site_fract_x
_atom_site_fract_y
_atom_site_fract_z
Si Si1 0.055267 0.251952 0.098638
Si Si2 0.887886 0.876244 0.257458
Si Si3 0.215264 0.579959 0.121197
Si Si4 0.502049 0.396693 0.144386
Si Si5 0.659740 0.051531 0.159107
Si Si6 0.646117 0.930998 0.562081
Si Si7 0.932203 0.503731 0.336456
O O1 0.885995 0.138872 0.126680
O O2 0.967921 0.372238 0.205276
O O3 0.312605 0.283642 0.160766
O O4 0.065719 0.230234 0.909100
O O5 0.744346 0.841660 0.397996
O O6 0.746026 0.948136 0.196024
O O7 0.129043 0.969041 0.336887
O O8 0.366234 0.490195 0.128693
O O9 0.096575 0.616411 0.294458
O O10 0.373528 0.656759 0.026160
O O11 0.000000 0.500000 0.000000
O O12 0.672216 0.483136 0.296720
O O13 0.518142 0.115620 0.315698
O O14 0.500000 0.000000 0.000000
O O15 0.500000 0.000000 0.500000
O O16 0.000000 0.500000 0.500000
#
# Coordination Sequence:
#
# PCOD9007297 Si02
#       7
#     2   2   2   2   2   2   2
#     4  11  23  35  61  96 117 162 212 244 304 365
#     4  10  21  39  61  86 121 162 205 248 301 359
#     4   8  16  36  61  82 107 154 196 243 303 357
#     4   9  19  36  63  83 117 154 202 248 301 360
#     4  11  22  37  63  89 127 162 199 250 307 359
#     4   9  20  38  61  82 119 163 198 246 301 354
#     4  10  22  39  61  88 125 156 199 256 310 363
#
# _framework density 23.883255999999999
#
# number of rings (size 3 to 8) (size 9 to 14) (size 15 to 20)
#    0.000    2.286    1.429    0.429    2.000    2.286 
#    2.571    0.000   40.857    0.000    0.000    0.000 
#    0.000    0.000    0.000    0.000    0.000    0.000 
#
# Total GULP energy -78083.321136 kJ/mol
# GULP energy per Si atom -5577.380081 kJ/mol
# Density = 2.382890 g / cm^3
# Si number density = 23.883256 Si / 1000 Ang^3
#
#
#
# Elastic Constant Matrix: (Units=GPa)
#
#
# Indices 1 2 3 4 5 6 
#
# 1 137.1273 34.7283 59.1496 -12.5665 19.5928 26.1693
# 2 34.7283 51.4837 27.5651 -12.9652 -0.9741 24.6180
# 3 59.1496 27.5651 155.9165 -17.2924 0.1874 3.6358
# 4 -12.5665 -12.9652 -17.2924 30.5941 -4.0410 -16.3250
# 5 19.5928 -0.9741 0.1874 -4.0410 50.3558 -6.4488
# 6 26.1693 24.6180 3.6358 -16.3250 -6.4488 47.9025
#
#
#
# Elastic Compliance Matrix: (Units=1/GPa)
#
#
# Indices 1 2 3 4 5 6 
#
# 1 0.011563 -0.003763 -0.003899 -0.002882 -0.005533 -0.005815
# 2 -0.003763 0.030320 -0.003312 0.003058 0.000755 -0.012132
# 3 -0.003899 -0.003312 0.008927 0.005177 0.002508 0.005256
# 4 -0.002882 0.003058 0.005177 0.045109 0.006818 0.015901
# 5 -0.005533 0.000755 0.002508 0.006818 0.023581 0.007943
# 6 -0.005815 -0.012132 0.005256 0.015901 0.007943 0.036376
#
#
# Mechanical properties :
#
#
# Convention : Reuss Voigt Hill
#
# Bulk Modulus (GPa) = 34.64576 65.26819 49.95697
# Shear Modulus (GPa) = 26.67445 40.64278 33.65861
#
# Velocity S-wave (km/s) = 3.34558 4.12967 3.75813
# Velocity P-wave (km/s) = 5.42786 7.07999 6.30825
#
# Compressibility (1/GPa) = 0.02886356
#
# Stress axis : x y z
#
# Youngs Moduli (GPa) = 86.48005 32.98128 112.02094
#
# Poissons Ratio (x) = 0.12410 0.43677
# Poissons Ratio (y) = 0.32539 0.37100
# Poissons Ratio (z) = 0.33718 0.10923
#
# Static dielectric constant tensor:
#      x y z
#    x 2.028030 0.024680 -0.042860 
#    y 0.024680 2.024200 -0.060660 
#    z -0.042860 -0.060660 2.001420 
# 
# From -- ./inp_files/90253.got.cif
#   From: 2010.05.17/outbox.cif.g08.bks.cpg/sg2_46_cif.got.tgz:90253.got - 2010.06.03 11:33:40.
