data_PCOD9007391
_publ_section_title
;
Structure prediction by ZEFSAII (Michael W. Deem and Ramdas Pophale) SiO2 
 PCOD9007391
Probable space group: P -1
;
_chemical_formula_sum "Si O2"
_cell_formula_units_Z 16
_cell_length_a 11.963151
_cell_length_b 12.260558
_cell_length_c 5.040899
_cell_angle_alpha 81.477550
_cell_angle_beta 71.407914
_cell_angle_gamma 73.662087
_cell_volume 671.096167
_symmetry_space_group_name_H-M "P -1"
_symmetry_group_IT_number 2
_symmetry_cell_setting 'triclinic'
loop_
_space_group_symop_operation_xyz
x,y,z
-x,-y,-z
loop_
_atom_site_type_symbol
_atom_site_label
_atom_site_fract_x
_atom_site_fract_y
_atom_site_fract_z
Si Si1 0.656712 0.580183 0.603335
Si Si2 0.600877 0.121478 0.000656
Si Si3 0.365755 0.264391 0.916813
Si Si4 0.736573 0.029961 0.420324
Si Si5 0.134761 0.766080 0.754878
Si Si6 0.282871 0.665319 0.172248
Si Si7 0.072576 0.443363 0.711378
Si Si8 0.132638 0.196870 0.882965
O O1 0.591127 0.667544 0.389348
O O2 0.635896 0.458978 0.757069
O O3 0.792004 0.542269 0.394682
O O4 0.657387 0.652904 0.841974
O O5 0.467557 0.153054 0.967078
O O6 0.693297 0.043523 0.750956
O O7 0.634541 0.244364 0.944589
O O8 0.621787 0.067049 0.293904
O O9 0.243874 0.226208 0.949184
O O10 0.814443 0.122473 0.279968
O O11 0.814973 0.909374 0.306362
O O12 0.184521 0.713867 0.456033
O O13 0.204268 0.675517 0.957634
O O14 0.988822 0.806454 0.863892
O O15 0.084372 0.310918 0.712880
O O16 0.000000 0.500000 0.500000
O O17 0.000000 0.500000 0.000000
#
# Coordination Sequence:
#
# PCOD9007391 Si02
#       8
#     2   2   2   2   2   2   2   2
#     4  11  22  38  58  90 120 158 205 242 295 357
#     4  10  23  43  61  88 119 157 205 252 299 347
#     4  11  25  39  59  89 124 158 203 249 294 358
#     4  10  23  41  65  87 116 157 205 251 295 353
#     4  10  21  39  61  91 121 154 198 247 301 356
#     4  10  21  39  64  87 121 160 197 247 300 351
#     4  11  22  37  57  84 121 156 188 231 287 355
#     4  11  24  40  63  91 123 159 196 245 301 356
#
# _framework density 23.84159
#
# number of rings (size 3 to 8) (size 9 to 14) (size 15 to 20)
#    0.000    1.500    0.000    4.875    0.000    8.000 
#    0.000    3.750    0.000    0.000    0.000    0.000 
#    0.000    0.000    0.000    0.000    0.000    0.000 
#
# Total GULP energy -89545.621783 kJ/mol
# GULP energy per Si atom -5596.601361 kJ/mol
# Density = 2.378733 g / cm^3
# Si number density = 23.841590 Si / 1000 Ang^3
#
#
#
# Elastic Constant Matrix: (Units=GPa)
#
#
# Indices 1 2 3 4 5 6 
#
# 1 70.9222 9.7074 9.3982 7.7567 -5.1118 -5.5138
# 2 9.7074 121.8336 15.6688 8.2763 1.6431 10.2160
# 3 9.3982 15.6688 97.2201 8.2333 18.1546 11.7989
# 4 7.7567 8.2763 8.2333 22.2054 -3.6209 -0.4034
# 5 -5.1118 1.6431 18.1546 -3.6209 25.4531 3.2645
# 6 -5.5138 10.2160 11.7989 -0.4034 3.2645 25.6535
#
#
#
# Elastic Compliance Matrix: (Units=1/GPa)
#
#
# Indices 1 2 3 4 5 6 
#
# 1 0.015536 -0.001122 -0.002246 -0.003487 0.003749 0.004287
# 2 -0.001122 0.008863 -0.000598 -0.002806 -0.000322 -0.003499
# 3 -0.002246 -0.000598 0.013663 -0.005836 -0.010307 -0.005309
# 4 -0.003487 -0.002806 -0.005836 0.051237 0.010610 0.002507
# 5 0.003749 -0.000322 -0.010307 0.010610 0.048972 -0.000391
# 6 0.004287 -0.003499 -0.005309 0.002507 -0.000391 0.043827
#
#
# Mechanical properties :
#
#
# Convention : Reuss Voigt Hill
#
# Bulk Modulus (GPa) = 33.19023 39.94719 36.56871
# Shear Modulus (GPa) = 24.99098 31.67583 28.33340
#
# Velocity S-wave (km/s) = 3.24112 3.64894 3.45106
# Velocity P-wave (km/s) = 5.28752 5.87747 5.59028
#
# Compressibility (1/GPa) = 0.03012935
#
# Stress axis : x y z
#
# Youngs Moduli (GPa) = 64.36647 112.83495 73.19303
#
# Poissons Ratio (x) = 0.12662 0.16440
# Poissons Ratio (y) = 0.07223 0.04374
# Poissons Ratio (z) = 0.14457 0.06743
#
# Static dielectric constant tensor:
#      x y z
#    x 1.960090 0.044780 -0.035950 
#    y 0.044780 1.884770 -0.038210 
#    z -0.035950 -0.038210 1.863820 
# 
# From -- ./inp_files/70444.got.cif
#   From: 2010.05.17/outbox.cif.g08.bks.cpg/sg2_36_cif.got.tgz:70444.got - 2010.06.03 11:33:40.
