data_PCOD9007202
_publ_section_title
;
Structure prediction by ZEFSAII (Michael W. Deem and Ramdas Pophale) SiO2 
 PCOD9007202
Probable space group: P -1
;
_chemical_formula_sum "Si O2"
_cell_formula_units_Z 14
_cell_length_a 8.401849
_cell_length_b 20.194163
_cell_length_c 12.846731
_cell_angle_alpha 37.996630
_cell_angle_beta 49.280467
_cell_angle_gamma 30.904362
_cell_volume 687.224378
_symmetry_space_group_name_H-M "P -1"
_symmetry_group_IT_number 2
_symmetry_cell_setting 'triclinic'
loop_
_space_group_symop_operation_xyz
x,y,z
-x,-y,-z
loop_
_atom_site_type_symbol
_atom_site_label
_atom_site_fract_x
_atom_site_fract_y
_atom_site_fract_z
Si Si1 0.444334 0.948419 0.186571
Si Si2 0.727914 0.246795 0.755861
Si Si3 0.437980 0.910126 0.906336
Si Si4 0.134602 0.378260 0.499782
Si Si5 0.256015 0.168415 0.335788
Si Si6 0.812458 0.418704 0.378244
Si Si7 0.831259 0.133342 0.495564
O O1 0.364875 0.065095 0.164411
O O2 0.765221 0.771341 0.303687
O O3 0.500000 0.000000 0.000000
O O4 0.439913 0.805617 0.109322
O O5 0.749418 0.317220 0.559924
O O6 0.509482 0.400586 0.734999
O O7 0.793112 0.062298 0.696603
O O8 0.081033 0.084804 0.835083
O O9 0.568786 0.838860 0.824201
O O10 0.471965 0.293390 0.423473
O O11 0.000000 0.500000 0.500000
O O12 0.932209 0.429719 0.420456
O O13 0.079162 0.315537 0.306502
O O14 0.006341 0.176185 0.391664
O O15 0.500000 0.000000 0.500000
O O16 0.000000 0.000000 0.500000
#
# Coordination Sequence:
#
# PCOD9007202 Si02
#       7
#     2   2   2   2   2   2   2
#     4  10  22  36  62  88 122 158 210 247 299 358
#     4  10  23  37  66  88 128 156 206 259 306 362
#     4  11  22  41  59  97 123 159 206 262 302 362
#     4  10  23  40  63  90 123 158 207 255 297 368
#     4  12  22  38  65  92 125 163 203 253 312 372
#     4  11  23  41  63  95 120 162 209 251 313 372
#     4  10  21  39  60  90 120 164 198 248 304 362
#
# _framework density 20.371804999999998
#
# number of rings (size 3 to 8) (size 9 to 14) (size 15 to 20)
#    0.857    0.571    4.286    0.857    8.000    0.571 
#    0.000    0.000    0.000    1.714    0.000    0.000 
#    0.000    0.000    0.000    0.000    0.000    0.000 
#
# Total GULP energy -77960.523371 kJ/mol
# GULP energy per Si atom -5568.608812 kJ/mol
# Density = 2.032544 g / cm^3
# Si number density = 20.371805 Si / 1000 Ang^3
#
#
#
# Elastic Constant Matrix: (Units=GPa)
#
#
# Indices 1 2 3 4 5 6 
#
# 1 82.4870 29.4116 15.5094 3.2222 -8.8799 -3.5528
# 2 29.4116 158.3369 24.5195 7.5526 10.2225 11.1512
# 3 15.5094 24.5195 70.1564 3.4671 -15.6251 1.8396
# 4 3.2222 7.5526 3.4671 26.8983 5.8963 2.3943
# 5 -8.8799 10.2225 -15.6251 5.8963 27.4457 -0.8861
# 6 -3.5528 11.1512 1.8396 2.3943 -0.8861 34.9320
#
#
#
# Elastic Compliance Matrix: (Units=1/GPa)
#
#
# Indices 1 2 3 4 5 6 
#
# 1 0.014161 -0.002975 -0.000748 -0.002289 0.005844 0.002735
# 2 -0.002975 0.007973 -0.003393 0.000118 -0.005980 -0.002829
# 3 -0.000748 -0.003393 0.018580 -0.004152 0.012512 0.000630
# 4 -0.002289 0.000118 -0.004152 0.040872 -0.012031 -0.003158
# 5 0.005844 -0.005980 0.012512 -0.012031 0.050389 0.003947
# 6 0.002735 -0.002829 0.000630 -0.003158 0.003947 0.030092
#
#
# Mechanical properties :
#
#
# Convention : Reuss Voigt Hill
#
# Bulk Modulus (GPa) = 37.75949 49.98461 43.87205
# Shear Modulus (GPa) = 27.00871 33.95787 30.48329
#
# Velocity S-wave (km/s) = 3.64509 4.08720 3.87246
# Velocity P-wave (km/s) = 6.02420 6.84566 6.44803
#
# Compressibility (1/GPa) = 0.02648341
#
# Stress axis : x y z
#
# Youngs Moduli (GPa) = 70.61670 125.41661 53.82116
#
# Poissons Ratio (x) = 0.37316 0.04024
# Poissons Ratio (y) = 0.21011 0.18259
# Poissons Ratio (z) = 0.05279 0.42548
#
# Static dielectric constant tensor:
#      x y z
#    x 1.807920 -0.006450 0.015340 
#    y -0.006450 1.772120 0.017190 
#    z 0.015340 0.017190 1.720440 
# 
# From -- ./inp_files/330910.got.cif
#   From: 2010.05.17/outbox.cif.g08.bks.cpg/sg2_166_cif.got.tgz:330910.got - 2010.06.03 11:33:40.
