data_PCOD9007863
_publ_section_title
;
Structure prediction by ZEFSAII (Michael W. Deem and Ramdas Pophale) SiO2 
 PCOD9007863
Probable space group: P -1
;
_chemical_formula_sum "Si O2"
_cell_formula_units_Z 16
_cell_length_a 11.276090
_cell_length_b 10.124564
_cell_length_c 5.555906
_cell_angle_alpha 94.706547
_cell_angle_beta 105.506376
_cell_angle_gamma 82.333171
_cell_volume 605.026196
_symmetry_space_group_name_H-M "P -1"
_symmetry_group_IT_number 2
_symmetry_cell_setting 'triclinic'
loop_
_space_group_symop_operation_xyz
x,y,z
-x,-y,-z
loop_
_atom_site_type_symbol
_atom_site_label
_atom_site_fract_x
_atom_site_fract_y
_atom_site_fract_z
Si Si1 0.572224 0.622709 0.479817
Si Si2 0.031575 0.898282 0.712478
Si Si3 0.896944 0.838940 0.024428
Si Si4 0.217995 0.633457 0.721577
Si Si5 0.897556 0.405883 0.849894
Si Si6 0.657710 0.718828 0.035324
Si Si7 0.600908 0.100528 0.588785
Si Si8 0.383159 0.839087 0.886746
O O1 0.500000 0.500000 0.500000
O O2 0.653196 0.649273 0.761295
O O3 0.468342 0.749919 0.426953
O O4 0.640921 0.630039 0.255545
O O5 0.129416 0.773444 0.694324
O O6 0.911235 0.834013 0.740170
O O7 0.000000 0.000000 0.500000
O O8 0.094737 0.004572 0.922850
O O9 0.783865 0.786709 0.094020
O O10 0.023057 0.741599 0.146731
O O11 0.175899 0.568327 0.439576
O O12 0.351524 0.686804 0.818176
O O13 0.190630 0.579472 0.962170
O O14 0.000000 0.500000 0.000000
O O15 0.533543 0.826807 0.978933
O O16 0.670112 0.086770 0.371016
O O17 0.500000 0.000000 0.500000
O O18 0.662806 0.093978 0.879490
#
# Coordination Sequence:
#
# PCOD9007863 Si02
#       8
#     2   2   2   2   2   2   2   2
#     4  10  22  42  62  90 134 179 222 265 324 398
#     4  10  21  41  70  94 137 165 225 283 337 401
#     4  10  23  42  66 104 127 177 221 279 349 390
#     4  11  23  42  70  94 131 173 220 273 340 397
#     4  11  24  45  66  94 127 171 230 280 327 391
#     4  10  23  42  67  97 137 171 221 273 327 415
#     4  10  21  39  63  88 134 174 219 268 318 399
#     4  10  22  42  62 100 132 175 211 267 334 411
#
# _framework density 26.445136000000002
#
# number of rings (size 3 to 8) (size 9 to 14) (size 15 to 20)
#    0.000    1.750    1.250    1.875    1.750    4.000 
#   15.750    0.000    0.000    0.000    0.000    0.000 
#    0.000    0.000    0.000    0.000    0.000    0.000 
#
# Total GULP energy -89308.193938 kJ/mol
# GULP energy per Si atom -5581.762121 kJ/mol
# Density = 2.638495 g / cm^3
# Si number density = 26.445136 Si / 1000 Ang^3
#
#
#
# Elastic Constant Matrix: (Units=GPa)
#
#
# Indices 1 2 3 4 5 6 
#
# 1 111.8267 23.4148 75.8100 -14.6759 -24.6425 22.2762
# 2 23.4148 84.6329 38.6003 1.3358 -15.4420 13.9098
# 3 75.8100 38.6003 226.6596 0.9375 -23.0758 18.2896
# 4 -14.6759 1.3358 0.9375 49.9883 6.3155 -3.8456
# 5 -24.6425 -15.4420 -23.0758 6.3155 33.6670 -12.8081
# 6 22.2762 13.9098 18.2896 -3.8456 -12.8081 57.7289
#
#
#
# Elastic Compliance Matrix: (Units=1/GPa)
#
#
# Indices 1 2 3 4 5 6 
#
# 1 0.013785 -0.000725 -0.003724 0.003231 0.005649 -0.002496
# 2 -0.000725 0.013800 -0.001524 -0.001231 0.004346 -0.001680
# 3 -0.003724 -0.001524 0.006017 -0.001283 0.000949 0.000023
# 4 0.003231 -0.001231 -0.001283 0.021407 -0.003014 0.000214
# 5 0.005649 0.004346 0.000949 -0.003014 0.038913 0.004905
# 6 -0.002496 -0.001680 0.000023 0.000214 0.004905 0.019786
#
#
# Mechanical properties :
#
#
# Convention : Reuss Voigt Hill
#
# Bulk Modulus (GPa) = 46.17928 77.64105 61.91017
# Shear Modulus (GPa) = 37.62984 47.29645 42.46315
#
# Velocity S-wave (km/s) = 3.77628 4.23362 4.01148
# Velocity P-wave (km/s) = 6.04268 7.30213 6.70205
#
# Compressibility (1/GPa) = 0.02165473
#
# Stress axis : x y z
#
# Youngs Moduli (GPa) = 72.54344 72.46272 166.19368
#
# Poissons Ratio (x) = 0.05256 0.61888
# Poissons Ratio (y) = 0.05262 0.25336
# Poissons Ratio (z) = 0.27014 0.11047
#
# Static dielectric constant tensor:
#      x y z
#    x 2.126600 0.010270 0.074340 
#    y 0.010270 2.014760 -0.109160 
#    z 0.074340 -0.109160 1.746430 
# 
# From -- ./inp_files/70693.got.cif
#   From: 2010.05.17/outbox.cif.g08.bks.cpg/sg2_36_cif.got.tgz:70693.got - 2010.06.03 11:33:40.
