data_PCOD9007868
_publ_section_title
;
Structure prediction by ZEFSAII (Michael W. Deem and Ramdas Pophale) SiO2 
 PCOD9007868
Probable space group: P -1
;
_chemical_formula_sum "Si O2"
_cell_formula_units_Z 14
_cell_length_a 9.403026
_cell_length_b 17.861813
_cell_length_c 5.247101
_cell_angle_alpha 97.723617
_cell_angle_beta 43.692089
_cell_angle_gamma 113.240077
_cell_volume 543.334220
_symmetry_space_group_name_H-M "P -1"
_symmetry_group_IT_number 2
_symmetry_cell_setting 'triclinic'
loop_
_space_group_symop_operation_xyz
x,y,z
-x,-y,-z
loop_
_atom_site_type_symbol
_atom_site_label
_atom_site_fract_x
_atom_site_fract_y
_atom_site_fract_z
Si Si1 0.603616 0.630263 0.139869
Si Si2 0.831979 0.519604 0.548671
Si Si3 0.124078 0.924555 0.423687
Si Si4 0.647627 0.764520 0.903389
Si Si5 0.609584 0.177601 0.139563
Si Si6 0.712263 0.977694 0.239856
Si Si7 0.919107 0.679333 0.243879
O O1 0.338269 0.561717 0.418204
O O2 0.788855 0.670292 0.149405
O O3 0.695500 0.556825 0.920043
O O4 0.533730 0.714805 0.276896
O O5 0.950772 0.598302 0.240887
O O6 0.000000 0.500000 0.500000
O O7 0.135913 0.964014 0.702700
O O8 0.880235 0.847188 0.655991
O O9 0.311911 0.886915 0.143469
O O10 0.179536 0.993227 0.162139
O O11 0.482385 0.777385 0.925805
O O12 0.735246 0.688753 0.696746
O O13 0.405506 0.118484 0.563258
O O14 0.844242 0.238813 0.999731
O O15 0.500000 0.000000 0.500000
#
# Coordination Sequence:
#
# PCOD9007868 Si02
#       7
#     2   2   2   2   2   2   2
#     4  10  22  39  60  87 125 157 199 260 308 374
#     4  10  21  39  63  89 119 158 203 249 311 380
#     4  10  23  42  64  89 133 166 218 272 323 368
#     4  10  23  39  59  90 125 164 209 257 317 378
#     4  10  21  40  61  89 122 166 212 257 317 381
#     4  10  21  41  64  91 126 172 214 273 321 374
#     4  10  22  40  59  90 126 159 202 260 312 371
#
# _framework density 25.766831
#
# number of rings (size 3 to 8) (size 9 to 14) (size 15 to 20)
#    0.000    2.000    0.000    3.000    6.000    2.857 
#   10.286    0.000    0.000    0.000    0.000    0.000 
#    0.000    0.000    0.000    0.000    0.000    0.000 
#
# Total GULP energy -78169.432098 kJ/mol
# GULP energy per Si atom -5583.530864 kJ/mol
# Density = 2.570818 g / cm^3
# Si number density = 25.766831 Si / 1000 Ang^3
#
#
#
# Elastic Constant Matrix: (Units=GPa)
#
#
# Indices 1 2 3 4 5 6 
#
# 1 212.3523 97.6809 40.2487 -0.2100 7.7752 -10.1025
# 2 97.6809 186.2382 41.9755 -31.9333 -5.0590 -2.4892
# 3 40.2487 41.9755 96.6316 11.3317 -15.8993 6.6158
# 4 -0.2100 -31.9333 11.3317 35.5066 -3.2553 -6.2871
# 5 7.7752 -5.0590 -15.8993 -3.2553 23.1047 -1.6079
# 6 -10.1025 -2.4892 6.6158 -6.2871 -1.6079 60.2588
#
#
#
# Elastic Compliance Matrix: (Units=1/GPa)
#
#
# Indices 1 2 3 4 5 6 
#
# 1 0.007093 -0.004055 -0.001638 -0.003398 -0.004831 0.000718
# 2 -0.004055 0.010295 -0.003712 0.010908 0.002696 0.001363
# 3 -0.001638 -0.003712 0.015215 -0.007861 0.008915 -0.002681
# 4 -0.003398 0.010908 -0.007861 0.041788 0.004373 0.005221
# 5 -0.004831 0.002696 0.008915 0.004373 0.052260 0.000174
# 6 0.000718 0.001363 -0.002681 0.005221 0.000174 0.017615
#
#
# Mechanical properties :
#
#
# Convention : Reuss Voigt Hill
#
# Bulk Modulus (GPa) = 72.50197 95.00358 83.75277
# Shear Modulus (GPa) = 29.81983 44.79516 37.30749
#
# Velocity S-wave (km/s) = 3.40559 4.17403 3.80924
# Velocity P-wave (km/s) = 6.60779 7.75762 7.20568
#
# Compressibility (1/GPa) = 0.01379273
#
# Stress axis : x y z
#
# Youngs Moduli (GPa) = 140.99065 97.13804 65.72279
#
# Poissons Ratio (x) = 0.39390 0.10767
# Poissons Ratio (y) = 0.57173 0.24394
# Poissons Ratio (z) = 0.23098 0.36054
#
# Static dielectric constant tensor:
#      x y z
#    x 1.942510 -0.023340 -0.003080 
#    y -0.023340 2.072400 0.131320 
#    z -0.003080 0.131320 2.286310 
# 
# From -- ./inp_files/48109.got.cif
#   From: 2010.05.17/outbox.cif.g08.bks.cpg/sg2_25_cif.got.tgz:48109.got - 2010.06.03 11:33:40.
