data_PCOD9007669
_publ_section_title
;
Structure prediction by ZEFSAII (Michael W. Deem and Ramdas Pophale) SiO2 
 PCOD9007669
Probable space group: P -1
;
_chemical_formula_sum "Si O2"
_cell_formula_units_Z 16
_cell_length_a 6.634609
_cell_length_b 7.487764
_cell_length_c 12.887330
_cell_angle_alpha 106.907792
_cell_angle_beta 89.578485
_cell_angle_gamma 95.406182
_cell_volume 609.687792
_symmetry_space_group_name_H-M "P -1"
_symmetry_group_IT_number 2
_symmetry_cell_setting 'triclinic'
loop_
_space_group_symop_operation_xyz
x,y,z
-x,-y,-z
loop_
_atom_site_type_symbol
_atom_site_label
_atom_site_fract_x
_atom_site_fract_y
_atom_site_fract_z
Si Si1 0.586601 0.522597 0.348155
Si Si2 0.641953 0.892990 0.317019
Si Si3 0.770252 0.802607 0.683815
Si Si4 0.633624 0.686878 0.067539
Si Si5 0.110827 0.831092 0.356781
Si Si6 0.183250 0.715296 0.569774
Si Si7 0.941490 0.520948 0.174916
Si Si8 0.848129 0.855370 0.917337
O O1 0.536836 0.737452 0.370868
O O2 0.394754 0.371053 0.322829
O O3 0.714615 0.475641 0.441377
O O4 0.745401 0.491642 0.248656
O O5 0.583802 0.811236 0.189149
O O6 0.879866 0.875468 0.340931
O O7 0.653583 0.116297 0.363419
O O8 0.797723 0.911541 0.811399
O O9 0.980531 0.719934 0.638562
O O10 0.754541 0.974206 0.631672
O O11 0.847457 0.615439 0.091829
O O12 0.500000 0.500000 0.000000
O O13 0.658815 0.811357 0.985965
O O14 0.127778 0.758858 0.460375
O O15 0.119566 0.661871 0.248059
O O16 0.036458 0.330471 0.125359
O O17 0.000000 0.000000 0.000000
#
# Coordination Sequence:
#
# PCOD9007669 Si02
#       8
#     2   2   2   2   2   2   2   2
#     4  10  22  41  63  96 136 160 218 268 312 385
#     4   9  20  40  62  95 131 164 216 264 314 388
#     4  11  22  41  64  97 127 164 222 263 316 387
#     4  10  21  39  62  91 126 165 211 260 324 379
#     4   9  21  42  65  88 126 172 213 260 324 386
#     4  11  21  44  69  88 133 179 205 267 333 369
#     4  10  22  43  62  92 130 167 213 262 320 389
#     4  12  22  39  65  92 123 170 212 262 322 379
#
# _framework density 26.242940000000001
#
# number of rings (size 3 to 8) (size 9 to 14) (size 15 to 20)
#    0.000    2.000    1.250    5.625    0.000    2.500 
#    9.000    6.875    2.750    0.000    0.000    0.000 
#    0.000    0.000    0.000    0.000    0.000    0.000 
#
# Total GULP energy -89581.396289 kJ/mol
# GULP energy per Si atom -5598.837268 kJ/mol
# Density = 2.618321 g / cm^3
# Si number density = 26.242940 Si / 1000 Ang^3
#
#
#
# Elastic Constant Matrix: (Units=GPa)
#
#
# Indices 1 2 3 4 5 6 
#
# 1 72.7509 45.5378 23.6149 -6.9492 -1.7409 23.2962
# 2 45.5378 148.1497 15.4286 2.6202 -11.4593 24.3295
# 3 23.6149 15.4286 123.5372 -11.7113 3.3979 11.5664
# 4 -6.9492 2.6202 -11.7113 58.1362 -1.7650 7.5893
# 5 -1.7409 -11.4593 3.3979 -1.7650 18.7354 1.6087
# 6 23.2962 24.3295 11.5664 7.5893 1.6087 68.3640
#
#
#
# Elastic Compliance Matrix: (Units=1/GPa)
#
#
# Indices 1 2 3 4 5 6 
#
# 1 0.019417 -0.005004 -0.002386 0.002678 -0.000166 -0.004726
# 2 -0.005004 0.008965 -0.000231 -0.000699 0.005122 -0.001489
# 3 -0.002386 -0.000231 0.008843 0.001549 -0.001758 -0.000732
# 4 0.002678 -0.000699 0.001549 0.018302 0.001522 -0.002993
# 5 -0.000166 0.005122 -0.001758 0.001522 0.057211 -0.002984
# 6 -0.004726 -0.001489 -0.000732 -0.002993 -0.002984 0.017294
#
#
# Mechanical properties :
#
#
# Convention : Reuss Voigt Hill
#
# Bulk Modulus (GPa) = 45.48712 57.06670 51.27691
# Shear Modulus (GPa) = 32.76488 46.37088 39.56788
#
# Velocity S-wave (km/s) = 3.53728 4.20811 3.88719
# Velocity P-wave (km/s) = 5.83556 6.73823 6.30307
#
# Compressibility (1/GPa) = 0.02198425
#
# Stress axis : x y z
#
# Youngs Moduli (GPa) = 51.50039 111.54174 113.07977
#
# Poissons Ratio (x) = 0.55816 0.26980
# Poissons Ratio (y) = 0.25771 0.02610
# Poissons Ratio (z) = 0.12288 0.02575
#
# Static dielectric constant tensor:
#      x y z
#    x 2.174580 -0.018400 -0.022150 
#    y -0.018400 2.081070 -0.008950 
#    z -0.022150 -0.008950 2.051720 
# 
# From -- ./inp_files/379567.got.cif
#   From: 2010.05.17/outbox.cif.g08.bks.cpg/sg2_190_cif.got.tgz:379567.got - 2010.06.03 11:33:40.
