data_PCOD9007027
_publ_section_title
;
Structure prediction by ZEFSAII (Michael W. Deem and Ramdas Pophale) SiO2 
 PCOD9007027
Probable space group: P -1
;
_chemical_formula_sum "Si O2"
_cell_formula_units_Z 14
_cell_length_a 15.985019
_cell_length_b 11.564180
_cell_length_c 14.373810
_cell_angle_alpha 29.284528
_cell_angle_beta 36.036872
_cell_angle_gamma 33.717332
_cell_volume 686.787513
_symmetry_space_group_name_H-M "P -1"
_symmetry_group_IT_number 2
_symmetry_cell_setting 'triclinic'
loop_
_space_group_symop_operation_xyz
x,y,z
-x,-y,-z
loop_
_atom_site_type_symbol
_atom_site_label
_atom_site_fract_x
_atom_site_fract_y
_atom_site_fract_z
Si Si1 0.169852 0.898238 0.197104
Si Si2 0.657092 0.922016 0.852872
Si Si3 0.910222 0.953262 0.029109
Si Si4 0.165953 0.750380 0.505735
Si Si5 0.437296 0.847126 0.731911
Si Si6 0.523817 0.723029 0.948530
Si Si7 0.015147 0.545296 0.074062
O O1 0.343448 0.880416 0.037213
O O2 0.179637 0.724655 0.399180
O O3 0.123695 0.849332 0.168267
O O4 0.037979 0.198918 0.123091
O O5 0.699504 0.170080 0.634658
O O6 0.812327 0.692896 0.922860
O O7 0.629113 0.810392 0.858473
O O8 0.500000 0.000000 0.000000
O O9 0.011373 0.670883 0.090708
O O10 0.743147 0.981916 0.195349
O O11 0.000000 0.000000 0.000000
O O12 0.865356 0.477926 0.259740
O O13 0.000000 0.000000 0.500000
O O14 0.443786 0.582721 0.864261
O O15 0.500000 0.000000 0.500000
O O16 0.532032 0.777238 0.793598
#
# Coordination Sequence:
#
# PCOD9007027 Si02
#       7
#     2   2   2   2   2   2   2
#     4   9  20  38  63  80 122 159 193 237 310 344
#     4  11  21  38  64  89 121 157 199 250 294 350
#     4   9  19  39  60  86 113 155 199 240 293 352
#     4  10  21  39  59  86 119 159 198 238 300 353
#     4  10  22  39  65  87 121 158 195 247 308 348
#     4  10  21  40  61  90 122 154 199 249 296 354
#     4   9  22  39  62  83 124 154 202 241 297 359
#
# _framework density 20.384763
#
# number of rings (size 3 to 8) (size 9 to 14) (size 15 to 20)
#    0.857    1.429    1.429    0.857    2.000    2.286 
#    5.143    2.857    0.000    0.000    0.000    0.000 
#    0.000    0.000    0.000    0.000    0.000    0.000 
#
# Total GULP energy -77955.819922 kJ/mol
# GULP energy per Si atom -5568.272852 kJ/mol
# Density = 2.033837 g / cm^3
# Si number density = 20.384763 Si / 1000 Ang^3
#
#
#
# Elastic Constant Matrix: (Units=GPa)
#
#
# Indices 1 2 3 4 5 6 
#
# 1 152.1854 16.1273 39.4617 9.7106 -12.2272 23.7052
# 2 16.1273 86.1368 23.7933 10.0405 0.3357 -2.1393
# 3 39.4617 23.7933 84.1582 12.9787 3.2406 13.0163
# 4 9.7106 10.0405 12.9787 24.0152 1.9732 1.9919
# 5 -12.2272 0.3357 3.2406 1.9732 27.8843 2.9642
# 6 23.7052 -2.1393 13.0163 1.9919 2.9642 28.5177
#
#
#
# Elastic Compliance Matrix: (Units=1/GPa)
#
#
# Indices 1 2 3 4 5 6 
#
# 1 0.008949 -0.000882 -0.002879 -0.001563 0.005082 -0.006610
# 2 -0.000882 0.013196 -0.003286 -0.003653 -0.000278 0.003507
# 3 -0.002879 -0.003286 0.015772 -0.005437 -0.002199 -0.004444
# 4 -0.001563 -0.003653 -0.005437 0.046969 -0.003395 0.000579
# 5 0.005082 -0.000278 -0.002199 -0.003395 0.039344 -0.007094
# 6 -0.006610 0.003507 -0.004444 0.000579 -0.007094 0.043548
#
#
# Mechanical properties :
#
#
# Convention : Reuss Voigt Hill
#
# Bulk Modulus (GPa) = 41.97586 53.47165 47.72376
# Shear Modulus (GPa) = 26.34191 32.28999 29.31595
#
# Velocity S-wave (km/s) = 3.59867 3.98430 3.79638
# Velocity P-wave (km/s) = 6.15660 6.88871 6.53292
#
# Compressibility (1/GPa) = 0.02382321
#
# Stress axis : x y z
#
# Youngs Moduli (GPa) = 111.75023 75.77995 63.40510
#
# Poissons Ratio (x) = 0.06683 0.18254
# Poissons Ratio (y) = 0.09856 0.20832
# Poissons Ratio (z) = 0.32173 0.24898
#
# Static dielectric constant tensor:
#      x y z
#    x 1.777960 0.041390 0.002950 
#    y 0.041390 1.770500 -0.042350 
#    z 0.002950 -0.042350 1.729020 
# 
# From -- ./inp_files/530862.got.cif
#   From: 2010.05.17/outbox.cif.g08.bks.cpg/sg2_266_cif.got.tgz:530862.got - 2010.06.03 11:33:40.
