data_PCOD9007268
_publ_section_title
;
Structure prediction by ZEFSAII (Michael W. Deem and Ramdas Pophale) SiO2 
 PCOD9007268
Probable space group: P -1
;
_chemical_formula_sum "Si O2"
_cell_formula_units_Z 16
_cell_length_a 14.681463
_cell_length_b 16.059233
_cell_length_c 7.465089
_cell_angle_alpha 98.494190
_cell_angle_beta 128.830307
_cell_angle_gamma 41.619322
_cell_volume 714.163214
_symmetry_space_group_name_H-M "P -1"
_symmetry_group_IT_number 2
_symmetry_cell_setting 'triclinic'
loop_
_space_group_symop_operation_xyz
x,y,z
-x,-y,-z
loop_
_atom_site_type_symbol
_atom_site_label
_atom_site_fract_x
_atom_site_fract_y
_atom_site_fract_z
Si Si1 0.227209 0.909214 0.692711
Si Si2 0.152313 0.193729 0.247310
Si Si3 0.349015 0.363312 0.626632
Si Si4 0.535678 0.865442 0.490054
Si Si5 0.713328 0.430119 0.587537
Si Si6 0.323087 0.044950 0.897360
Si Si7 0.068103 0.611511 0.606731
Si Si8 0.523010 0.379177 0.283168
O O1 0.244630 0.999817 0.712152
O O2 0.330855 0.793214 0.618745
O O3 0.408940 0.782962 0.032804
O O4 0.000000 0.000000 0.500000
O O5 0.260650 0.196563 0.252218
O O6 0.076193 0.293326 0.357911
O O7 0.345523 0.005090 0.441810
O O8 0.942432 0.278939 0.926963
O O9 0.366116 0.286422 0.463664
O O10 0.287724 0.490707 0.516825
O O11 0.158980 0.470155 0.579948
O O12 0.431427 0.953842 0.193664
O O13 0.656035 0.381115 0.395195
O O14 0.539567 0.563889 0.570679
O O15 0.095086 0.236827 0.676043
O O16 0.500000 0.000000 0.000000
O O17 0.299891 0.509252 0.931877
#
# Coordination Sequence:
#
# PCOD9007268 Si02
#       8
#     2   2   2   2   2   2   2   2
#     4  10  24  40  63  94 126 161 207 264 310 370
#     4  10  21  39  61  83 124 163 205 256 310 371
#     4  10  23  38  61  91 120 159 210 258 311 374
#     4  10  22  40  57  92 122 160 206 259 311 373
#     4  10  21  40  62  84 120 165 205 254 311 372
#     4  11  22  41  64  95 123 165 208 256 313 373
#     4  10  21  39  62  91 115 164 201 258 311 371
#     4   9  22  41  59  89 123 159 208 254 311 373
#
# _framework density 22.403841
#
# number of rings (size 3 to 8) (size 9 to 14) (size 15 to 20)
#    0.000    2.000    1.250    0.750    7.000    3.000 
#    4.500    0.625    0.000    0.000    0.000    0.000 
#    0.000    0.000    0.000    0.000    0.000    0.000 
#
# Total GULP energy -89095.339484 kJ/mol
# GULP energy per Si atom -5568.458718 kJ/mol
# Density = 2.235285 g / cm^3
# Si number density = 22.403841 Si / 1000 Ang^3
#
#
#
# Elastic Constant Matrix: (Units=GPa)
#
#
# Indices 1 2 3 4 5 6 
#
# 1 67.8258 33.6197 19.3321 -8.0730 17.1754 1.1729
# 2 33.6197 147.6712 31.0912 -15.1278 37.9942 -0.9532
# 3 19.3321 31.0912 52.7243 -21.2627 18.3126 -3.3563
# 4 -8.0730 -15.1278 -21.2627 30.6478 -7.8534 2.0010
# 5 17.1754 37.9942 18.3126 -7.8534 30.8727 1.9711
# 6 1.1729 -0.9532 -3.3563 2.0010 1.9711 25.3501
#
#
#
# Elastic Compliance Matrix: (Units=1/GPa)
#
#
# Indices 1 2 3 4 5 6 
#
# 1 0.018160 -0.001970 -0.003706 -0.000090 -0.005442 -0.000975
# 2 -0.001970 0.010341 -0.001197 0.000929 -0.010754 0.001084
# 3 -0.003706 -0.001197 0.032396 0.017727 -0.011421 0.003904
# 4 -0.000090 0.000929 0.017727 0.045448 0.000031 -0.001204
# 5 -0.005442 -0.010754 -0.011421 0.000031 0.055818 -0.006007
# 6 -0.000975 0.001084 0.003904 -0.001204 -0.006007 0.040613
#
#
# Mechanical properties :
#
#
# Convention : Reuss Voigt Hill
#
# Bulk Modulus (GPa) = 21.20818 48.47859 34.84338
# Shear Modulus (GPa) = 21.52957 29.65267 25.59112
#
# Velocity S-wave (km/s) = 3.10333 3.64201 3.38341
# Velocity P-wave (km/s) = 4.72522 6.27465 5.55423
#
# Compressibility (1/GPa) = 0.04715161
#
# Stress axis : x y z
#
# Youngs Moduli (GPa) = 55.06524 96.69990 30.86847
#
# Poissons Ratio (x) = 0.19047 0.11438
# Poissons Ratio (y) = 0.10846 0.03696
# Poissons Ratio (z) = 0.20405 0.11579
#
# Static dielectric constant tensor:
#      x y z
#    x 1.988310 -0.072020 0.023580 
#    y -0.072020 1.927470 0.031880 
#    z 0.023580 0.031880 1.801460 
# 
# From -- ./inp_files/315504.got.cif
#   From: 2010.05.17/outbox.cif.g08.bks.cpg/sg2_158_cif.got.tgz:315504.got - 2010.06.03 11:33:40.
