data_PCOD9007772
_publ_section_title
;
Structure prediction by ZEFSAII (Michael W. Deem and Ramdas Pophale) SiO2 
 PCOD9007772
Probable space group: P -1
;
_chemical_formula_sum "Si O2"
_cell_formula_units_Z 15
_cell_length_a 13.765906
_cell_length_b 10.237702
_cell_length_c 7.463757
_cell_angle_alpha 82.534533
_cell_angle_beta 39.415087
_cell_angle_gamma 68.792919
_cell_volume 602.446906
_symmetry_space_group_name_H-M "P -1"
_symmetry_group_IT_number 2
_symmetry_cell_setting 'triclinic'
loop_
_space_group_symop_operation_xyz
x,y,z
-x,-y,-z
loop_
_atom_site_type_symbol
_atom_site_label
_atom_site_fract_x
_atom_site_fract_y
_atom_site_fract_z
Si Si1 0.364418 0.713762 0.725756
Si Si2 0.597937 0.440702 0.647527
Si Si3 0.344504 0.361788 0.219701
Si Si4 0.555967 0.877367 0.290362
Si Si5 0.083920 0.030450 0.054437
Si Si6 0.261826 0.100641 0.491895
Si Si7 0.083495 0.177068 0.369297
Si Si8 0.000000 0.500000 0.500000
O O1 0.434661 0.582433 0.786864
O O2 0.310111 0.653910 0.636729
O O3 0.527532 0.742243 0.431536
O O4 0.223226 0.871475 0.946198
O O5 0.705479 0.509928 0.586111
O O6 0.520474 0.352945 0.895161
O O7 0.338572 0.218377 0.335750
O O8 0.200687 0.408697 0.268065
O O9 0.500000 0.000000 0.500000
O O10 0.417069 0.945462 0.319532
O O11 0.735200 0.852714 0.968238
O O12 0.166352 0.125694 0.813228
O O13 0.003250 0.115043 0.337605
O O14 0.000000 0.000000 0.000000
O O15 0.139018 0.107171 0.500822
O O16 0.981333 0.345844 0.520732
#
# Coordination Sequence:
#
# PCOD9007772 Si02
#       8
#     2   2   2   2   2   2   2   1
#     4  10  21  39  62  96 127 171 217 275 337 394
#     4  10  22  39  66  93 132 171 222 280 324 393
#     4  10  22  42  64  95 130 175 223 270 334 396
#     4  11  19  39  70 100 130 168 227 284 337 393
#     4  11  26  44  66 100 137 177 224 275 345 405
#     4  10  22  42  70 100 126 175 227 277 343 389
#     4  11  23  42  67  98 135 179 220 282 326 414
#     4  10  24  42  64  94 138 176 224 264 340 402
#
# _framework density 24.898461000000001
#
# number of rings (size 3 to 8) (size 9 to 14) (size 15 to 20)
#    0.000    1.600    2.667    2.800    1.867    3.733 
#    4.800    2.667    0.000    0.000    0.000    0.000 
#    0.000    0.000    0.000    0.000    0.000    0.000 
#
# Total GULP energy -83539.268174 kJ/mol
# GULP energy per Si atom -5569.284545 kJ/mol
# Density = 2.484179 g / cm^3
# Si number density = 24.898461 Si / 1000 Ang^3
#
#
#
# Elastic Constant Matrix: (Units=GPa)
#
#
# Indices 1 2 3 4 5 6 
#
# 1 120.8997 31.2349 9.6710 0.2876 26.8585 21.3961
# 2 31.2349 133.7807 16.5183 -5.1579 21.3926 11.1511
# 3 9.6710 16.5183 33.4538 -9.9004 17.6638 -8.4689
# 4 0.2876 -5.1579 -9.9004 34.7307 5.5111 2.8154
# 5 26.8585 21.3926 17.6638 5.5111 35.8756 5.2095
# 6 21.3961 11.1511 -8.4689 2.8154 5.2095 41.8248
#
#
#
# Elastic Compliance Matrix: (Units=1/GPa)
#
#
# Indices 1 2 3 4 5 6 
#
# 1 0.010908 -0.001010 0.000619 0.001474 -0.007463 -0.004355
# 2 -0.001010 0.008736 -0.002524 0.001243 -0.003108 -0.002020
# 3 0.000619 -0.002524 0.057952 0.020134 -0.032736 0.014813
# 4 0.001474 0.001243 0.020134 0.037323 -0.017884 0.002707
# 5 -0.007463 -0.003108 -0.032736 -0.017884 0.055293 -0.007665
# 6 -0.004355 -0.002020 0.014813 0.002707 -0.007665 0.030448
#
#
# Mechanical properties :
#
#
# Convention : Reuss Voigt Hill
#
# Bulk Modulus (GPa) = 13.93397 44.77585 29.35491
# Shear Modulus (GPa) = 21.70037 37.86688 29.78362
#
# Velocity S-wave (km/s) = 2.95541 3.90404 3.46237
# Velocity P-wave (km/s) = 4.15384 6.19229 5.27252
#
# Compressibility (1/GPa) = 0.07176705
#
# Stress axis : x y z
#
# Youngs Moduli (GPa) = 91.67712 114.47346 17.25556
#
# Poissons Ratio (x) = 0.11562 -0.01069
# Poissons Ratio (y) = 0.09260 0.04355
# Poissons Ratio (z) = -0.05679 0.28891
#
# Static dielectric constant tensor:
#      x y z
#    x 2.070950 0.053270 -0.011370 
#    y 0.053270 1.927570 -0.090830 
#    z -0.011370 -0.090830 2.008800 
# 
# From -- ./inp_files/295131.got.cif
#   From: 2010.05.17/outbox.cif.g08.bks.cpg/sg2_148_cif.got.tgz:295131.got - 2010.06.03 11:33:40.
