data_PCOD9007318
_publ_section_title
;
Structure prediction by ZEFSAII (Michael W. Deem and Ramdas Pophale) SiO2 
 PCOD9007318
Probable space group: P -1
;
_chemical_formula_sum "Si O2"
_cell_formula_units_Z 16
_cell_length_a 6.321288
_cell_length_b 9.873810
_cell_length_c 25.420219
_cell_angle_alpha 38.911080
_cell_angle_beta 90.174606
_cell_angle_gamma 62.976554
_cell_volume 684.127986
_symmetry_space_group_name_H-M "P -1"
_symmetry_group_IT_number 2
_symmetry_cell_setting 'triclinic'
loop_
_space_group_symop_operation_xyz
x,y,z
-x,-y,-z
loop_
_atom_site_type_symbol
_atom_site_label
_atom_site_fract_x
_atom_site_fract_y
_atom_site_fract_z
Si Si1 0.676084 0.300902 0.857462
Si Si2 0.368532 0.255335 0.078961
Si Si3 0.652702 0.354207 0.960331
Si Si4 0.711898 0.547850 0.286732
Si Si5 0.256034 0.218512 0.522270
Si Si6 0.756680 0.558615 0.700703
Si Si7 0.545253 0.687136 0.411049
Si Si8 0.667438 0.388135 0.656971
O O1 0.550563 0.399234 0.886367
O O2 0.416562 0.441982 0.771776
O O3 0.807870 0.431808 0.797358
O O4 0.973759 0.929167 0.961081
O O5 0.432686 0.358893 0.098309
O O6 0.518914 0.909505 0.188606
O O7 0.513413 0.273031 0.023088
O O8 0.000000 0.500000 0.000000
O O9 0.655569 0.432564 0.370090
O O10 0.054137 0.371543 0.333895
O O11 0.453194 0.118760 0.606202
O O12 0.291636 0.414124 0.431047
O O13 0.899229 0.439901 0.466596
O O14 0.409841 0.899200 0.592368
O O15 0.851209 0.295815 0.739641
O O16 0.500000 0.500000 0.500000
O O17 0.305970 0.824665 0.321147
#
# Coordination Sequence:
#
# PCOD9007318 Si02
#       8
#     2   2   2   2   2   2   2   2
#     4  10  22  40  60  92 119 161 200 262 304 368
#     4  11  22  40  64  90 119 162 201 253 313 374
#     4  10  22  40  65  87 121 155 209 252 316 371
#     4  11  23  39  59  90 125 157 207 252 307 363
#     4  10  21  39  61  87 122 165 201 246 306 357
#     4  11  23  38  59  89 126 155 204 254 300 366
#     4   9  20  39  61  86 115 161 206 249 298 363
#     4  10  22  37  60  87 122 159 201 247 299 356
#
# _framework density 23.387438
#
# number of rings (size 3 to 8) (size 9 to 14) (size 15 to 20)
#    0.000    1.750    2.500    1.125    0.000    7.500 
#    0.000    5.000    0.000    0.000    0.000    0.000 
#    0.000    0.000    0.000    0.000    0.000    0.000 
#
# Total GULP energy -89184.432432 kJ/mol
# GULP energy per Si atom -5574.027027 kJ/mol
# Density = 2.333421 g / cm^3
# Si number density = 23.387438 Si / 1000 Ang^3
#
#
#
# Elastic Constant Matrix: (Units=GPa)
#
#
# Indices 1 2 3 4 5 6 
#
# 1 102.0865 55.0795 12.2299 7.8130 -13.8230 -3.6147
# 2 55.0795 140.1318 36.8060 24.9705 -6.2819 2.2354
# 3 12.2299 36.8060 33.3604 3.8291 -5.4993 -0.3927
# 4 7.8130 24.9705 3.8291 44.7385 1.5558 4.4110
# 5 -13.8230 -6.2819 -5.4993 1.5558 27.6801 8.5234
# 6 -3.6147 2.2354 -0.3927 4.4110 8.5234 41.4527
#
#
#
# Elastic Compliance Matrix: (Units=1/GPa)
#
#
# Indices 1 2 3 4 5 6 
#
# 1 0.013326 -0.005648 0.002244 0.000408 0.005713 0.000270
# 2 -0.005648 0.013539 -0.012552 -0.005394 -0.001817 -0.000394
# 3 0.002244 -0.012552 0.043838 0.002662 0.006964 -0.000427
# 4 0.000408 -0.005394 0.002662 0.025313 -0.001274 -0.002080
# 5 0.005713 -0.001817 0.006964 -0.001274 0.042466 -0.007934
# 6 0.000270 -0.000394 -0.000427 -0.002080 -0.007934 0.026017
#
#
# Mechanical properties :
#
#
# Convention : Reuss Voigt Hill
#
# Bulk Modulus (GPa) = 25.77843 53.75661 39.76752
# Shear Modulus (GPa) = 23.88444 34.20513 29.04479
#
# Velocity S-wave (km/s) = 3.19917 3.82847 3.52788
# Velocity P-wave (km/s) = 4.96916 6.52519 5.79959
#
# Compressibility (1/GPa) = 0.03879213
#
# Stress axis : x y z
#
# Youngs Moduli (GPa) = 75.04093 73.86110 22.81111
#
# Poissons Ratio (x) = 0.41719 -0.05120
# Poissons Ratio (y) = 0.42385 0.28632
# Poissons Ratio (z) = -0.16842 0.92708
#
# Static dielectric constant tensor:
#      x y z
#    x 1.941880 0.023200 0.029780 
#    y 0.023200 1.928750 0.063730 
#    z 0.029780 0.063730 1.877280 
# 
# From -- ./inp_files/82880.got.cif
#   From: 2010.05.17/outbox.cif.g08.bks.cpg/sg2_42_cif.got.tgz:82880.got - 2010.06.03 11:33:40.
