data_PCOD9007825
_publ_section_title
;
Structure prediction by ZEFSAII (Michael W. Deem and Ramdas Pophale) SiO2 
 PCOD9007825
Probable space group: P -1
;
_chemical_formula_sum "Si O2"
_cell_formula_units_Z 16
_cell_length_a 12.422867
_cell_length_b 8.511418
_cell_length_c 9.705070
_cell_angle_alpha 95.990296
_cell_angle_beta 93.512399
_cell_angle_gamma 140.471238
_cell_volume 633.061757
_symmetry_space_group_name_H-M "P -1"
_symmetry_group_IT_number 2
_symmetry_cell_setting 'triclinic'
loop_
_space_group_symop_operation_xyz
x,y,z
-x,-y,-z
loop_
_atom_site_type_symbol
_atom_site_label
_atom_site_fract_x
_atom_site_fract_y
_atom_site_fract_z
Si Si1 0.610329 0.298405 0.012957
Si Si2 0.747655 0.509449 0.417025
Si Si3 0.833714 0.262893 0.371445
Si Si4 0.092338 0.350867 0.257160
Si Si5 0.141459 0.188717 0.811404
Si Si6 0.808673 0.280360 0.901974
Si Si7 0.428825 0.271218 0.753767
Si Si8 0.582410 0.759228 0.747347
O O1 0.669522 0.183799 0.996028
O O2 0.507930 0.245423 0.868908
O O3 0.798915 0.604376 0.065470
O O4 0.520955 0.276780 0.136507
O O5 0.744608 0.327093 0.342573
O O6 0.828767 0.592411 0.581386
O O7 0.861262 0.742610 0.338728
O O8 0.552466 0.351771 0.393832
O O9 0.000000 0.500000 0.500000
O O10 0.925431 0.275411 0.256217
O O11 0.688947 0.969419 0.381163
O O12 0.210929 0.602122 0.201085
O O13 0.022465 0.101195 0.181851
O O14 0.296105 0.237465 0.816942
O O15 0.760658 0.059931 0.803223
O O16 0.000000 0.500000 0.000000
O O17 0.574703 0.561281 0.738473
#
# Coordination Sequence:
#
# PCOD9007825 Si02
#       8
#     2   2   2   2   2   2   2   2
#     4  10  21  39  63  86 117 164 212 243 295 367
#     4   9  18  37  66  87 113 157 213 243 294 366
#     4   9  18  33  60  91 117 153 200 250 297 350
#     4  10  22  37  56  89 131 158 192 255 312 351
#     4   9  19  35  64  94 116 155 200 261 295 355
#     4  12  28  38  57  90 130 165 195 251 311 358
#     4   9  18  35  64  88 116 154 205 251 293 351
#     4  10  22  40  64  88 117 164 208 253 287 366
#
# _framework density 25.273994999999999
#
# number of rings (size 3 to 8) (size 9 to 14) (size 15 to 20)
#    0.000    2.500    0.000    3.000    8.750    2.000 
#    0.000    0.000    0.000    6.000    0.000    0.000 
#    0.000    0.000    0.000    0.000    0.000    0.000 
#
# Total GULP energy -89235.484789 kJ/mol
# GULP energy per Si atom -5577.217799 kJ/mol
# Density = 2.521647 g / cm^3
# Si number density = 25.273995 Si / 1000 Ang^3
#
#
#
# Elastic Constant Matrix: (Units=GPa)
#
#
# Indices 1 2 3 4 5 6 
#
# 1 66.7934 5.1964 0.7978 -11.2567 11.4913 -14.5799
# 2 5.1964 121.6612 47.4779 21.0412 0.8116 -27.1999
# 3 0.7978 47.4779 81.0989 7.7849 15.8713 -19.1725
# 4 -11.2567 21.0412 7.7849 39.2524 -10.7896 -15.1995
# 5 11.4913 0.8116 15.8713 -10.7896 34.3928 0.5842
# 6 -14.5799 -27.1999 -19.1725 -15.1995 0.5842 33.6646
#
#
#
# Elastic Compliance Matrix: (Units=1/GPa)
#
#
# Indices 1 2 3 4 5 6 
#
# 1 0.021076 -0.000721 0.004106 0.009943 -0.006063 0.015478
# 2 -0.000721 0.012198 -0.006053 -0.003332 0.001624 0.004563
# 3 0.004106 -0.006053 0.019809 0.001128 -0.010167 0.008855
# 4 0.009943 -0.003332 0.001128 0.040028 0.008450 0.020183
# 5 -0.006063 0.001624 -0.010167 0.008450 0.038473 -0.003957
# 6 0.015478 0.004563 0.008855 0.020183 -0.003957 0.054319
#
#
# Mechanical properties :
#
#
# Convention : Reuss Voigt Hill
#
# Bulk Modulus (GPa) = 20.94391 41.83307 31.38849
# Shear Modulus (GPa) = 24.13635 35.86740 30.00187
#
# Velocity S-wave (km/s) = 3.09364 3.77124 3.44912
# Velocity P-wave (km/s) = 4.58972 5.96244 5.32054
#
# Compressibility (1/GPa) = 0.04774657
#
# Stress axis : x y z
#
# Youngs Moduli (GPa) = 47.44682 81.97873 50.48274
#
# Poissons Ratio (x) = 0.05914 -0.20730
# Poissons Ratio (y) = 0.03423 0.30559
# Poissons Ratio (z) = -0.19484 0.49624
#
# Static dielectric constant tensor:
#      x y z
#    x 1.996800 0.110680 -0.013340 
#    y 0.110680 2.279730 0.026390 
#    z -0.013340 0.026390 2.038290 
# 
# From -- ./inp_files/332476.got.cif
#   From: 2010.05.17/outbox.cif.g08.bks.cpg/sg2_167_cif.got.tgz:332476.got - 2010.06.03 11:33:40.
