data_PCOD9007921
_publ_section_title
;
Structure prediction by ZEFSAII (Michael W. Deem and Ramdas Pophale) SiO2 
 PCOD9007921
Probable space group: P -1
;
_chemical_formula_sum "Si O2"
_cell_formula_units_Z 16
_cell_length_a 8.151812
_cell_length_b 15.717210
_cell_length_c 13.673331
_cell_angle_alpha 147.650692
_cell_angle_beta 93.547839
_cell_angle_gamma 66.036652
_cell_volume 700.722406
_symmetry_space_group_name_H-M "P -1"
_symmetry_group_IT_number 2
_symmetry_cell_setting 'triclinic'
loop_
_space_group_symop_operation_xyz
x,y,z
-x,-y,-z
loop_
_atom_site_type_symbol
_atom_site_label
_atom_site_fract_x
_atom_site_fract_y
_atom_site_fract_z
Si Si1 0.464572 0.895326 0.283942
Si Si2 0.369606 0.703784 0.589642
Si Si3 0.348133 0.459273 0.907264
Si Si4 0.514929 0.804326 0.528483
Si Si5 0.992684 0.185618 0.641726
Si Si6 0.145324 0.636574 0.646784
Si Si7 0.010782 0.500145 0.659960
Si Si8 0.325084 0.464445 0.194858
O O1 0.607889 0.728955 0.213664
O O2 0.556565 0.997837 0.342791
O O3 0.224891 0.072047 0.491386
O O4 0.474781 0.751914 0.061727
O O5 0.350822 0.855106 0.656555
O O6 0.183489 0.783108 0.739255
O O7 0.602176 0.577327 0.529539
O O8 0.387909 0.536302 0.357465
O O9 0.424778 0.375773 0.719711
O O10 0.500000 0.500000 0.000000
O O11 0.098281 0.663540 0.119943
O O12 0.750000 0.692213 0.476010
O O13 0.819378 0.343848 0.703217
O O14 0.000000 0.000000 0.500000
O O15 0.021418 0.667662 0.772346
O O16 0.038824 0.593767 0.519081
O O17 0.830548 0.576270 0.808379
#
# Coordination Sequence:
#
# PCOD9007921 Si02
#       8
#     2   2   2   2   2   2   2   2
#     4  11  23  39  59  87 126 164 199 252 294 344
#     4   9  18  33  63  93 116 159 203 240 302 370
#     4  11  23  41  60  85 124 165 205 246 295 353
#     4  11  21  37  59  90 123 160 207 245 295 357
#     4  11  22  38  61  87 122 166 201 248 298 344
#     4   8  16  33  62  91 117 155 195 245 315 355
#     4   9  17  35  61  91 118 152 202 250 301 359
#     4  10  21  39  63  91 123 162 206 241 296 357
#
# _framework density 22.833580000000001
#
# number of rings (size 3 to 8) (size 9 to 14) (size 15 to 20)
#    0.000    2.000    2.500    1.875    0.000    0.500 
#    2.250    0.000    0.000   28.500    0.000    0.000 
#    0.000    0.000    0.000    0.000    0.000    0.000 
#
# Total GULP energy -89266.591157 kJ/mol
# GULP energy per Si atom -5579.161947 kJ/mol
# Density = 2.278161 g / cm^3
# Si number density = 22.833580 Si / 1000 Ang^3
#
#
#
# Elastic Constant Matrix: (Units=GPa)
#
#
# Indices 1 2 3 4 5 6 
#
# 1 129.3705 54.3650 27.7945 7.1640 -5.0427 35.5182
# 2 54.3650 102.4182 31.4243 -2.4240 5.1290 34.0351
# 3 27.7945 31.4243 86.7339 7.8372 -11.1671 -0.6661
# 4 7.1640 -2.4240 7.8372 13.5438 2.2085 7.4086
# 5 -5.0427 5.1290 -11.1671 2.2085 24.7060 -9.5181
# 6 35.5182 34.0351 -0.6661 7.4086 -9.5181 58.9188
#
#
#
# Elastic Compliance Matrix: (Units=1/GPa)
#
#
# Indices 1 2 3 4 5 6 
#
# 1 0.011166 -0.004716 -0.001228 -0.004641 0.001913 -0.003128
# 2 -0.004716 0.023482 -0.012176 0.026665 -0.020474 -0.017519
# 3 -0.001228 -0.012176 0.021209 -0.024819 0.019591 0.014299
# 4 -0.004641 0.026665 -0.024819 0.121384 -0.042011 -0.034936
# 5 0.001913 -0.020474 0.019591 -0.042011 0.068205 0.027196
# 6 -0.003128 -0.017519 0.014299 -0.034936 0.027196 0.037926
#
#
# Mechanical properties :
#
#
# Convention : Reuss Voigt Hill
#
# Bulk Modulus (GPa) = 50.97864 60.63225 55.80545
# Shear Modulus (GPa) = 15.33027 33.09632 24.21330
#
# Velocity S-wave (km/s) = 2.59393 3.81131 3.25995
# Velocity P-wave (km/s) = 5.59875 6.78083 6.21794
#
# Compressibility (1/GPa) = 0.01961606
#
# Stress axis : x y z
#
# Youngs Moduli (GPa) = 89.55911 42.58612 47.14892
#
# Poissons Ratio (x) = 0.20086 0.05789
# Poissons Ratio (y) = 0.42240 0.57410
# Poissons Ratio (z) = 0.10995 0.51854
#
# Static dielectric constant tensor:
#      x y z
#    x 1.914400 0.046150 0.024440 
#    y 0.046150 1.882150 -0.019890 
#    z 0.024440 -0.019890 1.842960 
# 
# From -- ./inp_files/507107.got.cif
#   From: 2010.05.17/outbox.cif.g08.bks.cpg/sg2_254_cif.got.tgz:507107.got - 2010.06.03 11:33:40.
