data_PCOD9007612
_publ_section_title
;
Structure prediction by ZEFSAII (Michael W. Deem and Ramdas Pophale) SiO2 
 PCOD9007612
Probable space group: P -1
;
_chemical_formula_sum "Si O2"
_cell_formula_units_Z 15
_cell_length_a 15.557817
_cell_length_b 7.425397
_cell_length_c 11.495975
_cell_angle_alpha 120.968609
_cell_angle_beta 139.317520
_cell_angle_gamma 49.473082
_cell_volume 657.390300
_symmetry_space_group_name_H-M "P -1"
_symmetry_group_IT_number 2
_symmetry_cell_setting 'triclinic'
loop_
_space_group_symop_operation_xyz
x,y,z
-x,-y,-z
loop_
_atom_site_type_symbol
_atom_site_label
_atom_site_fract_x
_atom_site_fract_y
_atom_site_fract_z
Si Si1 0.265562 0.394353 0.347847
Si Si2 0.769092 0.563899 0.236093
Si Si3 0.595685 0.519319 0.256053
Si Si4 0.500000 0.500000 0.500000
Si Si5 0.981954 0.771257 0.267951
Si Si6 0.929772 0.827107 0.507141
Si Si7 0.453138 0.284169 0.150396
Si Si8 0.342537 0.007079 0.104975
O O1 0.333943 0.380075 0.541076
O O2 0.339465 0.530047 0.396786
O O3 0.318939 0.153572 0.249510
O O4 0.088689 0.529128 0.231305
O O5 0.689166 0.486019 0.225653
O O6 0.786693 0.791657 0.374067
O O7 0.936377 0.352552 0.334174
O O8 0.685412 0.624327 0.048729
O O9 0.585103 0.282877 0.204463
O O10 0.431798 0.731576 0.133940
O O11 0.449409 0.463582 0.305191
O O12 0.967360 0.751244 0.384834
O O13 0.818662 0.903564 0.088758
O O14 0.071781 0.923722 0.398778
O O15 0.444580 0.074080 0.144701
#
# Coordination Sequence:
#
# PCOD9007612 Si02
#       8
#     2   2   2   1   2   2   2   2
#     4  10  21  41  66  88 129 169 208 261 321 373
#     4  11  21  41  62  93 130 170 206 266 320 376
#     4  11  23  39  64  97 128 166 211 263 319 380
#     4   8  20  38  60  90 120 162 208 256 302 376
#     4  11  21  42  63  92 124 169 215 260 315 378
#     4  10  23  38  64  91 130 163 214 262 315 378
#     4  10  21  39  62  89 132 165 205 260 317 368
#     4  11  23  41  64  95 127 167 216 263 311 382
#
# _framework density 22.817494
#
# number of rings (size 3 to 8) (size 9 to 14) (size 15 to 20)
#    0.000    1.600    2.667    2.000    0.000    3.733 
#    2.400    1.333    0.000   12.000    0.000    0.000 
#    0.000    0.000    0.000    0.000    0.000    0.000 
#
# Total GULP energy -83537.876003 kJ/mol
# GULP energy per Si atom -5569.191734 kJ/mol
# Density = 2.276556 g / cm^3
# Si number density = 22.817494 Si / 1000 Ang^3
#
#
#
# Elastic Constant Matrix: (Units=GPa)
#
#
# Indices 1 2 3 4 5 6 
#
# 1 81.0268 25.1252 15.8625 12.0159 4.0214 -4.2034
# 2 25.1252 50.6180 17.2829 1.8858 10.5186 3.6408
# 3 15.8625 17.2829 128.5909 6.2988 -3.4640 -8.9789
# 4 12.0159 1.8858 6.2988 30.5598 -2.3847 6.3190
# 5 4.0214 10.5186 -3.4640 -2.3847 38.6449 -4.0206
# 6 -4.2034 3.6408 -8.9789 6.3190 -4.0206 27.3278
#
#
#
# Elastic Compliance Matrix: (Units=1/GPa)
#
#
# Indices 1 2 3 4 5 6 
#
# 1 0.016179 -0.008228 -0.000173 -0.006843 0.000660 0.005207
# 2 -0.008228 0.027035 -0.003534 0.003348 -0.007434 -0.007897
# 3 -0.000173 -0.003534 0.008724 -0.002204 0.002055 0.004123
# 4 -0.006843 0.003348 -0.002204 0.037975 0.000814 -0.010884
# 5 0.000660 -0.007434 0.002055 0.000814 0.028669 0.005797
# 6 0.005207 -0.007897 0.004123 -0.010884 0.005797 0.043170
#
#
# Mechanical properties :
#
#
# Convention : Reuss Voigt Hill
#
# Bulk Modulus (GPa) = 35.62970 41.86411 38.74690
# Shear Modulus (GPa) = 25.64373 32.77085 29.20729
#
# Velocity S-wave (km/s) = 3.35604 3.79386 3.58165
# Velocity P-wave (km/s) = 5.53772 6.13012 5.84143
#
# Compressibility (1/GPa) = 0.02806647
#
# Stress axis : x y z
#
# Youngs Moduli (GPa) = 61.80754 36.98925 114.62432
#
# Poissons Ratio (x) = 0.30436 0.01986
# Poissons Ratio (y) = 0.50858 0.40510
# Poissons Ratio (z) = 0.01071 0.13073
#
# Static dielectric constant tensor:
#      x y z
#    x 1.859980 0.041380 0.040740 
#    y 0.041380 1.895220 0.004100 
#    z 0.040740 0.004100 1.853370 
# 
# From -- ./inp_files/445100.got.cif
#   From: 2010.05.17/outbox.cif.g08.bks.cpg/sg2_223_cif.got.tgz:445100.got - 2010.06.03 11:33:40.
