data_PCOD9007257
_publ_section_title
;
Structure prediction by ZEFSAII (Michael W. Deem and Ramdas Pophale) SiO2 
 PCOD9007257
Probable space group: P -1
;
_chemical_formula_sum "Si O2"
_cell_formula_units_Z 14
_cell_length_a 17.864091
_cell_length_b 5.924626
_cell_length_c 11.879767
_cell_angle_alpha 91.584233
_cell_angle_beta 28.072997
_cell_angle_gamma 97.294281
_cell_volume 577.237657
_symmetry_space_group_name_H-M "P -1"
_symmetry_group_IT_number 2
_symmetry_cell_setting 'triclinic'
loop_
_space_group_symop_operation_xyz
x,y,z
-x,-y,-z
loop_
_atom_site_type_symbol
_atom_site_label
_atom_site_fract_x
_atom_site_fract_y
_atom_site_fract_z
Si Si1 0.220032 0.564830 0.112020
Si Si2 0.545223 0.428969 0.736052
Si Si3 0.725072 0.099169 0.391719
Si Si4 0.353363 0.332821 0.628506
Si Si5 0.086778 0.851328 0.464587
Si Si6 0.190421 0.205962 0.533143
Si Si7 0.880278 0.405798 0.987460
O O1 0.213483 0.748467 0.220773
O O2 0.230292 0.687742 0.977684
O O3 0.050823 0.374722 0.323112
O O4 0.358499 0.430496 0.962570
O O5 0.602886 0.190382 0.640711
O O6 0.631374 0.557102 0.512871
O O7 0.637513 0.608437 0.708734
O O8 0.630192 0.924254 0.420876
O O9 0.819467 0.955491 0.345130
O O10 0.838027 0.282545 0.162837
O O11 0.500000 0.500000 0.500000
O O12 0.180264 0.353398 0.911432
O O13 0.156036 0.022366 0.475498
O O14 0.000000 0.000000 0.500000
O O15 0.057729 0.365880 0.722085
#
# Coordination Sequence:
#
# PCOD9007257 Si02
#       7
#     2   2   2   2   2   2   2
#     4  11  25  46  72 102 131 179 238 286 331 411
#     4  10  24  44  65 102 144 175 226 278 346 402
#     4  10  25  40  67 102 144 184 218 270 349 410
#     4  10  21  39  61 103 139 178 226 269 329 411
#     4  11  26  47  73 100 129 179 241 285 343 398
#     4  11  25  44  68 102 143 177 227 283 340 410
#     4  11  23  40  71  99 140 178 228 275 335 407
#
# _framework density 24.253442
#
# number of rings (size 3 to 8) (size 9 to 14) (size 15 to 20)
#    0.000    1.429    2.857    0.429    4.000   11.429 
#    0.000    1.429    0.000    0.000    0.000    0.000 
#    0.000    0.000    0.000    0.000    0.000    0.000 
#
# Total GULP energy -78077.625878 kJ/mol
# GULP energy per Si atom -5576.973277 kJ/mol
# Density = 2.419824 g / cm^3
# Si number density = 24.253442 Si / 1000 Ang^3
#
#
#
# Elastic Constant Matrix: (Units=GPa)
#
#
# Indices 1 2 3 4 5 6 
#
# 1 113.2581 48.0698 28.4278 3.7205 -6.0170 16.7470
# 2 48.0698 78.2631 21.9832 21.6370 -5.5286 20.0448
# 3 28.4278 21.9832 69.8012 27.9514 -10.7122 1.5480
# 4 3.7205 21.6370 27.9514 29.6015 -5.1636 4.3011
# 5 -6.0170 -5.5286 -10.7122 -5.1636 34.9411 7.6688
# 6 16.7470 20.0448 1.5480 4.3011 7.6688 45.5766
#
#
#
# Elastic Compliance Matrix: (Units=1/GPa)
#
#
# Indices 1 2 3 4 5 6 
#
# 1 0.015173 -0.010159 -0.008343 0.013908 0.001009 -0.002306
# 2 -0.010159 0.024891 0.004867 -0.020333 0.001947 -0.005789
# 3 -0.008343 0.004867 0.028212 -0.028896 0.003241 0.002148
# 4 0.013908 -0.020333 -0.028896 0.074897 0.001955 -0.002584
# 5 0.001009 0.001947 0.003241 0.001955 0.031896 -0.006888
# 6 -0.002306 -0.005789 0.002148 -0.002584 -0.006888 0.026664
#
#
# Mechanical properties :
#
#
# Convention : Reuss Voigt Hill
#
# Bulk Modulus (GPa) = 24.38628 50.92046 37.65337
# Shear Modulus (GPa) = 20.60388 32.87994 26.74191
#
# Velocity S-wave (km/s) = 2.91782 3.68595 3.32415
# Velocity P-wave (km/s) = 4.62906 6.25745 5.50381
#
# Compressibility (1/GPa) = 0.04100666
#
# Stress axis : x y z
#
# Youngs Moduli (GPa) = 65.90623 40.17470 35.44560
#
# Poissons Ratio (x) = 0.40813 0.29574
# Poissons Ratio (y) = 0.66954 -0.17253
# Poissons Ratio (z) = 0.54988 -0.19555
#
# Static dielectric constant tensor:
#      x y z
#    x 1.772190 -0.079430 0.031960 
#    y -0.079430 2.057550 0.019730 
#    z 0.031960 0.019730 1.978210 
# 
# From -- ./inp_files/78583.got.cif
#   From: 2010.05.17/outbox.cif.g08.bks.cpg/sg2_40_cif.got.tgz:78583.got - 2010.06.03 11:33:40.
