data_PCOD9007838
_publ_section_title
;
Structure prediction by ZEFSAII (Michael W. Deem and Ramdas Pophale) SiO2 
 PCOD9007838
Probable space group: P -1
;
_chemical_formula_sum "Si O2"
_cell_formula_units_Z 16
_cell_length_a 19.650013
_cell_length_b 8.616875
_cell_length_c 10.999592
_cell_angle_alpha 128.261670
_cell_angle_beta 130.744312
_cell_angle_gamma 90.267309
_cell_volume 804.824933
_symmetry_space_group_name_H-M "P -1"
_symmetry_group_IT_number 2
_symmetry_cell_setting 'triclinic'
loop_
_space_group_symop_operation_xyz
x,y,z
-x,-y,-z
loop_
_atom_site_type_symbol
_atom_site_label
_atom_site_fract_x
_atom_site_fract_y
_atom_site_fract_z
Si Si1 0.313313 0.842775 0.248422
Si Si2 0.285221 0.651056 0.618017
Si Si3 0.802043 0.914694 0.722763
Si Si4 0.975263 0.551145 0.864252
Si Si5 0.623558 0.963975 0.855725
Si Si6 0.363557 0.669412 0.457286
Si Si7 0.166808 0.046137 0.945931
Si Si8 0.039452 0.277896 0.637318
O O1 0.284791 0.023695 0.346960
O O2 0.376855 0.949904 0.241707
O O3 0.369991 0.824916 0.425060
O O4 0.185209 0.532853 0.921550
O O5 0.155454 0.549962 0.371904
O O6 0.365036 0.766500 0.641491
O O7 0.265574 0.395492 0.514580
O O8 0.335647 0.839163 0.886632
O O9 0.916162 0.124099 0.869292
O O10 0.858301 0.001998 0.965080
O O11 0.994954 0.390168 0.724269
O O12 0.000000 0.500000 0.000000
O O13 0.480949 0.702618 0.595119
O O14 0.727914 0.953073 0.965591
O O15 0.233568 0.355679 0.146281
O O16 0.038189 0.814542 0.619829
O O17 0.000000 0.000000 0.500000
#
# Coordination Sequence:
#
# PCOD9007838 Si02
#       8
#     2   2   2   2   2   2   2   2
#     4  10  22  39  62  86 119 157 199 245 299 350
#     4  11  22  39  59  88 119 158 201 241 293 349
#     4   9  22  37  58  83 120 156 190 240 305 355
#     4  11  23  37  58  88 125 156 187 240 304 364
#     4  11  23  39  61  91 117 155 207 248 283 348
#     4  11  22  42  61  83 123 165 196 240 298 350
#     4  10  21  39  63  88 115 154 199 248 293 353
#     4  11  21  37  62  92 118 146 195 246 301 349
#
# _framework density 19.880099999999999
#
# number of rings (size 3 to 8) (size 9 to 14) (size 15 to 20)
#    0.000    1.500    2.500    3.000    3.500    2.500 
#    0.000    0.625    0.000    0.000    0.000    0.000 
#    0.000    0.000    0.000    0.000    0.000    0.000 
#
# Total GULP energy -89194.983817 kJ/mol
# GULP energy per Si atom -5574.686489 kJ/mol
# Density = 1.983485 g / cm^3
# Si number density = 19.880100 Si / 1000 Ang^3
#
#
#
# Elastic Constant Matrix: (Units=GPa)
#
#
# Indices 1 2 3 4 5 6 
#
# 1 60.7572 12.1825 1.2373 3.7295 5.7096 18.4757
# 2 12.1825 75.0178 6.7703 -7.2120 -2.0511 1.2934
# 3 1.2373 6.7703 35.5346 3.7386 -2.8453 0.1524
# 4 3.7295 -7.2120 3.7386 17.6680 0.8913 -5.4444
# 5 5.7096 -2.0511 -2.8453 0.8913 36.1163 2.3527
# 6 18.4757 1.2934 0.1524 -5.4444 2.3527 17.3373
#
#
#
# Elastic Compliance Matrix: (Units=1/GPa)
#
#
# Indices 1 2 3 4 5 6 
#
# 1 0.031342 -0.006808 0.002530 -0.022017 -0.002022 -0.039554
# 2 -0.006808 0.015769 -0.003976 0.011659 0.000741 0.009675
# 3 0.002530 -0.003976 0.030148 -0.010608 0.002423 -0.006324
# 4 -0.022017 0.011659 -0.010608 0.083502 -0.001957 0.049174
# 5 -0.002022 0.000741 0.002423 -0.001957 0.028445 -0.002396
# 6 -0.039554 0.009675 -0.006324 0.049174 -0.002396 0.114931
#
#
# Mechanical properties :
#
#
# Convention : Reuss Voigt Hill
#
# Bulk Modulus (GPa) = 16.46075 23.52110 19.99093
# Shear Modulus (GPa) = 14.66717 24.29894 19.48305
#
# Velocity S-wave (km/s) = 2.71916 3.49990 3.13394
# Velocity P-wave (km/s) = 4.26104 5.30938 4.81383
#
# Compressibility (1/GPa) = 0.06075056
#
# Stress axis : x y z
#
# Youngs Moduli (GPa) = 31.90599 63.41572 33.16939
#
# Poissons Ratio (x) = 0.43174 -0.08392
# Poissons Ratio (y) = 0.21722 0.13189
# Poissons Ratio (z) = -0.08072 0.25215
#
# Static dielectric constant tensor:
#      x y z
#    x 1.727410 0.032500 -0.015770 
#    y 0.032500 1.846780 -0.070740 
#    z -0.015770 -0.070740 1.722890 
# 
# From -- ./inp_files/470156.got.cif
#   From: 2010.05.17/outbox.cif.g08.bks.cpg/sg2_236_cif.got.tgz:470156.got - 2010.06.03 11:33:40.
