data_PCOD9007811
_publ_section_title
;
Structure prediction by ZEFSAII (Michael W. Deem and Ramdas Pophale) SiO2 
 PCOD9007811
Probable space group: P -1
;
_chemical_formula_sum "Si O2"
_cell_formula_units_Z 16
_cell_length_a 10.895843
_cell_length_b 18.137486
_cell_length_c 5.476896
_cell_angle_alpha 117.365866
_cell_angle_beta 57.885288
_cell_angle_gamma 139.066689
_cell_volume 597.337582
_symmetry_space_group_name_H-M "P -1"
_symmetry_group_IT_number 2
_symmetry_cell_setting 'triclinic'
loop_
_space_group_symop_operation_xyz
x,y,z
-x,-y,-z
loop_
_atom_site_type_symbol
_atom_site_label
_atom_site_fract_x
_atom_site_fract_y
_atom_site_fract_z
Si Si1 0.618563 0.327664 0.475361
Si Si2 0.702478 0.122955 0.550085
Si Si3 0.993346 0.053324 0.834631
Si Si4 0.101646 0.258323 0.548918
Si Si5 0.934940 0.320167 0.212313
Si Si6 0.651848 0.768570 0.992012
Si Si7 0.583595 0.890644 0.915038
Si Si8 0.669507 0.521184 0.689917
O O1 0.820942 0.355458 0.278322
O O2 0.457839 0.192978 0.376052
O O3 0.608676 0.409841 0.462819
O O4 0.553335 0.335084 0.823184
O O5 0.785656 0.221335 0.417782
O O6 0.897989 0.150959 0.466288
O O7 0.500000 0.000000 0.500000
O O8 0.614341 0.134078 0.899571
O O9 0.788585 0.020039 0.925826
O O10 0.000000 0.000000 0.500000
O O11 0.183928 0.182005 0.892382
O O12 0.000000 0.000000 0.000000
O O13 0.240402 0.232571 0.352530
O O14 0.241609 0.377164 0.435681
O O15 0.020429 0.279684 0.891349
O O16 0.134163 0.428118 0.293938
O O17 0.604043 0.842123 0.061012
O O18 0.500000 0.500000 0.000000
#
# Coordination Sequence:
#
# PCOD9007811 Si02
#       8
#     2   2   2   2   2   2   2   2
#     4  12  23  45  71  98 140 188 231 295 357 436
#     4  11  24  46  69 101 143 181 231 294 353 439
#     4  10  21  39  63 102 142 188 243 299 358 436
#     4  11  25  46  68 106 140 181 236 294 359 425
#     4  11  26  47  71 101 140 184 239 290 366 435
#     4  11  23  41  69  99 143 186 235 295 359 427
#     4  11  23  41  69  99 137 189 243 288 360 437
#     4  11  26  45  72 104 139 179 239 302 355 429
#
# _framework density 26.785522
#
# number of rings (size 3 to 8) (size 9 to 14) (size 15 to 20)
#    0.000    1.000    5.000    1.125    1.750    2.500 
#    4.500    0.000    0.000    0.000    0.000    0.000 
#    0.000    0.000    0.000    0.000    0.000    0.000 
#
# Total GULP energy -89219.181662 kJ/mol
# GULP energy per Si atom -5576.198854 kJ/mol
# Density = 2.672456 g / cm^3
# Si number density = 26.785522 Si / 1000 Ang^3
#
#
#
# Elastic Constant Matrix: (Units=GPa)
#
#
# Indices 1 2 3 4 5 6 
#
# 1 85.4596 36.4680 30.5428 -6.4976 -15.9523 20.5154
# 2 36.4680 96.0083 19.6645 -2.3961 -13.5310 12.2483
# 3 30.5428 19.6645 143.7924 -6.9414 -28.5468 16.0474
# 4 -6.4976 -2.3961 -6.9414 40.0350 9.4752 -2.4590
# 5 -15.9523 -13.5310 -28.5468 9.4752 44.5608 -4.7217
# 6 20.5154 12.2483 16.0474 -2.4590 -4.7217 43.4718
#
#
#
# Elastic Compliance Matrix: (Units=1/GPa)
#
#
# Indices 1 2 3 4 5 6 
#
# 1 0.016140 -0.004735 -0.001636 0.001136 0.002484 -0.005345
# 2 -0.004735 0.012667 -0.000237 -0.000593 0.002013 -0.001062
# 3 -0.001636 -0.000237 0.008438 -0.000005 0.004561 -0.001781
# 4 0.001136 -0.000593 -0.000005 0.026423 -0.005337 0.000548
# 5 0.002484 0.002013 0.004561 -0.005337 0.027925 -0.000692
# 6 -0.005345 -0.001062 -0.001781 0.000548 -0.000692 0.026438
#
#
# Mechanical properties :
#
#
# Convention : Reuss Voigt Hill
#
# Bulk Modulus (GPa) = 41.61708 55.40122 48.50915
# Shear Modulus (GPa) = 35.90457 41.51920 38.71189
#
# Velocity S-wave (km/s) = 3.66518 3.94135 3.80577
# Velocity P-wave (km/s) = 5.78639 6.43743 6.12057
#
# Compressibility (1/GPa) = 0.02402860
#
# Stress axis : x y z
#
# Youngs Moduli (GPa) = 61.95808 78.94330 118.50698
#
# Poissons Ratio (x) = 0.37381 0.19391
# Poissons Ratio (y) = 0.29339 0.02809
# Poissons Ratio (z) = 0.10138 0.01871
#
# Static dielectric constant tensor:
#      x y z
#    x 2.071500 -0.007630 0.020160 
#    y -0.007630 2.310020 0.091270 
#    z 0.020160 0.091270 2.332960 
# 
# From -- ./inp_files/83383.got.cif
#   From: 2010.05.17/outbox.cif.g08.bks.cpg/sg2_42_cif.got.tgz:83383.got - 2010.06.03 11:33:40.
