data_PCOD9007243
_publ_section_title
;
Structure prediction by ZEFSAII (Michael W. Deem and Ramdas Pophale) SiO2 
 PCOD9007243
Probable space group: P -1
;
_chemical_formula_sum "Si O2"
_cell_formula_units_Z 14
_cell_length_a 12.053504
_cell_length_b 11.584815
_cell_length_c 10.655471
_cell_angle_alpha 101.253964
_cell_angle_beta 38.948169
_cell_angle_gamma 70.594827
_cell_volume 568.196799
_symmetry_space_group_name_H-M "P -1"
_symmetry_group_IT_number 2
_symmetry_cell_setting 'triclinic'
loop_
_space_group_symop_operation_xyz
x,y,z
-x,-y,-z
loop_
_atom_site_type_symbol
_atom_site_label
_atom_site_fract_x
_atom_site_fract_y
_atom_site_fract_z
Si Si1 0.193115 0.196023 0.261927
Si Si2 0.146636 0.334995 0.588585
Si Si3 0.139783 0.766587 0.833860
Si Si4 0.621938 0.922882 0.194833
Si Si5 0.459136 0.282813 0.702273
Si Si6 0.657759 0.352476 0.719243
Si Si7 0.481091 0.398217 0.332562
O O1 0.070538 0.341511 0.512146
O O2 0.988591 0.191280 0.425158
O O3 0.227865 0.215707 0.090365
O O4 0.500000 0.000000 0.000000
O O5 0.353357 0.339449 0.401885
O O6 0.337773 0.133584 0.440464
O O7 0.868174 0.502471 0.953777
O O8 0.329379 0.764350 0.591751
O O9 0.277785 0.564252 0.651812
O O10 0.201290 0.767781 0.924328
O O11 0.838917 0.902996 0.060672
O O12 0.554197 0.849607 0.328585
O O13 0.581978 0.261752 0.724490
O O14 0.564168 0.486372 0.714926
O O15 0.500000 0.500000 0.000000
#
# Coordination Sequence:
#
# PCOD9007243 Si02
#       7
#     2   2   2   2   2   2   2
#     4  10  21  39  60  94 137 168 215 270 329 393
#     4  11  23  40  66 100 134 174 225 273 335 391
#     4  10  22  45  68  93 132 180 224 264 336 387
#     4  11  23  44  65  98 138 177 218 277 333 390
#     4  11  22  42  67  97 133 173 223 273 325 392
#     4  11  21  39  66 100 126 172 224 266 331 394
#     4  10  22  42  68  94 132 181 215 274 328 396
#
# _framework density 24.639351000000001
#
# number of rings (size 3 to 8) (size 9 to 14) (size 15 to 20)
#    0.000    1.429    5.714    0.000    2.000    2.286 
#    7.714    3.571    0.000    1.714    0.000    0.000 
#    0.000    0.000    0.000    0.000    0.000    0.000 
#
# Total GULP energy -78225.129553 kJ/mol
# GULP energy per Si atom -5587.509254 kJ/mol
# Density = 2.458327 g / cm^3
# Si number density = 24.639351 Si / 1000 Ang^3
#
#
#
# Elastic Constant Matrix: (Units=GPa)
#
#
# Indices 1 2 3 4 5 6 
#
# 1 133.4970 32.9999 48.7855 -8.7348 -26.5817 -5.2218
# 2 32.9999 83.0912 43.9679 -6.7210 -10.2893 14.8881
# 3 48.7855 43.9679 92.4930 -8.0271 -17.6301 -8.3389
# 4 -8.7348 -6.7210 -8.0271 28.1219 3.9695 -5.7527
# 5 -26.5817 -10.2893 -17.6301 3.9695 42.6959 0.2356
# 6 -5.2218 14.8881 -8.3389 -5.7527 0.2356 38.9302
#
#
#
# Elastic Compliance Matrix: (Units=1/GPa)
#
#
# Indices 1 2 3 4 5 6 
#
# 1 0.010223 -0.001881 -0.003400 0.001457 0.004363 0.001551
# 2 -0.001881 0.019272 -0.009122 -0.000530 -0.000191 -0.009654
# 3 -0.003400 -0.009122 0.018449 0.003130 0.002971 0.007429
# 4 0.001457 -0.000530 0.003130 0.038376 -0.001533 0.006749
# 5 0.004363 -0.000191 0.002971 -0.001533 0.027456 0.000902
# 6 0.001551 -0.009654 0.007429 0.006749 0.000902 0.032170
#
#
# Mechanical properties :
#
#
# Convention : Reuss Voigt Hill
#
# Bulk Modulus (GPa) = 52.25065 62.28753 57.26909
# Shear Modulus (GPa) = 27.60427 34.17144 30.88785
#
# Velocity S-wave (km/s) = 3.35077 3.72810 3.54446
# Velocity P-wave (km/s) = 6.01851 6.62316 6.32806
#
# Compressibility (1/GPa) = 0.01913852
#
# Stress axis : x y z
#
# Youngs Moduli (GPa) = 97.81760 51.88870 54.20343
#
# Poissons Ratio (x) = 0.09758 0.18430
# Poissons Ratio (y) = 0.18396 0.49444
# Poissons Ratio (z) = 0.33260 0.47333
#
# Static dielectric constant tensor:
#      x y z
#    x 2.016260 -0.043310 0.038380 
#    y -0.043310 1.946340 -0.014370 
#    z 0.038380 -0.014370 2.098060 
# 
# From -- ./inp_files/426128.got.cif
#   From: 2010.05.17/outbox.cif.g08.bks.cpg/sg2_214_cif.got.tgz:426128.got - 2010.06.03 11:33:40.
