data_PCOD9007148
_publ_section_title
;
Structure prediction by ZEFSAII (Michael W. Deem and Ramdas Pophale) SiO2 
 PCOD9007148
Probable space group: P -1
;
_chemical_formula_sum "Si O2"
_cell_formula_units_Z 13
_cell_length_a 10.858197
_cell_length_b 13.748134
_cell_length_c 14.627433
_cell_angle_alpha 149.857410
_cell_angle_beta 136.763549
_cell_angle_gamma 29.983690
_cell_volume 546.143453
_symmetry_space_group_name_H-M "P -1"
_symmetry_group_IT_number 2
_symmetry_cell_setting 'triclinic'
loop_
_space_group_symop_operation_xyz
x,y,z
-x,-y,-z
loop_
_atom_site_type_symbol
_atom_site_label
_atom_site_fract_x
_atom_site_fract_y
_atom_site_fract_z
Si Si1 0.461897 0.194581 0.353622
Si Si2 0.970729 0.749814 0.168037
Si Si3 0.517594 0.456339 0.238297
Si Si4 0.500000 0.500000 0.000000
Si Si5 0.273982 0.092872 0.019074
Si Si6 0.712691 0.922362 0.677409
Si Si7 0.202565 0.533598 0.745380
O O1 0.382990 0.453925 0.566606
O O2 0.471627 0.034878 0.312396
O O3 0.728925 0.005517 0.297260
O O4 0.262047 0.268645 0.232031
O O5 0.928852 0.802214 0.080390
O O6 0.225403 0.660647 0.260395
O O7 0.000000 0.500000 0.000000
O O8 0.578305 0.485548 0.192455
O O9 0.635354 0.164153 0.087170
O O10 0.221378 0.598102 0.909113
O O11 0.625250 0.190855 0.813072
O O12 0.500000 0.000000 0.000000
O O13 0.748892 0.726835 0.462491
O O14 0.965026 0.759575 0.739890
#
# Coordination Sequence:
#
# PCOD9007148 Si02
#       7
#     2   2   2   1   2   2   2
#     4  10  22  42  63  86 123 165 201 249 304 361
#     4  11  22  40  61  89 127 157 195 257 299 360
#     4  11  22  42  62  88 123 162 204 248 304 361
#     4  12  22  38  70  94 120 166 212 248 316 366
#     4  10  21  39  60  87 121 159 200 253 296 358
#     4  10  23  45  61  92 127 163 206 258 307 366
#     4  10  24  42  64  90 130 160 206 260 306 366
#
# _framework density 23.803270000000001
#
# number of rings (size 3 to 8) (size 9 to 14) (size 15 to 20)
#    0.000    1.538    3.077    2.308    0.000    4.923 
#    2.769    3.077    0.000    0.000    0.000    0.000 
#    0.000    0.000    0.000    0.000    0.000    0.000 
#
# Total GULP energy -72495.814387 kJ/mol
# GULP energy per Si atom -5576.601107 kJ/mol
# Density = 2.374909 g / cm^3
# Si number density = 23.803270 Si / 1000 Ang^3
#
#
#
# Elastic Constant Matrix: (Units=GPa)
#
#
# Indices 1 2 3 4 5 6 
#
# 1 91.1769 9.1378 27.0478 13.3481 -2.9258 -2.1029
# 2 9.1378 91.2709 37.1568 -3.1741 19.6295 5.9395
# 3 27.0478 37.1568 109.1181 0.3961 15.3837 9.9451
# 4 13.3481 -3.1741 0.3961 39.3204 0.2681 10.6853
# 5 -2.9258 19.6295 15.3837 0.2681 39.1255 2.9667
# 6 -2.1029 5.9395 9.9451 10.6853 2.9667 27.3755
#
#
#
# Elastic Compliance Matrix: (Units=1/GPa)
#
#
# Indices 1 2 3 4 5 6 
#
# 1 0.013190 -0.000849 -0.003735 -0.005755 0.002577 0.004521
# 2 -0.000849 0.013872 -0.003568 0.002017 -0.005485 -0.001972
# 3 -0.003735 -0.003568 0.012112 0.002075 -0.002932 -0.004405
# 4 -0.005755 0.002017 0.002075 0.031254 -0.001435 -0.013677
# 5 0.002577 -0.005485 -0.002932 -0.001435 0.029681 -0.000203
# 6 0.004521 -0.001972 -0.004405 -0.013677 -0.000203 0.044265
#
#
# Mechanical properties :
#
#
# Convention : Reuss Voigt Hill
#
# Bulk Modulus (GPa) = 43.72226 48.69454 46.20840
# Shear Modulus (GPa) = 29.70855 35.71250 32.71052
#
# Velocity S-wave (km/s) = 3.53666 3.87760 3.71105
# Velocity P-wave (km/s) = 5.92329 6.36782 6.14957
#
# Compressibility (1/GPa) = 0.02287164
#
# Stress axis : x y z
#
# Youngs Moduli (GPa) = 75.81363 72.08880 82.55983
#
# Poissons Ratio (x) = 0.06118 0.30837
# Poissons Ratio (y) = 0.06434 0.29454
# Poissons Ratio (z) = 0.28317 0.25719
#
# Static dielectric constant tensor:
#      x y z
#    x 1.696890 -0.006250 0.105600 
#    y -0.006250 1.408000 0.245690 
#    z 0.105600 0.245690 1.618440 
# 
# From -- ./inp_files/453572.got.cif
#   From: 2010.05.17/outbox.cif.g08.bks.cpg/sg2_227_cif.got.tgz:453572.got - 2010.06.03 11:33:40.
