data_PCOD9007287
_publ_section_title
;
Structure prediction by ZEFSAII (Michael W. Deem and Ramdas Pophale) SiO2 
 PCOD9007287
Probable space group: P -1
;
_chemical_formula_sum "Si O2"
_cell_formula_units_Z 14
_cell_length_a 10.934998
_cell_length_b 19.445739
_cell_length_c 21.970457
_cell_angle_alpha 19.013679
_cell_angle_beta 148.414699
_cell_angle_gamma 158.270374
_cell_volume 549.838804
_symmetry_space_group_name_H-M "P -1"
_symmetry_group_IT_number 2
_symmetry_cell_setting 'triclinic'
loop_
_space_group_symop_operation_xyz
x,y,z
-x,-y,-z
loop_
_atom_site_type_symbol
_atom_site_label
_atom_site_fract_x
_atom_site_fract_y
_atom_site_fract_z
Si Si1 0.337410 0.188135 0.878540
Si Si2 0.799583 0.193379 0.014415
Si Si3 0.191841 0.498235 0.815704
Si Si4 0.141322 0.927509 0.738712
Si Si5 0.683359 0.971019 0.533386
Si Si6 0.484906 0.790646 0.934257
Si Si7 0.112125 0.757945 0.377226
O O1 0.708614 0.352716 0.877187
O O2 0.209328 0.307106 0.687492
O O3 0.082277 0.824352 0.064795
O O4 0.352572 0.226794 0.925279
O O5 0.141889 0.394981 0.951638
O O6 0.739151 0.976950 0.220739
O O7 0.500000 0.000000 0.000000
O O8 0.524443 0.720882 0.728519
O O9 0.136668 0.713303 0.622355
O O10 0.944398 0.010541 0.569844
O O11 0.409577 0.981709 0.765459
O O12 0.849362 0.558948 0.927980
O O13 0.361969 0.841262 0.465944
O O14 0.686507 0.946666 0.827500
O O15 0.000000 0.500000 0.500000
#
# Coordination Sequence:
#
# PCOD9007287 Si02
#       7
#     2   2   2   2   2   2   2
#     4  10  21  40  61  83 113 151 195 234 277 338
#     4   9  20  38  61  84 108 151 195 230 279 334
#     4  10  22  39  58  83 115 151 191 231 283 337
#     4  10  21  39  61  86 114 147 192 237 281 337
#     4  11  24  37  56  89 120 148 186 235 287 337
#     4  10  21  39  63  84 112 154 192 232 282 335
#     4  12  24  37  58  87 118 151 188 234 286 337
#
# _framework density 25.462008000000001
#
# number of rings (size 3 to 8) (size 9 to 14) (size 15 to 20)
#    0.000    1.714    0.000    3.857    0.000    7.429 
#    0.000    7.143    0.000    0.000    0.000    0.000 
#    0.000    0.000    0.000    0.000    0.000    0.000 
#
# Total GULP energy -78122.578462 kJ/mol
# GULP energy per Si atom -5580.184176 kJ/mol
# Density = 2.540405 g / cm^3
# Si number density = 25.462008 Si / 1000 Ang^3
#
#
#
# Elastic Constant Matrix: (Units=GPa)
#
#
# Indices 1 2 3 4 5 6 
#
# 1 75.7080 21.6939 3.5321 18.0667 -7.2657 4.8042
# 2 21.6939 99.0128 48.9750 30.6989 16.6763 -14.6618
# 3 3.5321 48.9750 76.5789 6.6983 9.3511 -5.1420
# 4 18.0667 30.6989 6.6983 51.2991 3.8902 10.5771
# 5 -7.2657 16.6763 9.3511 3.8902 41.9169 2.5323
# 6 4.8042 -14.6618 -5.1420 10.5771 2.5323 33.2619
#
#
#
# Elastic Compliance Matrix: (Units=1/GPa)
#
#
# Indices 1 2 3 4 5 6 
#
# 1 0.015829 -0.005004 0.001841 -0.002398 0.004776 -0.003808
# 2 -0.005004 0.025617 -0.012923 -0.014425 -0.007755 0.015194
# 3 0.001841 -0.012923 0.020383 0.005310 0.000695 -0.004553
# 4 -0.002398 -0.014425 0.005310 0.031267 0.002161 -0.015299
# 5 0.004776 -0.007755 0.000695 0.002161 0.027825 -0.006806
# 6 -0.003808 0.015194 -0.004553 -0.015299 -0.006806 0.041991
#
#
# Mechanical properties :
#
#
# Convention : Reuss Voigt Hill
#
# Bulk Modulus (GPa) = 33.71925 44.41130 39.06528
# Shear Modulus (GPa) = 24.39377 37.10217 30.74797
#
# Velocity S-wave (km/s) = 3.09859 3.82142 3.47883
# Velocity P-wave (km/s) = 5.10621 6.07873 5.61357
#
# Compressibility (1/GPa) = 0.02965665
#
# Stress axis : x y z
#
# Youngs Moduli (GPa) = 63.17623 39.03704 49.05982
#
# Poissons Ratio (x) = 0.19532 -0.09030
# Poissons Ratio (y) = 0.31611 0.63401
# Poissons Ratio (z) = -0.11628 0.50448
#
# Static dielectric constant tensor:
#      x y z
#    x 2.125940 0.037640 -0.000380 
#    y 0.037640 2.063820 0.048760 
#    z -0.000380 0.048760 2.020640 
# 
# From -- ./inp_files/66543.got.cif
#   From: 2010.05.17/outbox.cif.g08.bks.cpg/sg2_34_cif.got.tgz:66543.got - 2010.06.03 11:33:40.
