data_PCOD9007308
_publ_section_title
;
Structure prediction by ZEFSAII (Michael W. Deem and Ramdas Pophale) SiO2 
 PCOD9007308
Probable space group: P -1
;
_chemical_formula_sum "Si O2"
_cell_formula_units_Z 12
_cell_length_a 9.531399
_cell_length_b 14.030700
_cell_length_c 7.671751
_cell_angle_alpha 50.818164
_cell_angle_beta 73.561953
_cell_angle_gamma 108.005967
_cell_volume 575.536888
_symmetry_space_group_name_H-M "P -1"
_symmetry_group_IT_number 2
_symmetry_cell_setting 'triclinic'
loop_
_space_group_symop_operation_xyz
x,y,z
-x,-y,-z
loop_
_atom_site_type_symbol
_atom_site_label
_atom_site_fract_x
_atom_site_fract_y
_atom_site_fract_z
Si Si1 0.335626 0.339800 0.135192
Si Si2 0.753320 0.581678 0.298368
Si Si3 0.925686 0.064155 0.588805
Si Si4 0.393742 0.252660 0.714429
Si Si5 0.532409 0.829322 0.587688
Si Si6 0.188803 0.808961 0.805791
O O1 0.408924 0.240224 0.210475
O O2 0.123268 0.212789 0.444766
O O3 0.500000 0.500000 0.000000
O O4 0.291126 0.381349 0.919449
O O5 0.596615 0.386951 0.589530
O O6 0.702573 0.664350 0.351518
O O7 0.977398 0.669292 0.121917
O O8 0.847475 0.135685 0.423874
O O9 0.000000 0.000000 0.500000
O O10 0.761949 0.917963 0.937164
O O11 0.444508 0.224624 0.542607
O O12 0.318621 0.762334 0.775389
O O13 0.680604 0.025361 0.318286
#
# Coordination Sequence:
#
# PCOD9007308 Si02
#       6
#     2   2   2   2   2   2
#     4  11  20  39  59  88 114 159 194 237 291 354
#     4  10  21  39  61  87 118 156 196 239 293 347
#     4  11  20  40  61  81 117 162 194 236 298 348
#     4  11  21  36  62  92 113 153 203 247 275 352
#     4  11  22  36  64  91 120 150 200 240 292 344
#     4  10  22  41  60  86 123 162 183 240 303 350
#
# _framework density 20.850099
#
# number of rings (size 3 to 8) (size 9 to 14) (size 15 to 20)
#    0.000    1.333    6.667    0.000    0.000    4.000 
#    0.000    0.000    0.000    6.000    0.000    0.000 
#    0.000    0.000    0.000    0.000    0.000    0.000 
#
# Total GULP energy -67022.237160 kJ/mol
# GULP energy per Si atom -5585.186430 kJ/mol
# Density = 2.080264 g / cm^3
# Si number density = 20.850099 Si / 1000 Ang^3
#
#
#
# Elastic Constant Matrix: (Units=GPa)
#
#
# Indices 1 2 3 4 5 6 
#
# 1 106.5423 31.0541 32.7321 1.7701 -40.9506 -17.1560
# 2 31.0541 108.0470 36.5265 7.3131 -27.7443 0.8991
# 3 32.7321 36.5265 131.8638 -9.2793 -48.5958 -6.7805
# 4 1.7701 7.3131 -9.2793 24.2321 1.9101 -8.6620
# 5 -40.9506 -27.7443 -48.5958 1.9101 46.3626 -0.6499
# 6 -17.1560 0.8991 -6.7805 -8.6620 -0.6499 22.8158
#
#
#
# Elastic Compliance Matrix: (Units=1/GPa)
#
#
# Indices 1 2 3 4 5 6 
#
# 1 0.019821 -0.002562 0.005141 0.006638 0.021365 0.019662
# 2 -0.002562 0.011964 -0.002529 -0.006578 0.002439 -0.005577
# 3 0.005141 -0.002529 0.015220 0.009211 0.018777 0.012521
# 4 0.006638 -0.006578 0.009211 0.056099 0.009685 0.029562
# 5 0.021365 0.002439 0.018777 0.009685 0.061560 0.026980
# 6 0.019662 -0.005577 0.012521 0.029562 0.026980 0.074546
#
#
# Mechanical properties :
#
#
# Convention : Reuss Voigt Hill
#
# Bulk Modulus (GPa) = 21.22852 60.78649 41.00750
# Shear Modulus (GPa) = 19.62238 35.09146 27.35692
#
# Velocity S-wave (km/s) = 3.07109 4.10693 3.62619
# Velocity P-wave (km/s) = 4.77274 7.19073 6.10269
#
# Compressibility (1/GPa) = 0.04710645
#
# Stress axis : x y z
#
# Youngs Moduli (GPa) = 50.45219 83.58133 65.70425
#
# Poissons Ratio (x) = 0.21410 -0.33782
# Poissons Ratio (y) = 0.12924 0.16617
# Poissons Ratio (z) = -0.25940 0.21139
#
# Static dielectric constant tensor:
#      x y z
#    x 1.747060 0.030330 -0.005090 
#    y 0.030330 1.770100 -0.028260 
#    z -0.005090 -0.028260 1.808810 
# 
# From -- ./inp_files/155875.got.cif
#   From: 2010.05.17/outbox.cif.g08.bks.cpg/sg2_78_cif.got.tgz:155875.got - 2010.06.03 11:33:40.
