data_PCOD9007801
_publ_section_title
;
Structure prediction by ZEFSAII (Michael W. Deem and Ramdas Pophale) SiO2 
 PCOD9007801
Probable space group: P -1
;
_chemical_formula_sum "Si O2"
_cell_formula_units_Z 12
_cell_length_a 8.881481
_cell_length_b 15.733209
_cell_length_c 14.440700
_cell_angle_alpha 27.072346
_cell_angle_beta 61.357659
_cell_angle_gamma 44.660488
_cell_volume 565.787209
_symmetry_space_group_name_H-M "P -1"
_symmetry_group_IT_number 2
_symmetry_cell_setting 'triclinic'
loop_
_space_group_symop_operation_xyz
x,y,z
-x,-y,-z
loop_
_atom_site_type_symbol
_atom_site_label
_atom_site_fract_x
_atom_site_fract_y
_atom_site_fract_z
Si Si1 0.877143 0.639685 0.497544
Si Si2 0.719910 0.410888 0.892450
Si Si3 0.666909 0.851782 0.831975
Si Si4 0.028378 0.165836 0.565491
Si Si5 0.804603 0.651194 0.776846
Si Si6 0.234092 0.795502 0.563352
O O1 0.828262 0.482467 0.719581
O O2 0.034032 0.652967 0.505491
O O3 0.000000 0.500000 0.500000
O O4 0.619695 0.949546 0.256328
O O5 0.698249 0.551610 0.855283
O O6 0.460560 0.546539 0.797153
O O7 0.876531 0.106738 0.162060
O O8 0.721143 0.744898 0.814924
O O9 0.697540 0.050021 0.635727
O O10 0.898171 0.600287 0.065824
O O11 0.231782 0.132909 0.482254
O O12 0.828915 0.271747 0.443754
O O13 0.000000 0.000000 0.500000
#
# Coordination Sequence:
#
# PCOD9007801 Si02
#       6
#     2   2   2   2   2   2
#     4  10  25  46  64  88 126 176 221 257 306 369
#     4  10  24  41  65  93 132 162 209 266 318 377
#     4  10  21  40  65  92 137 164 208 262 315 379
#     4  11  23  40  66  94 127 165 209 257 324 377
#     4  10  21  39  63 100 129 165 201 260 330 383
#     4  11  22  37  61 100 132 162 204 256 326 390
#
# _framework density 21.209385999999999
#
# number of rings (size 3 to 8) (size 9 to 14) (size 15 to 20)
#    0.000    1.667    3.333    0.000    4.667    3.333 
#    0.000    6.667    0.000    0.000    0.000    0.000 
#    0.000    0.000    0.000    0.000    0.000    0.000 
#
# Total GULP energy -67045.113590 kJ/mol
# GULP energy per Si atom -5587.092799 kJ/mol
# Density = 2.116111 g / cm^3
# Si number density = 21.209386 Si / 1000 Ang^3
#
#
#
# Elastic Constant Matrix: (Units=GPa)
#
#
# Indices 1 2 3 4 5 6 
#
# 1 162.7437 54.3030 44.1606 -0.5009 8.1276 47.5320
# 2 54.3030 105.6289 21.4580 -16.8584 0.8802 37.4835
# 3 44.1606 21.4580 106.9124 3.1013 0.6680 7.8107
# 4 -0.5009 -16.8584 3.1013 17.6878 -2.0553 -2.3650
# 5 8.1276 0.8802 0.6680 -2.0553 46.5544 1.7783
# 6 47.5320 37.4835 7.8107 -2.3650 1.7783 32.4416
#
#
#
# Elastic Compliance Matrix: (Units=1/GPa)
#
#
# Indices 1 2 3 4 5 6 
#
# 1 0.012212 0.000660 -0.003848 -0.000888 -0.001452 -0.017713
# 2 0.000660 0.020662 -0.003261 0.017365 0.001181 -0.022853
# 3 -0.003848 -0.003261 0.011256 -0.004323 0.000138 0.006372
# 4 -0.000888 0.017365 -0.004323 0.072546 0.003574 -0.012630
# 5 -0.001452 0.001181 0.000138 0.003574 0.021875 -0.000209
# 6 -0.017713 -0.022853 0.006372 -0.012630 -0.000209 0.080738
#
#
# Mechanical properties :
#
#
# Convention : Reuss Voigt Hill
#
# Bulk Modulus (GPa) = 32.01850 68.34760 50.18305
# Shear Modulus (GPa) = 20.61024 36.36098 28.48561
#
# Velocity S-wave (km/s) = 3.12067 4.14500 3.66876
# Velocity P-wave (km/s) = 5.30226 7.42988 6.45434
#
# Compressibility (1/GPa) = 0.03123194
#
# Stress axis : x y z
#
# Youngs Moduli (GPa) = 81.88850 48.39886 88.83992
#
# Poissons Ratio (x) = -0.03193 0.34182
# Poissons Ratio (y) = -0.05403 0.28970
# Poissons Ratio (z) = 0.31508 0.15783
#
# Static dielectric constant tensor:
#      x y z
#    x 1.872550 -0.053710 0.075110 
#    y -0.053710 1.744000 0.004020 
#    z 0.075110 0.004020 1.874260 
# 
# From -- ./inp_files/376716.got.cif
#   From: 2010.05.17/outbox.cif.g08.bks.cpg/sg2_189_cif.got.tgz:376716.got - 2010.06.03 11:33:40.
