data_PCOD9007867
_publ_section_title
;
Structure prediction by ZEFSAII (Michael W. Deem and Ramdas Pophale) SiO2 
 PCOD9007867
Probable space group: P -1
;
_chemical_formula_sum "Si O2"
_cell_formula_units_Z 14
_cell_length_a 10.279367
_cell_length_b 16.773804
_cell_length_c 7.809283
_cell_angle_alpha 98.313621
_cell_angle_beta 133.477995
_cell_angle_gamma 45.282163
_cell_volume 522.498667
_symmetry_space_group_name_H-M "P -1"
_symmetry_group_IT_number 2
_symmetry_cell_setting 'triclinic'
loop_
_space_group_symop_operation_xyz
x,y,z
-x,-y,-z
loop_
_atom_site_type_symbol
_atom_site_label
_atom_site_fract_x
_atom_site_fract_y
_atom_site_fract_z
Si Si1 0.714887 0.747099 0.993091
Si Si2 0.795677 0.412885 0.919327
Si Si3 0.793803 0.854913 0.346113
Si Si4 0.620092 0.319144 0.625556
Si Si5 0.727980 0.022302 0.875006
Si Si6 0.033404 0.051654 0.321596
Si Si7 0.982465 0.526940 0.688155
O O1 0.323887 0.905235 0.657968
O O2 0.881704 0.740565 0.287813
O O3 0.900848 0.704830 0.976363
O O4 0.794796 0.623978 0.060393
O O5 0.683795 0.365187 0.836915
O O6 0.530591 0.570102 0.628936
O O7 0.904711 0.424537 0.178335
O O8 0.035279 0.836139 0.616098
O O9 0.602343 0.900298 0.357892
O O10 0.500000 0.000000 0.000000
O O11 0.366063 0.353246 0.491298
O O12 0.954639 0.148526 0.824675
O O13 0.798887 0.003503 0.732508
O O14 0.741531 0.100068 0.021934
O O15 0.000000 0.500000 0.500000
#
# Coordination Sequence:
#
# PCOD9007867 Si02
#       7
#     2   2   2   2   2   2   2
#     4  10  21  41  63  85 120 160 198 243 296 350
#     4  10  21  41  66  86 116 160 198 242 296 352
#     4  10  22  38  58  89 123 158 197 242 293 347
#     4  10  21  39  63  89 118 157 200 239 293 355
#     4  11  22  38  62  91 121 158 200 242 293 354
#     4  10  22  38  59  86 119 160 200 241 292 347
#     4  11  24  40  63  91 118 152 196 250 301 351
#
# _framework density 26.794326000000002
#
# number of rings (size 3 to 8) (size 9 to 14) (size 15 to 20)
#    0.000    1.714    0.000    5.571    0.000    7.429 
#    0.000   11.429    0.000    0.000    0.000    0.000 
#    0.000    0.000    0.000    0.000    0.000    0.000 
#
# Total GULP energy -78456.104472 kJ/mol
# GULP energy per Si atom -5604.007462 kJ/mol
# Density = 2.673334 g / cm^3
# Si number density = 26.794326 Si / 1000 Ang^3
#
#
#
# Elastic Constant Matrix: (Units=GPa)
#
#
# Indices 1 2 3 4 5 6 
#
# 1 40.8858 -2.5117 12.5798 3.2455 -11.3570 -3.1032
# 2 -2.5117 121.4636 44.6730 45.8747 13.6130 14.8771
# 3 12.5798 44.6730 79.4716 19.5437 7.1532 15.9018
# 4 3.2455 45.8747 19.5437 71.3285 7.6331 4.9699
# 5 -11.3570 13.6130 7.1532 7.6331 33.3945 12.9053
# 6 -3.1032 14.8771 15.9018 4.9699 12.9053 44.5391
#
#
#
# Elastic Compliance Matrix: (Units=1/GPa)
#
#
# Indices 1 2 3 4 5 6 
#
# 1 0.029978 0.002758 -0.006807 -0.002481 0.010809 0.000743
# 2 0.002758 0.013328 -0.005923 -0.006869 -0.001265 -0.001012
# 3 -0.006807 -0.005923 0.018122 -0.000326 -0.002030 -0.004341
# 4 -0.002481 -0.006869 -0.000326 0.018859 -0.002631 0.000896
# 5 0.010809 -0.001265 -0.002030 -0.002631 0.038653 -0.009006
# 6 0.000743 -0.001012 -0.004341 0.000896 -0.009006 0.026901
#
#
# Mechanical properties :
#
#
# Convention : Reuss Voigt Hill
#
# Bulk Modulus (GPa) = 24.10566 39.03369 31.56967
# Shear Modulus (GPa) = 27.83748 42.32443 35.08096
#
# Velocity S-wave (km/s) = 3.22674 3.97874 3.62231
# Velocity P-wave (km/s) = 4.78525 5.97550 5.41319
#
# Compressibility (1/GPa) = 0.04148404
#
# Stress axis : x y z
#
# Youngs Moduli (GPa) = 33.35781 75.02731 55.18191
#
# Poissons Ratio (x) = -0.20694 0.37563
# Poissons Ratio (y) = -0.09201 0.32686
# Poissons Ratio (z) = 0.22707 0.44441
#
# Static dielectric constant tensor:
#      x y z
#    x 2.056200 0.027560 -0.015570 
#    y 0.027560 2.080380 0.000140 
#    z -0.015570 0.000140 2.163660 
# 
# From -- ./inp_files/257308.got.cif
#   From: 2010.05.17/outbox.cif.g08.bks.cpg/sg2_129_cif.got.tgz:257308.got - 2010.06.03 11:33:40.
