data_PCOD9007847
_publ_section_title
;
Structure prediction by ZEFSAII (Michael W. Deem and Ramdas Pophale) SiO2 
 PCOD9007847
Probable space group: P -1
;
_chemical_formula_sum "Si O2"
_cell_formula_units_Z 14
_cell_length_a 10.808943
_cell_length_b 6.999496
_cell_length_c 12.721043
_cell_angle_alpha 119.594060
_cell_angle_beta 136.188663
_cell_angle_gamma 63.019104
_cell_volume 571.741999
_symmetry_space_group_name_H-M "P -1"
_symmetry_group_IT_number 2
_symmetry_cell_setting 'triclinic'
loop_
_space_group_symop_operation_xyz
x,y,z
-x,-y,-z
loop_
_atom_site_type_symbol
_atom_site_label
_atom_site_fract_x
_atom_site_fract_y
_atom_site_fract_z
Si Si1 0.866436 0.259955 0.370994
Si Si2 0.673531 0.860151 0.123556
Si Si3 0.343742 0.853123 0.462823
Si Si4 0.029981 0.097004 0.202848
Si Si5 0.267426 0.292682 0.668798
Si Si6 0.278211 0.395669 0.344528
Si Si7 0.162614 0.295668 0.036284
O O1 0.727768 0.489175 0.339705
O O2 0.050383 0.293469 0.550572
O O3 0.779711 0.046872 0.289877
O O4 0.932657 0.202901 0.276487
O O5 0.642244 0.708850 0.162155
O O6 0.778819 0.730661 0.055978
O O7 0.500000 0.000000 0.000000
O O8 0.208500 0.929177 0.305169
O O9 0.261839 0.658617 0.421515
O O10 0.545474 0.736779 0.526768
O O11 0.345326 0.070807 0.592981
O O12 0.102233 0.292674 0.238806
O O13 0.899368 0.938572 0.032383
O O14 0.307775 0.347582 0.224680
O O15 0.000000 0.500000 0.000000
#
# Coordination Sequence:
#
# PCOD9007847 Si02
#       7
#     2   2   2   2   2   2   2
#     4   9  22  39  63  94 117 157 211 254 299 372
#     4  11  24  42  63  91 126 165 201 255 317 361
#     4  10  22  39  61  93 124 152 207 256 298 370
#     4  10  21  39  63  88 120 160 204 249 308 360
#     4  10  21  41  64  88 123 160 203 256 305 360
#     4  11  22  39  62  89 125 164 196 252 313 353
#     4  11  23  42  61  89 125 160 210 246 295 377
#
# _framework density 24.486566
#
# number of rings (size 3 to 8) (size 9 to 14) (size 15 to 20)
#    0.000    1.714    1.429    2.143    2.000    4.000 
#    2.571    0.000    0.000    0.000    0.000    0.000 
#    0.000    0.000    0.000    0.000    0.000    0.000 
#
# Total GULP energy -78336.728841 kJ/mol
# GULP energy per Si atom -5595.480632 kJ/mol
# Density = 2.443083 g / cm^3
# Si number density = 24.486566 Si / 1000 Ang^3
#
#
#
# Elastic Constant Matrix: (Units=GPa)
#
#
# Indices 1 2 3 4 5 6 
#
# 1 32.9956 25.9187 7.5693 6.2246 -8.3212 1.5384
# 2 25.9187 135.7485 16.4993 6.9461 -12.3387 -11.9810
# 3 7.5693 16.4993 66.6806 2.7230 -11.6463 -14.7714
# 4 6.2246 6.9461 2.7230 39.3374 -0.3845 1.6968
# 5 -8.3212 -12.3387 -11.6463 -0.3845 19.2547 0.1322
# 6 1.5384 -11.9810 -14.7714 1.6968 0.1322 31.2276
#
#
#
# Elastic Compliance Matrix: (Units=1/GPa)
#
#
# Indices 1 2 3 4 5 6 
#
# 1 0.039999 -0.006545 -0.001772 -0.004713 0.011961 -0.005114
# 2 -0.006545 0.009282 -0.000152 -0.000729 0.002987 0.003839
# 3 -0.001772 -0.000152 0.019169 -0.001309 0.010642 0.009122
# 4 -0.004713 -0.000729 -0.001309 0.026450 -0.002754 -0.002092
# 5 0.011961 0.002987 0.010642 -0.002754 0.065363 0.005464
# 6 -0.005114 0.003839 0.009122 -0.002092 0.005464 0.038153
#
#
# Mechanical properties :
#
#
# Convention : Reuss Voigt Hill
#
# Bulk Modulus (GPa) = 19.41311 37.26658 28.33984
# Shear Modulus (GPa) = 21.50308 30.32643 25.91476
#
# Velocity S-wave (km/s) = 2.96659 3.52304 3.25672
# Velocity P-wave (km/s) = 4.43616 5.63927 5.07350
#
# Compressibility (1/GPa) = 0.05151158
#
# Stress axis : x y z
#
# Youngs Moduli (GPa) = 25.00074 107.73260 52.16841
#
# Poissons Ratio (x) = 0.70507 0.09247
# Poissons Ratio (y) = 0.16362 0.00793
# Poissons Ratio (z) = 0.04431 0.01637
#
# Static dielectric constant tensor:
#      x y z
#    x 1.969570 0.031600 0.019830 
#    y 0.031600 1.971910 0.012520 
#    z 0.019830 0.012520 1.955380 
# 
# From -- ./inp_files/69466.got.cif
#   From: 2010.05.17/outbox.cif.g08.bks.cpg/sg2_35_cif.got.tgz:69466.got - 2010.06.03 11:33:40.
