data_PCOD9007923
_publ_section_title
;
Structure prediction by ZEFSAII (Michael W. Deem and Ramdas Pophale) SiO2 
 PCOD9007923
Probable space group: P -1
;
_chemical_formula_sum "Si O2"
_cell_formula_units_Z 16
_cell_length_a 18.658988
_cell_length_b 12.181159
_cell_length_c 9.349114
_cell_angle_alpha 140.178754
_cell_angle_beta 143.099780
_cell_angle_gamma 35.320705
_cell_volume 695.570334
_symmetry_space_group_name_H-M "P -1"
_symmetry_group_IT_number 2
_symmetry_cell_setting 'triclinic'
loop_
_space_group_symop_operation_xyz
x,y,z
-x,-y,-z
loop_
_atom_site_type_symbol
_atom_site_label
_atom_site_fract_x
_atom_site_fract_y
_atom_site_fract_z
Si Si1 0.376740 0.836447 0.187323
Si Si2 0.982969 0.497911 0.206835
Si Si3 0.073584 0.050005 0.971553
Si Si4 0.501597 0.051817 0.746717
Si Si5 0.776770 0.610771 0.726144
Si Si6 0.869739 0.909176 0.571405
Si Si7 0.436210 0.472154 0.597246
Si Si8 0.442779 0.807854 0.754296
O O1 0.475687 0.802772 0.175876
O O2 0.444685 0.645172 0.209609
O O3 0.215858 0.924692 0.981949
O O4 0.384721 0.010694 0.462155
O O5 0.932268 0.671345 0.417545
O O6 0.997587 0.288246 0.061775
O O7 0.131376 0.445587 0.325619
O O8 0.873520 0.588324 0.991644
O O9 0.127042 0.022333 0.193421
O O10 0.969611 0.968717 0.706914
O O11 0.646971 0.839223 0.745266
O O12 0.484766 0.111745 0.944337
O O13 0.708149 0.477332 0.510181
O O14 0.714024 0.028954 0.379762
O O15 0.431965 0.650308 0.682993
O O16 0.469468 0.309483 0.361841
#
# Coordination Sequence:
#
# PCOD9007923 Si02
#       8
#     2   2   2   2   2   2   2   2
#     4  10  21  41  61  90 128 166 199 266 318 371
#     4  11  22  41  64  94 127 168 212 259 318 377
#     4  11  23  42  62  94 132 168 211 260 318 383
#     4  10  21  39  66  89 125 163 210 259 319 376
#     4  10  21  39  63  91 123 163 210 267 311 376
#     4  11  24  41  66  94 128 171 212 261 317 378
#     4  10  23  40  64  90 130 162 209 271 317 369
#     4  11  22  42  64  96 120 167 217 261 318 373
#
# _framework density 23.002706
#
# number of rings (size 3 to 8) (size 9 to 14) (size 15 to 20)
#    0.000    1.500    3.750    1.125    0.000    4.500 
#    2.250    2.500    0.000    0.000    0.000    0.000 
#    0.000    0.000    0.000    0.000    0.000    0.000 
#
# Total GULP energy -89502.092151 kJ/mol
# GULP energy per Si atom -5593.880759 kJ/mol
# Density = 2.295035 g / cm^3
# Si number density = 23.002706 Si / 1000 Ang^3
#
#
#
# Elastic Constant Matrix: (Units=GPa)
#
#
# Indices 1 2 3 4 5 6 
#
# 1 52.9007 21.6834 7.0998 -3.6588 13.5853 9.2667
# 2 21.6834 79.0529 16.7087 5.1186 9.5293 14.4763
# 3 7.0998 16.7087 69.4816 1.7066 -6.0735 -10.0217
# 4 -3.6588 5.1186 1.7066 28.2987 2.0257 3.2985
# 5 13.5853 9.5293 -6.0735 2.0257 41.2267 -2.8846
# 6 9.2667 14.4763 -10.0217 3.2985 -2.8846 34.7779
#
#
#
# Elastic Compliance Matrix: (Units=1/GPa)
#
#
# Indices 1 2 3 4 5 6 
#
# 1 0.024893 -0.004117 -0.003471 0.005618 -0.008539 -0.007160
# 2 -0.004117 0.016760 -0.004945 -0.002141 -0.003658 -0.007404
# 3 -0.003471 -0.004945 0.017740 -0.002046 0.005613 0.008755
# 4 0.005618 -0.002141 -0.002046 0.037441 -0.003852 -0.005066
# 5 -0.008539 -0.003658 0.005613 -0.003852 0.029508 0.008229
# 6 -0.007160 -0.007404 0.008755 -0.005066 0.008229 0.037430
#
#
# Mechanical properties :
#
#
# Convention : Reuss Voigt Hill
#
# Bulk Modulus (GPa) = 29.13217 32.49102 30.81160
# Shear Modulus (GPa) = 24.96531 31.25689 28.11110
#
# Velocity S-wave (km/s) = 3.29799 3.69024 3.49962
# Velocity P-wave (km/s) = 5.21484 5.68442 5.45469
#
# Compressibility (1/GPa) = 0.03432632
#
# Stress axis : x y z
#
# Youngs Moduli (GPa) = 40.17248 59.66655 56.37081
#
# Poissons Ratio (x) = 0.24568 0.19564
# Poissons Ratio (y) = 0.16541 0.27874
# Poissons Ratio (z) = 0.13942 0.29504
#
# Static dielectric constant tensor:
#      x y z
#    x 1.883730 0.031260 0.002420 
#    y 0.031260 1.843160 0.038380 
#    z 0.002420 0.038380 1.876910 
# 
# From -- ./inp_files/256701.got.cif
#   From: 2010.05.17/outbox.cif.g08.bks.cpg/sg2_129_cif.got.tgz:256701.got - 2010.06.03 11:33:40.
