data_PCOD9007729
_publ_section_title
;
Structure prediction by ZEFSAII (Michael W. Deem and Ramdas Pophale) SiO2 
 PCOD9007729
Probable space group: P -1
;
_chemical_formula_sum "Si O2"
_cell_formula_units_Z 14
_cell_length_a 10.975596
_cell_length_b 8.874427
_cell_length_c 12.227960
_cell_angle_alpha 104.746155
_cell_angle_beta 35.897075
_cell_angle_gamma 89.091674
_cell_volume 621.400316
_symmetry_space_group_name_H-M "P -1"
_symmetry_group_IT_number 2
_symmetry_cell_setting 'triclinic'
loop_
_space_group_symop_operation_xyz
x,y,z
-x,-y,-z
loop_
_atom_site_type_symbol
_atom_site_label
_atom_site_fract_x
_atom_site_fract_y
_atom_site_fract_z
Si Si1 0.400209 0.823102 0.468395
Si Si2 0.661316 0.469995 0.231892
Si Si3 0.737425 0.097209 0.175643
Si Si4 0.709497 0.792006 0.043630
Si Si5 0.351502 0.921026 0.161739
Si Si6 0.050220 0.453114 0.778865
Si Si7 0.921701 0.883907 0.399255
O O1 0.423601 0.627371 0.413351
O O2 0.388447 0.883844 0.612465
O O3 0.626689 0.795212 0.230039
O O4 0.204180 0.963942 0.567036
O O5 0.667499 0.286655 0.218984
O O6 0.765474 0.530567 0.271230
O O7 0.841817 0.445039 0.000072
O O8 0.708125 0.979026 0.079434
O O9 0.000000 0.000000 0.000000
O O10 0.527536 0.783086 0.088802
O O11 0.939142 0.632470 0.831005
O O12 0.185067 0.854116 0.206146
O O13 0.185980 0.057331 0.392311
O O14 0.500000 0.000000 0.000000
O O15 0.128080 0.280115 0.624427
#
# Coordination Sequence:
#
# PCOD9007729 Si02
#       7
#     2   2   2   2   2   2   2
#     4  10  23  39  60  89 129 169 203 252 321 384
#     4  10  22  36  59  98 133 163 206 248 316 392
#     4  12  22  36  61  95 128 165 202 260 314 378
#     4  10  23  41  63  89 127 165 210 260 319 374
#     4  10  24  44  67  92 120 168 224 267 313 369
#     4  10  21  39  62  93 129 168 205 254 318 385
#     4  10  23  43  69  89 127 172 211 264 319 369
#
# _framework density 22.529758999999999
#
# number of rings (size 3 to 8) (size 9 to 14) (size 15 to 20)
#    0.000    1.714    1.429    1.714   12.000    0.571 
#    0.000    0.714    0.000    0.000    0.000    0.000 
#    0.000    0.000    0.000    0.000    0.000    0.000 
#
# Total GULP energy -78161.211768 kJ/mol
# GULP energy per Si atom -5582.943698 kJ/mol
# Density = 2.247848 g / cm^3
# Si number density = 22.529759 Si / 1000 Ang^3
#
#
#
# Elastic Constant Matrix: (Units=GPa)
#
#
# Indices 1 2 3 4 5 6 
#
# 1 81.1492 42.1630 18.2868 22.7055 -5.2693 12.4167
# 2 42.1630 138.3888 42.1135 31.9698 5.9861 7.1514
# 3 18.2868 42.1135 65.0399 4.1427 -7.9442 -2.5920
# 4 22.7055 31.9698 4.1427 47.8025 -0.6718 -0.9221
# 5 -5.2693 5.9861 -7.9442 -0.6718 27.7482 1.4415
# 6 12.4167 7.1514 -2.5920 -0.9221 1.4415 22.1379
#
#
#
# Elastic Compliance Matrix: (Units=1/GPa)
#
#
# Indices 1 2 3 4 5 6 
#
# 1 0.018002 -0.002722 -0.002844 -0.006628 0.003554 -0.010058
# 2 -0.002722 0.012201 -0.007504 -0.006353 -0.005284 -0.003214
# 3 -0.002844 -0.007504 0.021856 0.004697 0.007122 0.006310
# 4 -0.006628 -0.006353 0.004697 0.028076 0.001753 0.007375
# 5 0.003554 -0.005284 0.007122 0.001753 0.040038 -0.001986
# 6 -0.010058 -0.003214 0.006310 0.007375 -0.001986 0.053026
#
#
# Mechanical properties :
#
#
# Convention : Reuss Voigt Hill
#
# Bulk Modulus (GPa) = 38.58020 54.41160 46.49590
# Shear Modulus (GPa) = 24.04094 31.67204 27.85649
#
# Velocity S-wave (km/s) = 3.27016 3.75345 3.52011
# Velocity P-wave (km/s) = 5.60534 6.55652 6.09950
#
# Compressibility (1/GPa) = 0.02592003
#
# Stress axis : x y z
#
# Youngs Moduli (GPa) = 55.54799 81.95935 45.75503
#
# Poissons Ratio (x) = 0.22312 0.13011
# Poissons Ratio (y) = 0.15122 0.34333
# Poissons Ratio (z) = 0.15795 0.61500
#
# Static dielectric constant tensor:
#      x y z
#    x 1.842170 0.008590 -0.029480 
#    y 0.008590 1.981100 -0.042000 
#    z -0.029480 -0.042000 1.876010 
# 
# From -- ./inp_files/200666.got.cif
#   From: 2010.05.17/outbox.cif.g08.bks.cpg/sg2_101_cif.got.tgz:200666.got - 2010.06.03 11:33:40.
