data_PCOD9007106
_publ_section_title
;
Structure prediction by ZEFSAII (Michael W. Deem and Ramdas Pophale) SiO2 
 PCOD9007106
Probable space group: P -1
;
_chemical_formula_sum "Si O2"
_cell_formula_units_Z 16
_cell_length_a 7.335453
_cell_length_b 20.224169
_cell_length_c 14.424111
_cell_angle_alpha 19.969462
_cell_angle_beta 90.282182
_cell_angle_gamma 90.401021
_cell_volume 730.779138
_symmetry_space_group_name_H-M "P -1"
_symmetry_group_IT_number 2
_symmetry_cell_setting 'triclinic'
loop_
_space_group_symop_operation_xyz
x,y,z
-x,-y,-z
loop_
_atom_site_type_symbol
_atom_site_label
_atom_site_fract_x
_atom_site_fract_y
_atom_site_fract_z
Si Si1 0.081460 0.668125 0.397328
Si Si2 0.417961 0.977354 0.824043
Si Si3 0.945807 0.230929 0.941567
Si Si4 0.020053 0.078872 0.499052
Si Si5 0.255272 0.592807 0.967943
Si Si6 0.215368 0.303976 0.511150
Si Si7 0.587072 0.763922 0.677137
Si Si8 0.505452 0.664165 0.363046
O O1 0.014912 0.765555 0.172979
O O2 0.300077 0.676476 0.387177
O O3 0.011384 0.444167 0.691215
O O4 0.978509 0.756502 0.367621
O O5 0.301068 0.130096 0.681892
O O6 0.506820 0.106883 0.573537
O O7 0.271884 0.820024 0.990598
O O8 0.544972 0.861812 0.046293
O O9 0.027987 0.071449 0.220850
O O10 0.234258 0.120197 0.449314
O O11 0.902041 0.273256 0.249113
O O12 0.000000 0.000000 0.500000
O O13 0.439516 0.719855 0.813017
O O14 0.197345 0.484430 0.203740
O O15 0.325870 0.430117 0.111109
O O16 0.350333 0.356649 0.527026
O O17 0.500000 0.500000 0.500000
#
# Coordination Sequence:
#
# PCOD9007106 Si02
#       8
#     2   2   2   2   2   2   2   2
#     4  10  21  39  60  83 118 153 186 232 286 340
#     4   9  20  39  61  85 113 147 192 240 282 335
#     4   9  19  37  57  83 114 150 187 225 284 341
#     4  11  22  36  59  88 115 146 190 238 284 337
#     4  10  22  39  60  83 113 154 192 232 283 338
#     4  11  22  38  59  86 117 148 191 238 280 336
#     4   9  21  42  60  80 114 152 191 236 284 334
#     4  11  23  38  60  86 115 153 189 229 287 344
#
# _framework density 21.894439999999999
#
# number of rings (size 3 to 8) (size 9 to 14) (size 15 to 20)
#    0.000    2.000    0.000    3.750    0.000    7.500 
#    0.000    8.750    0.000    0.000    0.000    0.000 
#    0.000    0.000    0.000    0.000    0.000    0.000 
#
# Total GULP energy -89313.700194 kJ/mol
# GULP energy per Si atom -5582.106262 kJ/mol
# Density = 2.184461 g / cm^3
# Si number density = 21.894440 Si / 1000 Ang^3
#
#
#
# Elastic Constant Matrix: (Units=GPa)
#
#
# Indices 1 2 3 4 5 6 
#
# 1 71.1229 16.5262 12.9310 14.3562 1.4158 -5.1914
# 2 16.5262 33.3597 20.0817 12.9754 3.1355 -2.6038
# 3 12.9310 20.0817 130.0430 29.7979 13.1866 1.9402
# 4 14.3562 12.9754 29.7979 28.0850 12.0930 -6.3229
# 5 1.4158 3.1355 13.1866 12.0930 25.4645 5.0859
# 6 -5.1914 -2.6038 1.9402 -6.3229 5.0859 25.9531
#
#
#
# Elastic Compliance Matrix: (Units=1/GPa)
#
#
# Indices 1 2 3 4 5 6 
#
# 1 0.016876 -0.005993 0.000754 -0.007992 0.003174 0.000149
# 2 -0.005993 0.039675 -0.002582 -0.014531 0.003954 -0.001340
# 3 0.000754 -0.002582 0.010697 -0.011996 0.001248 -0.004075
# 4 -0.007992 -0.014531 -0.011996 0.079040 -0.033829 0.023726
# 5 0.003174 0.003954 0.001248 -0.033829 0.057745 -0.018619
# 6 0.000149 -0.001340 -0.004075 0.023726 -0.018619 0.048160
#
#
# Mechanical properties :
#
#
# Convention : Reuss Voigt Hill
#
# Bulk Modulus (GPa) = 19.37724 37.06704 28.22214
# Shear Modulus (GPa) = 17.54156 28.23298 22.88727
#
# Velocity S-wave (km/s) = 2.83360 3.59486 3.23669
# Velocity P-wave (km/s) = 4.42439 5.84785 5.18520
#
# Compressibility (1/GPa) = 0.05160694
#
# Stress axis : x y z
#
# Youngs Moduli (GPa) = 59.25459 25.20457 93.48788
#
# Poissons Ratio (x) = 0.15105 -0.07053
# Poissons Ratio (y) = 0.35511 0.24140
# Poissons Ratio (z) = -0.04470 0.06508
#
# Static dielectric constant tensor:
#      x y z
#    x 1.835240 0.034990 -0.000010 
#    y 0.034990 1.853290 -0.023410 
#    z -0.000010 -0.023410 1.848510 
# 
# From -- ./inp_files/507608.got.cif
#   From: 2010.05.17/outbox.cif.g08.bks.cpg/sg2_254_cif.got.tgz:507608.got - 2010.06.03 11:33:40.
