data_PCOD9007159
_publ_section_title
;
Structure prediction by ZEFSAII (Michael W. Deem and Ramdas Pophale) SiO2 
 PCOD9007159
Probable space group: P -1
;
_chemical_formula_sum "Si O2"
_cell_formula_units_Z 14
_cell_length_a 10.081111
_cell_length_b 21.149352
_cell_length_c 8.964834
_cell_angle_alpha 130.776331
_cell_angle_beta 29.984719
_cell_angle_gamma 133.882706
_cell_volume 681.097925
_symmetry_space_group_name_H-M "P -1"
_symmetry_group_IT_number 2
_symmetry_cell_setting 'triclinic'
loop_
_space_group_symop_operation_xyz
x,y,z
-x,-y,-z
loop_
_atom_site_type_symbol
_atom_site_label
_atom_site_fract_x
_atom_site_fract_y
_atom_site_fract_z
Si Si1 0.505682 0.038310 0.388904
Si Si2 0.400350 0.402262 0.728936
Si Si3 0.919442 0.967803 0.698072
Si Si4 0.276027 0.206758 0.524549
Si Si5 0.791531 0.212834 0.225290
Si Si6 0.781551 0.403993 0.619815
Si Si7 0.994616 0.498577 0.179555
O O1 0.681671 0.142575 0.357194
O O2 0.500000 0.000000 0.500000
O O3 0.185525 0.016611 0.615942
O O4 0.655169 0.990276 0.054048
O O5 0.374212 0.308634 0.537913
O O6 0.492684 0.397770 0.805132
O O7 0.671368 0.476134 0.508620
O O8 0.119854 0.423455 0.000123
O O9 0.853373 0.862702 0.586310
O O10 0.000000 0.000000 0.500000
O O11 0.541318 0.187720 0.308211
O O12 0.056998 0.201354 0.864243
O O13 0.839039 0.314219 0.381688
O O14 0.806418 0.416162 0.792251
O O15 0.000000 0.500000 0.500000
O O16 0.000000 0.500000 0.000000
#
# Coordination Sequence:
#
# PCOD9007159 Si02
#       7
#     2   2   2   2   2   2   2
#     4  12  25  42  62  92 134 166 204 256 321 378
#     4  10  21  39  60  88 117 157 205 253 296 368
#     4  12  22  42  68  91 121 165 216 258 310 367
#     4  11  21  37  66  93 116 154 217 262 296 352
#     4  11  21  38  61  92 123 158 207 261 304 369
#     4   9  20  38  63  87 113 160 204 248 302 355
#     4  11  22  39  60  86 127 158 196 250 313 368
#
# _framework density 20.555046999999998
#
# number of rings (size 3 to 8) (size 9 to 14) (size 15 to 20)
#    0.000    1.143    2.857    5.143    0.000    3.429 
#    5.143    0.000    0.000    0.000    0.000    0.000 
#    0.000    0.000    0.000    0.000    0.000    0.000 
#
# Total GULP energy -78157.760750 kJ/mol
# GULP energy per Si atom -5582.697196 kJ/mol
# Density = 2.050826 g / cm^3
# Si number density = 20.555047 Si / 1000 Ang^3
#
#
#
# Elastic Constant Matrix: (Units=GPa)
#
#
# Indices 1 2 3 4 5 6 
#
# 1 87.7292 20.4533 7.8925 1.2887 9.9089 -2.1258
# 2 20.4533 105.5346 9.7742 17.6264 5.0439 8.4140
# 3 7.8925 9.7742 58.2287 2.6644 -2.7531 -0.9618
# 4 1.2887 17.6264 2.6644 30.8056 4.4529 0.0157
# 5 9.9089 5.0439 -2.7531 4.4529 31.0094 -0.8323
# 6 -2.1258 8.4140 -0.9618 0.0157 -0.8323 23.6064
#
#
#
# Elastic Compliance Matrix: (Units=1/GPa)
#
#
# Indices 1 2 3 4 5 6 
#
# 1 0.012589 -0.002528 -0.001511 0.001618 -0.003929 0.001834
# 2 -0.002528 0.011517 -0.001394 -0.006303 -0.000402 -0.004400
# 3 -0.001511 -0.001394 0.017796 -0.001036 0.002470 0.001174
# 4 0.001618 -0.006303 -0.001036 0.036784 -0.004808 0.002156
# 5 -0.003929 -0.000402 0.002470 -0.004808 0.034509 0.001110
# 6 0.001834 -0.004400 0.001174 0.002156 0.001110 0.044180
#
#
# Mechanical properties :
#
#
# Convention : Reuss Voigt Hill
#
# Bulk Modulus (GPa) = 32.22184 36.41472 34.31828
# Shear Modulus (GPa) = 27.99753 31.30910 29.65331
#
# Velocity S-wave (km/s) = 3.69463 3.90703 3.80232
# Velocity P-wave (km/s) = 5.82326 6.17312 6.00074
#
# Compressibility (1/GPa) = 0.03103485
#
# Stress axis : x y z
#
# Youngs Moduli (GPa) = 79.43726 86.82472 56.19218
#
# Poissons Ratio (x) = 0.21953 0.08493
# Poissons Ratio (y) = 0.20085 0.07832
# Poissons Ratio (z) = 0.12006 0.12102
#
# Static dielectric constant tensor:
#      x y z
#    x 1.733430 -0.004270 0.014910 
#    y -0.004270 1.801330 -0.007400 
#    z 0.014910 -0.007400 1.743900 
# 
# From -- ./inp_files/223979.got.cif
#   From: 2010.05.17/outbox.cif.g08.bks.cpg/sg2_112_cif.got.tgz:223979.got - 2010.06.03 11:33:40.
