data_PCOD9007406
_publ_section_title
;
Structure prediction by ZEFSAII (Michael W. Deem and Ramdas Pophale) SiO2 
 PCOD9007406
Probable space group: P -1
;
_chemical_formula_sum "Si O2"
_cell_formula_units_Z 16
_cell_length_a 5.485758
_cell_length_b 23.413146
_cell_length_c 23.333326
_cell_angle_alpha 12.152386
_cell_angle_beta 107.864387
_cell_angle_gamma 107.262886
_cell_volume 600.394521
_symmetry_space_group_name_H-M "P -1"
_symmetry_group_IT_number 2
_symmetry_cell_setting 'triclinic'
loop_
_space_group_symop_operation_xyz
x,y,z
-x,-y,-z
loop_
_atom_site_type_symbol
_atom_site_label
_atom_site_fract_x
_atom_site_fract_y
_atom_site_fract_z
Si Si1 0.567982 0.412127 0.444016
Si Si2 0.518437 0.691772 0.700108
Si Si3 0.836780 0.682028 0.101388
Si Si4 0.960217 0.768069 0.270832
Si Si5 0.843454 0.761394 0.753008
Si Si6 0.077455 0.855684 0.428520
Si Si7 0.306304 0.940827 0.942134
Si Si8 0.821643 0.164686 0.197531
O O1 0.609886 0.541307 0.257981
O O2 0.829627 0.281709 0.615367
O O3 0.382434 0.157124 0.686906
O O4 0.490519 0.677264 0.216185
O O5 0.565452 0.727842 0.736397
O O6 0.239028 0.747835 0.600654
O O7 0.692692 0.920519 0.460797
O O8 0.637238 0.418275 0.949645
O O9 0.971871 0.427032 0.329353
O O10 0.037591 0.804040 0.041399
O O11 0.772809 0.935614 0.806849
O O12 0.000000 0.500000 0.500000
O O13 0.712791 0.870914 0.187776
O O14 0.000000 0.000000 0.000000
O O15 0.901096 0.776574 0.809883
O O16 0.000000 0.000000 0.500000
O O17 0.000000 0.500000 0.000000
O O18 0.863012 0.055160 0.244151
#
# Coordination Sequence:
#
# PCOD9007406 Si02
#       8
#     2   2   2   2   2   2   2   2
#     4  12  26  48  76 102 139 192 232 270 338 402
#     4  10  21  39  61  91 127 167 217 274 343 416
#     4  12  27  48  68 100 140 178 241 297 324 393
#     4  12  26  46  74 114 151 172 219 287 328 393
#     4   8  16  33  58  85 122 164 207 267 335 415
#     4  12  25  41  66  95 131 176 226 289 348 393
#     4  12  26  48  76 102 139 192 232 270 338 402
#     4  10  21  39  61  91 127 167 217 274 343 416
#
# _framework density 26.649145000000001
#
# number of rings (size 3 to 8) (size 9 to 14) (size 15 to 20)
#    0.000    1.000    0.000    7.500    0.000    7.500 
#    0.000    2.500    0.000   10.500    0.000    0.000 
#    0.000    0.000    0.000    0.000    0.000    0.000 
#
# Total GULP energy -89533.667046 kJ/mol
# GULP energy per Si atom -5595.854190 kJ/mol
# Density = 2.658849 g / cm^3
# Si number density = 26.649145 Si / 1000 Ang^3
#
#
#
# Elastic Constant Matrix: (Units=GPa)
#
#
# Indices 1 2 3 4 5 6 
#
# 1 50.2895 16.7247 34.6120 -5.3187 12.5020 -12.5406
# 2 16.7247 82.7382 41.1558 -22.5656 14.0594 -21.4175
# 3 34.6120 41.1558 252.3687 -19.3894 15.5261 -23.0754
# 4 -5.3187 -22.5656 -19.3894 61.4863 -12.0802 12.8079
# 5 12.5020 14.0594 15.5261 -12.0802 59.4644 5.1175
# 6 -12.5406 -21.4175 -23.0754 12.8079 5.1175 42.0892
#
#
#
# Elastic Compliance Matrix: (Units=1/GPa)
#
#
# Indices 1 2 3 4 5 6 
#
# 1 0.024733 -0.001784 -0.002339 -0.001543 -0.005020 0.006259
# 2 -0.001784 0.016197 -0.001378 0.003478 -0.002926 0.006252
# 3 -0.002339 -0.001378 0.004666 0.000463 -0.000399 0.001068
# 4 -0.001543 0.003478 0.000463 0.019270 0.003705 -0.004751
# 5 -0.005020 -0.002926 -0.000399 0.003705 0.020003 -0.006763
# 6 0.006259 0.006252 0.001068 -0.004751 -0.006763 0.031659
#
#
# Mechanical properties :
#
#
# Convention : Reuss Voigt Hill
#
# Bulk Modulus (GPa) = 28.90591 63.37572 46.14081
# Shear Modulus (GPa) = 35.95597 52.13489 44.04543
#
# Velocity S-wave (km/s) = 3.67718 4.42786 4.06986
# Velocity P-wave (km/s) = 5.37580 7.06925 6.27987
#
# Compressibility (1/GPa) = 0.03459501
#
# Stress axis : x y z
#
# Youngs Moduli (GPa) = 40.43138 61.74169 214.33622
#
# Poissons Ratio (x) = 0.11014 0.50125
# Poissons Ratio (y) = 0.07212 0.29530
# Poissons Ratio (z) = 0.09455 0.08506
#
# Static dielectric constant tensor:
#      x y z
#    x 2.076230 0.072830 -0.004590 
#    y 0.072830 2.198420 0.011020 
#    z -0.004590 0.011020 1.962670 
# 
# From -- ./inp_files/616029.got.cif
#   From: 2010.05.17/outbox.cif.g08.bks.cpg/sg2_309_cif.got.tgz:616029.got - 2010.06.03 11:33:40.
