data_PCOD9007590
_publ_section_title
;
Structure prediction by ZEFSAII (Michael W. Deem and Ramdas Pophale) SiO2 
 PCOD9007590
Probable space group: P -1
;
_chemical_formula_sum "Si O2"
_cell_formula_units_Z 16
_cell_length_a 11.872081
_cell_length_b 15.893359
_cell_length_c 8.988679
_cell_angle_alpha 99.058669
_cell_angle_beta 37.537287
_cell_angle_gamma 73.948985
_cell_volume 760.281335
_symmetry_space_group_name_H-M "P -1"
_symmetry_group_IT_number 2
_symmetry_cell_setting 'triclinic'
loop_
_space_group_symop_operation_xyz
x,y,z
-x,-y,-z
loop_
_atom_site_type_symbol
_atom_site_label
_atom_site_fract_x
_atom_site_fract_y
_atom_site_fract_z
Si Si1 0.314349 0.949846 0.262917
Si Si2 0.379736 0.320578 0.847745
Si Si3 0.107984 0.515934 0.751216
Si Si4 0.919584 0.073210 0.251058
Si Si5 0.239121 0.096728 0.107968
Si Si6 0.414300 0.309243 0.142574
Si Si7 0.798418 0.340632 0.699066
Si Si8 0.474761 0.538458 0.290821
O O1 0.094354 0.981354 0.602947
O O2 0.234091 0.034252 0.235767
O O3 0.481723 0.955176 0.201865
O O4 0.475443 0.819969 0.995261
O O5 0.634450 0.189873 0.556385
O O6 0.469257 0.382818 0.700932
O O7 0.295401 0.357241 0.117325
O O8 0.137076 0.364663 0.029075
O O9 0.234669 0.406268 0.479616
O O10 0.319871 0.522872 0.553111
O O11 0.000000 0.500000 0.000000
O O12 0.105072 0.092784 0.108170
O O13 0.000000 0.000000 0.000000
O O14 0.078351 0.229146 0.352085
O O15 0.652908 0.298156 0.877519
O O16 0.687681 0.408398 0.678088
O O17 0.733547 0.421062 0.926422
#
# Coordination Sequence:
#
# PCOD9007590 Si02
#       8
#     2   2   2   2   2   2   2   2
#     4  10  23  38  64  91 122 157 205 259 296 353
#     4  10  21  39  62  89 106 163 210 232 299 353
#     4  11  24  37  56  91 127 153 190 246 308 360
#     4  11  24  42  62  89 124 164 201 252 302 362
#     4  11  21  39  62  94 119 155 212 250 303 351
#     4   9  19  38  61  88 115 158 202 242 293 354
#     4   9  17  33  63  89 110 154 199 246 294 337
#     4   9  19  36  58  86 118 149 193 250 286 354
#
# _framework density 21.044840000000001
#
# number of rings (size 3 to 8) (size 9 to 14) (size 15 to 20)
#    0.000    2.000    3.750    1.500    5.250    2.000 
#    2.250    2.500    0.000    0.000    0.000    0.000 
#    0.000    0.000    0.000    0.000    0.000    0.000 
#
# Total GULP energy -89253.761282 kJ/mol
# GULP energy per Si atom -5578.360080 kJ/mol
# Density = 2.099694 g / cm^3
# Si number density = 21.044840 Si / 1000 Ang^3
#
#
#
# Elastic Constant Matrix: (Units=GPa)
#
#
# Indices 1 2 3 4 5 6 
#
# 1 52.5623 1.2166 37.7433 -2.1529 -7.4480 4.7458
# 2 1.2166 68.3140 10.0414 -8.1332 11.2551 6.6507
# 3 37.7433 10.0414 70.6685 -8.3280 11.5681 3.9016
# 4 -2.1529 -8.1332 -8.3280 30.7333 1.2061 -7.7881
# 5 -7.4480 11.2551 11.5681 1.2061 22.1220 3.7204
# 6 4.7458 6.6507 3.9016 -7.7881 3.7204 18.7404
#
#
#
# Elastic Compliance Matrix: (Units=1/GPa)
#
#
# Indices 1 2 3 4 5 6 
#
# 1 0.048850 -0.002085 -0.032455 -0.011809 0.038038 -0.017333
# 2 -0.002085 0.016849 0.000937 0.004475 -0.009695 -0.001862
# 3 -0.032455 0.000937 0.037706 0.012551 -0.033818 0.011966
# 4 -0.011809 0.004475 0.012551 0.042074 -0.018463 0.019940
# 5 0.038038 -0.009695 -0.033818 -0.018463 0.085641 -0.023826
# 6 -0.017333 -0.001862 0.011966 0.019940 -0.023826 0.068936
#
#
# Mechanical properties :
#
#
# Convention : Reuss Voigt Hill
#
# Bulk Modulus (GPa) = 27.62622 32.17194 29.89908
# Shear Modulus (GPa) = 13.18120 23.82202 18.50161
#
# Velocity S-wave (km/s) = 2.50539 3.36812 2.96827
# Velocity P-wave (km/s) = 4.63952 5.51780 5.09761
#
# Compressibility (1/GPa) = 0.03619749
#
# Stress axis : x y z
#
# Youngs Moduli (GPa) = 20.47099 59.35022 26.52114
#
# Poissons Ratio (x) = 0.12374 0.86075
# Poissons Ratio (y) = 0.04268 -0.02484
# Poissons Ratio (z) = 0.66439 -0.05559
#
# Static dielectric constant tensor:
#      x y z
#    x 1.789380 0.007550 -0.021560 
#    y 0.007550 1.789710 0.003380 
#    z -0.021560 0.003380 1.759720 
# 
# From -- ./inp_files/277945.got.cif
#   From: 2010.05.17/outbox.cif.g08.bks.cpg/sg2_139_cif.got.tgz:277945.got - 2010.06.03 11:33:40.
