data_PCOD9007620
_publ_section_title
;
Structure prediction by ZEFSAII (Michael W. Deem and Ramdas Pophale) SiO2 
 PCOD9007620
Probable space group: P -1
;
_chemical_formula_sum "Si O2"
_cell_formula_units_Z 14
_cell_length_a 10.739617
_cell_length_b 13.275425
_cell_length_c 7.775215
_cell_angle_alpha 60.850270
_cell_angle_beta 60.729151
_cell_angle_gamma 110.605096
_cell_volume 534.171019
_symmetry_space_group_name_H-M "P -1"
_symmetry_group_IT_number 2
_symmetry_cell_setting 'triclinic'
loop_
_space_group_symop_operation_xyz
x,y,z
-x,-y,-z
loop_
_atom_site_type_symbol
_atom_site_label
_atom_site_fract_x
_atom_site_fract_y
_atom_site_fract_z
Si Si1 0.454146 0.121345 0.342147
Si Si2 0.214646 0.672483 0.366380
Si Si3 0.052232 0.152540 0.058621
Si Si4 0.466771 0.115093 0.728616
Si Si5 0.232911 0.493419 0.113865
Si Si6 0.977150 0.851035 0.329070
Si Si7 0.703699 0.478060 0.332117
O O1 0.511934 0.111640 0.503130
O O2 0.188067 0.939766 0.650177
O O3 0.612435 0.190167 0.018064
O O4 0.526624 0.301806 0.170782
O O5 0.337385 0.800926 0.347260
O O6 0.209263 0.533744 0.547117
O O7 0.961469 0.557675 0.613776
O O8 0.016601 0.998747 0.266669
O O9 0.066935 0.161803 0.833389
O O10 0.254345 0.360089 0.813557
O O11 0.475222 0.262568 0.626429
O O12 0.214419 0.930669 0.108409
O O13 0.208349 0.345089 0.297129
O O14 0.175349 0.477172 0.966194
#
# Coordination Sequence:
#
# PCOD9007620 Si02
#       7
#     2   2   2   2   2   2   2
#     4  10  21  39  62  90 119 163 198 242 302 358
#     4  10  21  41  63  88 126 155 198 250 295 361
#     4  10  22  42  61  87 123 154 209 248 294 356
#     4   8  21  40  59  92 121 154 202 241 305 351
#     4  11  22  39  62  90 123 157 202 242 305 356
#     4  10  22  41  62  87 121 161 198 253 296 355
#     4   9  21  38  60  88 121 156 196 250 295 350
#
# _framework density 26.208838
#
# number of rings (size 3 to 8) (size 9 to 14) (size 15 to 20)
#    0.857    1.429    0.000    1.714    2.000    2.286 
#    0.000    3.571    0.000    0.000    0.000    0.000 
#    0.000    0.000    0.000    0.000    0.000    0.000 
#
# Total GULP energy -78171.025774 kJ/mol
# GULP energy per Si atom -5583.644698 kJ/mol
# Density = 2.614919 g / cm^3
# Si number density = 26.208838 Si / 1000 Ang^3
#
#
#
# Elastic Constant Matrix: (Units=GPa)
#
#
# Indices 1 2 3 4 5 6 
#
# 1 54.4068 6.4097 27.4073 10.7114 10.2428 -0.5730
# 2 6.4097 97.1191 30.4355 -1.8694 2.3422 -3.2334
# 3 27.4073 30.4355 122.9228 -10.7563 17.6410 11.9796
# 4 10.7114 -1.8694 -10.7563 49.9017 -0.5261 12.8785
# 5 10.2428 2.3422 17.6410 -0.5261 41.4521 -13.0619
# 6 -0.5730 -3.2334 11.9796 12.8785 -13.0619 32.4623
#
#
#
# Elastic Compliance Matrix: (Units=1/GPa)
#
#
# Indices 1 2 3 4 5 6 
#
# 1 0.023358 0.000491 -0.006283 -0.007709 -0.001585 0.005201
# 2 0.000491 0.011499 -0.003770 -0.001489 0.002064 0.003966
# 3 -0.006283 -0.003770 0.013162 0.006790 -0.007194 -0.010932
# 4 -0.007709 -0.001489 0.006790 0.027113 -0.005526 -0.015770
# 5 -0.001585 0.002064 -0.007194 -0.005526 0.033181 0.018376
# 6 0.005201 0.003966 -0.010932 -0.015770 0.018376 0.048976
#
#
# Mechanical properties :
#
#
# Convention : Reuss Voigt Hill
#
# Bulk Modulus (GPa) = 34.60955 44.77265 39.69110
# Shear Modulus (GPa) = 26.87503 38.77630 32.82567
#
# Velocity S-wave (km/s) = 3.20569 3.85062 3.54286
# Velocity P-wave (km/s) = 5.18998 6.07370 5.64914
#
# Compressibility (1/GPa) = 0.02889376
#
# Stress axis : x y z
#
# Youngs Moduli (GPa) = 42.81131 86.96240 75.97908
#
# Poissons Ratio (x) = -0.04266 0.47741
# Poissons Ratio (y) = -0.02100 0.28642
# Poissons Ratio (z) = 0.26900 0.32782
#
# Static dielectric constant tensor:
#      x y z
#    x 2.071190 -0.104770 0.040060 
#    y -0.104770 2.150770 -0.041400 
#    z 0.040060 -0.041400 1.997160 
# 
# From -- ./inp_files/237298.got.cif
#   From: 2010.05.17/outbox.cif.g08.bks.cpg/sg2_119_cif.got.tgz:237298.got - 2010.06.03 11:33:40.
