data_PCOD9007873
_publ_section_title
;
Structure prediction by ZEFSAII (Michael W. Deem and Ramdas Pophale) SiO2 
 PCOD9007873
Probable space group: P -1
;
_chemical_formula_sum "Si O2"
_cell_formula_units_Z 16
_cell_length_a 24.498761
_cell_length_b 8.831801
_cell_length_c 9.561346
_cell_angle_alpha 112.829942
_cell_angle_beta 140.188633
_cell_angle_gamma 96.926315
_cell_volume 860.388596
_symmetry_space_group_name_H-M "P -1"
_symmetry_group_IT_number 2
_symmetry_cell_setting 'triclinic'
loop_
_space_group_symop_operation_xyz
x,y,z
-x,-y,-z
loop_
_atom_site_type_symbol
_atom_site_label
_atom_site_fract_x
_atom_site_fract_y
_atom_site_fract_z
Si Si1 0.060291 0.811142 0.804267
Si Si2 0.151087 0.705752 0.709582
Si Si3 0.950045 0.857890 0.995787
Si Si4 0.627937 0.203178 0.749094
Si Si5 0.888904 0.227988 0.649831
Si Si6 0.466541 0.043167 0.804257
Si Si7 0.281561 0.070851 0.541803
Si Si8 0.309424 0.500164 0.764437
O O1 0.087695 0.759955 0.695432
O O2 0.939156 0.572126 0.548658
O O3 0.057201 0.001969 0.860582
O O4 0.170869 0.916224 0.159993
O O5 0.159073 0.782210 0.597247
O O6 0.281171 0.825510 0.061980
O O7 0.815343 0.617808 0.600889
O O8 0.044320 0.855459 0.236796
O O9 0.000000 0.000000 0.000000
O O10 0.500000 0.000000 0.500000
O O11 0.601164 0.169898 0.517886
O O12 0.685025 0.426540 0.037730
O O13 0.778649 0.075742 0.486484
O O14 0.000000 0.500000 0.000000
O O15 0.383896 0.087201 0.696305
O O16 0.582828 0.271527 0.031315
O O17 0.500000 0.000000 0.000000
O O18 0.317932 0.312901 0.712966
#
# Coordination Sequence:
#
# PCOD9007873 Si02
#       8
#     2   2   2   2   2   2   2   2
#     4  10  21  39  63  89 124 168 194 250 318 369
#     4  11  22  38  62  90 125 162 205 252 306 368
#     4  11  20  39  63  93 125 159 202 248 318 366
#     4  10  22  40  64  86 121 161 205 250 311 361
#     4  12  23  35  63  94 122 158 207 257 299 371
#     4  11  25  42  65  92 118 162 214 259 297 370
#     4  11  22  42  63  91 125 165 203 250 314 367
#     4  10  22  41  66  86 125 171 199 250 312 366
#
# _framework density 18.596247000000002
#
# number of rings (size 3 to 8) (size 9 to 14) (size 15 to 20)
#    0.000    1.250    5.000    1.875    5.250    0.500 
#    0.000    3.125    0.000    0.000    0.000    0.000 
#    0.000    0.000    0.000    0.000    0.000    0.000 
#
# Total GULP energy -89261.059509 kJ/mol
# GULP energy per Si atom -5578.816219 kJ/mol
# Density = 1.855392 g / cm^3
# Si number density = 18.596247 Si / 1000 Ang^3
#
#
#
# Elastic Constant Matrix: (Units=GPa)
#
#
# Indices 1 2 3 4 5 6 
#
# 1 99.1079 30.4259 34.8685 0.7020 -1.4078 1.8386
# 2 30.4259 46.5730 23.4623 -4.8937 -5.4908 18.6437
# 3 34.8685 23.4623 80.3517 -2.2581 0.3470 2.8778
# 4 0.7020 -4.8937 -2.2581 29.2639 0.7548 -1.4720
# 5 -1.4078 -5.4908 0.3470 0.7548 42.8533 -3.8347
# 6 1.8386 18.6437 2.8778 -1.4720 -3.8347 31.4314
#
#
#
# Elastic Compliance Matrix: (Units=1/GPa)
#
#
# Indices 1 2 3 4 5 6 
#
# 1 0.014286 -0.009870 -0.003559 -0.001999 -0.000264 0.005219
# 2 -0.009870 0.041379 -0.006846 0.005410 0.002904 -0.022733
# 3 -0.003559 -0.006846 0.015904 0.000327 -0.000885 0.002720
# 4 -0.001999 0.005410 0.000327 0.035078 -0.000127 -0.001495
# 5 -0.000264 0.002904 -0.000885 -0.000127 0.023822 0.001275
# 6 0.005219 -0.022733 0.002720 -0.001495 0.001275 0.044830
#
#
# Mechanical properties :
#
#
# Convention : Reuss Voigt Hill
#
# Bulk Modulus (GPa) = 32.23801 44.83846 38.53823
# Shear Modulus (GPa) = 22.10525 29.86143 25.98334
#
# Velocity S-wave (km/s) = 3.45148 4.01156 3.74202
# Velocity P-wave (km/s) = 5.76689 6.75431 6.28004
#
# Compressibility (1/GPa) = 0.03101929
#
# Stress axis : x y z
#
# Youngs Moduli (GPa) = 69.99873 24.16657 62.87591
#
# Poissons Ratio (x) = 0.23853 0.22379
# Poissons Ratio (y) = 0.69091 0.43043
# Poissons Ratio (z) = 0.24914 0.16544
#
# Static dielectric constant tensor:
#      x y z
#    x 1.634890 -0.060240 -0.028060 
#    y -0.060240 1.609900 0.011680 
#    z -0.028060 0.011680 1.650290 
# 
# From -- ./inp_files/181666.got.cif
#   From: 2010.05.17/outbox.cif.g08.bks.cpg/sg2_91_cif.got.tgz:181666.got - 2010.06.03 11:33:40.
