data_PCOD9007036
_publ_section_title
;
Structure prediction by ZEFSAII (Michael W. Deem and Ramdas Pophale) SiO2 
 PCOD9007036
Probable space group: P -1
;
_chemical_formula_sum "Si O2"
_cell_formula_units_Z 14
_cell_length_a 12.219306
_cell_length_b 18.820556
_cell_length_c 9.338390
_cell_angle_alpha 74.994681
_cell_angle_beta 43.760972
_cell_angle_gamma 39.297783
_cell_volume 685.529439
_symmetry_space_group_name_H-M "P -1"
_symmetry_group_IT_number 2
_symmetry_cell_setting 'triclinic'
loop_
_space_group_symop_operation_xyz
x,y,z
-x,-y,-z
loop_
_atom_site_type_symbol
_atom_site_label
_atom_site_fract_x
_atom_site_fract_y
_atom_site_fract_z
Si Si1 0.302120 0.412482 0.343401
Si Si2 0.701225 0.274351 0.750736
Si Si3 0.648948 0.160028 0.674722
Si Si4 0.517465 0.055983 0.835896
Si Si5 0.202933 0.861200 0.781581
Si Si6 0.173772 0.139328 0.835739
Si Si7 0.502004 0.483198 0.175593
O O1 0.457952 0.295556 0.374539
O O2 0.270405 0.505731 0.398010
O O3 0.000000 0.500000 0.500000
O O4 0.563082 0.318021 0.017446
O O5 0.543907 0.278181 0.790434
O O6 0.622400 0.388846 0.709736
O O7 0.092916 0.103745 0.486394
O O8 0.714427 0.144821 0.452289
O O9 0.438667 0.172140 0.893830
O O10 0.000000 0.000000 0.500000
O O11 0.296633 0.124226 0.874817
O O12 0.500000 0.000000 0.000000
O O13 0.985088 0.875678 0.975380
O O14 0.000000 0.000000 0.000000
O O15 0.500000 0.000000 0.500000
O O16 0.871927 0.309876 0.965112
O O17 0.500000 0.500000 0.000000
#
# Coordination Sequence:
#
# PCOD9007036 Si02
#       7
#     2   2   2   2   2   2   2
#     4  10  22  39  60  89 121 161 204 248 307 367
#     4  10  21  41  62  87 127 162 200 260 305 363
#     4  10  21  39  59  87 121 157 201 252 308 364
#     4  11  23  40  62  89 119 159 203 250 312 374
#     4  11  22  38  61  89 121 158 204 257 304 363
#     4  11  21  37  62  91 120 159 207 253 303 366
#     4   9  20  38  58  86 122 158 200 250 303 357
#
# _framework density 20.422170999999999
#
# number of rings (size 3 to 8) (size 9 to 14) (size 15 to 20)
#    0.000    1.714    0.000    6.857    0.000    6.857 
#    0.000    9.286    0.000    0.000    0.000    0.000 
#    0.000    0.000    0.000    0.000    0.000    0.000 
#
# Total GULP energy -78132.593729 kJ/mol
# GULP energy per Si atom -5580.899552 kJ/mol
# Density = 2.037569 g / cm^3
# Si number density = 20.422171 Si / 1000 Ang^3
#
#
#
# Elastic Constant Matrix: (Units=GPa)
#
#
# Indices 1 2 3 4 5 6 
#
# 1 175.5814 90.2473 22.1720 -2.8134 -13.9949 4.5345
# 2 90.2473 151.1217 23.1245 -9.0410 -6.6759 0.9638
# 3 22.1720 23.1245 51.3301 -8.0213 -8.3879 -8.3388
# 4 -2.8134 -9.0410 -8.0213 27.7707 -8.6141 5.6829
# 5 -13.9949 -6.6759 -8.3879 -8.6141 36.7514 1.6353
# 6 4.5345 0.9638 -8.3388 5.6829 1.6353 50.0940
#
#
#
# Elastic Compliance Matrix: (Units=1/GPa)
#
#
# Indices 1 2 3 4 5 6 
#
# 1 0.008517 -0.004795 -0.001382 -0.000273 0.002035 -0.000944
# 2 -0.004795 0.009941 -0.002113 0.002226 0.000035 -0.000363
# 3 -0.001382 -0.002113 0.023653 0.007250 0.006050 0.003083
# 4 -0.000273 0.002226 0.007250 0.043473 0.012329 -0.004146
# 5 0.002035 0.000035 0.006050 0.012329 0.032334 -0.001632
# 6 -0.000944 -0.000363 0.003083 -0.004146 -0.001632 0.021092
#
#
# Mechanical properties :
#
#
# Convention : Reuss Voigt Hill
#
# Bulk Modulus (GPa) = 39.16774 72.12453 55.64614
# Shear Modulus (GPa) = 30.46935 39.08918 34.77926
#
# Velocity S-wave (km/s) = 3.86680 4.37974 4.13124
# Velocity P-wave (km/s) = 6.25754 7.80830 7.07554
#
# Compressibility (1/GPa) = 0.02553121
#
# Stress axis : x y z
#
# Youngs Moduli (GPa) = 117.41716 100.59426 42.27782
#
# Poissons Ratio (x) = 0.48234 0.05844
# Poissons Ratio (y) = 0.56301 0.08932
# Poissons Ratio (z) = 0.16229 0.21251
#
# Static dielectric constant tensor:
#      x y z
#    x 1.923000 0.120920 -0.296090 
#    y 0.120920 1.767570 -0.076960 
#    z -0.296090 -0.076960 2.290340 
# 
# From -- ./inp_files/154974.got.cif
#   From: 2010.05.17/outbox.cif.g08.bks.cpg/sg2_78_cif.got.tgz:154974.got - 2010.06.03 11:33:40.
