data_PCOD9007697
_publ_section_title
;
Structure prediction by ZEFSAII (Michael W. Deem and Ramdas Pophale) SiO2 
 PCOD9007697
Probable space group: P -1
;
_chemical_formula_sum "Si O2"
_cell_formula_units_Z 16
_cell_length_a 23.536399
_cell_length_b 7.679604
_cell_length_c 6.387180
_cell_angle_alpha 114.391298
_cell_angle_beta 134.283982
_cell_angle_gamma 51.228033
_cell_volume 643.752018
_symmetry_space_group_name_H-M "P -1"
_symmetry_group_IT_number 2
_symmetry_cell_setting 'triclinic'
loop_
_space_group_symop_operation_xyz
x,y,z
-x,-y,-z
loop_
_atom_site_type_symbol
_atom_site_label
_atom_site_fract_x
_atom_site_fract_y
_atom_site_fract_z
Si Si1 0.137524 0.906592 0.872171
Si Si2 0.544366 0.685158 0.407344
Si Si3 0.163535 0.577507 0.145839
Si Si4 0.371111 0.810603 0.720340
Si Si5 0.222823 0.841084 0.669033
Si Si6 0.433153 0.999961 0.648511
Si Si7 0.959556 0.306971 0.738289
Si Si8 0.100932 0.340486 0.582413
O O1 0.227300 0.845068 0.934815
O O2 0.082232 0.833461 0.538884
O O3 0.155675 0.755760 0.044644
O O4 0.067955 0.161492 0.886383
O O5 0.605676 0.421409 0.438560
O O6 0.498151 0.787652 0.562170
O O7 0.597945 0.798047 0.496122
O O8 0.460494 0.754479 0.062794
O O9 0.227525 0.612086 0.496091
O O10 0.069825 0.663459 0.082819
O O11 0.172297 0.372811 0.931259
O O12 0.292757 0.872102 0.720588
O O13 0.358534 0.979680 0.586353
O O14 0.129517 0.084746 0.516104
O O15 0.500000 0.000000 0.000000
O O16 0.907303 0.543286 0.603414
O O17 0.000000 0.500000 0.500000
#
# Coordination Sequence:
#
# PCOD9007697 Si02
#       8
#     2   2   2   2   2   2   2   2
#     4   9  18  35  58  82 113 150 201 256 302 363
#     4   9  19  39  66  92 122 165 208 249 307 377
#     4  10  23  39  59  84 116 162 207 262 318 359
#     4  10  21  39  62  92 126 165 205 253 317 378
#     4  11  24  41  56  91 127 156 205 258 318 370
#     4   9  18  37  64  99 123 157 208 254 298 379
#     4   9  18  35  59  81 107 152 210 253 299 368
#     4  11  23  39  59  87 118 161 214 258 304 374
#
# _framework density 24.854291
#
# number of rings (size 3 to 8) (size 9 to 14) (size 15 to 20)
#    0.000    2.250    1.250    0.750    3.500    2.500 
#   13.500    0.000    0.000    0.000    0.000    0.000 
#    0.000    0.000    0.000    0.000    0.000    0.000 
#
# Total GULP energy -89291.692418 kJ/mol
# GULP energy per Si atom -5580.730776 kJ/mol
# Density = 2.479772 g / cm^3
# Si number density = 24.854291 Si / 1000 Ang^3
#
#
#
# Elastic Constant Matrix: (Units=GPa)
#
#
# Indices 1 2 3 4 5 6 
#
# 1 165.1804 9.9107 31.5792 4.8189 -36.4827 4.5873
# 2 9.9107 49.3688 20.9854 22.1616 -2.5108 7.6363
# 3 31.5792 20.9854 79.3395 19.0226 -17.7775 0.9882
# 4 4.8189 22.1616 19.0226 26.4067 -3.9253 -4.3542
# 5 -36.4827 -2.5108 -17.7775 -3.9253 44.6883 4.9526
# 6 4.5873 7.6363 0.9882 -4.3542 4.9526 31.8207
#
#
#
# Elastic Compliance Matrix: (Units=1/GPa)
#
#
# Indices 1 2 3 4 5 6 
#
# 1 0.007750 -0.000725 -0.001831 0.001109 0.005838 -0.001643
# 2 -0.000725 0.037831 -0.001887 -0.032537 -0.000603 -0.013274
# 3 -0.001831 -0.001887 0.017336 -0.010204 0.004614 -0.001936
# 4 0.001109 -0.032537 -0.010204 0.075287 -0.000400 0.018329
# 5 0.005838 -0.000603 0.004614 -0.000400 0.029518 -0.005489
# 6 -0.001643 -0.013274 -0.001936 0.018329 -0.005489 0.038271
#
#
# Mechanical properties :
#
#
# Convention : Reuss Voigt Hill
#
# Bulk Modulus (GPa) = 18.50688 46.53771 32.52230
# Shear Modulus (GPa) = 21.46951 36.01072 28.74012
#
# Velocity S-wave (km/s) = 2.94226 3.81054 3.40420
# Velocity P-wave (km/s) = 4.35946 6.17455 5.34462
#
# Compressibility (1/GPa) = 0.05403395
#
# Stress axis : x y z
#
# Youngs Moduli (GPa) = 129.03187 26.43312 57.68198
#
# Poissons Ratio (x) = 0.01915 0.10559
# Poissons Ratio (y) = 0.09349 0.10884
# Poissons Ratio (z) = 0.23619 0.04988
#
# Static dielectric constant tensor:
#      x y z
#    x 2.081160 0.005280 0.027090 
#    y 0.005280 1.936910 0.041840 
#    z 0.027090 0.041840 2.044610 
# 
# From -- ./inp_files/122648.got.cif
#   From: 2010.05.17/outbox.cif.g08.bks.cpg/sg2_62_cif.got.tgz:122648.got - 2010.06.03 11:33:40.
