data_PCOD9007928
_publ_section_title
;
Structure prediction by ZEFSAII (Michael W. Deem and Ramdas Pophale) SiO2 
 PCOD9007928
Probable space group: P -1
;
_chemical_formula_sum "Si O2"
_cell_formula_units_Z 16
_cell_length_a 17.753671
_cell_length_b 7.882222
_cell_length_c 5.951009
_cell_angle_alpha 62.702329
_cell_angle_beta 120.673175
_cell_angle_gamma 103.840625
_cell_volume 636.481057
_symmetry_space_group_name_H-M "P -1"
_symmetry_group_IT_number 2
_symmetry_cell_setting 'triclinic'
loop_
_space_group_symop_operation_xyz
x,y,z
-x,-y,-z
loop_
_atom_site_type_symbol
_atom_site_label
_atom_site_fract_x
_atom_site_fract_y
_atom_site_fract_z
Si Si1 0.599343 0.621348 0.327262
Si Si2 0.734039 0.858884 0.669577
Si Si3 0.588075 0.904494 0.775325
Si Si4 0.022205 0.193202 0.199636
Si Si5 0.859149 0.988103 0.125980
Si Si6 0.073873 0.520171 0.783751
Si Si7 0.585237 0.267052 0.799269
Si Si8 0.766883 0.225039 0.200185
O O1 0.690018 0.702756 0.528501
O O2 0.591531 0.397043 0.505711
O O3 0.510066 0.703659 0.258514
O O4 0.591730 0.695270 0.016400
O O5 0.650426 0.918043 0.652322
O O6 0.769636 0.043078 0.477913
O O7 0.804005 0.833851 0.995024
O O8 0.500000 0.000000 0.500000
O O9 0.607921 0.046494 0.925464
O O10 0.088380 0.087922 0.530872
O O11 0.965541 0.334172 0.183505
O O12 0.079249 0.320759 0.042577
O O13 0.941163 0.068388 0.055310
O O14 0.791141 0.141608 0.036647
O O15 0.159118 0.615704 0.749649
O O16 0.000000 0.500000 0.500000
O O17 0.672773 0.324641 0.030499
#
# Coordination Sequence:
#
# PCOD9007928 Si02
#       8
#     2   2   2   2   2   2   2   2
#     4  11  25  43  66  97 133 167 218 272 316 385
#     4  12  22  40  65  94 124 172 220 256 327 384
#     4  12  23  43  70  91 129 178 209 266 325 381
#     4   9  21  40  61  91 126 160 213 266 314 393
#     4  10  21  39  65  91 122 169 214 262 324 382
#     4  10  21  39  63  91 125 166 206 266 329 375
#     4  11  23  45  64  96 133 166 214 270 321 376
#     4  11  23  39  63  90 129 168 210 271 318 381
#
# _framework density 25.138214999999999
#
# number of rings (size 3 to 8) (size 9 to 14) (size 15 to 20)
#    0.000    1.250    3.750    1.875    0.000    4.500 
#    2.250    3.750    0.000    0.000    0.000    0.000 
#    0.000    0.000    0.000    0.000    0.000    0.000 
#
# Total GULP energy -89360.685608 kJ/mol
# GULP energy per Si atom -5585.042850 kJ/mol
# Density = 2.508100 g / cm^3
# Si number density = 25.138215 Si / 1000 Ang^3
#
#
#
# Elastic Constant Matrix: (Units=GPa)
#
#
# Indices 1 2 3 4 5 6 
#
# 1 111.5923 28.8534 16.6544 4.7321 -3.6077 26.8065
# 2 28.8534 69.3413 25.5487 -3.3181 1.1982 27.6896
# 3 16.6544 25.5487 76.3793 0.8091 6.9280 30.6597
# 4 4.7321 -3.3181 0.8091 45.3900 19.0691 6.0927
# 5 -3.6077 1.1982 6.9280 19.0691 43.5375 -0.5016
# 6 26.8065 27.6896 30.6597 6.0927 -0.5016 51.0746
#
#
#
# Elastic Compliance Matrix: (Units=1/GPa)
#
#
# Indices 1 2 3 4 5 6 
#
# 1 0.010784 -0.003084 0.000101 -0.001495 0.001573 -0.003855
# 2 -0.003084 0.020179 -0.002615 0.003865 -0.002183 -0.008234
# 3 0.000101 -0.002615 0.018277 0.002505 -0.004040 -0.009945
# 4 -0.001495 0.003865 0.002505 0.028895 -0.013358 -0.006393
# 5 0.001573 -0.002183 -0.004040 -0.013358 0.029707 0.004668
# 6 -0.003855 -0.008234 -0.009945 -0.006393 0.004668 0.032845
#
#
# Mechanical properties :
#
#
# Convention : Reuss Voigt Hill
#
# Bulk Modulus (GPa) = 26.28569 44.38066 35.33317
# Shear Modulus (GPa) = 30.38332 40.41751 35.40042
#
# Velocity S-wave (km/s) = 3.48034 4.01410 3.75671
# Velocity P-wave (km/s) = 5.16038 6.25915 5.73614
#
# Compressibility (1/GPa) = 0.03804352
#
# Stress axis : x y z
#
# Youngs Moduli (GPa) = 92.73264 49.55701 54.71232
#
# Poissons Ratio (x) = 0.15282 -0.00550
# Poissons Ratio (y) = 0.28596 0.14308
# Poissons Ratio (z) = -0.00933 0.12960
#
# Static dielectric constant tensor:
#      x y z
#    x 2.008650 0.048620 0.045020 
#    y 0.048620 2.217590 0.095200 
#    z 0.045020 0.095200 2.077740 
# 
# From -- ./inp_files/106399.got.cif
#   From: 2010.05.17/outbox.cif.g08.bks.cpg/sg2_54_cif.got.tgz:106399.got - 2010.06.03 11:33:40.
