data_PCOD9007490
_publ_section_title
;
Structure prediction by ZEFSAII (Michael W. Deem and Ramdas Pophale) SiO2 
 PCOD9007490
Probable space group: P -1
;
_chemical_formula_sum "Si O2"
_cell_formula_units_Z 16
_cell_length_a 11.997437
_cell_length_b 8.349534
_cell_length_c 20.063414
_cell_angle_alpha 40.386345
_cell_angle_beta 37.801975
_cell_angle_gamma 42.155543
_cell_volume 747.333189
_symmetry_space_group_name_H-M "P -1"
_symmetry_group_IT_number 2
_symmetry_cell_setting 'triclinic'
loop_
_space_group_symop_operation_xyz
x,y,z
-x,-y,-z
loop_
_atom_site_type_symbol
_atom_site_label
_atom_site_fract_x
_atom_site_fract_y
_atom_site_fract_z
Si Si1 0.054163 0.015548 0.141441
Si Si2 0.088146 0.195554 0.930813
Si Si3 0.061488 0.741970 0.735130
Si Si4 0.492119 0.602746 0.621447
Si Si5 0.331461 0.080170 0.649941
Si Si6 0.506963 0.347273 0.975274
Si Si7 0.297469 0.008404 0.250586
Si Si8 0.477774 0.878348 0.783633
O O1 0.273428 0.817844 0.095410
O O2 0.892448 0.884904 0.244537
O O3 0.009460 0.134774 0.197896
O O4 0.036159 0.221547 0.024728
O O5 0.023230 0.468667 0.837127
O O6 0.316916 0.050467 0.857700
O O7 0.000000 0.000000 0.000000
O O8 0.294070 0.662588 0.652902
O O9 0.925425 0.929958 0.684586
O O10 0.640551 0.685234 0.479564
O O11 0.586501 0.304504 0.697619
O O12 0.427746 0.812323 0.646073
O O13 0.440013 0.035145 0.683284
O O14 0.441833 0.602064 0.876673
O O15 0.500000 0.500000 0.000000
O O16 0.388171 0.151590 0.105807
O O17 0.324951 0.142655 0.265024
#
# Coordination Sequence:
#
# PCOD9007490 Si02
#       8
#     2   2   2   2   2   2   2   2
#     4  11  22  40  65  98 128 178 216 266 333 395
#     4  12  21  39  64  96 136 171 212 268 329 397
#     4  11  25  41  66  97 134 176 219 267 332 386
#     4  10  23  50  63  92 135 171 228 275 318 379
#     4  10  24  43  71  89 124 184 222 272 323 384
#     4  10  21  39  61  98 135 162 212 265 328 396
#     4  11  23  41  65  95 132 172 210 273 326 389
#     4  11  22  39  64  96 131 174 209 267 332 386
#
# _framework density 21.409461
#
# number of rings (size 3 to 8) (size 9 to 14) (size 15 to 20)
#    0.000    1.250    5.000    1.125    3.500    2.000 
#    2.250    2.500    0.000    0.000    0.000    0.000 
#    0.000    0.000    0.000    0.000    0.000    0.000 
#
# Total GULP energy -89325.460976 kJ/mol
# GULP energy per Si atom -5582.841311 kJ/mol
# Density = 2.136073 g / cm^3
# Si number density = 21.409461 Si / 1000 Ang^3
#
#
#
# Elastic Constant Matrix: (Units=GPa)
#
#
# Indices 1 2 3 4 5 6 
#
# 1 95.6474 10.4034 9.6844 -3.4359 -0.4306 -11.9827
# 2 10.4034 78.5692 33.0254 -21.4021 -11.8972 -21.9324
# 3 9.6844 33.0254 78.8611 -9.7952 1.8739 -2.8725
# 4 -3.4359 -21.4021 -9.7952 28.7093 -0.8538 -3.8710
# 5 -0.4306 -11.8972 1.8739 -0.8538 16.4730 -1.4228
# 6 -11.9827 -21.9324 -2.8725 -3.8710 -1.4228 31.6525
#
#
#
# Elastic Compliance Matrix: (Units=1/GPa)
#
#
# Indices 1 2 3 4 5 6 
#
# 1 0.011313 0.002477 -0.001827 0.003530 0.003029 0.006401
# 2 0.002477 0.042450 -0.013580 0.033105 0.036993 0.034831
# 3 -0.001827 -0.013580 0.017802 -0.005978 -0.013037 -0.009803
# 4 0.003530 0.033105 -0.005978 0.063240 0.030797 0.032852
# 5 0.003029 0.036993 -0.013037 0.030797 0.093480 0.033564
# 6 0.006401 0.034831 -0.009803 0.032852 0.033564 0.062788
#
#
# Mechanical properties :
#
#
# Convention : Reuss Voigt Hill
#
# Bulk Modulus (GPa) = 21.87890 39.92267 30.90079
# Shear Modulus (GPa) = 15.05263 28.69790 21.87526
#
# Velocity S-wave (km/s) = 2.65445 3.66516 3.19996
# Velocity P-wave (km/s) = 4.43128 6.04970 5.30260
#
# Compressibility (1/GPa) = 0.04570614
#
# Stress axis : x y z
#
# Youngs Moduli (GPa) = 88.39367 23.55699 56.17325
#
# Poissons Ratio (x) = -0.05835 0.10263
# Poissons Ratio (y) = -0.21897 0.76282
# Poissons Ratio (z) = 0.16149 0.31990
#
# Static dielectric constant tensor:
#      x y z
#    x 1.827090 -0.039920 -0.029220 
#    y -0.039920 1.800930 -0.008310 
#    z -0.029220 -0.008310 1.797200 
# 
# From -- ./inp_files/593395.got.cif
#   From: 2010.05.17/outbox.cif.g08.bks.cpg/sg2_297_cif.got.tgz:593395.got - 2010.06.03 11:33:40.
