data_PCOD9007720
_publ_section_title
;
Structure prediction by ZEFSAII (Michael W. Deem and Ramdas Pophale) SiO2 
 PCOD9007720
Probable space group: P -1
;
_chemical_formula_sum "Si O2"
_cell_formula_units_Z 16
_cell_length_a 13.947505
_cell_length_b 8.607814
_cell_length_c 13.965526
_cell_angle_alpha 129.980891
_cell_angle_beta 31.303634
_cell_angle_gamma 127.479465
_cell_volume 660.035284
_symmetry_space_group_name_H-M "P -1"
_symmetry_group_IT_number 2
_symmetry_cell_setting 'triclinic'
loop_
_space_group_symop_operation_xyz
x,y,z
-x,-y,-z
loop_
_atom_site_type_symbol
_atom_site_label
_atom_site_fract_x
_atom_site_fract_y
_atom_site_fract_z
Si Si1 0.407854 0.907225 0.638496
Si Si2 0.832655 0.763790 0.065328
Si Si3 0.993636 0.853292 0.176525
Si Si4 0.386493 0.296597 0.468233
Si Si5 0.329710 0.693680 0.924769
Si Si6 0.113556 0.812208 0.332834
Si Si7 0.840154 0.392655 0.382236
Si Si8 0.884198 0.272831 0.494894
O O1 0.547290 0.884067 0.595033
O O2 0.309456 0.680870 0.600241
O O3 0.500000 0.000000 0.500000
O O4 0.265909 0.067168 0.837339
O O5 0.916545 0.827821 0.124084
O O6 0.707739 0.545630 0.108258
O O7 0.992553 0.722625 0.840829
O O8 0.832672 0.727594 0.331817
O O9 0.003530 0.090011 0.294757
O O10 0.181115 0.754045 0.995888
O O11 0.500000 0.500000 0.500000
O O12 0.467211 0.268244 0.282170
O O13 0.267084 0.809280 0.117688
O O14 0.202089 0.789264 0.352793
O O15 0.946354 0.620811 0.388734
O O16 0.000000 0.000000 0.500000
O O17 0.766448 0.307785 0.514599
O O18 0.000000 0.500000 0.500000
#
# Coordination Sequence:
#
# PCOD9007720 Si02
#       8
#     2   2   2   2   2   2   2   2
#     4  12  22  38  58  92 139 162 203 261 327 396
#     4  11  22  38  59  99 127 166 209 260 329 391
#     4  12  22  41  68  94 138 169 212 272 324 390
#     4  12  26  40  64 102 138 170 208 261 338 403
#     4  11  24  42  66  96 135 173 215 267 325 389
#     4  10  21  39  64  92 123 170 226 267 309 373
#     4  10  22  36  64  94 125 166 213 266 323 388
#     4  10  21  39  62  93 125 170 226 267 313 376
#
# _framework density 24.241129999999998
#
# number of rings (size 3 to 8) (size 9 to 14) (size 15 to 20)
#    0.000    1.000    5.000    1.500    5.250    0.000 
#    0.000    0.625    0.000    2.250    0.000    0.000 
#    0.000    0.000    0.000    0.000    0.000    0.000 
#
# Total GULP energy -89457.214882 kJ/mol
# GULP energy per Si atom -5591.075930 kJ/mol
# Density = 2.418596 g / cm^3
# Si number density = 24.241130 Si / 1000 Ang^3
#
#
#
# Elastic Constant Matrix: (Units=GPa)
#
#
# Indices 1 2 3 4 5 6 
#
# 1 98.2770 -2.2646 4.7165 10.6271 15.5292 -19.5799
# 2 -2.2646 94.2280 25.4917 12.6170 10.9426 4.6232
# 3 4.7165 25.4917 110.7356 0.1447 20.0261 -0.9470
# 4 10.6271 12.6170 0.1447 43.0303 -4.2631 7.3761
# 5 15.5292 10.9426 20.0261 -4.2631 44.1889 -3.3323
# 6 -19.5799 4.6232 -0.9470 7.3761 -3.3323 32.2140
#
#
#
# Elastic Compliance Matrix: (Units=1/GPa)
#
#
# Indices 1 2 3 4 5 6 
#
# 1 0.013314 0.001180 0.000132 -0.005614 -0.004916 0.008704
# 2 0.001180 0.012164 -0.002345 -0.004048 -0.002789 -0.000459
# 3 0.000132 -0.002345 0.010308 0.000170 -0.004102 0.000257
# 4 -0.005614 -0.004048 0.000170 0.027788 0.004924 -0.008679
# 5 -0.004916 -0.002789 -0.004102 0.004924 0.027306 -0.001011
# 6 0.008704 -0.000459 0.000257 -0.008679 -0.001011 0.038289
#
#
# Mechanical properties :
#
#
# Convention : Reuss Voigt Hill
#
# Bulk Modulus (GPa) = 29.65527 39.90309 34.77918
# Shear Modulus (GPa) = 35.09404 42.23977 38.66690
#
# Velocity S-wave (km/s) = 3.80900 4.17884 3.99820
# Velocity P-wave (km/s) = 5.62180 6.30715 5.97431
#
# Compressibility (1/GPa) = 0.03372081
#
# Stress axis : x y z
#
# Youngs Moduli (GPa) = 75.10847 82.21246 97.00839
#
# Poissons Ratio (x) = -0.09699 -0.01282
# Poissons Ratio (y) = -0.08861 0.22744
# Poissons Ratio (z) = -0.00993 0.19275
#
# Static dielectric constant tensor:
#      x y z
#    x 1.988130 -0.000200 0.004060 
#    y -0.000200 2.007710 0.027730 
#    z 0.004060 0.027730 2.066240 
# 
# From -- ./inp_files/530113.got.cif
#   From: 2010.05.17/outbox.cif.g08.bks.cpg/sg2_266_cif.got.tgz:530113.got - 2010.06.03 11:33:40.
