data_PCOD9007500
_publ_section_title
;
Structure prediction by ZEFSAII (Michael W. Deem and Ramdas Pophale) SiO2 
 PCOD9007500
Probable space group: P -1
;
_chemical_formula_sum "Si O2"
_cell_formula_units_Z 16
_cell_length_a 14.352846
_cell_length_b 7.566082
_cell_length_c 13.273247
_cell_angle_alpha 128.667554
_cell_angle_beta 128.366150
_cell_angle_gamma 89.719111
_cell_volume 688.492793
_symmetry_space_group_name_H-M "P -1"
_symmetry_group_IT_number 2
_symmetry_cell_setting 'triclinic'
loop_
_space_group_symop_operation_xyz
x,y,z
-x,-y,-z
loop_
_atom_site_type_symbol
_atom_site_label
_atom_site_fract_x
_atom_site_fract_y
_atom_site_fract_z
Si Si1 0.083559 0.282642 0.723869
Si Si2 0.462855 0.081142 0.108707
Si Si3 0.153149 0.636222 0.710618
Si Si4 0.619800 0.002562 0.517224
Si Si5 0.567788 0.386547 0.930201
Si Si6 0.116106 0.578710 0.304318
Si Si7 0.908067 0.175833 0.869945
Si Si8 0.784702 0.583796 0.503776
O O1 0.118259 0.534044 0.763994
O O2 0.952812 0.247971 0.690510
O O3 0.251994 0.388192 0.899826
O O4 0.000000 0.000000 0.500000
O O5 0.605966 0.410184 0.345381
O O6 0.450565 0.872412 0.112219
O O7 0.500000 0.000000 0.000000
O O8 0.294451 0.976181 0.934066
O O9 0.207942 0.478713 0.630107
O O10 0.000000 0.500000 0.500000
O O11 0.531329 0.742068 0.283912
O O12 0.500000 0.000000 0.500000
O O13 0.738573 0.274495 0.619718
O O14 0.732345 0.031466 0.686519
O O15 0.500000 0.500000 0.000000
O O16 0.172061 0.575661 0.451501
O O17 0.981603 0.258500 0.058796
O O18 0.904013 0.922611 0.728653
O O19 0.000000 0.500000 0.000000
#
# Coordination Sequence:
#
# PCOD9007500 Si02
#       8
#     2   2   2   2   2   2   2   2
#     4  11  24  38  65 103 137 174 225 276 349 408
#     4   9  21  37  64  95 135 172 224 270 344 400
#     4  10  21  39  62 101 139 167 220 281 341 409
#     4  11  24  45  67  95 136 181 231 283 346 413
#     4  11  23  40  69 100 139 179 228 283 344 403
#     4  11  22  44  69  91 135 180 231 284 337 412
#     4  10  25  42  68  94 130 175 230 278 341 407
#     4  11  21  42  68  95 134 180 224 281 347 407
#
# _framework density 23.239167999999999
#
# number of rings (size 3 to 8) (size 9 to 14) (size 15 to 20)
#    0.000    1.500    2.500    1.875    8.750    0.000 
#    0.000    0.625    0.000    0.000    0.000    0.000 
#    0.000    0.000    0.000    0.000    0.000    0.000 
#
# Total GULP energy -89068.361054 kJ/mol
# GULP energy per Si atom -5566.772566 kJ/mol
# Density = 2.318627 g / cm^3
# Si number density = 23.239168 Si / 1000 Ang^3
#
#
#
# Elastic Constant Matrix: (Units=GPa)
#
#
# Indices 1 2 3 4 5 6 
#
# 1 105.6215 16.2678 36.4107 2.7497 3.4080 -1.1934
# 2 16.2678 58.4116 17.5349 -2.5063 12.7076 1.6496
# 3 36.4107 17.5349 187.9262 -6.3365 13.1109 -13.6428
# 4 2.7497 -2.5063 -6.3365 38.0062 -8.2724 -3.5304
# 5 3.4080 12.7076 13.1109 -8.2724 43.1409 -5.6106
# 6 -1.1934 1.6496 -13.6428 -3.5304 -5.6106 24.5880
#
#
#
# Elastic Compliance Matrix: (Units=1/GPa)
#
#
# Indices 1 2 3 4 5 6 
#
# 1 0.010520 -0.002431 -0.001903 -0.001254 0.000154 -0.000527
# 2 -0.002431 0.019481 -0.001210 -0.000297 -0.005682 -0.003435
# 3 -0.001903 -0.001210 0.006140 0.001253 -0.000674 0.003422
# 4 -0.001254 -0.000297 0.001253 0.028480 0.006064 0.006127
# 5 0.000154 -0.005682 -0.000674 0.006064 0.027129 0.007076
# 6 -0.000527 -0.003435 0.003422 0.006127 0.007076 0.045268
#
#
# Mechanical properties :
#
#
# Convention : Reuss Voigt Hill
#
# Bulk Modulus (GPa) = 39.91384 54.70956 47.31170
# Shear Modulus (GPa) = 31.95768 39.93008 35.94388
#
# Velocity S-wave (km/s) = 3.71234 4.14964 3.93707
# Velocity P-wave (km/s) = 5.96556 6.82294 6.40860
#
# Compressibility (1/GPa) = 0.02505397
#
# Stress axis : x y z
#
# Youngs Moduli (GPa) = 95.05859 51.33322 162.85471
#
# Poissons Ratio (x) = 0.12480 0.30986
# Poissons Ratio (y) = 0.23110 0.19699
# Poissons Ratio (z) = 0.18087 0.06209
#
# Static dielectric constant tensor:
#      x y z
#    x 1.995820 0.086660 0.097560 
#    y 0.086660 1.628400 -0.040590 
#    z 0.097560 -0.040590 1.933140 
# 
# From -- ./inp_files/529080.got.cif
#   From: 2010.05.17/outbox.cif.g08.bks.cpg/sg2_265_cif.got.tgz:529080.got - 2010.06.03 11:33:40.
