data_PCOD9007602
_publ_section_title
;
Structure prediction by ZEFSAII (Michael W. Deem and Ramdas Pophale) SiO2 
 PCOD9007602
Probable space group: P -1
;
_chemical_formula_sum "Si O2"
_cell_formula_units_Z 16
_cell_length_a 8.241556
_cell_length_b 15.485743
_cell_length_c 20.707044
_cell_angle_alpha 18.973867
_cell_angle_beta 54.737353
_cell_angle_gamma 53.724406
_cell_volume 691.120532
_symmetry_space_group_name_H-M "P -1"
_symmetry_group_IT_number 2
_symmetry_cell_setting 'triclinic'
loop_
_space_group_symop_operation_xyz
x,y,z
-x,-y,-z
loop_
_atom_site_type_symbol
_atom_site_label
_atom_site_fract_x
_atom_site_fract_y
_atom_site_fract_z
Si Si1 0.130839 0.593089 0.344122
Si Si2 0.511255 0.814140 0.405655
Si Si3 0.708805 0.046682 0.759610
Si Si4 0.941139 0.521751 0.072945
Si Si5 0.118590 0.208329 0.500704
Si Si6 0.892717 0.296648 0.368318
Si Si7 0.326316 0.759611 0.854596
Si Si8 0.266141 0.064524 0.024724
O O1 0.358116 0.454396 0.407739
O O2 0.103330 0.464097 0.371465
O O3 0.127749 0.912237 0.118928
O O4 0.000000 0.500000 0.500000
O O5 0.476873 0.805796 0.342788
O O6 0.290768 0.854763 0.461064
O O7 0.629935 0.053145 0.228708
O O8 0.735735 0.088795 0.798107
O O9 0.909127 0.109646 0.635700
O O10 0.727690 0.723571 0.978228
O O11 0.924123 0.277210 0.297505
O O12 0.114779 0.652976 0.976494
O O13 0.000000 0.500000 0.000000
O O14 0.091667 0.245239 0.404277
O O15 0.298715 0.973679 0.649425
O O16 0.807717 0.616464 0.176927
O O17 0.500000 0.500000 0.000000
O O18 0.500000 0.000000 0.000000
#
# Coordination Sequence:
#
# PCOD9007602 Si02
#       8
#     2   2   2   2   2   2   2   2
#     4  11  21  36  60  91 130 168 209 248 307 373
#     4  10  21  39  62  89 123 162 206 259 310 366
#     4   9  19  37  60  83 120 162 205 254 303 366
#     4  10  21  41  66  89 116 159 207 256 319 377
#     4   9  20  39  60  87 123 164 205 259 308 366
#     4  10  22  41  62  89 129 162 207 265 310 368
#     4  10  21  41  64  89 119 156 206 255 316 378
#     4  11  21  36  57  93 127 167 212 249 305 374
#
# _framework density 23.150811000000001
#
# number of rings (size 3 to 8) (size 9 to 14) (size 15 to 20)
#    0.000    2.000    2.500    0.750    1.750    2.000 
#    2.250   13.750    0.000    0.000    0.000    0.000 
#    0.000    0.000    0.000    0.000    0.000    0.000 
#
# Total GULP energy -89158.542775 kJ/mol
# GULP energy per Si atom -5572.408923 kJ/mol
# Density = 2.309812 g / cm^3
# Si number density = 23.150811 Si / 1000 Ang^3
#
#
#
# Elastic Constant Matrix: (Units=GPa)
#
#
# Indices 1 2 3 4 5 6 
#
# 1 105.8123 19.2042 19.4835 0.0356 10.4431 20.6195
# 2 19.2042 67.1290 11.0516 -0.0853 2.7943 17.2503
# 3 19.4835 11.0516 51.4058 -7.2883 -11.0212 16.4508
# 4 0.0356 -0.0853 -7.2883 30.6763 5.9200 2.1847
# 5 10.4431 2.7943 -11.0212 5.9200 35.4273 2.5665
# 6 20.6195 17.2503 16.4508 2.1847 2.5665 35.9447
#
#
#
# Elastic Compliance Matrix: (Units=1/GPa)
#
#
# Indices 1 2 3 4 5 6 
#
# 1 0.011585 -0.001521 -0.003668 0.000199 -0.004183 -0.003950
# 2 -0.001521 0.017319 -0.001038 0.000454 -0.000814 -0.006933
# 3 -0.003668 -0.001038 0.027394 0.005443 0.009569 -0.010949
# 4 0.000199 0.000454 0.005443 0.034979 -0.003908 -0.004670
# 5 -0.004183 -0.000814 0.009569 -0.003908 0.033425 -0.003738
# 6 -0.003950 -0.006933 -0.010949 -0.004670 -0.003738 0.038976
#
#
# Mechanical properties :
#
#
# Convention : Reuss Voigt Hill
#
# Bulk Modulus (GPa) = 22.80894 35.98065 29.39480
# Shear Modulus (GPa) = 26.21286 32.05016 29.13151
#
# Velocity S-wave (km/s) = 3.36857 3.72480 3.55115
# Velocity P-wave (km/s) = 5.00034 5.83733 5.43497
#
# Compressibility (1/GPa) = 0.04384246
#
# Stress axis : x y z
#
# Youngs Moduli (GPa) = 86.32050 57.74053 36.50487
#
# Poissons Ratio (x) = 0.08781 0.13391
# Poissons Ratio (y) = 0.13127 0.03790
# Poissons Ratio (z) = 0.31665 0.05995
#
# Static dielectric constant tensor:
#      x y z
#    x 1.870250 0.017180 0.024230 
#    y 0.017180 1.709650 -0.070950 
#    z 0.024230 -0.070950 2.010980 
# 
# From -- ./inp_files/590390.got.cif
#   From: 2010.05.17/outbox.cif.g08.bks.cpg/sg2_296_cif.got.tgz:590390.got - 2010.06.03 11:33:40.
