data_PCOD9007498
_publ_section_title
;
Structure prediction by ZEFSAII (Michael W. Deem and Ramdas Pophale) SiO2 
 PCOD9007498
Probable space group: P -1
;
_chemical_formula_sum "Si O2"
_cell_formula_units_Z 16
_cell_length_a 8.105570
_cell_length_b 7.648943
_cell_length_c 11.334186
_cell_angle_alpha 75.813016
_cell_angle_beta 101.273397
_cell_angle_gamma 73.983685
_cell_volume 628.187628
_symmetry_space_group_name_H-M "P -1"
_symmetry_group_IT_number 2
_symmetry_cell_setting 'triclinic'
loop_
_space_group_symop_operation_xyz
x,y,z
-x,-y,-z
loop_
_atom_site_type_symbol
_atom_site_label
_atom_site_fract_x
_atom_site_fract_y
_atom_site_fract_z
Si Si1 0.740213 0.510889 0.184121
Si Si2 0.351762 0.080294 0.828768
Si Si3 0.744709 0.038157 0.852087
Si Si4 0.852668 0.200384 0.065411
Si Si5 0.261827 0.692720 0.394446
Si Si6 0.509987 0.593860 0.676923
Si Si7 0.366080 0.024205 0.583995
Si Si8 0.999879 0.694708 0.533189
O O1 0.742677 0.724338 0.145528
O O2 0.770105 0.405192 0.081459
O O3 0.549841 0.526950 0.213863
O O4 0.880322 0.378347 0.321102
O O5 0.569231 0.002603 0.885966
O O6 0.337900 0.147073 0.678705
O O7 0.241284 0.938364 0.860457
O O8 0.693781 0.150486 0.702784
O O9 0.805372 0.173543 0.928370
O O10 0.931490 0.866925 0.884846
O O11 0.385366 0.620607 0.538471
O O12 0.297735 0.513391 0.338446
O O13 0.075302 0.781725 0.418245
O O14 0.445745 0.808056 0.681714
O O15 0.174965 0.133164 0.481606
O O16 0.500000 0.000000 0.500000
O O17 0.000000 0.500000 0.500000
#
# Coordination Sequence:
#
# PCOD9007498 Si02
#       8
#     2   2   2   2   2   2   2   2
#     4  11  24  43  69 104 140 186 237 287 356 425
#     4  12  24  48  72 102 144 190 235 298 355 420
#     4  11  25  47  75 102 141 189 240 300 350 414
#     4  11  27  50  71 106 141 187 249 295 350 418
#     4  10  21  39  66  96 140 181 225 287 352 417
#     4  10  21  39  62 100 136 175 226 281 350 428
#     4  12  24  37  62 104 141 185 234 282 356 434
#     4  11  23  39  65 104 146 186 227 290 360 431
#
# _framework density 25.470096999999999
#
# number of rings (size 3 to 8) (size 9 to 14) (size 15 to 20)
#    0.000    1.000    3.750    2.625    5.250    1.500 
#    0.000    3.750    0.000    0.000    0.000    0.000 
#    0.000    0.000    0.000    0.000    0.000    0.000 
#
# Total GULP energy -89302.959631 kJ/mol
# GULP energy per Si atom -5581.434977 kJ/mol
# Density = 2.541213 g / cm^3
# Si number density = 25.470097 Si / 1000 Ang^3
#
#
#
# Elastic Constant Matrix: (Units=GPa)
#
#
# Indices 1 2 3 4 5 6 
#
# 1 97.8310 42.4189 -9.1530 -2.0398 -16.2843 -38.1766
# 2 42.4189 128.5645 17.2275 26.1710 -4.9665 -23.4338
# 3 -9.1530 17.2275 48.9517 14.3217 -12.0700 -10.9020
# 4 -2.0398 26.1710 14.3217 45.1236 -2.4845 0.2509
# 5 -16.2843 -4.9665 -12.0700 -2.4845 32.8168 4.5342
# 6 -38.1766 -23.4338 -10.9020 0.2509 4.5342 51.4963
#
#
#
# Elastic Compliance Matrix: (Units=1/GPa)
#
#
# Indices 1 2 3 4 5 6 
#
# 1 0.021885 -0.005863 0.012263 0.001101 0.012487 0.015047
# 2 -0.005863 0.011353 -0.004151 -0.005709 -0.003185 0.000249
# 3 0.012263 -0.004151 0.032741 -0.006663 0.015223 0.012826
# 4 0.001101 -0.005709 -0.006663 0.027643 -0.000218 -0.003307
# 5 0.012487 -0.003185 0.015223 -0.000218 0.040740 0.007445
# 6 0.015047 0.000249 0.012826 -0.003307 0.007445 0.032764
#
#
# Mechanical properties :
#
#
# Convention : Reuss Voigt Hill
#
# Bulk Modulus (GPa) = 14.18893 41.81489 28.00191
# Shear Modulus (GPa) = 26.86417 40.87760 33.87088
#
# Velocity S-wave (km/s) = 3.25119 4.01050 3.65064
# Velocity P-wave (km/s) = 4.43583 6.15616 5.36539
#
# Compressibility (1/GPa) = 0.07047749
#
# Stress axis : x y z
#
# Youngs Moduli (GPa) = 45.69413 88.07863 30.54231
#
# Poissons Ratio (x) = 0.51641 -0.37455
# Poissons Ratio (y) = 0.26790 0.12679
# Poissons Ratio (z) = -0.56036 0.36564
#
# Static dielectric constant tensor:
#      x y z
#    x 2.185200 0.023940 0.044370 
#    y 0.023940 2.074660 -0.033840 
#    z 0.044370 -0.033840 2.018600 
# 
# From -- ./inp_files/378719.got.cif
#   From: 2010.05.17/outbox.cif.g08.bks.cpg/sg2_190_cif.got.tgz:378719.got - 2010.06.03 11:33:40.
