data_PCOD9007380
_publ_section_title
;
Structure prediction by ZEFSAII (Michael W. Deem and Ramdas Pophale) SiO2 
 PCOD9007380
Probable space group: P -1
;
_chemical_formula_sum "Si O2"
_cell_formula_units_Z 16
_cell_length_a 14.763707
_cell_length_b 14.096147
_cell_length_c 7.692047
_cell_angle_alpha 35.830978
_cell_angle_beta 64.404440
_cell_angle_gamma 47.284044
_cell_volume 662.110904
_symmetry_space_group_name_H-M "P -1"
_symmetry_group_IT_number 2
_symmetry_cell_setting 'triclinic'
loop_
_space_group_symop_operation_xyz
x,y,z
-x,-y,-z
loop_
_atom_site_type_symbol
_atom_site_label
_atom_site_fract_x
_atom_site_fract_y
_atom_site_fract_z
Si Si1 0.231964 0.762574 0.383016
Si Si2 0.524997 0.914750 0.323303
Si Si3 0.131022 0.385121 0.278673
Si Si4 0.794627 0.555647 0.514716
Si Si5 0.374684 0.790397 0.504098
Si Si6 0.383115 0.295418 0.089316
Si Si7 0.658927 0.352813 0.905287
Si Si8 0.045185 0.682535 0.596116
O O1 0.263821 0.866280 0.343905
O O2 0.292503 0.753165 0.164325
O O3 0.092140 0.820541 0.379885
O O4 0.312405 0.527574 0.742824
O O5 0.661557 0.778807 0.323371
O O6 0.421458 0.925563 0.281026
O O7 0.541932 0.779690 0.680045
O O8 0.475171 0.135533 0.103286
O O9 0.121548 0.460611 0.370858
O O10 0.274569 0.270693 0.260449
O O11 0.085585 0.247065 0.489320
O O12 0.052103 0.585146 0.920064
O O13 0.749745 0.414772 0.785308
O O14 0.854688 0.496981 0.360365
O O15 0.510255 0.559018 0.700086
O O16 0.328267 0.776733 0.750297
#
# Coordination Sequence:
#
# PCOD9007380 Si02
#       8
#     2   2   2   2   2   2   2   2
#     4  10  18  29  47  68  91 119 153 191 227 264
#     4   9  18  30  47  70  97 126 152 181 229 286
#     4   9  16  28  45  63  91 121 149 187 230 268
#     4   9  16  28  44  66  91 117 149 188 229 268
#     4  10  17  29  46  64  91 123 153 186 222 268
#     4   9  17  31  48  69  97 125 150 186 234 276
#     4   9  17  27  43  67  90 116 152 189 225 267
#     4   9  17  27  43  69  90 114 153 193 227 263
#
# _framework density 24.165134999999999
#
# number of rings (size 3 to 8) (size 9 to 14) (size 15 to 20)
#    0.000    2.750    0.000    4.500    0.000    0.000 
#    0.000   10.000    0.000    6.750    0.000    3.500 
#    0.000    0.000    0.000    2.250    0.000    9.750 
#
# Total GULP energy -89365.348134 kJ/mol
# GULP energy per Si atom -5585.334258 kJ/mol
# Density = 2.411013 g / cm^3
# Si number density = 24.165135 Si / 1000 Ang^3
#
#
#
# Elastic Constant Matrix: (Units=GPa)
#
#
# Indices 1 2 3 4 5 6 
#
# 1 173.7247 22.8902 -12.0000 21.8131 10.6953 17.0261
# 2 22.8902 44.3604 4.9772 17.6370 3.0178 0.6177
# 3 -12.0000 4.9772 -81.7319 3.0885 82.4300 -40.4524
# 4 21.8131 17.6370 3.0885 25.8173 13.0076 -1.8697
# 5 10.6953 3.0178 82.4300 13.0076 -23.0167 43.0548
# 6 17.0261 0.6177 -40.4524 -1.8697 43.0548 7.3352
#
#
#
# Elastic Compliance Matrix: (Units=1/GPa)
#
#
# Indices 1 2 3 4 5 6 
#
# 1 0.008002 -0.001445 0.005424 -0.008505 0.002966 -0.008116
# 2 -0.001445 0.031312 0.002473 -0.021143 0.001428 0.000581
# 3 0.005424 0.002473 0.023752 -0.023075 0.023786 -0.027308
# 4 -0.008505 -0.021143 -0.023075 0.073171 -0.017606 0.016255
# 5 0.002966 0.001428 0.023786 -0.017606 0.021473 -0.006352
# 6 -0.008116 0.000581 -0.027308 0.016255 -0.006352 0.045950
#
#
# Mechanical properties :
#
#
# Convention : Reuss Voigt Hill
#
# Bulk Modulus (GPa) = 13.16321 18.67644 15.91982
# Shear Modulus (GPa) = 23.13966 10.05955 16.59961
#
# Velocity S-wave (km/s) = 3.09781 2.04252 2.62377
# Velocity P-wave (km/s) = 4.27250 3.64801 3.97254
#
# Compressibility (1/GPa) = 0.07596933
#
# Stress axis : x y z
#
# Youngs Moduli (GPa) = 124.96855 31.93697 42.10152
#
# Poissons Ratio (x) = 0.04615 -0.22837
# Poissons Ratio (y) = 0.18059 -0.10410
# Poissons Ratio (z) = -0.67785 -0.07897
#
# Static dielectric constant tensor:
#      x y z
#    x 2.035810 -0.012050 0.011340 
#    y -0.012050 1.939220 -0.004630 
#    z 0.011340 -0.004630 1.913980 
# 
# From -- ./inp_files/312361.got.cif
#   From: 2010.05.17/outbox.cif.g08.bks.cpg/sg2_157_cif.got.tgz:312361.got - 2010.06.03 11:33:40.
