data_PCOD9007830
_publ_section_title
;
Structure prediction by ZEFSAII (Michael W. Deem and Ramdas Pophale) SiO2 
 PCOD9007830
Probable space group: P -1
;
_chemical_formula_sum "Si O2"
_cell_formula_units_Z 16
_cell_length_a 23.208627
_cell_length_b 19.117970
_cell_length_c 5.131499
_cell_angle_alpha 109.023901
_cell_angle_beta 103.427249
_cell_angle_gamma 19.238936
_cell_volume 688.092379
_symmetry_space_group_name_H-M "P -1"
_symmetry_group_IT_number 2
_symmetry_cell_setting 'triclinic'
loop_
_space_group_symop_operation_xyz
x,y,z
-x,-y,-z
loop_
_atom_site_type_symbol
_atom_site_label
_atom_site_fract_x
_atom_site_fract_y
_atom_site_fract_z
Si Si1 0.092370 0.541281 0.259673
Si Si2 0.330421 0.544014 0.124754
Si Si3 0.561696 0.855624 0.546694
Si Si4 0.616621 0.044399 0.194535
Si Si5 0.408633 0.768714 0.478695
Si Si6 0.061973 0.348950 0.276237
Si Si7 0.630992 0.342573 0.696859
Si Si8 0.243557 0.488374 0.063515
O O1 0.300466 0.281947 0.248338
O O2 0.032343 0.558086 0.985561
O O3 0.092281 0.622333 0.224591
O O4 0.987996 0.650724 0.552725
O O5 0.462520 0.380090 0.817605
O O6 0.461253 0.390119 0.326240
O O7 0.251393 0.721005 0.249478
O O8 0.208180 0.614311 0.088384
O O9 0.500000 0.000000 0.500000
O O10 0.393358 0.010587 0.681983
O O11 0.676167 0.661166 0.256668
O O12 0.687447 0.039098 0.368180
O O13 0.409919 0.299863 0.209277
O O14 0.729425 0.894460 0.875584
O O15 0.291096 0.832412 0.427321
O O16 0.000000 0.500000 0.500000
O O17 0.500000 0.500000 0.500000
O O18 0.500000 0.500000 0.000000
#
# Coordination Sequence:
#
# PCOD9007830 Si02
#       8
#     2   2   2   2   2   2   2   2
#     4  11  26  46  62  85 116 157 195 245 303 356
#     4   9  16  28  51  83 113 147 180 229 286 342
#     4  11  24  41  66  88 116 153 200 250 300 349
#     4  10  24  38  62  90 114 157 198 247 295 345
#     4   9  16  30  49  79 117 146 182 230 286 345
#     4  12  28  45  62  83 119 154 203 251 298 352
#     4   8  14  24  44  76 116 147 172 218 287 344
#     4  10  21  39  63  87 119 148 197 242 292 350
#
# _framework density 23.252690999999999
#
# number of rings (size 3 to 8) (size 9 to 14) (size 15 to 20)
#    0.000    2.000    2.500    0.375    5.250    1.000 
#    0.000    1.875    0.000    0.000    0.000    1.750 
#    0.000    0.125    0.000    0.000    0.000    0.000 
#
# Total GULP energy -89343.561664 kJ/mol
# GULP energy per Si atom -5583.972604 kJ/mol
# Density = 2.319977 g / cm^3
# Si number density = 23.252691 Si / 1000 Ang^3
#
#
#
# Elastic Constant Matrix: (Units=GPa)
#
#
# Indices 1 2 3 4 5 6 
#
# 1 207.8976 10.4866 55.3757 18.6702 -8.5500 -5.6152
# 2 10.4866 30.8815 15.8652 -10.0298 -1.3497 -2.6352
# 3 55.3757 15.8652 141.4657 -12.2983 -18.1554 0.9145
# 4 18.6702 -10.0298 -12.2983 37.5082 -5.2600 -2.7461
# 5 -8.5500 -1.3497 -18.1554 -5.2600 47.9313 5.3387
# 6 -5.6152 -2.6352 0.9145 -2.7461 5.3387 15.1226
#
#
#
# Elastic Compliance Matrix: (Units=1/GPa)
#
#
# Indices 1 2 3 4 5 6 
#
# 1 0.006009 -0.002028 -0.002591 -0.004361 -0.000608 0.001457
# 2 -0.002028 0.038727 -0.002631 0.011106 0.000042 0.008156
# 3 -0.002591 -0.002631 0.009207 0.003932 0.003668 -0.002558
# 4 -0.004361 0.011106 0.003932 0.034033 0.004228 0.004765
# 5 -0.000608 0.000042 0.003668 0.004228 0.023497 -0.007967
# 6 0.001457 0.008156 -0.002558 0.004765 -0.007967 0.071921
#
#
# Mechanical properties :
#
#
# Convention : Reuss Voigt Hill
#
# Bulk Modulus (GPa) = 25.35343 60.41108 42.88226
# Shear Modulus (GPa) = 23.69207 40.01357 31.85282
#
# Velocity S-wave (km/s) = 3.19548 4.15277 3.70517
# Velocity P-wave (km/s) = 4.95398 7.00219 6.06517
#
# Compressibility (1/GPa) = 0.03944240
#
# Stress axis : x y z
#
# Youngs Moduli (GPa) = 166.42983 25.82181 108.60961
#
# Poissons Ratio (x) = 0.05236 0.28142
# Poissons Ratio (y) = 0.33750 0.28577
# Poissons Ratio (z) = 0.43124 0.06794
#
# Static dielectric constant tensor:
#      x y z
#    x 2.007960 -0.006790 0.015650 
#    y -0.006790 1.868020 -0.026150 
#    z 0.015650 -0.026150 1.858380 
# 
# From -- ./inp_files/44224.got.cif
#   From: 2010.05.17/outbox.cif.g08.bks.cpg/sg2_23_cif.got.tgz:44224.got - 2010.06.03 11:33:40.
