data_PCOD9007025
_publ_section_title
;
Structure prediction by ZEFSAII (Michael W. Deem and Ramdas Pophale) SiO2 
 PCOD9007025
Probable space group: P -1
;
_chemical_formula_sum "Si O2"
_cell_formula_units_Z 16
_cell_length_a 17.564159
_cell_length_b 11.242696
_cell_length_c 5.308885
_cell_angle_alpha 125.389778
_cell_angle_beta 83.467668
_cell_angle_gamma 114.696890
_cell_volume 764.743037
_symmetry_space_group_name_H-M "P -1"
_symmetry_group_IT_number 2
_symmetry_cell_setting 'triclinic'
loop_
_space_group_symop_operation_xyz
x,y,z
-x,-y,-z
loop_
_atom_site_type_symbol
_atom_site_label
_atom_site_fract_x
_atom_site_fract_y
_atom_site_fract_z
Si Si1 0.733818 0.831424 0.992083
Si Si2 0.529444 0.149591 0.360740
Si Si3 0.304236 0.381549 0.752474
Si Si4 0.083545 0.004465 0.104287
Si Si5 0.026243 0.354267 0.286940
Si Si6 0.397110 0.057573 0.682107
Si Si7 0.461572 0.621956 0.737364
Si Si8 0.879451 0.677080 0.279502
O O1 0.698549 0.735801 0.625017
O O2 0.834563 0.920627 0.014745
O O3 0.707475 0.707201 0.084175
O O4 0.694487 0.955890 0.232504
O O5 0.439150 0.125752 0.480355
O O6 0.576207 0.319288 0.411174
O O7 0.586721 0.101022 0.471472
O O8 0.500000 0.000000 0.000000
O O9 0.392182 0.539231 0.876498
O O10 0.222324 0.416583 0.785578
O O11 0.102478 0.132069 0.482358
O O12 0.000000 0.000000 0.000000
O O13 0.056743 0.816825 0.937111
O O14 0.075095 0.348453 0.518886
O O15 0.000000 0.500000 0.500000
O O16 0.084750 0.366577 0.038632
O O17 0.460937 0.212253 0.006788
O O18 0.500000 0.500000 0.500000
#
# Coordination Sequence:
#
# PCOD9007025 Si02
#       8
#     2   2   2   2   2   2   2   2
#     4  11  23  38  62  94 124 157 211 264 304 371
#     4   9  21  39  58  80 119 168 207 248 312 375
#     4  11  23  38  61  96 124 158 208 263 309 357
#     4   9  20  40  66  91 118 167 206 251 314 378
#     4  11  22  40  65  94 128 159 208 259 318 372
#     4  10  21  39  59  85 123 166 207 257 309 374
#     4  11  21  36  61  90 120 160 209 259 311 361
#     4  10  21  41  63  89 127 167 203 256 309 384
#
# _framework density 20.922060999999999
#
# number of rings (size 3 to 8) (size 9 to 14) (size 15 to 20)
#    0.000    1.750    1.250    3.750    3.500    4.000 
#    2.250    2.500    0.000    0.000    0.000    0.000 
#    0.000    0.000    0.000    0.000    0.000    0.000 
#
# Total GULP energy -89244.854433 kJ/mol
# GULP energy per Si atom -5577.803402 kJ/mol
# Density = 2.087444 g / cm^3
# Si number density = 20.922061 Si / 1000 Ang^3
#
#
#
# Elastic Constant Matrix: (Units=GPa)
#
#
# Indices 1 2 3 4 5 6 
#
# 1 83.1303 49.4560 32.4226 -0.8616 -27.5236 14.2419
# 2 49.4560 99.5644 44.8980 -6.5021 -28.6239 -1.7573
# 3 32.4226 44.8980 111.8509 -17.9885 -30.9184 -8.2080
# 4 -0.8616 -6.5021 -17.9885 42.1436 -0.9948 -6.7704
# 5 -27.5236 -28.6239 -30.9184 -0.9948 35.8368 -5.6242
# 6 14.2419 -1.7573 -8.2080 -6.7704 -5.6242 33.4277
#
#
#
# Elastic Compliance Matrix: (Units=1/GPa)
#
#
# Indices 1 2 3 4 5 6 
#
# 1 0.021611 -0.008202 -0.002509 -0.003334 0.006239 -0.009880
# 2 -0.008202 0.017165 -0.001739 0.002816 0.006883 0.005698
# 3 -0.002509 -0.001739 0.015421 0.007867 0.011508 0.008294
# 4 -0.003334 0.002816 0.007867 0.029429 0.009015 0.010978
# 5 0.006239 0.006883 0.011508 0.009015 0.050065 0.010779
# 6 -0.009880 0.005698 0.008294 0.010978 0.010779 0.040498
#
#
# Mechanical properties :
#
#
# Convention : Reuss Voigt Hill
#
# Bulk Modulus (GPa) = 34.13218 60.89988 47.51603
# Shear Modulus (GPa) = 23.94014 33.46620 28.70317
#
# Velocity S-wave (km/s) = 3.38635 4.00380 3.70795
# Velocity P-wave (km/s) = 5.62487 7.10950 6.41031
#
# Compressibility (1/GPa) = 0.02929787
#
# Stress axis : x y z
#
# Youngs Moduli (GPa) = 46.27243 58.25656 64.84771
#
# Poissons Ratio (x) = 0.47781 0.16269
# Poissons Ratio (y) = 0.37952 0.11277
# Poissons Ratio (z) = 0.11609 0.10131
#
# Static dielectric constant tensor:
#      x y z
#    x 1.824890 -0.061450 0.074150 
#    y -0.061450 1.781010 -0.003630 
#    z 0.074150 -0.003630 1.785950 
# 
# From -- ./inp_files/109416.got.cif
#   From: 2010.05.17/outbox.cif.g08.bks.cpg/sg2_55_cif.got.tgz:109416.got - 2010.06.03 11:33:40.
