data_PCOD9007222
_publ_section_title
;
Structure prediction by ZEFSAII (Michael W. Deem and Ramdas Pophale) SiO2 
 PCOD9007222
Probable space group: P -1
;
_chemical_formula_sum "Si O2"
_cell_formula_units_Z 16
_cell_length_a 13.506774
_cell_length_b 12.783925
_cell_length_c 7.276920
_cell_angle_alpha 70.657712
_cell_angle_beta 126.261890
_cell_angle_gamma 136.139330
_cell_volume 691.736515
_symmetry_space_group_name_H-M "P -1"
_symmetry_group_IT_number 2
_symmetry_cell_setting 'triclinic'
loop_
_space_group_symop_operation_xyz
x,y,z
-x,-y,-z
loop_
_atom_site_type_symbol
_atom_site_label
_atom_site_fract_x
_atom_site_fract_y
_atom_site_fract_z
Si Si1 0.375013 0.571657 0.719836
Si Si2 0.058920 0.198133 0.020365
Si Si3 0.994904 0.401860 0.330556
Si Si4 0.924426 0.918698 0.246691
Si Si5 0.133435 0.474625 0.040790
Si Si6 0.810817 0.098565 0.499983
Si Si7 0.401232 0.339323 0.743046
Si Si8 0.498143 0.754981 0.403669
O O1 0.384623 0.460326 0.686822
O O2 0.480270 0.720983 0.620214
O O3 0.932748 0.082636 0.546803
O O4 0.453462 0.608989 0.984900
O O5 0.891528 0.143891 0.767578
O O6 0.139926 0.168661 0.972037
O O7 0.172548 0.373055 0.089928
O O8 0.004651 0.086913 0.192046
O O9 0.178745 0.483793 0.562626
O O10 0.955701 0.507994 0.223544
O O11 0.851865 0.239114 0.364896
O O12 0.014746 0.390346 0.139869
O O13 0.771010 0.819229 0.272945
O O14 0.305166 0.644549 0.186314
O O15 0.621679 0.933915 0.391801
O O16 0.430084 0.307060 0.592723
#
# Coordination Sequence:
#
# PCOD9007222 Si02
#       8
#     2   2   2   2   2   2   2   2
#     4  10  22  41  61  91 134 158 208 271 306 378
#     4   9  20  39  63  89 123 166 207 252 313 372
#     4  10  22  44  64  88 124 167 219 256 305 377
#     4   9  20  37  60  92 130 163 199 253 317 384
#     4  10  24  42  67  87 122 171 215 260 307 368
#     4  10  21  39  60  91 125 160 204 257 314 373
#     4  11  22  36  64  94 130 165 205 257 325 379
#     4  11  25  38  60  98 127 166 205 265 324 358
#
# _framework density 23.130193999999999
#
# number of rings (size 3 to 8) (size 9 to 14) (size 15 to 20)
#    0.750    1.250    1.250    1.125    7.000    3.500 
#    0.000    0.000    0.000    3.000    0.000    0.000 
#    0.000    0.000    0.000    0.000    0.000    0.000 
#
# Total GULP energy -89459.974810 kJ/mol
# GULP energy per Si atom -5591.248426 kJ/mol
# Density = 2.307755 g / cm^3
# Si number density = 23.130194 Si / 1000 Ang^3
#
#
#
# Elastic Constant Matrix: (Units=GPa)
#
#
# Indices 1 2 3 4 5 6 
#
# 1 51.1994 26.6351 17.6937 -11.4666 -13.7558 13.2539
# 2 26.6351 129.6462 38.2941 -18.2513 -5.4803 12.3341
# 3 17.6937 38.2941 76.8220 -10.2616 2.8396 -4.3453
# 4 -11.4666 -18.2513 -10.2616 34.3260 1.1502 1.3933
# 5 -13.7558 -5.4803 2.8396 1.1502 33.9642 -3.7183
# 6 13.2539 12.3341 -4.3453 1.3933 -3.7183 24.8088
#
#
#
# Elastic Compliance Matrix: (Units=1/GPa)
#
#
# Indices 1 2 3 4 5 6 
#
# 1 0.031576 -0.001309 -0.006868 0.008085 0.011103 -0.016211
# 2 -0.001309 0.010486 -0.004741 0.003914 0.000830 -0.005440
# 3 -0.006868 -0.004741 0.017627 0.000247 -0.004100 0.008485
# 4 0.008085 0.003914 0.000247 0.034245 0.001865 -0.007866
# 5 0.011103 0.000830 -0.004100 0.001865 0.034128 -0.002052
# 6 -0.016211 -0.005440 0.008485 -0.007866 -0.002052 0.053294
#
#
# Mechanical properties :
#
#
# Convention : Reuss Voigt Hill
#
# Bulk Modulus (GPa) = 29.53882 46.99037 38.26460
# Shear Modulus (GPa) = 22.88571 30.28946 26.58758
#
# Velocity S-wave (km/s) = 3.14893 3.62266 3.39407
# Velocity P-wave (km/s) = 5.10093 6.15288 5.65143
#
# Compressibility (1/GPa) = 0.03385376
#
# Stress axis : x y z
#
# Youngs Moduli (GPa) = 31.66951 95.36254 56.73173
#
# Poissons Ratio (x) = 0.12481 0.38961
# Poissons Ratio (y) = 0.04145 0.26898
# Poissons Ratio (z) = 0.21749 0.45214
#
# Static dielectric constant tensor:
#      x y z
#    x 1.887700 -0.019700 -0.015120 
#    y -0.019700 1.852020 0.043160 
#    z -0.015120 0.043160 1.894450 
# 
# From -- ./inp_files/306797.got.cif
#   From: 2010.05.17/outbox.cif.g08.bks.cpg/sg2_154_cif.got.tgz:306797.got - 2010.06.03 11:33:40.
