data_PCOD9007871
_publ_section_title
;
Structure prediction by ZEFSAII (Michael W. Deem and Ramdas Pophale) SiO2 
 PCOD9007871
Probable space group: P -1
;
_chemical_formula_sum "Si O2"
_cell_formula_units_Z 13
_cell_length_a 12.092126
_cell_length_b 12.764910
_cell_length_c 16.581836
_cell_angle_alpha 146.861777
_cell_angle_beta 155.594600
_cell_angle_gamma 46.501279
_cell_volume 546.045777
_symmetry_space_group_name_H-M "P -1"
_symmetry_group_IT_number 2
_symmetry_cell_setting 'triclinic'
loop_
_space_group_symop_operation_xyz
x,y,z
-x,-y,-z
loop_
_atom_site_type_symbol
_atom_site_label
_atom_site_fract_x
_atom_site_fract_y
_atom_site_fract_z
Si Si1 0.831339 0.035650 0.226717
Si Si2 0.400182 0.237717 0.414843
Si Si3 0.754979 0.289165 0.207366
Si Si4 0.500000 0.500000 0.500000
Si Si5 0.245174 0.787644 0.018266
Si Si6 0.003246 0.609628 0.310400
Si Si7 0.756864 0.635206 0.991375
O O1 0.877993 0.129136 0.228887
O O2 0.988473 0.206518 0.506825
O O3 0.889764 0.825936 0.143871
O O4 0.500000 0.000000 0.000000
O O5 0.427508 0.288345 0.370166
O O6 0.403641 0.015749 0.298449
O O7 0.652453 0.419886 0.739312
O O8 0.086078 0.233289 0.229992
O O9 0.000000 0.500000 0.500000
O O10 0.633222 0.231315 0.000709
O O11 0.520200 0.327739 0.132684
O O12 0.311401 0.581159 0.492390
O O13 0.220610 0.599668 0.939215
O O14 0.939712 0.637208 0.192954
#
# Coordination Sequence:
#
# PCOD9007871 Si02
#       7
#     2   2   2   1   2   2   2
#     4  10  21  39  65  91 121 160 207 254 302 364
#     4  10  22  39  60  92 119 164 211 246 299 361
#     4  11  19  39  66  91 120 165 206 242 310 363
#     4  10  22  40  66  80 120 170 208 242 304 368
#     4  10  21  39  63  89 123 165 202 249 300 372
#     4  11  23  42  61  93 124 160 207 256 309 358
#     4  11  24  39  62  94 131 154 201 264 302 360
#
# _framework density 23.807524999999998
#
# number of rings (size 3 to 8) (size 9 to 14) (size 15 to 20)
#    0.000    1.538    3.077    3.231    6.462    1.846 
#    0.000    0.000    0.000    0.000    0.000    0.000 
#    0.000    0.000    0.000    0.000    0.000    0.000 
#
# Total GULP energy -72432.822130 kJ/mol
# GULP energy per Si atom -5571.755548 kJ/mol
# Density = 2.375334 g / cm^3
# Si number density = 23.807525 Si / 1000 Ang^3
#
#
#
# Elastic Constant Matrix: (Units=GPa)
#
#
# Indices 1 2 3 4 5 6 
#
# 1 68.3987 17.7800 10.7553 13.9110 5.8688 14.0017
# 2 17.7800 116.3997 69.6867 37.2860 -5.4047 28.9685
# 3 10.7553 69.6867 97.3803 24.7908 -5.7620 -1.5293
# 4 13.9110 37.2860 24.7908 39.0718 2.0203 1.5302
# 5 5.8688 -5.4047 -5.7620 2.0203 25.0207 6.2194
# 6 14.0017 28.9685 -1.5293 1.5302 6.2194 36.9475
#
#
#
# Elastic Compliance Matrix: (Units=1/GPa)
#
#
# Indices 1 2 3 4 5 6 
#
# 1 0.017624 0.003670 -0.002862 -0.007544 -0.001110 -0.009175
# 2 0.003670 0.034776 -0.019638 -0.021430 0.011442 -0.030508
# 3 -0.002862 -0.019638 0.023682 0.004186 -0.002873 0.017772
# 4 -0.007544 -0.021430 0.004186 0.045845 -0.010495 0.019702
# 5 -0.001110 0.011442 -0.002873 -0.010495 0.046894 -0.016129
# 6 -0.009175 -0.030508 0.017772 0.019702 -0.016129 0.057097
#
#
# Mechanical properties :
#
#
# Convention : Reuss Voigt Hill
#
# Bulk Modulus (GPa) = 26.02688 53.18029 39.60358
# Shear Modulus (GPa) = 18.09075 32.47178 25.28127
#
# Velocity S-wave (km/s) = 2.75957 3.69715 3.26222
# Velocity P-wave (km/s) = 4.59452 6.37270 5.55522
#
# Compressibility (1/GPa) = 0.03842181
#
# Stress axis : x y z
#
# Youngs Moduli (GPa) = 56.74040 28.75574 42.22666
#
# Poissons Ratio (x) = -0.10553 0.12085
# Poissons Ratio (y) = -0.20823 0.82924
# Poissons Ratio (z) = 0.16239 0.56470
#
# Static dielectric constant tensor:
#      x y z
#    x 1.910690 -0.009930 -0.001000 
#    y -0.009930 1.976730 -0.048580 
#    z -0.001000 -0.048580 1.955680 
# 
# From -- ./inp_files/150346.got.cif
#   From: 2010.05.17/outbox.cif.g08.bks.cpg/sg2_76_cif.got.tgz:150346.got - 2010.06.03 11:33:40.
