data_PCOD9007733
_publ_section_title
;
Structure prediction by ZEFSAII (Michael W. Deem and Ramdas Pophale) SiO2 
 PCOD9007733
Probable space group: P -1
;
_chemical_formula_sum "Si O2"
_cell_formula_units_Z 14
_cell_length_a 11.680401
_cell_length_b 14.972350
_cell_length_c 22.908426
_cell_angle_alpha 160.970513
_cell_angle_beta 155.151530
_cell_angle_gamma 28.880054
_cell_volume 544.269253
_symmetry_space_group_name_H-M "P -1"
_symmetry_group_IT_number 2
_symmetry_cell_setting 'triclinic'
loop_
_space_group_symop_operation_xyz
x,y,z
-x,-y,-z
loop_
_atom_site_type_symbol
_atom_site_label
_atom_site_fract_x
_atom_site_fract_y
_atom_site_fract_z
Si Si1 0.916533 0.684272 0.717376
Si Si2 0.833156 0.791263 0.621423
Si Si3 0.165014 0.265972 0.740392
Si Si4 0.238120 0.211494 0.172805
Si Si5 0.680706 0.834768 0.934256
Si Si6 0.704598 0.851176 0.398560
Si Si7 0.019602 0.352524 0.852360
O O1 0.154696 0.430078 0.680558
O O2 0.755273 0.695973 0.590597
O O3 0.697887 0.699357 0.677989
O O4 0.079122 0.949925 0.950084
O O5 0.000000 0.500000 0.500000
O O6 0.557730 0.973391 0.583679
O O7 0.052969 0.006432 0.851634
O O8 0.361076 0.210905 0.739120
O O9 0.970416 0.537763 0.795761
O O10 0.239399 0.323952 0.879533
O O11 0.000000 0.000000 0.500000
O O12 0.452176 0.147996 0.180740
O O13 0.773446 0.537962 0.819917
O O14 0.500000 0.000000 0.000000
O O15 0.937411 0.050939 0.634515
O O16 0.000000 0.500000 0.000000
#
# Coordination Sequence:
#
# PCOD9007733 Si02
#       7
#     2   2   2   2   2   2   2
#     4   9  19  38  63  92 127 164 214 266 326 382
#     4  11  24  40  64  94 128 168 217 270 326 389
#     4   8  16  35  65  90 128 173 210 264 324 380
#     4   8  16  36  61  88 126 166 208 269 312 382
#     4  10  21  41  60  84 130 169 204 264 330 376
#     4  10  21  41  68  92 127 172 217 271 322 385
#     4  10  21  39  62  93 131 167 214 260 324 393
#
# _framework density 25.722562
#
# number of rings (size 3 to 8) (size 9 to 14) (size 15 to 20)
#    0.000    2.571    0.000    0.857    2.000    0.571 
#    7.714   24.286    0.000    6.000    0.000    0.000 
#    0.000    0.000    0.000    0.000    0.000    0.000 
#
# Total GULP energy -77971.392209 kJ/mol
# GULP energy per Si atom -5569.385158 kJ/mol
# Density = 2.566402 g / cm^3
# Si number density = 25.722562 Si / 1000 Ang^3
#
#
#
# Elastic Constant Matrix: (Units=GPa)
#
#
# Indices 1 2 3 4 5 6 
#
# 1 153.7892 58.7064 25.9740 3.1403 -28.7940 19.9343
# 2 58.7064 107.2196 46.8744 27.0964 10.4800 -1.5082
# 3 25.9740 46.8744 111.5352 30.1985 2.2707 9.7956
# 4 3.1403 27.0964 30.1985 46.3101 3.5978 3.1494
# 5 -28.7940 10.4800 2.2707 3.5978 38.9584 6.2314
# 6 19.9343 -1.5082 9.7956 3.1494 6.2314 41.8329
#
#
#
# Elastic Compliance Matrix: (Units=1/GPa)
#
#
# Indices 1 2 3 4 5 6 
#
# 1 0.014613 -0.011008 0.000554 0.004615 0.014912 -0.010058
# 2 -0.011008 0.020953 -0.004635 -0.008046 -0.014331 0.009827
# 3 0.000554 -0.004635 0.012492 -0.005403 0.001945 -0.003239
# 4 0.004615 -0.008046 -0.005403 0.029488 0.003808 -0.004011
# 5 0.014912 -0.014331 0.001945 0.003808 0.042429 -0.014685
# 6 -0.010058 0.009827 -0.003239 -0.004011 -0.014685 0.032300
#
#
# Mechanical properties :
#
#
# Convention : Reuss Voigt Hill
#
# Bulk Modulus (GPa) = 55.93215 70.62818 63.28016
# Shear Modulus (GPa) = 26.53753 41.48624 34.01188
#
# Velocity S-wave (km/s) = 3.21547 4.02037 3.64023
# Velocity P-wave (km/s) = 5.96467 7.00489 6.50560
#
# Compressibility (1/GPa) = 0.01787881
#
# Stress axis : x y z
#
# Youngs Moduli (GPa) = 68.43434 47.72670 80.04865
#
# Poissons Ratio (x) = 0.52538 -0.04433
# Poissons Ratio (y) = 0.75334 0.37103
# Poissons Ratio (z) = -0.03790 0.22121
#
# Static dielectric constant tensor:
#      x y z
#    x 2.296690 -0.098090 -0.143350 
#    y -0.098090 2.158690 -0.042850 
#    z -0.143350 -0.042850 2.150920 
# 
# From -- ./inp_files/281461.got.cif
#   From: 2010.05.17/outbox.cif.g08.bks.cpg/sg2_141_cif.got.tgz:281461.got - 2010.06.03 11:33:40.
