data_PCOD9007854
_publ_section_title
;
Structure prediction by ZEFSAII (Michael W. Deem and Ramdas Pophale) SiO2 
 PCOD9007854
Probable space group: P -1
;
_chemical_formula_sum "Si O2"
_cell_formula_units_Z 14
_cell_length_a 9.141536
_cell_length_b 16.921150
_cell_length_c 15.018309
_cell_angle_alpha 156.218363
_cell_angle_beta 127.269348
_cell_angle_gamma 39.390962
_cell_volume 545.590180
_symmetry_space_group_name_H-M "P -1"
_symmetry_group_IT_number 2
_symmetry_cell_setting 'triclinic'
loop_
_space_group_symop_operation_xyz
x,y,z
-x,-y,-z
loop_
_atom_site_type_symbol
_atom_site_label
_atom_site_fract_x
_atom_site_fract_y
_atom_site_fract_z
Si Si1 0.233153 0.768223 0.781105
Si Si2 0.495586 0.796034 0.042350
Si Si3 0.130175 0.453650 0.806994
Si Si4 0.231614 0.093982 0.987465
Si Si5 0.823705 0.859559 0.331247
Si Si6 0.351853 0.585069 0.152326
Si Si7 0.935015 0.627045 0.490446
O O1 0.179883 0.581091 0.549708
O O2 0.482899 0.661610 0.814256
O O3 0.233143 0.872229 0.792185
O O4 0.000000 0.000000 0.000000
O O5 0.715173 0.777219 0.138406
O O6 0.287207 0.111899 0.269814
O O7 0.445742 0.680203 0.986914
O O8 0.883676 0.756516 0.995635
O O9 0.143020 0.279505 0.707774
O O10 0.171265 0.297393 0.571714
O O11 0.308997 0.497863 0.954926
O O12 0.029665 0.338568 0.234352
O O13 0.500000 0.000000 0.000000
O O14 0.092811 0.731038 0.261849
O O15 0.648619 0.179292 0.605539
#
# Coordination Sequence:
#
# PCOD9007854 Si02
#       7
#     2   2   2   2   2   2   2
#     4  10  23  42  65  91 129 167 209 256 309 382
#     4  10  21  39  63  88 124 164 208 255 308 376
#     4   9  21  40  60  86 129 151 207 262 305 374
#     4  10  24  40  64  94 123 169 207 261 317 365
#     4  10  22  39  63  88 123 166 205 260 310 371
#     4  10  22  39  62  93 119 167 209 255 314 374
#     4   9  23  41  60  92 127 160 205 261 314 368
#
# _framework density 25.660284999999998
#
# number of rings (size 3 to 8) (size 9 to 14) (size 15 to 20)
#    0.857    1.429    0.000    1.714    6.000    8.571 
#    2.571    1.429    0.000    0.000    0.000    0.000 
#    0.000    0.000    0.000    0.000    0.000    0.000 
#
# Total GULP energy -78031.688777 kJ/mol
# GULP energy per Si atom -5573.692055 kJ/mol
# Density = 2.560188 g / cm^3
# Si number density = 25.660285 Si / 1000 Ang^3
#
#
#
# Elastic Constant Matrix: (Units=GPa)
#
#
# Indices 1 2 3 4 5 6 
#
# 1 68.2329 53.6522 15.7492 -13.7191 14.6475 9.3948
# 2 53.6522 133.4610 19.1134 -18.5850 21.7136 27.5163
# 3 15.7492 19.1134 103.7285 -15.5859 15.4428 11.4219
# 4 -13.7191 -18.5850 -15.5859 42.7532 -11.2563 4.4390
# 5 14.6475 21.7136 15.4428 -11.2563 29.4905 1.6053
# 6 9.3948 27.5163 11.4219 4.4390 1.6053 35.7675
#
#
#
# Elastic Compliance Matrix: (Units=1/GPa)
#
#
# Indices 1 2 3 4 5 6 
#
# 1 0.022421 -0.008032 -0.001074 0.002249 -0.003830 0.000525
# 2 -0.008032 0.013673 0.000896 0.003358 -0.004782 -0.008898
# 3 -0.001074 0.000896 0.011288 0.003414 -0.004504 -0.004234
# 4 0.002249 0.003358 0.003414 0.029313 0.006257 -0.008183
# 5 -0.003830 -0.004782 -0.004504 0.006257 0.043895 0.003376
# 6 0.000525 -0.008898 -0.004234 -0.008183 0.003376 0.036881
#
#
# Mechanical properties :
#
#
# Convention : Reuss Voigt Hill
#
# Bulk Modulus (GPa) = 32.29589 53.60579 42.95084
# Shear Modulus (GPa) = 27.14265 36.06275 31.60270
#
# Velocity S-wave (km/s) = 3.25586 3.75292 3.51319
# Velocity P-wave (km/s) = 5.17180 6.30200 5.76466
#
# Compressibility (1/GPa) = 0.03096369
#
# Stress axis : x y z
#
# Youngs Moduli (GPa) = 44.60120 73.13531 88.58844
#
# Poissons Ratio (x) = 0.58739 0.09514
# Poissons Ratio (y) = 0.35822 -0.07939
# Poissons Ratio (z) = 0.04790 -0.06554
#
# Static dielectric constant tensor:
#      x y z
#    x 2.109600 -0.063920 -0.093210 
#    y -0.063920 2.072730 0.057260 
#    z -0.093210 0.057260 2.025560 
# 
# From -- ./inp_files/570796.got.cif
#   From: 2010.05.17/outbox.cif.g08.bks.cpg/sg2_286_cif.got.tgz:570796.got - 2010.06.03 11:33:40.
