data_PCOD9007032
_publ_section_title
;
Structure prediction by ZEFSAII (Michael W. Deem and Ramdas Pophale) SiO2 
 PCOD9007032
Probable space group: P -1
;
_chemical_formula_sum "Si O2"
_cell_formula_units_Z 16
_cell_length_a 13.248442
_cell_length_b 9.509689
_cell_length_c 5.181198
_cell_angle_alpha 91.858494
_cell_angle_beta 91.092442
_cell_angle_gamma 95.183347
_cell_volume 649.601682
_symmetry_space_group_name_H-M "P -1"
_symmetry_group_IT_number 2
_symmetry_cell_setting 'triclinic'
loop_
_space_group_symop_operation_xyz
x,y,z
-x,-y,-z
loop_
_atom_site_type_symbol
_atom_site_label
_atom_site_fract_x
_atom_site_fract_y
_atom_site_fract_z
Si Si1 0.775660 0.576281 0.345086
Si Si2 0.441684 0.127755 0.281285
Si Si3 0.107556 0.129951 0.780061
Si Si4 0.234480 0.725959 0.563002
Si Si5 0.357555 0.395545 0.152126
Si Si6 0.358602 0.882418 0.966912
Si Si7 0.554202 0.325460 0.677609
Si Si8 0.871266 0.053505 0.743802
O O1 0.849177 0.709827 0.262771
O O2 0.822245 0.425649 0.377463
O O3 0.723167 0.612877 0.616483
O O4 0.694491 0.557182 0.107368
O O5 0.399200 0.245270 0.101888
O O6 0.463685 0.225769 0.539664
O O7 0.362733 0.993289 0.209979
O O8 0.550122 0.065846 0.224040
O O9 0.986455 0.117598 0.808476
O O10 0.129150 0.040731 0.520986
O O11 0.153167 0.057160 0.029259
O O12 0.347125 0.683949 0.499275
O O13 0.187990 0.811433 0.335098
O O14 0.257366 0.833597 0.807322
O O15 0.448464 0.510573 0.251822
O O16 0.404327 0.745751 0.072472
#
# Coordination Sequence:
#
# PCOD9007032 Si02
#       8
#     2   2   2   2   2   2   2   2
#     4  11  24  42  64  97 136 166 219 265 319 390
#     4  10  23  37  59  89 120 176 219 270 321 377
#     4  10  23  44  65 102 132 165 213 266 313 393
#     4  10  23  40  64  95 129 176 212 267 328 385
#     4  11  24  40  63  93 127 176 215 268 322 381
#     4  10  21  40  58  88 128 163 225 270 318 383
#     4  10  21  39  59  86 128 165 220 273 316 381
#     4  10  23  42  71  97 132 169 211 260 326 383
#
# _framework density 24.630478
#
# number of rings (size 3 to 8) (size 9 to 14) (size 15 to 20)
#    0.000    1.750    1.250    1.500    5.250    2.000 
#    0.000    0.000    0.000    6.750    0.000    0.000 
#    0.000    0.000    0.000    0.000    0.000    0.000 
#
# Total GULP energy -89373.560680 kJ/mol
# GULP energy per Si atom -5585.847542 kJ/mol
# Density = 2.457442 g / cm^3
# Si number density = 24.630478 Si / 1000 Ang^3
#
#
#
# Elastic Constant Matrix: (Units=GPa)
#
#
# Indices 1 2 3 4 5 6 
#
# 1 45.2629 57.4079 41.0509 0.2254 2.7774 9.5406
# 2 57.4079 192.2915 35.7581 -20.5500 11.6655 25.3123
# 3 41.0509 35.7581 142.6194 -26.5502 4.3040 11.5360
# 4 0.2254 -20.5500 -26.5502 38.8517 -1.0413 5.7343
# 5 2.7774 11.6655 4.3040 -1.0413 29.6150 -3.3029
# 6 9.5406 25.3123 11.5360 5.7343 -3.3029 32.6175
#
#
#
# Elastic Compliance Matrix: (Units=1/GPa)
#
#
# Indices 1 2 3 4 5 6 
#
# 1 0.059155 -0.018063 -0.017458 -0.022797 0.004119 0.007314
# 2 -0.018063 0.012216 0.005014 0.011110 -0.004389 -0.008367
# 3 -0.017458 0.005014 0.013783 0.013020 -0.002576 -0.006209
# 4 -0.022797 0.011110 0.013020 0.042670 -0.004246 -0.014490
# 5 0.004119 -0.004389 -0.002576 -0.004246 0.036173 0.007522
# 6 0.007314 -0.008367 -0.006209 -0.014490 0.007522 0.040517
#
#
# Mechanical properties :
#
#
# Convention : Reuss Voigt Hill
#
# Bulk Modulus (GPa) = 41.42468 72.06753 56.74611
# Shear Modulus (GPa) = 18.27648 36.61396 27.44522
#
# Velocity S-wave (km/s) = 2.72697 3.85974 3.34170
# Velocity P-wave (km/s) = 5.17399 7.01331 6.16265
#
# Compressibility (1/GPa) = 0.02414020
#
# Stress axis : x y z
#
# Youngs Moduli (GPa) = 16.90461 81.86182 72.55147
#
# Poissons Ratio (x) = 1.47868 1.26660
# Poissons Ratio (y) = 0.30535 -0.36376
# Poissons Ratio (z) = 0.29512 -0.41045
#
# Static dielectric constant tensor:
#      x y z
#    x 2.071480 0.029680 -0.119100 
#    y 0.029680 1.954950 -0.013650 
#    z -0.119100 -0.013650 2.027080 
# 
# From -- ./inp_files/90566.got.cif
#   From: 2010.05.17/outbox.cif.g08.bks.cpg/sg2_46_cif.got.tgz:90566.got - 2010.06.03 11:33:40.
