data_PCOD9007113
_publ_section_title
;
Structure prediction by ZEFSAII (Michael W. Deem and Ramdas Pophale) SiO2 
 PCOD9007113
Probable space group: P -1
;
_chemical_formula_sum "Si O2"
_cell_formula_units_Z 16
_cell_length_a 12.966345
_cell_length_b 14.623527
_cell_length_c 7.557619
_cell_angle_alpha 85.422043
_cell_angle_beta 58.051179
_cell_angle_gamma 39.854859
_cell_volume 623.236082
_symmetry_space_group_name_H-M "P -1"
_symmetry_group_IT_number 2
_symmetry_cell_setting 'triclinic'
loop_
_space_group_symop_operation_xyz
x,y,z
-x,-y,-z
loop_
_atom_site_type_symbol
_atom_site_label
_atom_site_fract_x
_atom_site_fract_y
_atom_site_fract_z
Si Si1 0.867761 0.802457 0.776063
Si Si2 0.022919 0.086556 0.795721
Si Si3 0.780857 0.854801 0.462636
Si Si4 0.444005 0.316869 0.576800
Si Si5 0.418689 0.425886 0.234431
Si Si6 0.499152 0.576546 0.224491
Si Si7 0.028650 0.072236 0.213196
Si Si8 0.259562 0.248496 0.781294
O O1 0.733025 0.865602 0.708289
O O2 0.142400 0.617149 0.502944
O O3 0.819369 0.939231 0.858437
O O4 0.825507 0.758766 0.978641
O O5 0.298969 0.877115 0.552245
O O6 0.893356 0.085036 0.817400
O O7 0.026106 0.188741 0.711808
O O8 0.980857 0.114007 0.040200
O O9 0.842699 0.726393 0.311116
O O10 0.545165 0.046696 0.554550
O O11 0.481600 0.305767 0.335294
O O12 0.384991 0.451370 0.704577
O O13 0.252978 0.362481 0.782119
O O14 0.551523 0.435281 0.165665
O O15 0.440320 0.404245 0.007638
O O16 0.218609 0.758848 0.486360
#
# Coordination Sequence:
#
# PCOD9007113 Si02
#       8
#     2   2   2   2   2   2   2   2
#     4  11  22  38  61  88 118 156 195 242 286 346
#     4   9  18  38  59  89 121 151 191 240 296 351
#     4  10  21  39  60  84 121 154 191 242 295 344
#     4  10  21  39  62  83 118 160 188 241 290 341
#     4  10  22  40  59  88 119 151 199 235 287 349
#     4   9  20  41  59  85 119 155 195 236 288 348
#     4   9  18  37  58  91 120 146 194 241 292 347
#     4  10  22  40  60  86 116 154 200 236 292 349
#
# _framework density 25.672453999999998
#
# number of rings (size 3 to 8) (size 9 to 14) (size 15 to 20)
#    0.000    2.250    1.250    0.750    0.000    3.000 
#   27.000    1.250    0.000    0.000    0.000    0.000 
#    0.000    0.000    0.000    0.000    0.000    0.000 
#
# Total GULP energy -89532.582414 kJ/mol
# GULP energy per Si atom -5595.786401 kJ/mol
# Density = 2.561402 g / cm^3
# Si number density = 25.672454 Si / 1000 Ang^3
#
#
#
# Elastic Constant Matrix: (Units=GPa)
#
#
# Indices 1 2 3 4 5 6 
#
# 1 103.5401 34.6893 61.2108 -24.0152 -3.8796 26.2167
# 2 34.6893 53.8483 4.3301 -10.5311 9.6225 15.0628
# 3 61.2108 4.3301 141.5002 -18.6487 -5.2471 26.0447
# 4 -24.0152 -10.5311 -18.6487 36.9021 -1.6290 -1.3298
# 5 -3.8796 9.6225 -5.2471 -1.6290 48.0590 -0.2032
# 6 26.2167 15.0628 26.0447 -1.3298 -0.2032 34.4006
#
#
#
# Elastic Compliance Matrix: (Units=1/GPa)
#
#
# Indices 1 2 3 4 5 6 
#
# 1 0.019779 -0.009826 -0.006162 0.006881 0.003100 -0.005822
# 2 -0.009826 0.028828 0.005337 0.003943 -0.005887 -0.009057
# 3 -0.006162 0.005337 0.011016 0.002855 -0.000291 -0.005872
# 4 0.006881 0.003943 0.002855 0.033916 0.001194 -0.007814
# 5 0.003100 -0.005887 -0.000291 0.001194 0.022248 0.000614
# 6 -0.005822 -0.009057 -0.005872 -0.007814 0.000614 0.041619
#
#
# Mechanical properties :
#
#
# Convention : Reuss Voigt Hill
#
# Bulk Modulus (GPa) = 26.09573 55.48321 40.78947
# Shear Modulus (GPa) = 26.11201 37.11623 31.61412
#
# Velocity S-wave (km/s) = 3.19269 3.80644 3.51300
# Velocity P-wave (km/s) = 4.87627 6.40137 5.69015
#
# Compressibility (1/GPa) = 0.03832045
#
# Stress axis : x y z
#
# Youngs Moduli (GPa) = 50.55803 34.68809 90.77874
#
# Poissons Ratio (x) = 0.34085 0.55940
# Poissons Ratio (y) = 0.49679 -0.48448
# Poissons Ratio (z) = 0.31155 -0.18513
#
# Static dielectric constant tensor:
#      x y z
#    x 2.065050 -0.023920 -0.030050 
#    y -0.023920 2.119220 0.081570 
#    z -0.030050 0.081570 1.990440 
# 
# From -- ./inp_files/77821.got.cif
#   From: 2010.05.17/outbox.cif.g08.bks.cpg/sg2_39_cif.got.tgz:77821.got - 2010.06.03 11:33:40.
