data_PCOD9007144
_publ_section_title
;
Structure prediction by ZEFSAII (Michael W. Deem and Ramdas Pophale) SiO2 
 PCOD9007144
Probable space group: P -1
;
_chemical_formula_sum "Si O2"
_cell_formula_units_Z 15
_cell_length_a 7.025471
_cell_length_b 14.072598
_cell_length_c 8.707960
_cell_angle_alpha 73.228539
_cell_angle_beta 53.017396
_cell_angle_gamma 104.658515
_cell_volume 546.504417
_symmetry_space_group_name_H-M "P -1"
_symmetry_group_IT_number 2
_symmetry_cell_setting 'triclinic'
loop_
_space_group_symop_operation_xyz
x,y,z
-x,-y,-z
loop_
_atom_site_type_symbol
_atom_site_label
_atom_site_fract_x
_atom_site_fract_y
_atom_site_fract_z
Si Si1 0.729473 0.268810 0.196970
Si Si2 0.118869 0.059805 0.146790
Si Si3 0.500000 0.000000 0.500000
Si Si4 0.241517 0.261747 0.234310
Si Si5 0.408630 0.562853 0.251579
Si Si6 0.892780 0.166371 0.728672
Si Si7 0.983499 0.370076 0.737538
Si Si8 0.569097 0.754970 0.348401
O O1 0.675123 0.137904 0.279519
O O2 0.487270 0.275914 0.220114
O O3 0.684794 0.286830 0.387042
O O4 0.003547 0.360260 0.914803
O O5 0.164139 0.151509 0.214608
O O6 0.774005 0.989467 0.329206
O O7 0.304284 0.129132 0.875389
O O8 0.211846 0.969738 0.185789
O O9 0.979724 0.222514 0.491564
O O10 0.336143 0.373753 0.026258
O O11 0.269510 0.436524 0.462318
O O12 0.482115 0.651657 0.316345
O O13 0.164952 0.561023 0.267233
O O14 0.768254 0.234061 0.841856
O O15 0.156562 0.210563 0.698113
#
# Coordination Sequence:
#
# PCOD9007144 Si02
#       8
#     2   2   1   2   2   2   2   2
#     4  10  22  37  59  90 121 158 191 243 294 352
#     4  11  22  38  59  88 122 158 193 244 293 361
#     4  12  22  34  60  86 122 150 190 246 294 342
#     4   9  20  41  60  85 119 158 199 235 298 354
#     4   9  21  42  61  85 117 157 201 251 285 346
#     4  11  21  36  58  87 122 156 194 241 296 358
#     4  10  22  40  61  86 120 157 201 244 292 342
#     4  10  21  39  60  87 120 156 201 238 298 349
#
# _framework density 27.44717
#
# number of rings (size 3 to 8) (size 9 to 14) (size 15 to 20)
#    0.000    1.867    2.667    1.600    1.867    2.667 
#    0.000    2.000    0.000    2.400    0.000    0.000 
#    0.000    0.000    0.000    0.000    0.000    0.000 
#
# Total GULP energy -83629.623602 kJ/mol
# GULP energy per Si atom -5575.308240 kJ/mol
# Density = 2.738470 g / cm^3
# Si number density = 27.447170 Si / 1000 Ang^3
#
#
#
# Elastic Constant Matrix: (Units=GPa)
#
#
# Indices 1 2 3 4 5 6 
#
# 1 83.7509 -8.1959 34.0076 12.1625 13.7381 -4.1882
# 2 -8.1959 50.1764 38.4793 2.5909 2.1647 5.7713
# 3 34.0076 38.4793 236.1241 8.6699 37.8119 -5.3363
# 4 12.1625 2.5909 8.6699 44.1156 -2.2897 4.1408
# 5 13.7381 2.1647 37.8119 -2.2897 44.2828 5.8738
# 6 -4.1882 5.7713 -5.3363 4.1408 5.8738 33.2843
#
#
#
# Elastic Compliance Matrix: (Units=1/GPa)
#
#
# Indices 1 2 3 4 5 6 
#
# 1 0.014405 0.004014 -0.001980 -0.004178 -0.003446 0.001927
# 2 0.004014 0.025043 -0.005142 -0.000967 0.002533 -0.004988
# 3 -0.001980 -0.005142 0.006224 -0.000871 -0.004839 0.002603
# 4 -0.004178 -0.000967 -0.000871 0.024651 0.003926 -0.004257
# 5 -0.003446 0.002533 -0.004839 0.003926 0.028820 -0.007223
# 6 0.001927 -0.004988 0.002603 -0.004257 -0.007223 0.033373
#
#
# Mechanical properties :
#
#
# Convention : Reuss Voigt Hill
#
# Bulk Modulus (GPa) = 25.34427 55.40374 40.37401
# Shear Modulus (GPa) = 32.91968 44.72057 38.82012
#
# Velocity S-wave (km/s) = 3.46697 4.04088 3.76488
# Velocity P-wave (km/s) = 5.02796 6.48082 5.80006
#
# Compressibility (1/GPa) = 0.03945665
#
# Stress axis : x y z
#
# Youngs Moduli (GPa) = 69.41826 39.93114 160.67134
#
# Poissons Ratio (x) = -0.16029 0.31814
# Poissons Ratio (y) = -0.27866 0.82618
# Poissons Ratio (z) = 0.13745 0.20533
#
# Static dielectric constant tensor:
#      x y z
#    x 2.159070 0.131240 -0.127410 
#    y 0.131240 2.028020 -0.031270 
#    z -0.127410 -0.031270 2.204130 
# 
# From -- ./inp_files/200676.got.cif
#   From: 2010.05.17/outbox.cif.g08.bks.cpg/sg2_101_cif.got.tgz:200676.got - 2010.06.03 11:33:40.
