data_PCOD9007671
_publ_section_title
;
Structure prediction by ZEFSAII (Michael W. Deem and Ramdas Pophale) SiO2 
 PCOD9007671
Probable space group: P -1
;
_chemical_formula_sum "Si O2"
_cell_formula_units_Z 16
_cell_length_a 17.278216
_cell_length_b 20.445070
_cell_length_c 8.967378
_cell_angle_alpha 132.966333
_cell_angle_beta 55.834454
_cell_angle_gamma 161.760008
_cell_volume 672.786549
_symmetry_space_group_name_H-M "P -1"
_symmetry_group_IT_number 2
_symmetry_cell_setting 'triclinic'
loop_
_space_group_symop_operation_xyz
x,y,z
-x,-y,-z
loop_
_atom_site_type_symbol
_atom_site_label
_atom_site_fract_x
_atom_site_fract_y
_atom_site_fract_z
Si Si1 0.695682 0.337722 0.057486
Si Si2 0.884436 0.191013 0.462207
Si Si3 0.480019 0.630184 0.808635
Si Si4 0.350437 0.333737 0.053677
Si Si5 0.955170 0.078842 0.407052
Si Si6 0.726505 0.298054 0.656411
Si Si7 0.142574 0.771240 0.758316
Si Si8 0.280453 0.196792 0.485601
O O1 0.632463 0.370813 0.082165
O O2 0.904964 0.554566 0.291319
O O3 0.783562 0.348026 0.849328
O O4 0.412655 0.048125 0.972458
O O5 0.909095 0.119493 0.408739
O O6 0.942063 0.236997 0.294574
O O7 0.581484 0.954440 0.432012
O O8 0.555087 0.665833 0.947575
O O9 0.689060 0.813683 0.729886
O O10 0.243174 0.350814 0.587943
O O11 0.447037 0.503173 0.313664
O O12 0.500000 0.500000 0.000000
O O13 0.080383 0.047990 0.835997
O O14 0.750177 0.897849 0.488054
O O15 0.791694 0.262405 0.452724
O O16 0.911956 0.539750 0.760120
O O17 0.000000 0.000000 0.500000
#
# Coordination Sequence:
#
# PCOD9007671 Si02
#       8
#     2   2   2   2   2   2   2   2
#     4  10  22  39  63  89 123 166 204 249 314 364
#     4  10  21  39  62  91 127 161 207 255 299 374
#     4  11  23  42  62  87 125 161 201 260 311 362
#     4  10  21  39  63  88 114 158 204 251 307 362
#     4  10  23  41  61  89 121 160 206 252 311 363
#     4  10  22  40  64  91 129 161 202 255 302 370
#     4  10  22  40  62  94 126 163 202 251 310 363
#     4  11  23  42  63  86 124 160 203 260 308 364
#
# _framework density 23.781689
#
# number of rings (size 3 to 8) (size 9 to 14) (size 15 to 20)
#    0.000    1.750    1.250    3.375    0.000    7.500 
#    6.750    2.500    0.000    0.000    0.000    0.000 
#    0.000    0.000    0.000    0.000    0.000    0.000 
#
# Total GULP energy -89329.934025 kJ/mol
# GULP energy per Si atom -5583.120877 kJ/mol
# Density = 2.372756 g / cm^3
# Si number density = 23.781689 Si / 1000 Ang^3
#
#
#
# Elastic Constant Matrix: (Units=GPa)
#
#
# Indices 1 2 3 4 5 6 
#
# 1 84.5103 27.9467 8.5403 0.7339 8.1975 -21.7261
# 2 27.9467 112.9550 47.5696 27.2496 -2.7841 -27.2977
# 3 8.5403 47.5696 136.1909 35.9618 8.3044 1.5196
# 4 0.7339 27.2496 35.9618 46.2499 2.8398 -8.7239
# 5 8.1975 -2.7841 8.3044 2.8398 27.7328 2.3364
# 6 -21.7261 -27.2977 1.5196 -8.7239 2.3364 31.0682
#
#
#
# Elastic Compliance Matrix: (Units=1/GPa)
#
#
# Indices 1 2 3 4 5 6 
#
# 1 0.016021 -0.001914 -0.001241 0.004324 -0.005946 0.011244
# 2 -0.001914 0.014599 -0.004385 -0.003342 0.002797 0.010555
# 3 -0.001241 -0.004385 0.011063 -0.007219 -0.002046 -0.007135
# 4 0.004324 -0.003342 -0.007219 0.031127 -0.003435 0.009439
# 5 -0.005946 0.002797 -0.002046 -0.003435 0.039528 -0.005537
# 6 0.011244 0.010555 -0.007135 0.009439 -0.005537 0.052740
#
#
# Mechanical properties :
#
#
# Convention : Reuss Voigt Hill
#
# Bulk Modulus (GPa) = 37.58878 55.75215 46.67046
# Shear Modulus (GPa) = 26.45156 37.65014 32.05085
#
# Velocity S-wave (km/s) = 3.33868 3.98321 3.67510
# Velocity P-wave (km/s) = 5.54098 6.68197 6.13805
#
# Compressibility (1/GPa) = 0.02660369
#
# Stress axis : x y z
#
# Youngs Moduli (GPa) = 62.41786 68.49619 90.39475
#
# Poissons Ratio (x) = 0.13107 0.11218
# Poissons Ratio (y) = 0.11944 0.39639
# Poissons Ratio (z) = 0.07746 0.30036
#
# Static dielectric constant tensor:
#      x y z
#    x 1.955360 -0.000650 -0.033440 
#    y -0.000650 1.923520 -0.031170 
#    z -0.033440 -0.031170 1.957740 
# 
# From -- ./inp_files/337815.got.cif
#   From: 2010.05.17/outbox.cif.g08.bks.cpg/sg2_169_cif.got.tgz:337815.got - 2010.06.03 11:33:40.
