data_PCOD9007538
_publ_section_title
;
Structure prediction by ZEFSAII (Michael W. Deem and Ramdas Pophale) SiO2 
 PCOD9007538
Probable space group: P -1
;
_chemical_formula_sum "Si O2"
_cell_formula_units_Z 16
_cell_length_a 8.192982
_cell_length_b 17.148442
_cell_length_c 9.554149
_cell_angle_alpha 113.204835
_cell_angle_beta 112.108374
_cell_angle_gamma 122.965970
_cell_volume 665.269806
_symmetry_space_group_name_H-M "P -1"
_symmetry_group_IT_number 2
_symmetry_cell_setting 'triclinic'
loop_
_space_group_symop_operation_xyz
x,y,z
-x,-y,-z
loop_
_atom_site_type_symbol
_atom_site_label
_atom_site_fract_x
_atom_site_fract_y
_atom_site_fract_z
Si Si1 0.574200 0.246026 0.077022
Si Si2 0.912251 0.975076 0.746274
Si Si3 0.482836 0.111799 0.664533
Si Si4 0.602810 0.004189 0.817005
Si Si5 0.915373 0.245329 0.321236
Si Si6 0.919741 0.616851 0.099311
Si Si7 0.487660 0.383150 0.010762
Si Si8 0.416377 0.323627 0.630849
O O1 0.553787 0.197778 0.881850
O O2 0.552112 0.337189 0.111750
O O3 0.858952 0.318031 0.299914
O O4 0.267331 0.095158 0.948181
O O5 0.832705 0.987718 0.579303
O O6 0.716036 0.812510 0.576124
O O7 0.808896 0.005679 0.842966
O O8 0.523623 0.033193 0.680266
O O9 0.733852 0.234156 0.715923
O O10 0.292889 0.853570 0.681527
O O11 0.775311 0.131219 0.072998
O O12 0.242965 0.336529 0.521600
O O13 0.801171 0.545349 0.165096
O O14 0.771773 0.485689 0.859695
O O15 0.740537 0.634011 0.024108
O O16 0.350335 0.293639 0.755894
#
# Coordination Sequence:
#
# PCOD9007538 Si02
#       8
#     2   2   2   2   2   2   2   2
#     4  11  23  39  59  92 126 157 197 251 301 355
#     4  12  23  34  63  94 119 158 204 247 303 358
#     4  11  21  37  61  93 124 155 200 255 300 346
#     4  10  23  38  60  91 126 157 197 244 308 362
#     4  10  23  42  60  86 130 161 189 246 309 363
#     4   9  21  39  62  90 119 158 203 252 296 346
#     4   9  20  39  65  85 124 152 207 253 293 347
#     4  10  21  39  62  87 120 160 200 243 300 349
#
# _framework density 24.050391999999999
#
# number of rings (size 3 to 8) (size 9 to 14) (size 15 to 20)
#    0.750    1.000    1.250    3.750    3.500    4.000 
#    0.000    3.125    0.000    1.500    0.000    2.625 
#    0.000    0.000    0.000    0.000    0.000    0.000 
#
# Total GULP energy -89504.430947 kJ/mol
# GULP energy per Si atom -5594.026934 kJ/mol
# Density = 2.399565 g / cm^3
# Si number density = 24.050392 Si / 1000 Ang^3
#
#
#
# Elastic Constant Matrix: (Units=GPa)
#
#
# Indices 1 2 3 4 5 6 
#
# 1 92.0091 29.9986 15.2324 3.3192 9.0983 -15.4399
# 2 29.9986 69.6906 24.2041 -8.6465 7.9456 -21.0228
# 3 15.2324 24.2041 61.2370 -3.3949 17.5397 -7.2857
# 4 3.3192 -8.6465 -3.3949 29.5852 -9.4184 1.2079
# 5 9.0983 7.9456 17.5397 -9.4184 36.1257 -9.1634
# 6 -15.4399 -21.0228 -7.2857 1.2079 -9.1634 42.3843
#
#
#
# Elastic Compliance Matrix: (Units=1/GPa)
#
#
# Indices 1 2 3 4 5 6 
#
# 1 0.013352 -0.005241 -0.000534 -0.003972 -0.002546 0.001735
# 2 -0.005241 0.022075 -0.007148 0.007128 0.003940 0.008460
# 3 -0.000534 -0.007148 0.021782 -0.002658 -0.010095 -0.002103
# 4 -0.003972 0.007128 -0.002658 0.039669 0.011842 0.003061
# 5 -0.002546 0.003940 -0.010095 0.011842 0.037220 0.007001
# 6 0.001735 0.008460 -0.002103 0.003061 0.007001 0.029487
#
#
# Mechanical properties :
#
#
# Convention : Reuss Voigt Hill
#
# Bulk Modulus (GPa) = 31.88539 40.20077 36.04308
# Shear Modulus (GPa) = 25.01417 31.85248 28.43332
#
# Velocity S-wave (km/s) = 3.22852 3.64319 3.44210
# Velocity P-wave (km/s) = 5.21385 5.86929 5.55125
#
# Compressibility (1/GPa) = 0.03136232
#
# Stress axis : x y z
#
# Youngs Moduli (GPa) = 74.89529 45.30006 45.90901
#
# Poissons Ratio (x) = 0.23742 0.02453
# Poissons Ratio (y) = 0.39253 0.32817
# Poissons Ratio (z) = 0.04001 0.32382
#
# Static dielectric constant tensor:
#      x y z
#    x 1.895770 -0.043710 -0.033810 
#    y -0.043710 1.909870 -0.006920 
#    z -0.033810 -0.006920 1.938040 
# 
# From -- ./inp_files/217892.got.cif
#   From: 2010.05.17/outbox.cif.g08.bks.cpg/sg2_109_cif.got.tgz:217892.got - 2010.06.03 11:33:40.
