data_PCOD9007531
_publ_section_title
;
Structure prediction by ZEFSAII (Michael W. Deem and Ramdas Pophale) SiO2 
 PCOD9007531
Probable space group: P -1
;
_chemical_formula_sum "Si O2"
_cell_formula_units_Z 16
_cell_length_a 9.606353
_cell_length_b 7.351766
_cell_length_c 16.585418
_cell_angle_alpha 89.013259
_cell_angle_beta 35.950892
_cell_angle_gamma 97.198159
_cell_volume 667.947847
_symmetry_space_group_name_H-M "P -1"
_symmetry_group_IT_number 2
_symmetry_cell_setting 'triclinic'
loop_
_space_group_symop_operation_xyz
x,y,z
-x,-y,-z
loop_
_atom_site_type_symbol
_atom_site_label
_atom_site_fract_x
_atom_site_fract_y
_atom_site_fract_z
Si Si1 0.773138 0.107103 0.437280
Si Si2 0.436318 0.599731 0.404186
Si Si3 0.735358 0.790226 0.570731
Si Si4 0.113289 0.123560 0.749923
Si Si5 0.798079 0.967575 0.026421
Si Si6 0.294815 0.329821 0.229910
Si Si7 0.263908 0.708595 0.313980
Si Si8 0.651724 0.194215 0.968098
O O1 0.687170 0.298902 0.470711
O O2 0.681611 0.982177 0.561325
O O3 0.062759 0.174816 0.311193
O O4 0.733931 0.963462 0.383755
O O5 0.405297 0.379562 0.419135
O O6 0.711118 0.726082 0.276566
O O7 0.291507 0.632750 0.391370
O O8 0.658972 0.738167 0.699537
O O9 0.025846 0.794573 0.425430
O O10 0.915435 0.225132 0.802237
O O11 0.954993 0.942057 0.873749
O O12 0.535171 0.833708 0.166451
O O13 0.732043 0.154149 0.022396
O O14 0.000000 0.000000 0.000000
O O15 0.235393 0.530366 0.270181
O O16 0.490003 0.335062 0.066668
O O17 0.500000 0.000000 0.000000
#
# Coordination Sequence:
#
# PCOD9007531 Si02
#       8
#     2   2   2   2   2   2   2   2
#     4  12  22  39  65  91 126 167 208 255 327 374
#     4  11  22  43  60  92 131 158 210 266 311 373
#     4  11  24  37  66  97 122 163 212 266 314 374
#     4  10  24  40  62  88 130 170 205 261 317 380
#     4  10  21  39  64  88 121 172 209 250 322 373
#     4  11  20  38  62  97 122 159 214 264 307 379
#     4  11  20  38  64  95 124 156 211 270 309 367
#     4  10  21  39  62  86 127 167 209 255 312 381
#
# _framework density 23.953968
#
# number of rings (size 3 to 8) (size 9 to 14) (size 15 to 20)
#    0.750    0.500    5.000    2.250    1.750    0.500 
#    0.000   10.625    0.000    0.000    0.000    0.000 
#    0.000    0.000    0.000    0.000    0.000    0.000 
#
# Total GULP energy -89112.034924 kJ/mol
# GULP energy per Si atom -5569.502183 kJ/mol
# Density = 2.389945 g / cm^3
# Si number density = 23.953968 Si / 1000 Ang^3
#
#
#
# Elastic Constant Matrix: (Units=GPa)
#
#
# Indices 1 2 3 4 5 6 
#
# 1 50.5283 7.0047 11.1568 -2.3682 -0.5611 13.1566
# 2 7.0047 91.5132 28.4733 9.1980 -10.6785 20.8350
# 3 11.1568 28.4733 111.6941 12.3722 -6.9710 8.6121
# 4 -2.3682 9.1980 12.3722 41.5568 7.1970 -0.2025
# 5 -0.5611 -10.6785 -6.9710 7.1970 28.4726 -9.5760
# 6 13.1566 20.8350 8.6121 -0.2025 -9.5760 33.0926
#
#
#
# Elastic Compliance Matrix: (Units=1/GPa)
#
#
# Indices 1 2 3 4 5 6 
#
# 1 0.022858 0.000485 -0.002154 0.002456 -0.003857 -0.009934
# 2 0.000485 0.014018 -0.002549 -0.002841 0.002820 -0.007557
# 3 -0.002154 -0.002549 0.010270 -0.003037 0.002444 0.000477
# 4 0.002456 -0.002841 -0.003037 0.027279 -0.008930 -0.000814
# 5 -0.003857 0.002820 0.002444 -0.008930 0.042811 0.011456
# 6 -0.009934 -0.007557 0.000477 -0.000814 0.011456 0.042111
#
#
# Mechanical properties :
#
#
# Convention : Reuss Voigt Hill
#
# Bulk Modulus (GPa) = 25.83169 38.55614 32.19392
# Shear Modulus (GPa) = 27.67222 34.43111 31.05167
#
# Velocity S-wave (km/s) = 3.40255 3.79540 3.60433
# Velocity P-wave (km/s) = 5.12286 5.94455 5.54894
#
# Compressibility (1/GPa) = 0.03871214
#
# Stress axis : x y z
#
# Youngs Moduli (GPa) = 43.74840 71.33486 97.37033
#
# Poissons Ratio (x) = -0.03461 0.20971
# Poissons Ratio (y) = -0.02123 0.24816
# Poissons Ratio (z) = 0.09422 0.18181
#
# Static dielectric constant tensor:
#      x y z
#    x 2.037970 -0.008100 0.008110 
#    y -0.008100 1.898900 0.057040 
#    z 0.008110 0.057040 2.151620 
# 
# From -- ./inp_files/593243.got.cif
#   From: 2010.05.17/outbox.cif.g08.bks.cpg/sg2_297_cif.got.tgz:593243.got - 2010.06.03 11:33:40.
