data_PCOD9007492
_publ_section_title
;
Structure prediction by ZEFSAII (Michael W. Deem and Ramdas Pophale) SiO2 
 PCOD9007492
Probable space group: P -1
;
_chemical_formula_sum "Si O2"
_cell_formula_units_Z 12
_cell_length_a 7.481776
_cell_length_b 15.091630
_cell_length_c 7.682422
_cell_angle_alpha 125.949304
_cell_angle_beta 122.895714
_cell_angle_gamma 89.776929
_cell_volume 522.517475
_symmetry_space_group_name_H-M "P -1"
_symmetry_group_IT_number 2
_symmetry_cell_setting 'triclinic'
loop_
_space_group_symop_operation_xyz
x,y,z
-x,-y,-z
loop_
_atom_site_type_symbol
_atom_site_label
_atom_site_fract_x
_atom_site_fract_y
_atom_site_fract_z
Si Si1 0.067892 0.673248 0.674474
Si Si2 0.236451 0.056991 0.811906
Si Si3 0.950441 0.882132 0.720086
Si Si4 0.509776 0.328190 0.314453
Si Si5 0.514761 0.129379 0.711650
Si Si6 0.456808 0.501222 0.769580
O O1 0.961344 0.765426 0.667894
O O2 0.232898 0.661923 0.594738
O O3 0.830497 0.550315 0.454895
O O4 0.238147 0.744970 0.011560
O O5 0.456026 0.099442 0.848580
O O6 0.173519 0.945148 0.777285
O O7 0.305192 0.188862 0.087699
O O8 0.000000 0.000000 0.500000
O O9 0.693953 0.849192 0.461141
O O10 0.000000 0.000000 0.000000
O O11 0.526299 0.412415 0.585708
O O12 0.433360 0.374143 0.147565
O O13 0.500000 0.000000 0.500000
O O14 0.500000 0.500000 0.000000
#
# Coordination Sequence:
#
# PCOD9007492 Si02
#       6
#     2   2   2   2   2   2
#     4  11  24  43  70  99 140 181 231 290 348 413
#     4   9  21  38  65  95 138 173 211 280 345 408
#     4  11  21  39  66 101 138 178 227 268 343 429
#     4  10  24  48  67 102 143 177 238 296 346 414
#     4  10  21  39  61  98 137 179 217 271 345 409
#     4  11  26  46  76  98 134 189 243 294 347 416
#
# _framework density 22.965738000000002
#
# number of rings (size 3 to 8) (size 9 to 14) (size 15 to 20)
#    0.000    1.667    1.667    1.500    9.333    3.333 
#    3.000    0.000    0.000    0.000    0.000    0.000 
#    0.000    0.000    0.000    0.000    0.000    0.000 
#
# Total GULP energy -66886.558069 kJ/mol
# GULP energy per Si atom -5573.879839 kJ/mol
# Density = 2.291347 g / cm^3
# Si number density = 22.965738 Si / 1000 Ang^3
#
#
#
# Elastic Constant Matrix: (Units=GPa)
#
#
# Indices 1 2 3 4 5 6 
#
# 1 92.0991 14.9156 32.0383 -5.1595 -12.5552 -16.2514
# 2 14.9156 92.8157 20.5615 -14.1699 4.4584 -5.2519
# 3 32.0383 20.5615 111.5531 -8.2204 8.1123 -8.5976
# 4 -5.1595 -14.1699 -8.2204 33.3305 2.3782 5.5370
# 5 -12.5552 4.4584 8.1123 2.3782 49.8497 6.2073
# 6 -16.2514 -5.2519 -8.5976 5.5370 6.2073 40.0572
#
#
#
# Elastic Compliance Matrix: (Units=1/GPa)
#
#
# Indices 1 2 3 4 5 6 
#
# 1 0.013520 -0.001367 -0.003608 -0.000304 0.003630 0.004011
# 2 -0.001367 0.012093 -0.001363 0.004644 -0.001466 0.000324
# 3 -0.003608 -0.001363 0.010626 0.001535 -0.002694 0.000843
# 4 -0.000304 0.004644 0.001535 0.033017 -0.001886 -0.003456
# 5 0.003630 -0.001466 -0.002694 -0.001886 0.021937 -0.002437
# 6 0.004011 0.000324 0.000843 -0.003456 -0.002437 0.027670
#
#
# Mechanical properties :
#
#
# Convention : Reuss Voigt Hill
#
# Bulk Modulus (GPa) = 42.43861 47.94429 45.19145
# Shear Modulus (GPa) = 35.86935 39.91098 37.89017
#
# Velocity S-wave (km/s) = 3.95633 4.17327 4.06625
# Velocity P-wave (km/s) = 6.27609 6.64405 6.46269
#
# Compressibility (1/GPa) = 0.02356345
#
# Stress axis : x y z
#
# Youngs Moduli (GPa) = 73.96454 82.68984 94.11031
#
# Poissons Ratio (x) = 0.11304 0.33957
# Poissons Ratio (y) = 0.10112 0.12824
# Poissons Ratio (z) = 0.26688 0.11267
#
# Static dielectric constant tensor:
#      x y z
#    x 1.902730 -0.004750 -0.046940 
#    y -0.004750 1.928910 0.089440 
#    z -0.046940 0.089440 2.035310 
# 
# From -- ./inp_files/161922.got.cif
#   From: 2010.05.17/outbox.cif.g08.bks.cpg/sg2_81_cif.got.tgz:161922.got - 2010.06.03 11:33:40.
