data_PCOD9007603
_publ_section_title
;
Structure prediction by ZEFSAII (Michael W. Deem and Ramdas Pophale) SiO2 
 PCOD9007603
Probable space group: P -1
;
_chemical_formula_sum "Si O2"
_cell_formula_units_Z 16
_cell_length_a 12.354863
_cell_length_b 11.611850
_cell_length_c 9.738398
_cell_angle_alpha 97.804816
_cell_angle_beta 105.040886
_cell_angle_gamma 145.160078
_cell_volume 597.221862
_symmetry_space_group_name_H-M "P -1"
_symmetry_group_IT_number 2
_symmetry_cell_setting 'triclinic'
loop_
_space_group_symop_operation_xyz
x,y,z
-x,-y,-z
loop_
_atom_site_type_symbol
_atom_site_label
_atom_site_fract_x
_atom_site_fract_y
_atom_site_fract_z
Si Si1 0.100673 0.987792 0.238934
Si Si2 0.708336 0.307272 0.761099
Si Si3 0.694274 0.427734 0.065685
Si Si4 0.020447 0.323085 0.446399
Si Si5 0.202787 0.715580 0.832561
Si Si6 0.803845 0.932039 0.140145
Si Si7 0.551732 0.896081 0.651257
Si Si8 0.779263 0.887956 0.419768
O O1 0.667495 0.349794 0.888517
O O2 0.967213 0.980579 0.136975
O O3 0.294589 0.200586 0.461636
O O4 0.248384 0.017271 0.225878
O O5 0.540543 0.186827 0.553585
O O6 0.144852 0.307431 0.837147
O O7 0.997365 0.578317 0.847736
O O8 0.643049 0.112245 0.741932
O O9 0.846515 0.466691 0.197738
O O10 0.429016 0.210608 0.016172
O O11 0.298965 0.625481 0.601231
O O12 0.856955 0.277724 0.329372
O O13 0.882581 0.115290 0.478209
O O14 0.009008 0.216008 0.302543
O O15 0.500000 0.000000 0.000000
O O16 0.662711 0.759768 0.209885
O O17 0.000000 0.000000 0.500000
#
# Coordination Sequence:
#
# PCOD9007603 Si02
#       8
#     2   2   2   2   2   2   2   2
#     4  11  21  36  65  92 119 163 213 245 310 372
#     4  10  23  41  60  90 127 166 205 248 315 371
#     4  12  22  39  62  88 127 168 199 254 310 368
#     4   9  20  39  60  91 123 156 207 260 305 352
#     4  11  20  38  63  91 122 161 203 254 310 363
#     4   9  20  39  61  88 122 157 211 251 298 357
#     4  10  21  39  62  89 123 162 209 256 305 365
#     4   8  17  38  59  85 115 156 206 245 296 365
#
# _framework density 26.790711999999999
#
# number of rings (size 3 to 8) (size 9 to 14) (size 15 to 20)
#    0.750    1.250    2.500    1.500    0.000    0.500 
#    2.250    1.250    0.000    3.000    0.000    0.000 
#    0.000    0.000    0.000    0.000    0.000    0.000 
#
# Total GULP energy -89187.465912 kJ/mol
# GULP energy per Si atom -5574.216620 kJ/mol
# Density = 2.672974 g / cm^3
# Si number density = 26.790712 Si / 1000 Ang^3
#
#
#
# Elastic Constant Matrix: (Units=GPa)
#
#
# Indices 1 2 3 4 5 6 
#
# 1 170.8084 52.3068 61.7308 -15.7729 34.2440 -8.4295
# 2 52.3068 66.2552 31.7536 0.3924 6.0326 14.6541
# 3 61.7308 31.7536 112.2318 -0.1589 24.4619 10.2234
# 4 -15.7729 0.3924 -0.1589 44.8092 3.6508 2.7269
# 5 34.2440 6.0326 24.4619 3.6508 54.9575 -6.2096
# 6 -8.4295 14.6541 10.2234 2.7269 -6.2096 33.3232
#
#
#
# Elastic Compliance Matrix: (Units=1/GPa)
#
#
# Indices 1 2 3 4 5 6 
#
# 1 0.011095 -0.008157 -0.003502 0.003900 -0.003995 0.006405
# 2 -0.008157 0.024905 -0.001930 -0.002542 0.002039 -0.011835
# 3 -0.003502 -0.001930 0.012599 -0.000594 -0.003687 -0.004541
# 4 0.003900 -0.002542 -0.000594 0.024017 -0.003520 -0.000334
# 5 -0.003995 0.002039 -0.003687 -0.003520 0.022760 0.003753
# 6 0.006405 -0.011835 -0.004541 -0.000334 0.003753 0.038954
#
#
# Mechanical properties :
#
#
# Convention : Reuss Voigt Hill
#
# Bulk Modulus (GPa) = 46.68218 71.20864 58.94541
# Shear Modulus (GPa) = 29.64762 40.18493 34.91627
#
# Velocity S-wave (km/s) = 3.33023 3.87713 3.61404
# Velocity P-wave (km/s) = 5.67889 6.83229 6.28212
#
# Compressibility (1/GPa) = 0.02142145
#
# Stress axis : x y z
#
# Youngs Moduli (GPa) = 90.12956 40.15304 79.37221
#
# Poissons Ratio (x) = 0.32752 0.27797
# Poissons Ratio (y) = 0.73517 0.15317
# Poissons Ratio (z) = 0.31564 0.07748
#
# Static dielectric constant tensor:
#      x y z
#    x 2.125440 0.102950 -0.078830 
#    y 0.102950 2.188730 -0.124150 
#    z -0.078830 -0.124150 2.257170 
# 
# From -- ./inp_files/536588.got.cif
#   From: 2010.05.17/outbox.cif.g08.bks.cpg/sg2_269_cif.got.tgz:536588.got - 2010.06.03 11:33:40.
