data_PCOD9007743
_publ_section_title
;
Structure prediction by ZEFSAII (Michael W. Deem and Ramdas Pophale) SiO2 
 PCOD9007743
Probable space group: P -1
;
_chemical_formula_sum "Si O2"
_cell_formula_units_Z 13
_cell_length_a 8.077190
_cell_length_b 8.640970
_cell_length_c 12.451792
_cell_angle_alpha 59.855782
_cell_angle_beta 121.242318
_cell_angle_gamma 132.115234
_cell_volume 534.611447
_symmetry_space_group_name_H-M "P -1"
_symmetry_group_IT_number 2
_symmetry_cell_setting 'triclinic'
loop_
_space_group_symop_operation_xyz
x,y,z
-x,-y,-z
loop_
_atom_site_type_symbol
_atom_site_label
_atom_site_fract_x
_atom_site_fract_y
_atom_site_fract_z
Si Si1 0.733115 0.188936 0.959266
Si Si2 0.081063 0.367479 0.214941
Si Si3 0.751413 0.259367 0.351311
Si Si4 0.750213 0.960991 0.838804
Si Si5 0.222310 0.312606 0.758705
Si Si6 0.500000 0.500000 0.000000
Si Si7 0.043270 0.969337 0.402826
O O1 0.736082 0.383902 0.835123
O O2 0.793779 0.083896 0.922107
O O3 0.912129 0.282955 0.085049
O O4 0.500000 0.000000 0.000000
O O5 0.167459 0.208862 0.313144
O O6 0.925885 0.339002 0.278139
O O7 0.771578 0.470125 0.330138
O O8 0.493340 0.096898 0.274390
O O9 0.816235 0.142906 0.500228
O O10 0.970063 0.121560 0.785452
O O11 0.691469 0.725129 0.925645
O O12 0.406183 0.376818 0.893047
O O13 0.203206 0.196397 0.681095
O O14 0.000000 0.000000 0.500000
#
# Coordination Sequence:
#
# PCOD9007743 Si02
#       7
#     2   2   2   2   2   1   2
#     4  11  21  36  63  91 130 170 212 269 325 380
#     4  10  21  39  62  94 127 171 221 265 322 385
#     4  10  21  41  64  94 128 174 219 265 324 391
#     4  11  22  38  63  96 130 170 219 269 330 383
#     4  11  22  42  67  95 131 170 217 273 330 384
#     4  10  24  38  66  98 130 164 214 274 332 386
#     4  10  23  43  67  93 131 175 223 269 317 390
#
# _framework density 24.316725999999999
#
# number of rings (size 3 to 8) (size 9 to 14) (size 15 to 20)
#    0.000    1.538    3.077    1.846    0.000    1.846 
#    0.000    2.308    0.000    0.000    0.000    0.000 
#    0.000    0.000    0.000    0.000    0.000    0.000 
#
# Total GULP energy -72464.202014 kJ/mol
# GULP energy per Si atom -5574.169386 kJ/mol
# Density = 2.426138 g / cm^3
# Si number density = 24.316726 Si / 1000 Ang^3
#
#
#
# Elastic Constant Matrix: (Units=GPa)
#
#
# Indices 1 2 3 4 5 6 
#
# 1 41.1822 32.9674 20.9415 3.7454 -11.1031 3.3170
# 2 32.9674 173.8819 73.8956 -10.9331 4.2825 -8.2591
# 3 20.9415 73.8956 129.4396 -5.8383 -2.8627 -2.1764
# 4 3.7454 -10.9331 -5.8383 65.9793 -14.8659 0.8648
# 5 -11.1031 4.2825 -2.8627 -14.8659 30.4056 6.4905
# 6 3.3170 -8.2591 -2.1764 0.8648 6.4905 36.9402
#
#
#
# Elastic Compliance Matrix: (Units=1/GPa)
#
#
# Indices 1 2 3 4 5 6 
#
# 1 0.035192 -0.006686 -0.001648 0.000312 0.015383 -0.007462
# 2 -0.006686 0.009060 -0.004118 0.000446 -0.004565 0.003175
# 3 -0.001648 -0.004118 0.010395 0.000643 0.001360 -0.000414
# 4 0.000312 0.000446 0.000643 0.017317 0.008978 -0.001873
# 5 0.015383 -0.004565 0.001360 0.008978 0.045930 -0.010602
# 6 -0.007462 0.003175 -0.000414 -0.001873 -0.010602 0.030333
#
#
# Mechanical properties :
#
#
# Convention : Reuss Voigt Hill
#
# Bulk Modulus (GPa) = 33.61997 66.67923 50.14960
# Shear Modulus (GPa) = 27.31566 41.11165 34.21365
#
# Velocity S-wave (km/s) = 3.35524 4.11624 3.75507
# Velocity P-wave (km/s) = 5.37272 7.07615 6.28244
#
# Compressibility (1/GPa) = 0.02974423
#
# Stress axis : x y z
#
# Youngs Moduli (GPa) = 28.41519 110.37591 96.19766
#
# Poissons Ratio (x) = 0.73794 0.15854
# Poissons Ratio (y) = 0.18997 0.39614
# Poissons Ratio (z) = 0.04683 0.45453
#
# Static dielectric constant tensor:
#      x y z
#    x 2.046160 -0.052100 0.043300 
#    y -0.052100 1.874280 0.022000 
#    z 0.043300 0.022000 2.005310 
# 
# From -- ./inp_files/23218.got.cif
#   From: 2010.05.17/outbox.cif.g08.bks.cpg/sg2_12_cif.got.tgz:23218.got - 2010.06.03 11:33:40.
