data_PCOD9007342
_publ_section_title
;
Structure prediction by ZEFSAII (Michael W. Deem and Ramdas Pophale) SiO2 
 PCOD9007342
Probable space group: P -1
;
_chemical_formula_sum "Si O2"
_cell_formula_units_Z 14
_cell_length_a 13.052881
_cell_length_b 12.316766
_cell_length_c 5.357878
_cell_angle_alpha 134.056772
_cell_angle_beta 67.548067
_cell_angle_gamma 125.892403
_cell_volume 500.999607
_symmetry_space_group_name_H-M "P -1"
_symmetry_group_IT_number 2
_symmetry_cell_setting 'triclinic'
loop_
_space_group_symop_operation_xyz
x,y,z
-x,-y,-z
loop_
_atom_site_type_symbol
_atom_site_label
_atom_site_fract_x
_atom_site_fract_y
_atom_site_fract_z
Si Si1 0.360252 0.335192 0.372645
Si Si2 0.895785 0.870273 0.574339
Si Si3 0.415820 0.786989 0.419712
Si Si4 0.782763 0.542410 0.670185
Si Si5 0.231402 0.752903 0.151170
Si Si6 0.958574 0.215504 0.303572
Si Si7 0.639605 0.950837 0.798390
O O1 0.500000 0.500000 0.500000
O O2 0.246684 0.270454 0.587997
O O3 0.285864 0.363651 0.258606
O O4 0.383666 0.174955 0.148480
O O5 0.958122 0.779485 0.529750
O O6 0.000000 0.000000 0.500000
O O7 0.881522 0.013443 0.985974
O O8 0.316197 0.589355 0.251368
O O9 0.371651 0.819845 0.245921
O O10 0.551891 0.826915 0.459396
O O11 0.389232 0.905480 0.824993
O O12 0.928646 0.671742 0.815502
O O13 0.798072 0.412008 0.249790
O O14 0.136064 0.716839 0.412956
O O15 0.232835 0.910868 0.244208
#
# Coordination Sequence:
#
# PCOD9007342 Si02
#       7
#     2   2   2   2   2   2   2
#     4  11  21  41  69  94 130 171 212 276 329 372
#     4  10  22  41  68  95 129 170 218 265 327 395
#     4  10  21  39  61  88 130 171 216 266 318 388
#     4  10  23  40  63  96 133 168 217 272 321 386
#     4  11  22  39  63  97 127 174 217 262 325 392
#     4  10  22  40  64  92 131 168 216 267 322 385
#     4  10  21  39  63  88 128 174 216 262 325 387
#
# _framework density 27.944130000000001
#
# number of rings (size 3 to 8) (size 9 to 14) (size 15 to 20)
#    0.000    1.714    1.429    2.571    0.000    4.000 
#    2.571    3.571    0.000    0.000    0.000    0.000 
#    0.000    0.000    0.000    0.000    0.000    0.000 
#
# Total GULP energy -78183.501386 kJ/mol
# GULP energy per Si atom -5584.535813 kJ/mol
# Density = 2.788053 g / cm^3
# Si number density = 27.944130 Si / 1000 Ang^3
#
#
#
# Elastic Constant Matrix: (Units=GPa)
#
#
# Indices 1 2 3 4 5 6 
#
# 1 125.6215 46.3098 31.5404 14.5167 3.3105 17.8750
# 2 46.3098 183.6660 29.9605 33.6469 2.4220 3.9582
# 3 31.5404 29.9605 97.4098 32.4379 16.3088 2.2993
# 4 14.5167 33.6469 32.4379 48.3635 3.5490 2.2448
# 5 3.3105 2.4220 16.3088 3.5490 29.9088 7.1245
# 6 17.8750 3.9582 2.2993 2.2448 7.1245 64.6839
#
#
#
# Elastic Compliance Matrix: (Units=1/GPa)
#
#
# Indices 1 2 3 4 5 6 
#
# 1 0.009699 -0.002024 -0.002788 0.000401 0.001183 -0.002602
# 2 -0.002024 0.006698 -0.000101 -0.004008 0.000147 0.000276
# 3 -0.002788 -0.000101 0.015366 -0.008924 -0.007324 0.001347
# 4 0.000401 -0.004008 -0.008924 0.029229 0.001861 -0.000768
# 5 0.001183 0.000147 -0.007324 0.001861 0.038098 -0.004336
# 6 -0.002602 0.000276 0.001347 -0.000768 -0.004336 0.016618
#
#
# Mechanical properties :
#
#
# Convention : Reuss Voigt Hill
#
# Bulk Modulus (GPa) = 45.58519 69.14653 57.36586
# Shear Modulus (GPa) = 37.63739 48.51699 43.07719
#
# Velocity S-wave (km/s) = 3.67397 4.17131 3.93051
# Velocity P-wave (km/s) = 5.86053 6.92806 6.41653
#
# Compressibility (1/GPa) = 0.02193695
#
# Stress axis : x y z
#
# Youngs Moduli (GPa) = 103.10160 149.30300 65.07924
#
# Poissons Ratio (x) = 0.30214 0.18145
# Poissons Ratio (y) = 0.20864 0.00659
# Poissons Ratio (z) = 0.28746 0.01511
#
# Static dielectric constant tensor:
#      x y z
#    x 2.332110 0.105150 -0.143420 
#    y 0.105150 2.238600 -0.112210 
#    z -0.143420 -0.112210 2.418620 
# 
# From -- ./inp_files/95619.got.cif
#   From: 2010.05.17/outbox.cif.g08.bks.cpg/sg2_48_cif.got.tgz:95619.got - 2010.06.03 11:33:40.
