data_PCOD9007166
_publ_section_title
;
Structure prediction by ZEFSAII (Michael W. Deem and Ramdas Pophale) SiO2 
 PCOD9007166
Probable space group: P -1
;
_chemical_formula_sum "Si O2"
_cell_formula_units_Z 16
_cell_length_a 15.477792
_cell_length_b 15.989491
_cell_length_c 8.793051
_cell_angle_alpha 128.106635
_cell_angle_beta 81.736461
_cell_angle_gamma 141.038219
_cell_volume 790.100023
_symmetry_space_group_name_H-M "P -1"
_symmetry_group_IT_number 2
_symmetry_cell_setting 'triclinic'
loop_
_space_group_symop_operation_xyz
x,y,z
-x,-y,-z
loop_
_atom_site_type_symbol
_atom_site_label
_atom_site_fract_x
_atom_site_fract_y
_atom_site_fract_z
Si Si1 0.252947 0.717156 0.050592
Si Si2 0.994228 0.972707 0.152174
Si Si3 0.198784 0.985157 0.239018
Si Si4 0.424862 0.493980 0.296759
Si Si5 0.349114 0.464942 0.638692
Si Si6 0.808482 0.241857 0.197361
Si Si7 0.127741 0.797217 0.343913
Si Si8 0.432979 0.093455 0.837164
O O1 0.271376 0.768757 0.926885
O O2 0.073620 0.448282 0.813988
O O3 0.204320 0.772118 0.214660
O O4 0.437234 0.855775 0.214968
O O5 0.099845 0.977456 0.173054
O O6 0.777794 0.730715 0.983087
O O7 0.131480 0.211793 0.450407
O O8 0.000000 0.000000 0.000000
O O9 0.118724 0.874877 0.302043
O O10 0.419071 0.251073 0.501927
O O11 0.166189 0.845723 0.988030
O O12 0.381164 0.472619 0.460967
O O13 0.526497 0.489576 0.256053
O O14 0.427161 0.664772 0.871617
O O15 0.000000 0.500000 0.500000
O O16 0.673790 0.076492 0.187182
O O17 0.277588 0.979221 0.641328
#
# Coordination Sequence:
#
# PCOD9007166 Si02
#       8
#     2   2   2   2   2   2   2   2
#     4  10  23  42  60  84 122 164 206 245 291 359
#     4   9  19  34  59  89 117 153 194 239 298 358
#     4  10  21  39  60  88 122 159 198 241 298 361
#     4   9  17  36  58  87 120 151 190 244 303 352
#     4   9  19  33  58  90 120 144 195 252 294 351
#     4  11  22  39  60  92 126 151 197 263 298 336
#     4  10  23  42  59  82 125 166 200 243 296 357
#     4  12  22  38  64  90 117 162 201 246 305 349
#
# _framework density 20.250599999999999
#
# number of rings (size 3 to 8) (size 9 to 14) (size 15 to 20)
#    0.000    2.000    2.500    1.500    0.000    4.000 
#    4.500    2.500    0.000    4.500    0.000    0.000 
#    0.000    0.000    0.000    0.000    0.000    0.000 
#
# Total GULP energy -89280.599312 kJ/mol
# GULP energy per Si atom -5580.037457 kJ/mol
# Density = 2.020451 g / cm^3
# Si number density = 20.250600 Si / 1000 Ang^3
#
#
#
# Elastic Constant Matrix: (Units=GPa)
#
#
# Indices 1 2 3 4 5 6 
#
# 1 53.4196 46.9054 32.1770 14.8709 9.6076 -13.2836
# 2 46.9054 62.1712 50.6738 16.4651 2.5623 -12.9212
# 3 32.1770 50.6738 118.3379 45.4484 6.4711 1.9111
# 4 14.8709 16.4651 45.4484 27.5743 -5.7013 -3.9578
# 5 9.6076 2.5623 6.4711 -5.7013 27.9676 1.8279
# 6 -13.2836 -12.9212 1.9111 -3.9578 1.8279 21.6029
#
#
#
# Elastic Compliance Matrix: (Units=1/GPa)
#
#
# Indices 1 2 3 4 5 6 
#
# 1 0.130621 -0.125008 0.077686 -0.143218 -0.079226 -0.020859
# 2 -0.125008 0.156789 -0.103045 0.168025 0.083422 0.049752
# 3 0.077686 -0.103045 0.100518 -0.167647 -0.071581 -0.047414
# 4 -0.143218 0.168025 -0.167647 0.328218 0.134535 0.076014
# 5 -0.079226 0.083422 -0.071581 0.134535 0.097755 0.023889
# 6 -0.020859 0.049752 -0.047414 0.076014 0.023889 0.079321
#
#
# Mechanical properties :
#
#
# Convention : Reuss Voigt Hill
#
# Bulk Modulus (GPa) = 11.46863 54.82681 33.14772
# Shear Modulus (GPa) = 4.08824 22.37378 13.23101
#
# Velocity S-wave (km/s) = 1.42239 3.32753 2.55887
# Velocity P-wave (km/s) = 2.89366 6.47273 5.01345
#
# Compressibility (1/GPa) = 0.08719437
#
# Stress axis : x y z
#
# Youngs Moduli (GPa) = 7.65574 6.37800 9.94850
#
# Poissons Ratio (x) = 0.79730 -0.77286
# Poissons Ratio (y) = 0.95703 1.02514
# Poissons Ratio (z) = -0.59474 0.65722
#
# Static dielectric constant tensor:
#      x y z
#    x 1.710860 0.005280 0.002790 
#    y 0.005280 1.715070 0.006230 
#    z 0.002790 0.006230 1.726550 
# 
# From -- ./inp_files/306333.got.cif
#   From: 2010.05.17/outbox.cif.g08.bks.cpg/sg2_154_cif.got.tgz:306333.got - 2010.06.03 11:33:40.
