data_PCOD9007757
_publ_section_title
;
Structure prediction by ZEFSAII (Michael W. Deem and Ramdas Pophale) SiO2 
 PCOD9007757
Probable space group: P -1
;
_chemical_formula_sum "Si O2"
_cell_formula_units_Z 14
_cell_length_a 6.948987
_cell_length_b 15.931312
_cell_length_c 14.366446
_cell_angle_alpha 144.858123
_cell_angle_beta 45.908052
_cell_angle_gamma 138.866471
_cell_volume 588.646922
_symmetry_space_group_name_H-M "P -1"
_symmetry_group_IT_number 2
_symmetry_cell_setting 'triclinic'
loop_
_space_group_symop_operation_xyz
x,y,z
-x,-y,-z
loop_
_atom_site_type_symbol
_atom_site_label
_atom_site_fract_x
_atom_site_fract_y
_atom_site_fract_z
Si Si1 0.983960 0.364228 0.510986
Si Si2 0.323123 0.682975 0.049903
Si Si3 0.089586 0.105201 0.437790
Si Si4 0.508045 0.990648 0.643044
Si Si5 0.537124 0.474643 0.651825
Si Si6 0.130070 0.238396 0.849814
Si Si7 0.212159 0.555065 0.181072
O O1 0.796604 0.171139 0.415328
O O2 0.772349 0.431271 0.591071
O O3 0.038157 0.448811 0.669677
O O4 0.272130 0.412227 0.394333
O O5 0.422969 0.576810 0.851652
O O6 0.213338 0.598941 0.111617
O O7 0.071027 0.724245 0.123643
O O8 0.560688 0.867229 0.161733
O O9 0.286879 0.062117 0.407517
O O10 0.295527 0.297110 0.535440
O O11 0.756104 0.073086 0.553063
O O12 0.015095 0.952738 0.254410
O O13 0.471052 0.306979 0.761767
O O14 0.185253 0.373529 0.032196
#
# Coordination Sequence:
#
# PCOD9007757 Si02
#       7
#     2   2   2   2   2   2   2
#     4  10  21  42  59  91 133 168 202 256 319 380
#     4  11  24  37  65 100 121 162 214 264 306 367
#     4   9  18  35  60  92 121 164 208 254 310 372
#     4   9  19  34  62  90 125 159 210 260 305 363
#     4  10  22  38  65  90 128 173 204 248 327 379
#     4  10  21  39  62  95 127 157 212 267 307 359
#     4  11  22  37  66  95 124 160 213 264 307 365
#
# _framework density 23.783356000000001
#
# number of rings (size 3 to 8) (size 9 to 14) (size 15 to 20)
#    0.000    2.000    1.429    2.143   10.000    1.143 
#    0.000    1.429    0.000    3.429    0.000    0.000 
#    0.000    1.143    0.000    0.000    0.000    0.000 
#
# Total GULP energy -78096.595979 kJ/mol
# GULP energy per Si atom -5578.328284 kJ/mol
# Density = 2.372922 g / cm^3
# Si number density = 23.783356 Si / 1000 Ang^3
#
#
#
# Elastic Constant Matrix: (Units=GPa)
#
#
# Indices 1 2 3 4 5 6 
#
# 1 86.8789 34.6640 38.0766 -1.2774 -14.9385 3.8677
# 2 34.6640 171.2713 118.6328 15.1197 7.7781 15.4103
# 3 38.0766 118.6328 191.5098 25.6770 1.8896 6.5588
# 4 -1.2774 15.1197 25.6770 53.0187 -1.8630 4.9016
# 5 -14.9385 7.7781 1.8896 -1.8630 28.7266 8.1755
# 6 3.8677 15.4103 6.5588 4.9016 8.1755 30.6775
#
#
#
# Elastic Compliance Matrix: (Units=1/GPa)
#
#
# Indices 1 2 3 4 5 6 
#
# 1 0.015064 -0.001936 -0.002121 0.002602 0.009651 -0.003461
# 2 -0.001936 0.011002 -0.006303 0.000075 -0.002643 -0.003242
# 3 -0.002121 -0.006303 0.009926 -0.003281 -0.000849 0.002062
# 4 0.002602 0.000075 -0.003281 0.021015 0.004081 -0.004110
# 5 0.009651 -0.002643 -0.000849 0.004081 0.044331 -0.012173
# 6 -0.003461 -0.003242 0.002062 -0.004110 -0.012173 0.038122
#
#
# Mechanical properties :
#
#
# Convention : Reuss Voigt Hill
#
# Bulk Modulus (GPa) = 65.48585 92.48965 78.98775
# Shear Modulus (GPa) = 30.25350 39.70367 34.97858
#
# Velocity S-wave (km/s) = 3.57044 4.09025 3.83915
# Velocity P-wave (km/s) = 6.67769 7.82813 7.27568
#
# Compressibility (1/GPa) = 0.01527048
#
# Stress axis : x y z
#
# Youngs Moduli (GPa) = 66.38211 90.89630 100.74974
#
# Poissons Ratio (x) = 0.17599 0.21372
# Poissons Ratio (y) = 0.12853 0.63503
# Poissons Ratio (z) = 0.14081 0.57292
#
# Static dielectric constant tensor:
#      x y z
#    x 2.090280 -0.002800 0.021280 
#    y -0.002800 1.890390 0.035880 
#    z 0.021280 0.035880 1.969580 
# 
# From -- ./inp_files/507315.got.cif
#   From: 2010.05.17/outbox.cif.g08.bks.cpg/sg2_254_cif.got.tgz:507315.got - 2010.06.03 11:33:40.
