data_PCOD9007420
_publ_section_title
;
Structure prediction by ZEFSAII (Michael W. Deem and Ramdas Pophale) SiO2 
 PCOD9007420
Probable space group: P -1
;
_chemical_formula_sum "Si O2"
_cell_formula_units_Z 16
_cell_length_a 11.657893
_cell_length_b 15.080730
_cell_length_c 9.804175
_cell_angle_alpha 39.140456
_cell_angle_beta 129.982549
_cell_angle_gamma 146.393021
_cell_volume 602.182582
_symmetry_space_group_name_H-M "P -1"
_symmetry_group_IT_number 2
_symmetry_cell_setting 'triclinic'
loop_
_space_group_symop_operation_xyz
x,y,z
-x,-y,-z
loop_
_atom_site_type_symbol
_atom_site_label
_atom_site_fract_x
_atom_site_fract_y
_atom_site_fract_z
Si Si1 0.689518 0.969207 0.270607
Si Si2 0.320945 0.531313 0.190633
Si Si3 0.232344 0.661619 0.711929
Si Si4 0.728730 0.542475 0.214964
Si Si5 0.223906 0.672864 0.171278
Si Si6 0.270415 0.274731 0.258773
Si Si7 0.911408 0.143467 0.694092
Si Si8 0.786210 0.879017 0.170320
O O1 0.437900 0.801739 0.264431
O O2 0.759110 0.905964 0.514096
O O3 0.779785 0.967666 0.197496
O O4 0.750891 0.170669 0.087319
O O5 0.208945 0.527096 0.238339
O O6 0.209316 0.326316 0.282167
O O7 0.559168 0.660607 0.258229
O O8 0.317102 0.647314 0.930947
O O9 0.328735 0.640812 0.683520
O O10 0.991878 0.454470 0.765497
O O11 0.235193 0.831043 0.508087
O O12 0.518157 0.461418 0.215554
O O13 0.906952 0.655393 0.326695
O O14 0.799999 0.699906 0.965328
O O15 0.032569 0.117159 0.717547
O O16 0.800349 0.981762 0.920792
#
# Coordination Sequence:
#
# PCOD9007420 Si02
#       8
#     2   2   2   2   2   2   2   2
#     4  10  22  41  64  92 123 170 204 254 313 363
#     4  10  22  41  62  91 127 160 207 255 305 373
#     4  11  23  38  64  92 124 167 202 258 313 364
#     4  10  21  39  61  92 124 158 211 252 299 375
#     4  10  22  39  62  95 129 156 212 257 303 372
#     4  10  21  39  66  91 122 167 205 251 308 366
#     4  11  22  40  62  92 125 165 205 259 309 363
#     4  10  23  40  62  89 129 159 211 257 300 376
#
# _framework density 26.570015999999999
#
# number of rings (size 3 to 8) (size 9 to 14) (size 15 to 20)
#    0.000    1.750    1.250    2.250    1.750    4.500 
#    4.500    3.125    0.000    0.000    0.000    0.000 
#    0.000    0.000    0.000    0.000    0.000    0.000 
#
# Total GULP energy -89698.457595 kJ/mol
# GULP energy per Si atom -5606.153600 kJ/mol
# Density = 2.650954 g / cm^3
# Si number density = 26.570016 Si / 1000 Ang^3
#
#
#
# Elastic Constant Matrix: (Units=GPa)
#
#
# Indices 1 2 3 4 5 6 
#
# 1 98.4154 8.2106 23.1074 1.2163 6.1288 1.5092
# 2 8.2106 57.2874 22.8507 7.3026 -2.8188 7.4217
# 3 23.1074 22.8507 161.0540 4.3652 21.0939 3.7782
# 4 1.2163 7.3026 4.3652 22.6273 0.9320 3.9481
# 5 6.1288 -2.8188 21.0939 0.9320 38.7784 -4.7666
# 6 1.5092 7.4217 3.7782 3.9481 -4.7666 30.9523
#
#
#
# Elastic Compliance Matrix: (Units=1/GPa)
#
#
# Indices 1 2 3 4 5 6 
#
# 1 0.010610 -0.001065 -0.001219 0.000108 -0.001131 -0.000301
# 2 -0.001065 0.019995 -0.002841 -0.005398 0.002896 -0.003261
# 3 -0.001219 -0.002841 0.007346 -0.000131 -0.004101 -0.000771
# 4 0.000108 -0.005398 -0.000131 0.046914 -0.002080 -0.004999
# 5 -0.001131 0.002896 -0.004101 -0.002080 0.029023 0.004596
# 6 -0.000301 -0.003261 -0.000771 -0.004999 0.004596 0.034544
#
#
# Mechanical properties :
#
#
# Convention : Reuss Voigt Hill
#
# Bulk Modulus (GPa) = 36.09896 47.23269 41.66582
# Shear Modulus (GPa) = 29.77732 35.97748 32.87740
#
# Velocity S-wave (km/s) = 3.35133 3.68375 3.52147
# Velocity P-wave (km/s) = 5.34707 5.99238 5.67890
#
# Compressibility (1/GPa) = 0.02770163
#
# Stress axis : x y z
#
# Youngs Moduli (GPa) = 94.25297 50.01366 136.13184
#
# Poissons Ratio (x) = 0.05325 0.16593
# Poissons Ratio (y) = 0.10036 0.38669
# Poissons Ratio (z) = 0.11489 0.14207
#
# Static dielectric constant tensor:
#      x y z
#    x 1.987430 0.007650 0.003560 
#    y 0.007650 2.017380 -0.004160 
#    z 0.003560 -0.004160 2.076580 
# 
# From -- ./inp_files/436434.got.cif
#   From: 2010.05.17/outbox.cif.g08.bks.cpg/sg2_219_cif.got.tgz:436434.got - 2010.06.03 11:33:40.
