data_PCOD9007048
_publ_section_title
;
Structure prediction by ZEFSAII (Michael W. Deem and Ramdas Pophale) SiO2 
 PCOD9007048
Probable space group: P -1
;
_chemical_formula_sum "Si O2"
_cell_formula_units_Z 16
_cell_length_a 8.987382
_cell_length_b 9.769957
_cell_length_c 16.593187
_cell_angle_alpha 73.087494
_cell_angle_beta 100.305265
_cell_angle_gamma 44.433201
_cell_volume 796.898083
_symmetry_space_group_name_H-M "P -1"
_symmetry_group_IT_number 2
_symmetry_cell_setting 'triclinic'
loop_
_space_group_symop_operation_xyz
x,y,z
-x,-y,-z
loop_
_atom_site_type_symbol
_atom_site_label
_atom_site_fract_x
_atom_site_fract_y
_atom_site_fract_z
Si Si1 0.640762 0.152973 0.784292
Si Si2 0.897798 0.588967 0.100476
Si Si3 0.391013 0.464029 0.872331
Si Si4 0.295134 0.664399 0.380622
Si Si5 0.795654 0.447716 0.753139
Si Si6 0.587772 0.874370 0.866895
Si Si7 0.302801 0.853511 0.752940
Si Si8 0.089618 0.938783 0.927708
O O1 0.501480 0.336929 0.815698
O O2 0.627267 0.262022 0.684416
O O3 0.542452 0.066081 0.791628
O O4 0.949698 0.911819 0.877978
O O5 0.823478 0.488445 0.138388
O O6 0.989361 0.604643 0.186105
O O7 0.155141 0.388163 0.105377
O O8 0.669639 0.822933 0.978189
O O9 0.327791 0.679408 0.826276
O O10 0.605660 0.281204 0.994813
O O11 0.500000 0.500000 0.500000
O O12 0.286329 0.524936 0.350591
O O13 0.998821 0.907810 0.342196
O O14 0.526982 0.682492 0.735676
O O15 0.937971 0.190669 0.835406
O O16 0.368111 0.931604 0.807950
O O17 0.000000 0.000000 0.000000
#
# Coordination Sequence:
#
# PCOD9007048 Si02
#       8
#     2   2   2   2   2   2   2   2
#     4  10  21  39  59  88 129 161 209 265 302 371
#     4  10  22  34  59  92 137 173 206 240 303 378
#     4  11  21  35  63  92 131 181 202 240 314 375
#     4  11  25  45  70  92 115 161 221 279 327 365
#     4  10  21  42  58  95 130 165 205 264 304 379
#     4  10  23  37  57  96 135 167 210 248 295 388
#     4  11  23  41  65  92 130 168 210 259 317 369
#     4   9  16  30  57  82 128 165 200 231 293 372
#
# _framework density 20.077849000000001
#
# number of rings (size 3 to 8) (size 9 to 14) (size 15 to 20)
#    0.000    1.750    3.750    2.250    8.750    2.000 
#    0.000    0.625    0.000    2.250    0.000    0.000 
#    0.000    0.000    0.000    0.000    0.000    0.000 
#
# Total GULP energy -89212.672238 kJ/mol
# GULP energy per Si atom -5575.792015 kJ/mol
# Density = 2.003215 g / cm^3
# Si number density = 20.077849 Si / 1000 Ang^3
#
#
#
# Elastic Constant Matrix: (Units=GPa)
#
#
# Indices 1 2 3 4 5 6 
#
# 1 109.7602 32.1132 54.4485 0.0649 21.6735 24.7914
# 2 32.1132 77.2380 43.4684 4.2191 17.0763 8.5522
# 3 54.4485 43.4684 150.9743 7.5673 25.8191 10.4091
# 4 0.0649 4.2191 7.5673 22.1284 -0.7530 6.9596
# 5 21.6735 17.0763 25.8191 -0.7530 27.2635 1.8763
# 6 24.7914 8.5522 10.4091 6.9596 1.8763 38.5645
#
#
#
# Elastic Compliance Matrix: (Units=1/GPa)
#
#
# Indices 1 2 3 4 5 6 
#
# 1 0.014439 -0.002094 -0.003100 0.003821 -0.006551 -0.008352
# 2 -0.002094 0.017065 -0.002913 -0.002163 -0.006259 -0.000957
# 3 -0.003100 -0.002913 0.009508 -0.003127 -0.004862 0.000873
# 4 0.003821 -0.002163 -0.003127 0.050023 0.003371 -0.010324
# 5 -0.006551 -0.006259 -0.004862 0.003371 0.050239 0.003859
# 6 -0.008352 -0.000957 0.000873 -0.010324 0.003859 0.032951
#
#
# Mechanical properties :
#
#
# Convention : Reuss Voigt Hill
#
# Bulk Modulus (GPa) = 40.32662 66.44808 53.38735
# Shear Modulus (GPa) = 25.16269 31.45412 28.30840
#
# Velocity S-wave (km/s) = 3.54398 3.96233 3.75898
# Velocity P-wave (km/s) = 6.07249 7.35531 6.74446
#
# Compressibility (1/GPa) = 0.02479751
#
# Stress axis : x y z
#
# Youngs Moduli (GPa) = 69.25722 58.59896 105.17009
#
# Poissons Ratio (x) = 0.12273 0.32600
# Poissons Ratio (y) = 0.14506 0.30639
# Poissons Ratio (z) = 0.21468 0.17072
#
# Static dielectric constant tensor:
#      x y z
#    x 1.718120 -0.007490 -0.025530 
#    y -0.007490 1.809950 0.061550 
#    z -0.025530 0.061550 1.620870 
# 
# From -- ./inp_files/557182.got.cif
#   From: 2010.05.17/outbox.cif.g08.bks.cpg/sg2_279_cif.got.tgz:557182.got - 2010.06.03 11:33:40.
