data_PCOD9007768
_publ_section_title
;
Structure prediction by ZEFSAII (Michael W. Deem and Ramdas Pophale) SiO2 
 PCOD9007768
Probable space group: P -1
;
_chemical_formula_sum "Si O2"
_cell_formula_units_Z 16
_cell_length_a 9.484937
_cell_length_b 10.576293
_cell_length_c 16.302609
_cell_angle_alpha 125.531494
_cell_angle_beta 56.454509
_cell_angle_gamma 79.544860
_cell_volume 744.811317
_symmetry_space_group_name_H-M "P -1"
_symmetry_group_IT_number 2
_symmetry_cell_setting 'triclinic'
loop_
_space_group_symop_operation_xyz
x,y,z
-x,-y,-z
loop_
_atom_site_type_symbol
_atom_site_label
_atom_site_fract_x
_atom_site_fract_y
_atom_site_fract_z
Si Si1 0.381771 0.693596 0.813744
Si Si2 0.725459 0.060594 0.675724
Si Si3 0.087131 0.521844 0.396486
Si Si4 0.841877 0.045811 0.188586
Si Si5 0.966623 0.521408 0.260728
Si Si6 0.435013 0.740324 0.492399
Si Si7 0.962377 0.879146 0.358434
Si Si8 0.173577 0.299975 0.938109
O O1 0.627649 0.613008 0.736988
O O2 0.283250 0.833545 0.812994
O O3 0.463739 0.463227 0.676776
O O4 0.141658 0.862977 0.014925
O O5 0.797549 0.043662 0.551854
O O6 0.901315 0.796121 0.546390
O O7 0.436432 0.210747 0.828010
O O8 0.807557 0.157605 0.735532
O O9 0.065727 0.430210 0.286920
O O10 0.000000 0.500000 0.500000
O O11 0.704335 0.237396 0.375446
O O12 0.787895 0.904388 0.175416
O O13 0.670188 0.686892 0.421103
O O14 0.031805 0.655102 0.268537
O O15 0.063556 0.365159 0.090742
O O16 0.221788 0.982142 0.606011
O O17 0.000000 0.500000 0.000000
#
# Coordination Sequence:
#
# PCOD9007768 Si02
#       8
#     2   2   2   2   2   2   2   2
#     4  11  24  45  69  96 136 173 225 276 335 397
#     4  10  22  39  64  91 135 172 218 275 331 396
#     4  11  23  45  67  95 134 180 219 275 339 396
#     4  11  25  42  68 101 132 172 228 282 323 404
#     4  11  24  39  67  97 135 175 224 279 330 401
#     4  12  21  43  70  97 132 177 223 272 348 392
#     4  10  21  39  62  96 124 174 223 269 334 398
#     4  12  24  42  65 100 139 176 222 280 336 396
#
# _framework density 21.481950000000001
#
# number of rings (size 3 to 8) (size 9 to 14) (size 15 to 20)
#    0.000    1.000    2.500    5.250    0.000    1.500 
#    0.000    1.250    0.000    0.000    0.000    0.000 
#    0.000    0.000    0.000    0.000    0.000    0.000 
#
# Total GULP energy -89427.290361 kJ/mol
# GULP energy per Si atom -5589.205648 kJ/mol
# Density = 2.143306 g / cm^3
# Si number density = 21.481950 Si / 1000 Ang^3
#
#
#
# Elastic Constant Matrix: (Units=GPa)
#
#
# Indices 1 2 3 4 5 6 
#
# 1 92.8965 23.7376 38.5466 -12.7845 -30.9000 -25.2211
# 2 23.7376 86.8320 19.8836 -7.9939 -8.9739 -16.3269
# 3 38.5466 19.8836 112.3488 -17.3724 -27.5406 -19.9705
# 4 -12.7845 -7.9939 -17.3724 26.3802 -0.9073 3.7120
# 5 -30.9000 -8.9739 -27.5406 -0.9073 49.8488 2.7959
# 6 -25.2211 -16.3269 -19.9705 3.7120 2.7959 34.3130
#
#
#
# Elastic Compliance Matrix: (Units=1/GPa)
#
#
# Indices 1 2 3 4 5 6 
#
# 1 0.018942 -0.001134 -0.000510 0.007263 0.010747 0.011426
# 2 -0.001134 0.013188 -0.000388 0.002553 0.001232 0.004839
# 3 -0.000510 -0.000388 0.012927 0.007586 0.006580 0.005607
# 4 0.007263 0.002553 0.007586 0.046811 0.009718 0.005112
# 5 0.010747 0.001232 0.006580 0.009718 0.030263 0.008798
# 6 0.011426 0.004839 0.005607 0.005112 0.008798 0.041838
#
#
# Mechanical properties :
#
#
# Convention : Reuss Voigt Hill
#
# Bulk Modulus (GPa) = 24.39432 50.71252 37.55342
# Shear Modulus (GPa) = 27.51840 36.10238 31.81039
#
# Velocity S-wave (km/s) = 3.58299 4.10395 3.85229
# Velocity P-wave (km/s) = 5.33830 6.79079 6.10788
#
# Compressibility (1/GPa) = 0.04099316
#
# Stress axis : x y z
#
# Youngs Moduli (GPa) = 52.79167 75.82921 77.35709
#
# Poissons Ratio (x) = 0.08599 0.03944
# Poissons Ratio (y) = 0.05986 0.03002
# Poissons Ratio (z) = 0.02692 0.02943
#
# Static dielectric constant tensor:
#      x y z
#    x 1.799480 -0.003970 0.050530 
#    y -0.003970 1.774790 -0.027460 
#    z 0.050530 -0.027460 1.813700 
# 
# From -- ./inp_files/239537.got.cif
#   From: 2010.05.17/outbox.cif.g08.bks.cpg/sg2_120_cif.got.tgz:239537.got - 2010.06.03 11:33:40.
