data_PCOD9007598
_publ_section_title
;
Structure prediction by ZEFSAII (Michael W. Deem and Ramdas Pophale) SiO2 
 PCOD9007598
Probable space group: P -1
;
_chemical_formula_sum "Si O2"
_cell_formula_units_Z 16
_cell_length_a 22.202794
_cell_length_b 7.255768
_cell_length_c 7.997906
_cell_angle_alpha 56.577649
_cell_angle_beta 137.142757
_cell_angle_gamma 98.622080
_cell_volume 654.244633
_symmetry_space_group_name_H-M "P -1"
_symmetry_group_IT_number 2
_symmetry_cell_setting 'triclinic'
loop_
_space_group_symop_operation_xyz
x,y,z
-x,-y,-z
loop_
_atom_site_type_symbol
_atom_site_label
_atom_site_fract_x
_atom_site_fract_y
_atom_site_fract_z
Si Si1 0.893942 0.212844 0.236227
Si Si2 0.048226 0.721567 0.306463
Si Si3 0.743967 0.450963 0.311651
Si Si4 0.301576 0.464813 0.212385
Si Si5 0.540765 0.779486 0.826778
Si Si6 0.274694 0.020923 0.550689
Si Si7 0.909583 0.604421 0.889004
Si Si8 0.511764 0.310226 0.879100
O O1 0.919971 0.277170 0.440468
O O2 0.779689 0.271233 0.009514
O O3 0.875088 0.398619 0.952790
O O4 0.000000 0.000000 0.500000
O O5 0.147327 0.567574 0.477069
O O6 0.965208 0.630893 0.155893
O O7 0.000000 0.000000 0.000000
O O8 0.748745 0.182346 0.493177
O O9 0.702727 0.514673 0.005914
O O10 0.660364 0.658712 0.148968
O O11 0.410889 0.391087 0.535394
O O12 0.271979 0.247624 0.320387
O O13 0.520894 0.555997 0.826162
O O14 0.500000 0.000000 0.500000
O O15 0.492920 0.826901 0.889787
O O16 0.187518 0.139403 0.451031
O O17 0.386901 0.868917 0.917487
O O18 0.000000 0.500000 0.000000
#
# Coordination Sequence:
#
# PCOD9007598 Si02
#       8
#     2   2   2   2   2   2   2   2
#     4  10  23  41  60  93 129 163 211 267 314 382
#     4  11  21  40  65  89 123 166 210 258 324 376
#     4  10  22  39  63  89 123 160 209 251 314 378
#     4  10  22  39  62  89 123 160 208 254 313 374
#     4  10  22  40  60  89 127 159 206 257 306 376
#     4  10  21  39  62  89 121 161 201 259 313 375
#     4  11  23  40  64  92 124 165 213 263 320 380
#     4  10  22  40  61  90 123 162 205 256 315 370
#
# _framework density 24.455684000000002
#
# number of rings (size 3 to 8) (size 9 to 14) (size 15 to 20)
#    0.000    1.750    1.250    2.250    1.750    6.000 
#    4.500    0.000    0.000    0.000    0.000    0.000 
#    0.000    0.000    0.000    0.000    0.000    0.000 
#
# Total GULP energy -89322.523947 kJ/mol
# GULP energy per Si atom -5582.657747 kJ/mol
# Density = 2.440002 g / cm^3
# Si number density = 24.455684 Si / 1000 Ang^3
#
#
#
# Elastic Constant Matrix: (Units=GPa)
#
#
# Indices 1 2 3 4 5 6 
#
# 1 122.3637 17.7747 67.1641 -8.4291 30.8087 -9.1193
# 2 17.7747 34.0475 25.1153 -2.6466 12.0360 0.7822
# 3 67.1641 25.1153 144.4802 -6.6647 38.1521 -8.5311
# 4 -8.4291 -2.6466 -6.6647 42.8378 -3.5959 4.9330
# 5 30.8087 12.0360 38.1521 -3.5959 70.5183 -13.3024
# 6 -9.1193 0.7822 -8.5311 4.9330 -13.3024 38.3670
#
#
#
# Elastic Compliance Matrix: (Units=1/GPa)
#
#
# Indices 1 2 3 4 5 6 
#
# 1 0.011530 -0.001997 -0.004346 0.001185 -0.002109 0.000931
# 2 -0.001997 0.035027 -0.004439 0.001204 -0.003298 -0.003474
# 3 -0.004346 -0.004439 0.010526 0.000220 -0.002963 0.000343
# 4 0.001185 0.001204 0.000220 0.023999 -0.000153 -0.002833
# 5 -0.002109 -0.003298 -0.002963 -0.000153 0.018251 0.005255
# 6 0.000931 -0.003474 0.000343 -0.002833 0.005255 0.028619
#
#
# Mechanical properties :
#
#
# Convention : Reuss Voigt Hill
#
# Bulk Modulus (GPa) = 28.15437 57.88886 43.02161
# Shear Modulus (GPa) = 30.98723 43.06711 37.02717
#
# Velocity S-wave (km/s) = 3.56346 4.20101 3.89530
# Velocity P-wave (km/s) = 5.33558 6.87413 6.15313
#
# Compressibility (1/GPa) = 0.03551846
#
# Stress axis : x y z
#
# Youngs Moduli (GPa) = 86.72955 28.54923 95.00149
#
# Poissons Ratio (x) = 0.05702 0.41290
# Poissons Ratio (y) = 0.17321 0.42173
# Poissons Ratio (z) = 0.37695 0.12673
#
# Static dielectric constant tensor:
#      x y z
#    x 1.991270 -0.021470 0.050480 
#    y -0.021470 2.057710 0.008270 
#    z 0.050480 0.008270 1.981820 
# 
# From -- ./inp_files/328510.got.cif
#   From: 2010.05.17/outbox.cif.g08.bks.cpg/sg2_165_cif.got.tgz:328510.got - 2010.06.03 11:33:40.
