data_PCOD9007124
_publ_section_title
;
Structure prediction by ZEFSAII (Michael W. Deem and Ramdas Pophale) SiO2 
 PCOD9007124
Probable space group: P -1
;
_chemical_formula_sum "Si O2"
_cell_formula_units_Z 16
_cell_length_a 5.131459
_cell_length_b 30.333130
_cell_length_c 15.018129
_cell_angle_alpha 159.167920
_cell_angle_beta 65.197868
_cell_angle_gamma 113.272671
_cell_volume 754.614798
_symmetry_space_group_name_H-M "P -1"
_symmetry_group_IT_number 2
_symmetry_cell_setting 'triclinic'
loop_
_space_group_symop_operation_xyz
x,y,z
-x,-y,-z
loop_
_atom_site_type_symbol
_atom_site_label
_atom_site_fract_x
_atom_site_fract_y
_atom_site_fract_z
Si Si1 0.696344 0.887760 0.324819
Si Si2 0.346968 0.649533 0.889313
Si Si3 0.396897 0.600412 0.086334
Si Si4 0.073230 0.289991 0.289369
Si Si5 0.865916 0.979842 0.294927
Si Si6 0.081785 0.569880 0.248146
Si Si7 0.308496 0.589328 0.581709
Si Si8 0.154190 0.228224 0.734976
O O1 0.903248 0.945111 0.328994
O O2 0.836905 0.811379 0.238391
O O3 0.469083 0.980926 0.578541
O O4 0.500793 0.782473 0.105151
O O5 0.228586 0.603063 0.723300
O O6 0.572635 0.550199 0.706407
O O7 0.094246 0.669515 0.034387
O O8 0.670398 0.527036 0.946190
O O9 0.210620 0.505183 0.873808
O O10 0.190259 0.633800 0.261597
O O11 0.543950 0.717141 0.236809
O O12 0.949778 0.338510 0.491696
O O13 0.917987 0.361880 0.365554
O O14 0.406682 0.327003 0.311606
O O15 0.055252 0.142913 0.000583
O O16 0.042328 0.100768 0.466304
#
# Coordination Sequence:
#
# PCOD9007124 Si02
#       8
#     2   2   2   2   2   2   2   2
#     4  10  21  39  60  85 126 177 220 262 297 367
#     4  10  23  37  57  94 128 170 214 266 314 373
#     4  10  23  44  68  98 123 160 209 266 331 385
#     4  12  24  40  65  91 130 173 209 261 323 383
#     4  10  23  39  57  91 126 179 218 256 303 371
#     4  10  23  43  69  96 128 156 205 272 332 388
#     4  11  25  38  60  93 135 169 210 259 323 386
#     4  11  23  37  67  87 127 172 222 261 308 378
#
# _framework density 21.202871999999999
#
# number of rings (size 3 to 8) (size 9 to 14) (size 15 to 20)
#    0.000    1.500    1.250    2.625   10.500    1.000 
#    0.000    0.625    0.000    0.750    0.000    0.000 
#    0.000    0.000    0.000    0.000    0.000    0.000 
#
# Total GULP energy -89454.526320 kJ/mol
# GULP energy per Si atom -5590.907895 kJ/mol
# Density = 2.115461 g / cm^3
# Si number density = 21.202872 Si / 1000 Ang^3
#
#
#
# Elastic Constant Matrix: (Units=GPa)
#
#
# Indices 1 2 3 4 5 6 
#
# 1 73.2240 24.4632 22.5959 12.0193 14.9685 7.4210
# 2 24.4632 89.4310 53.4425 5.2473 12.0169 26.8706
# 3 22.5959 53.4425 129.5418 -1.9987 0.9822 12.9965
# 4 12.0193 5.2473 -1.9987 25.8201 -0.2630 8.2976
# 5 14.9685 12.0169 0.9822 -0.2630 19.3152 7.5105
# 6 7.4210 26.8706 12.9965 8.2976 7.5105 34.8521
#
#
#
# Elastic Compliance Matrix: (Units=1/GPa)
#
#
# Indices 1 2 3 4 5 6 
#
# 1 0.019849 -0.002244 -0.003040 -0.010647 -0.015753 0.004566
# 2 -0.002244 0.019923 -0.006669 -0.000015 -0.006001 -0.011099
# 3 -0.003040 -0.006669 0.011075 0.003887 0.006231 -0.000609
# 4 -0.010647 -0.000015 0.003887 0.048556 0.014076 -0.013765
# 5 -0.015753 -0.006001 0.006231 0.014076 0.072792 -0.013380
# 6 0.004566 -0.011099 -0.000609 -0.013765 -0.013380 0.042665
#
#
# Mechanical properties :
#
#
# Convention : Reuss Voigt Hill
#
# Bulk Modulus (GPa) = 37.11657 54.80000 45.95828
# Shear Modulus (GPa) = 20.18195 28.77716 24.47956
#
# Velocity S-wave (km/s) = 3.08855 3.68806 3.40154
# Velocity P-wave (km/s) = 5.50112 6.63606 6.09507
#
# Compressibility (1/GPa) = 0.02694215
#
# Stress axis : x y z
#
# Youngs Moduli (GPa) = 50.37948 50.19322 90.29474
#
# Poissons Ratio (x) = 0.11263 0.27446
# Poissons Ratio (y) = 0.11305 0.60218
# Poissons Ratio (z) = 0.15313 0.33474
#
# Static dielectric constant tensor:
#      x y z
#    x 1.853870 -0.007700 0.031230 
#    y -0.007700 1.796660 0.014820 
#    z 0.031230 0.014820 1.795340 
# 
# From -- ./inp_files/486304.got.cif
#   From: 2010.05.17/outbox.cif.g08.bks.cpg/sg2_244_cif.got.tgz:486304.got - 2010.06.03 11:33:40.
