data_PCOD9007536
_publ_section_title
;
Structure prediction by ZEFSAII (Michael W. Deem and Ramdas Pophale) SiO2 
 PCOD9007536
Probable space group: P -1
;
_chemical_formula_sum "Si O2"
_cell_formula_units_Z 14
_cell_length_a 12.145507
_cell_length_b 14.550790
_cell_length_c 9.762810
_cell_angle_alpha 141.184004
_cell_angle_beta 130.881483
_cell_angle_gamma 29.857497
_cell_volume 537.162596
_symmetry_space_group_name_H-M "P -1"
_symmetry_group_IT_number 2
_symmetry_cell_setting 'triclinic'
loop_
_space_group_symop_operation_xyz
x,y,z
-x,-y,-z
loop_
_atom_site_type_symbol
_atom_site_label
_atom_site_fract_x
_atom_site_fract_y
_atom_site_fract_z
Si Si1 0.983150 0.527579 0.718428
Si Si2 0.058411 0.952098 0.768665
Si Si3 0.966052 0.324890 0.696479
Si Si4 0.513552 0.750914 0.221226
Si Si5 0.460460 0.469021 0.255835
Si Si6 0.310426 0.856213 0.474550
Si Si7 0.893303 0.812384 0.765307
O O1 0.947581 0.493716 0.802701
O O2 0.852034 0.763810 0.822163
O O3 0.242229 0.371389 0.738259
O O4 0.954170 0.416311 0.458305
O O5 0.021038 0.804932 0.570677
O O6 0.322231 0.757793 0.755752
O O7 0.898128 0.096486 0.676296
O O8 0.994431 0.117799 0.023894
O O9 0.754680 0.441564 0.748804
O O10 0.189973 0.101018 0.696465
O O11 0.443359 0.782133 0.356526
O O12 0.332515 0.987320 0.268495
O O13 0.512642 0.601538 0.961181
O O14 0.448971 0.654272 0.457574
#
# Coordination Sequence:
#
# PCOD9007536 Si02
#       7
#     2   2   2   2   2   2   2
#     4  11  23  40  61  89 128 157 201 248 303 357
#     4   9  22  40  60  88 121 152 207 251 288 360
#     4  10  23  41  61  91 127 155 203 246 300 368
#     4  11  23  39  62  93 122 155 210 246 293 366
#     4  11  22  40  64  90 123 163 194 251 311 348
#     4  10  22  38  63  91 120 155 205 251 296 350
#     4  10  21  39  62  87 119 163 196 253 300 345
#
# _framework density 26.062871999999999
#
# number of rings (size 3 to 8) (size 9 to 14) (size 15 to 20)
#    0.857    0.857    1.429    2.571    0.000    9.143 
#    0.000    2.857    0.000    0.000    0.000    0.000 
#    0.000    0.000    0.000    0.000    0.000    0.000 
#
# Total GULP energy -78151.940749 kJ/mol
# GULP energy per Si atom -5582.281482 kJ/mol
# Density = 2.600355 g / cm^3
# Si number density = 26.062872 Si / 1000 Ang^3
#
#
#
# Elastic Constant Matrix: (Units=GPa)
#
#
# Indices 1 2 3 4 5 6 
#
# 1 157.5925 45.1773 0.5342 25.3520 -2.6340 10.2035
# 2 45.1773 106.4244 16.5523 20.4977 -2.3874 -4.3582
# 3 0.5342 16.5523 71.6100 7.0583 3.5314 11.5248
# 4 25.3520 20.4977 7.0583 36.0687 10.1203 8.0314
# 5 -2.6340 -2.3874 3.5314 10.1203 19.2430 6.2886
# 6 10.2035 -4.3582 11.5248 8.0314 6.2886 34.3828
#
#
#
# Elastic Compliance Matrix: (Units=1/GPa)
#
#
# Indices 1 2 3 4 5 6 
#
# 1 0.008174 -0.002742 0.001312 -0.004960 0.004061 -0.002797
# 2 -0.002742 0.012590 -0.003116 -0.006657 0.003853 0.004304
# 3 0.001312 -0.003116 0.015709 -0.000713 -0.000843 -0.005729
# 4 -0.004960 -0.006657 -0.000713 0.042439 -0.022056 -0.005012
# 5 0.004061 0.003853 -0.000843 -0.022056 0.067232 -0.007579
# 6 -0.002797 0.004304 -0.005729 -0.005012 -0.007579 0.034937
#
#
# Mechanical properties :
#
#
# Convention : Reuss Voigt Hill
#
# Bulk Modulus (GPa) = 36.52336 51.12826 43.82581
# Shear Modulus (GPa) = 25.08781 36.16310 30.62546
#
# Velocity S-wave (km/s) = 3.10593 3.72900 3.43163
# Velocity P-wave (km/s) = 5.18713 6.18065 5.70556
#
# Compressibility (1/GPa) = 0.02737974
#
# Stress axis : x y z
#
# Youngs Moduli (GPa) = 122.33894 79.42895 63.65822
#
# Poissons Ratio (x) = 0.21779 -0.08349
# Poissons Ratio (y) = 0.33544 0.19837
# Poissons Ratio (z) = -0.16046 0.24752
#
# Static dielectric constant tensor:
#      x y z
#    x 2.049160 0.046380 -0.007210 
#    y 0.046380 2.098240 -0.013020 
#    z -0.007210 -0.013020 2.135870 
# 
# From -- ./inp_files/433375.got.cif
#   From: 2010.05.17/outbox.cif.g08.bks.cpg/sg2_217_cif.got.tgz:433375.got - 2010.06.03 11:33:40.
