data_PCOD9007340
_publ_section_title
;
Structure prediction by ZEFSAII (Michael W. Deem and Ramdas Pophale) SiO2 
 PCOD9007340
Probable space group: P -1
;
_chemical_formula_sum "Si O2"
_cell_formula_units_Z 12
_cell_length_a 19.260498
_cell_length_b 15.889486
_cell_length_c 8.792709
_cell_angle_alpha 48.477157
_cell_angle_beta 38.969314
_cell_angle_gamma 20.176855
_cell_volume 555.304326
_symmetry_space_group_name_H-M "P -1"
_symmetry_group_IT_number 2
_symmetry_cell_setting 'triclinic'
loop_
_space_group_symop_operation_xyz
x,y,z
-x,-y,-z
loop_
_atom_site_type_symbol
_atom_site_label
_atom_site_fract_x
_atom_site_fract_y
_atom_site_fract_z
Si Si1 0.168677 0.871034 0.150369
Si Si2 0.776103 0.771122 0.367411
Si Si3 0.762055 0.060305 0.544065
Si Si4 0.550751 0.569249 0.621885
Si Si5 0.756455 0.817771 0.707719
Si Si6 0.056130 0.172737 0.180715
O O1 0.359829 0.633959 0.224981
O O2 0.014310 0.099558 0.239549
O O3 0.315991 0.805068 0.850270
O O4 0.999717 0.927585 0.297852
O O5 0.749305 0.812796 0.543717
O O6 0.990903 0.480978 0.317028
O O7 0.500000 0.000000 0.500000
O O8 0.870311 0.795177 0.091193
O O9 0.541802 0.330038 0.512587
O O10 0.783386 0.923025 0.583953
O O11 0.740893 0.042583 0.777507
O O12 0.785919 0.437390 0.403908
O O13 0.500000 0.000000 0.000000
#
# Coordination Sequence:
#
# PCOD9007340 Si02
#       6
#     2   2   2   2   2   2
#     4  10  23  40  61  94 128 165 210 257 317 379
#     4  11  26  45  68  96 129 171 216 269 325 382
#     4  11  22  39  66  94 125 168 211 260 318 378
#     4  10  21  39  61  88 127 167 207 257 313 373
#     4  11  25  46  69  97 129 168 220 268 321 385
#     4  11  24  41  62  94 129 165 211 260 317 381
#
# _framework density 21.609770999999999
#
# number of rings (size 3 to 8) (size 9 to 14) (size 15 to 20)
#    0.000    1.333    0.000    5.500    0.000   13.333 
#    0.000    3.333    0.000    0.000    0.000    0.000 
#    0.000    0.000    0.000    0.000    0.000    0.000 
#
# Total GULP energy -66993.687429 kJ/mol
# GULP energy per Si atom -5582.807286 kJ/mol
# Density = 2.156059 g / cm^3
# Si number density = 21.609771 Si / 1000 Ang^3
#
#
#
# Elastic Constant Matrix: (Units=GPa)
#
#
# Indices 1 2 3 4 5 6 
#
# 1 94.7219 63.9008 35.3903 -0.6484 -18.5661 -1.0285
# 2 63.9008 134.0655 57.7615 -6.3443 -8.2653 -27.4731
# 3 35.3903 57.7615 128.4603 -17.0187 4.8786 0.8076
# 4 -0.6484 -6.3443 -17.0187 29.8475 -2.8588 6.9279
# 5 -18.5661 -8.2653 4.8786 -2.8588 26.2403 -9.1898
# 6 -1.0285 -27.4731 0.8076 6.9279 -9.1898 40.6775
#
#
#
# Elastic Compliance Matrix: (Units=1/GPa)
#
#
# Indices 1 2 3 4 5 6 
#
# 1 0.018600 -0.007871 -0.002080 -0.000937 0.010141 -0.002354
# 2 -0.007871 0.016475 -0.005825 -0.002441 0.004833 0.012551
# 3 -0.002080 -0.005825 0.012170 0.006581 -0.007303 -0.006999
# 4 -0.000937 -0.002441 0.006581 0.038596 -0.001503 -0.008716
# 5 0.010141 0.004833 -0.007303 -0.001503 0.053616 0.016035
# 6 -0.002354 0.012551 -0.006999 -0.008716 0.016035 0.038247
#
#
# Mechanical properties :
#
#
# Convention : Reuss Voigt Hill
#
# Bulk Modulus (GPa) = 63.72201 74.59476 69.15838
# Shear Modulus (GPa) = 23.31153 32.69940 28.00547
#
# Velocity S-wave (km/s) = 3.28800 3.89418 3.60385
# Velocity P-wave (km/s) = 6.63070 7.40361 7.02779
#
# Compressibility (1/GPa) = 0.01569316
#
# Stress axis : x y z
#
# Youngs Moduli (GPa) = 53.76427 60.69858 82.16979
#
# Poissons Ratio (x) = 0.47775 0.17088
# Poissons Ratio (y) = 0.42317 0.47866
# Poissons Ratio (z) = 0.11181 0.35359
#
# Static dielectric constant tensor:
#      x y z
#    x 1.810880 -0.020690 0.010100 
#    y -0.020690 1.817980 0.055540 
#    z 0.010100 0.055540 1.843610 
# 
# From -- ./inp_files/335661.got.cif
#   From: 2010.05.17/outbox.cif.g08.bks.cpg/sg2_168_cif.got.tgz:335661.got - 2010.06.03 11:33:40.
