data_PCOD9007009
_publ_section_title
;
Structure prediction by ZEFSAII (Michael W. Deem and Ramdas Pophale) SiO2 
 PCOD9007009
Probable space group: P -1
;
_chemical_formula_sum "Si O2"
_cell_formula_units_Z 16
_cell_length_a 15.797467
_cell_length_b 5.412146
_cell_length_c 8.175580
_cell_angle_alpha 80.506423
_cell_angle_beta 86.586054
_cell_angle_gamma 72.235042
_cell_volume 656.517921
_symmetry_space_group_name_H-M "P -1"
_symmetry_group_IT_number 2
_symmetry_cell_setting 'triclinic'
loop_
_space_group_symop_operation_xyz
x,y,z
-x,-y,-z
loop_
_atom_site_type_symbol
_atom_site_label
_atom_site_fract_x
_atom_site_fract_y
_atom_site_fract_z
Si Si1 0.693902 0.609111 0.374800
Si Si2 0.984865 0.298402 0.651726
Si Si3 0.830831 0.720084 0.802373
Si Si4 0.737597 0.368726 0.920954
Si Si5 0.096751 0.017954 0.935444
Si Si6 0.467847 0.298931 0.410389
Si Si7 0.175929 0.827513 0.417990
Si Si8 0.373809 0.785579 0.806764
O O1 0.636145 0.628417 0.546993
O O2 0.789078 0.407239 0.434090
O O3 0.656482 0.428397 0.275293
O O4 0.675337 0.907576 0.274948
O O5 0.912475 0.469157 0.770229
O O6 0.928482 0.119201 0.604652
O O7 0.000000 0.500000 0.500000
O O8 0.075470 0.149041 0.747457
O O9 0.811068 0.886121 0.616224
O O10 0.740390 0.665092 0.876355
O O11 0.871125 0.822649 0.944618
O O12 0.656088 0.279367 0.003804
O O13 0.819981 0.241670 0.049733
O O14 0.772078 0.259885 0.750657
O O15 0.000000 0.000000 0.000000
O O16 0.500000 0.500000 0.500000
O O17 0.520991 0.280541 0.236046
O O18 0.500000 0.000000 0.500000
#
# Coordination Sequence:
#
# PCOD9007009 Si02
#       8
#     2   2   2   2   2   2   2   2
#     4  10  22  38  63  90 121 154 191 241 299 345
#     4  11  24  36  55  81 112 142 196 249 291 341
#     4  10  21  39  59  74 112 159 192 235 296 351
#     4  10  23  36  60  82 114 151 199 242 285 353
#     4  11  20  40  56  77 106 157 195 231 292 348
#     4   8  16  36  59  86 119 151 187 234 290 348
#     4  10  23  39  54  82 118 153 187 240 303 347
#     4  10  22  38  64  93 115 152 201 242 281 351
#
# _framework density 24.371002000000001
#
# number of rings (size 3 to 8) (size 9 to 14) (size 15 to 20)
#    0.000    2.000    3.750    0.375    8.750    0.500 
#    0.000    0.625    0.000    0.750    0.000    0.000 
#    0.000    0.000    0.000    0.000    0.000    0.000 
#
# Total GULP energy -89092.678944 kJ/mol
# GULP energy per Si atom -5568.292434 kJ/mol
# Density = 2.431553 g / cm^3
# Si number density = 24.371002 Si / 1000 Ang^3
#
#
#
# Elastic Constant Matrix: (Units=GPa)
#
#
# Indices 1 2 3 4 5 6 
#
# 1 35.8757 17.2494 21.3025 -5.9745 -15.0853 1.8828
# 2 17.2494 98.1670 13.8965 -21.2939 -1.8703 4.3787
# 3 21.3025 13.8965 84.4385 -13.2047 -31.4687 -0.7571
# 4 -5.9745 -21.2939 -13.2047 39.5836 -4.2658 -5.6010
# 5 -15.0853 -1.8703 -31.4687 -4.2658 44.1104 -13.3150
# 6 1.8828 4.3787 -0.7571 -5.6010 -13.3150 32.4620
#
#
#
# Elastic Compliance Matrix: (Units=1/GPa)
#
#
# Indices 1 2 3 4 5 6 
#
# 1 0.037895 -0.005340 -0.003891 0.003295 0.011384 0.003670
# 2 -0.005340 0.012375 -0.000324 0.005469 -0.001292 -0.000953
# 3 -0.003891 -0.000324 0.020901 0.009424 0.017344 0.009497
# 4 0.003295 0.005469 0.009424 0.035079 0.014936 0.011470
# 5 0.011384 -0.001292 0.017344 0.014936 0.046885 0.021727
# 6 0.003670 -0.000953 0.009497 0.011470 0.021727 0.041833
#
#
# Mechanical properties :
#
#
# Convention : Reuss Voigt Hill
#
# Bulk Modulus (GPa) = 19.20816 35.93091 27.56953
# Shear Modulus (GPa) = 21.60476 34.30005 27.95240
#
# Velocity S-wave (km/s) = 2.98064 3.75562 3.39034
# Velocity P-wave (km/s) = 4.44345 5.79496 5.16361
#
# Compressibility (1/GPa) = 0.05206122
#
# Stress axis : x y z
#
# Youngs Moduli (GPa) = 26.38896 80.80729 47.84544
#
# Poissons Ratio (x) = 0.43150 0.18615
# Poissons Ratio (y) = 0.14091 0.01551
# Poissons Ratio (z) = 0.10267 0.02619
#
# Static dielectric constant tensor:
#      x y z
#    x 2.021460 0.100450 -0.040410 
#    y 0.100450 2.232910 -0.051040 
#    z -0.040410 -0.051040 2.041390 
# 
# From -- ./inp_files/38496.got.cif
#   From: 2010.05.17/outbox.cif.g08.bks.cpg/sg2_20_cif.got.tgz:38496.got - 2010.06.03 11:33:40.
