data_PCOD9007909
_publ_section_title
;
Structure prediction by ZEFSAII (Michael W. Deem and Ramdas Pophale) SiO2 
 PCOD9007909
Probable space group: P -1
;
_chemical_formula_sum "Si O2"
_cell_formula_units_Z 15
_cell_length_a 9.029069
_cell_length_b 18.057900
_cell_length_c 5.048679
_cell_angle_alpha 93.016036
_cell_angle_beta 99.465000
_cell_angle_gamma 47.255191
_cell_volume 594.309840
_symmetry_space_group_name_H-M "P -1"
_symmetry_group_IT_number 2
_symmetry_cell_setting 'triclinic'
loop_
_space_group_symop_operation_xyz
x,y,z
-x,-y,-z
loop_
_atom_site_type_symbol
_atom_site_label
_atom_site_fract_x
_atom_site_fract_y
_atom_site_fract_z
Si Si1 0.284243 0.429967 0.281901
Si Si2 0.391986 0.957286 0.463718
Si Si3 0.500000 0.500000 0.500000
Si Si4 0.037955 0.333502 0.855609
Si Si5 0.356505 0.751080 0.975990
Si Si6 0.383969 0.259468 0.576207
Si Si7 0.141277 0.682369 0.710517
Si Si8 0.199887 0.958527 0.887239
O O1 0.424259 0.439080 0.494524
O O2 0.094466 0.546108 0.175550
O O3 0.429237 0.356055 0.072302
O O4 0.242874 0.366967 0.407606
O O5 0.555780 0.837873 0.558283
O O6 0.208981 0.005002 0.632162
O O7 0.500000 0.000000 0.500000
O O8 0.322383 0.962690 0.146865
O O9 0.362271 0.569445 0.733810
O O10 0.937231 0.308553 0.609564
O O11 0.261449 0.275134 0.804691
O O12 0.003818 0.310553 0.126465
O O13 0.183055 0.749781 0.852427
O O14 0.300812 0.845444 0.828607
O O15 0.409413 0.764963 0.285457
O O16 0.000000 0.000000 0.000000
#
# Coordination Sequence:
#
# PCOD9007909 Si02
#       8
#     2   2   1   2   2   2   2   2
#     4  10  21  39  63  90 133 174 222 257 326 376
#     4  11  25  46  71 101 134 178 215 275 347 406
#     4   8  20  38  60  86 118 174 212 264 304 376
#     4  11  26  40  62  97 133 179 217 270 315 386
#     4  10  24  40  69  92 130 175 217 270 327 390
#     4  11  25  42  66  95 137 169 223 266 331 388
#     4  10  24  41  62  92 131 169 229 263 324 373
#     4  11  24  45  71 102 130 169 226 280 337 398
#
# _framework density 25.239356999999998
#
# number of rings (size 3 to 8) (size 9 to 14) (size 15 to 20)
#    0.000    1.600    1.333    1.200   11.200    5.333 
#    0.000    0.000    0.000    0.000    0.000    0.000 
#    0.000    0.000    0.000    0.000    0.000    0.000 
#
# Total GULP energy -83528.927335 kJ/mol
# GULP energy per Si atom -5568.595156 kJ/mol
# Density = 2.518191 g / cm^3
# Si number density = 25.239357 Si / 1000 Ang^3
#
#
#
# Elastic Constant Matrix: (Units=GPa)
#
#
# Indices 1 2 3 4 5 6 
#
# 1 114.1922 62.3977 29.4183 18.4709 0.2363 36.4875
# 2 62.3977 97.7988 28.6331 21.4305 6.5345 37.7580
# 3 29.4183 28.6331 95.7049 17.9960 -6.3085 15.2498
# 4 18.4709 21.4305 17.9960 25.1418 5.7350 7.1913
# 5 0.2363 6.5345 -6.3085 5.7350 51.9083 14.0257
# 6 36.4875 37.7580 15.2498 7.1913 14.0257 49.6024
#
#
#
# Elastic Compliance Matrix: (Units=1/GPa)
#
#
# Indices 1 2 3 4 5 6 
#
# 1 0.015007 -0.006242 -0.000828 -0.003953 0.002738 -0.006234
# 2 -0.006242 0.020054 -0.000733 -0.009537 0.000994 -0.009347
# 3 -0.000828 -0.000733 0.013085 -0.008138 0.003289 -0.002606
# 4 -0.003953 -0.009537 -0.008138 0.056503 -0.007820 0.006689
# 5 0.002738 0.000994 0.003289 -0.007820 0.022852 -0.009110
# 6 -0.006234 -0.009347 -0.002606 0.006689 -0.009110 0.034268
#
#
# Mechanical properties :
#
#
# Convention : Reuss Voigt Hill
#
# Bulk Modulus (GPa) = 30.73197 60.95489 45.84343
# Shear Modulus (GPa) = 26.56409 37.81363 32.18886
#
# Velocity S-wave (km/s) = 3.24772 3.87486 3.57507
# Velocity P-wave (km/s) = 5.12506 6.65000 5.93670
#
# Compressibility (1/GPa) = 0.03253941
#
# Stress axis : x y z
#
# Youngs Moduli (GPa) = 66.63467 49.86436 76.42380
#
# Poissons Ratio (x) = 0.31127 0.06330
# Poissons Ratio (y) = 0.41595 0.05602
# Poissons Ratio (z) = 0.05519 0.03655
#
# Static dielectric constant tensor:
#      x y z
#    x 2.083840 -0.102900 0.036980 
#    y -0.102900 2.034240 -0.040220 
#    z 0.036980 -0.040220 2.085680 
# 
# From -- ./inp_files/35521.got.cif
#   From: 2010.05.17/outbox.cif.g08.bks.cpg/sg2_18_cif.got.tgz:35521.got - 2010.06.03 11:33:40.
