data_PCOD9007951
_publ_section_title
;
Structure prediction by ZEFSAII (Michael W. Deem and Ramdas Pophale) SiO2 
 PCOD9007951
Probable space group: P -1
;
_chemical_formula_sum "Si O2"
_cell_formula_units_Z 16
_cell_length_a 13.689253
_cell_length_b 14.873913
_cell_length_c 14.027724
_cell_angle_alpha 150.656187
_cell_angle_beta 148.669773
_cell_angle_gamma 42.703862
_cell_volume 727.266899
_symmetry_space_group_name_H-M "P -1"
_symmetry_group_IT_number 2
_symmetry_cell_setting 'triclinic'
loop_
_space_group_symop_operation_xyz
x,y,z
-x,-y,-z
loop_
_atom_site_type_symbol
_atom_site_label
_atom_site_fract_x
_atom_site_fract_y
_atom_site_fract_z
Si Si1 0.030952 0.707800 0.182510
Si Si2 0.264698 0.396890 0.547480
Si Si3 0.393902 0.752445 0.902118
Si Si4 0.231094 0.070774 0.711153
Si Si5 0.164686 0.500255 0.760626
Si Si6 0.824269 0.196452 0.807526
Si Si7 0.009193 0.148787 0.406294
Si Si8 0.445777 0.018018 0.358725
O O1 0.847111 0.817811 0.161164
O O2 0.075540 0.698957 0.099318
O O3 0.199629 0.849527 0.492700
O O4 0.000000 0.500000 0.000000
O O5 0.393165 0.532621 0.714337
O O6 0.283531 0.462376 0.732292
O O7 0.306819 0.184148 0.383439
O O8 0.047513 0.436700 0.380156
O O9 0.203859 0.795833 0.727842
O O10 0.569084 0.843254 0.075455
O O11 0.376862 0.841708 0.076901
O O12 0.085728 0.112409 0.541855
O O13 0.139061 0.311575 0.621660
O O14 0.242284 0.663900 0.040798
O O15 0.634650 0.082907 0.519802
O O16 0.962997 0.036287 0.802619
O O17 0.500000 0.000000 0.500000
#
# Coordination Sequence:
#
# PCOD9007951 Si02
#       8
#     2   2   2   2   2   2   2   2
#     4  10  21  39  63  92 121 162 204 254 311 365
#     4  10  24  37  60  90 125 166 209 255 303 368
#     4  11  23  41  64  92 125 164 206 258 306 364
#     4  10  22  41  64  90 122 157 210 253 306 372
#     4  10  21  40  58  89 125 165 209 252 306 364
#     4  11  22  38  63  88 123 165 199 256 311 362
#     4  10  21  40  65  88 125 165 203 254 309 363
#     4  12  24  38  60  95 126 161 208 251 306 367
#
# _framework density 22.000176
#
# number of rings (size 3 to 8) (size 9 to 14) (size 15 to 20)
#    0.000    1.500    2.500    3.000    3.500    1.000 
#    0.000   10.625    0.000    5.250    0.000    0.000 
#    0.000    0.000    0.000    0.000    0.000    0.000 
#
# Total GULP energy -89307.912452 kJ/mol
# GULP energy per Si atom -5581.744528 kJ/mol
# Density = 2.195010 g / cm^3
# Si number density = 22.000176 Si / 1000 Ang^3
#
#
#
# Elastic Constant Matrix: (Units=GPa)
#
#
# Indices 1 2 3 4 5 6 
#
# 1 62.5001 -1.4696 -0.6936 3.0371 14.3584 -4.6051
# 2 -1.4696 76.7111 10.6770 20.4945 7.9084 10.1382
# 3 -0.6936 10.6770 57.3357 10.1091 16.5103 8.6586
# 4 3.0371 20.4945 10.1091 36.4147 4.4368 3.2405
# 5 14.3584 7.9084 16.5103 4.4368 36.7302 6.6557
# 6 -4.6051 10.1382 8.6586 3.2405 6.6557 19.3537
#
#
#
# Elastic Compliance Matrix: (Units=1/GPa)
#
#
# Indices 1 2 3 4 5 6 
#
# 1 0.018803 0.000677 0.002156 -0.001996 -0.009445 0.006737
# 2 0.000677 0.016329 -0.000134 -0.008453 -0.001542 -0.006387
# 3 0.002156 -0.000134 0.021698 -0.004557 -0.009067 -0.005244
# 4 -0.001996 -0.008453 -0.004557 0.033566 0.000562 0.000178
# 5 -0.009445 -0.001542 -0.009067 0.000562 0.037113 -0.010240
# 6 0.006737 -0.006387 -0.005244 0.000178 -0.010240 0.062457
#
#
# Mechanical properties :
#
#
# Convention : Reuss Voigt Hill
#
# Bulk Modulus (GPa) = 16.06991 23.73050 19.90020
# Shear Modulus (GPa) = 24.35329 31.03524 27.69426
#
# Velocity S-wave (km/s) = 3.33071 3.75998 3.55183
# Velocity P-wave (km/s) = 4.70232 5.44608 5.08781
#
# Compressibility (1/GPa) = 0.06222812
#
# Stress axis : x y z
#
# Youngs Moduli (GPa) = 53.18281 61.24083 46.08663
#
# Poissons Ratio (x) = -0.04145 -0.09935
# Poissons Ratio (y) = -0.03599 0.00616
# Poissons Ratio (z) = -0.11465 0.00818
#
# Static dielectric constant tensor:
#      x y z
#    x 1.833420 0.004500 -0.036290 
#    y 0.004500 1.825370 -0.002970 
#    z -0.036290 -0.002970 1.851810 
# 
# From -- ./inp_files/534645.got.cif
#   From: 2010.05.17/outbox.cif.g08.bks.cpg/sg2_268_cif.got.tgz:534645.got - 2010.06.03 11:33:40.
