data_PCOD9007571
_publ_section_title
;
Structure prediction by ZEFSAII (Michael W. Deem and Ramdas Pophale) SiO2 
 PCOD9007571
Probable space group: P -1
;
_chemical_formula_sum "Si O2"
_cell_formula_units_Z 12
_cell_length_a 6.934661
_cell_length_b 7.408679
_cell_length_c 10.895520
_cell_angle_alpha 71.005077
_cell_angle_beta 102.514345
_cell_angle_gamma 122.771228
_cell_volume 444.473199
_symmetry_space_group_name_H-M "P -1"
_symmetry_group_IT_number 2
_symmetry_cell_setting 'triclinic'
loop_
_space_group_symop_operation_xyz
x,y,z
-x,-y,-z
loop_
_atom_site_type_symbol
_atom_site_label
_atom_site_fract_x
_atom_site_fract_y
_atom_site_fract_z
Si Si1 0.968473 0.391617 0.887480
Si Si2 0.114385 0.264657 0.578665
Si Si3 0.783815 0.297236 0.362671
Si Si4 0.471555 0.624366 0.259919
Si Si5 0.316292 0.076049 0.999081
Si Si6 0.316519 0.134549 0.267707
O O1 0.739713 0.334960 0.790008
O O2 0.159071 0.575090 0.787069
O O3 0.925958 0.152931 0.971810
O O4 0.000000 0.500000 0.000000
O O5 0.185610 0.510560 0.582117
O O6 0.358620 0.278686 0.621762
O O7 0.967685 0.228425 0.443281
O O8 0.927772 0.074351 0.684288
O O9 0.521483 0.106070 0.356743
O O10 0.357904 0.362242 0.282116
O O11 0.637049 0.747207 0.138770
O O12 0.356966 0.169787 0.120360
O O13 0.500000 0.000000 0.000000
#
# Coordination Sequence:
#
# PCOD9007571 Si02
#       6
#     2   2   2   2   2   2
#     4  11  23  42  66  91 125 168 206 257 311 368
#     4  10  22  40  64  92 126 165 206 255 305 369
#     4  10  21  41  65  92 123 166 212 247 306 375
#     4  10  24  39  62  95 128 159 208 255 314 363
#     4  10  21  39  62  88 125 164 203 255 307 364
#     4  11  21  41  64  94 124 164 206 257 309 367
#
# _framework density 26.998252000000001
#
# number of rings (size 3 to 8) (size 9 to 14) (size 15 to 20)
#    0.000    1.667    1.667    3.000    2.333    2.667 
#    0.000    0.833    0.000    0.000    0.000    0.000 
#    0.000    0.000    0.000    0.000    0.000    0.000 
#
# Total GULP energy -67148.971029 kJ/mol
# GULP energy per Si atom -5595.747586 kJ/mol
# Density = 2.693680 g / cm^3
# Si number density = 26.998252 Si / 1000 Ang^3
#
#
#
# Elastic Constant Matrix: (Units=GPa)
#
#
# Indices 1 2 3 4 5 6 
#
# 1 87.1297 37.0405 38.8088 4.1892 24.5013 15.4378
# 2 37.0405 104.5625 24.0749 11.7361 26.8336 25.6780
# 3 38.8088 24.0749 101.8315 -2.7527 15.2717 11.9233
# 4 4.1892 11.7361 -2.7527 43.2705 13.0860 5.3308
# 5 24.5013 26.8336 15.2717 13.0860 44.0474 -1.4506
# 6 15.4378 25.6780 11.9233 5.3308 -1.4506 41.0311
#
#
#
# Elastic Compliance Matrix: (Units=1/GPa)
#
#
# Indices 1 2 3 4 5 6 
#
# 1 0.017086 -0.002375 -0.004372 0.001358 -0.007080 -0.004098
# 2 -0.002375 0.014514 -0.000445 -0.000446 -0.007506 -0.008268
# 3 -0.004372 -0.000445 0.012228 0.002256 -0.002273 -0.002004
# 4 0.001358 -0.000446 0.002256 0.026643 -0.009335 -0.004679
# 5 -0.007080 -0.007506 -0.002273 -0.009335 0.035120 0.010476
# 6 -0.004098 -0.008268 -0.002004 -0.004679 0.010476 0.032648
#
#
# Mechanical properties :
#
#
# Convention : Reuss Voigt Hill
#
# Bulk Modulus (GPa) = 33.96127 54.81913 44.39020
# Shear Modulus (GPa) = 30.78112 38.57644 34.67878
#
# Velocity S-wave (km/s) = 3.38022 3.78411 3.58786
# Velocity P-wave (km/s) = 5.27645 6.28024 5.80010
#
# Compressibility (1/GPa) = 0.02944530
#
# Stress axis : x y z
#
# Youngs Moduli (GPa) = 58.52828 68.89807 81.78069
#
# Poissons Ratio (x) = 0.16364 0.35752
# Poissons Ratio (y) = 0.13901 0.03635
# Poissons Ratio (z) = 0.25587 0.03063
#
# Static dielectric constant tensor:
#      x y z
#    x 2.292200 -0.012480 0.062560 
#    y -0.012480 2.046350 -0.026300 
#    z 0.062560 -0.026300 2.104400 
# 
# From -- ./inp_files/58900.got.cif
#   From: 2010.05.17/outbox.cif.g08.bks.cpg/sg2_30_cif.got.tgz:58900.got - 2010.06.03 11:33:40.
