data_PCOD9007220
_publ_section_title
;
Structure prediction by ZEFSAII (Michael W. Deem and Ramdas Pophale) SiO2 
 PCOD9007220
Probable space group: P -1
;
_chemical_formula_sum "Si O2"
_cell_formula_units_Z 16
_cell_length_a 14.673481
_cell_length_b 8.592299
_cell_length_c 9.264463
_cell_angle_alpha 73.411937
_cell_angle_beta 40.923904
_cell_angle_gamma 64.073777
_cell_volume 686.137210
_symmetry_space_group_name_H-M "P -1"
_symmetry_group_IT_number 2
_symmetry_cell_setting 'triclinic'
loop_
_space_group_symop_operation_xyz
x,y,z
-x,-y,-z
loop_
_atom_site_type_symbol
_atom_site_label
_atom_site_fract_x
_atom_site_fract_y
_atom_site_fract_z
Si Si1 0.215916 0.821501 0.599723
Si Si2 0.407750 0.791932 0.097375
Si Si3 0.176728 0.156358 0.687478
Si Si4 0.549518 0.262485 0.412270
Si Si5 0.466444 0.004384 0.731853
Si Si6 0.962133 0.678544 0.911311
Si Si7 0.942767 0.480356 0.730876
Si Si8 0.363666 0.541613 0.972824
O O1 0.307428 0.839565 0.346100
O O2 0.322304 0.739426 0.629846
O O3 0.112972 0.716562 0.707435
O O4 0.122022 0.011466 0.721336
O O5 0.565010 0.652059 0.998404
O O6 0.415386 0.958105 0.958910
O O7 0.352561 0.677016 0.079824
O O8 0.352690 0.091336 0.462019
O O9 0.081630 0.334779 0.678921
O O10 0.143841 0.181388 0.890073
O O11 0.587392 0.105005 0.292930
O O12 0.527155 0.424414 0.289624
O O13 0.438123 0.202711 0.663770
O O14 0.904722 0.650870 0.831117
O O15 0.000000 0.500000 0.000000
O O16 0.000000 0.500000 0.500000
O O17 0.797120 0.428475 0.908076
#
# Coordination Sequence:
#
# PCOD9007220 Si02
#       8
#     2   2   2   2   2   2   2   2
#     4  11  22  40  63  93 125 165 208 256 319 369
#     4  10  22  39  64  90 128 161 201 263 317 373
#     4  10  22  39  62  88 128 165 202 255 309 375
#     4   9  19  34  58  85 119 156 203 252 295 366
#     4   9  19  38  58  88 121 164 204 249 313 363
#     4  10  22  38  60  87 121 162 203 251 303 365
#     4  11  22  40  64  90 123 164 212 257 305 374
#     4  10  21  39  60  91 123 163 206 256 316 366
#
# _framework density 23.318950000000001
#
# number of rings (size 3 to 8) (size 9 to 14) (size 15 to 20)
#    0.000    2.000    0.000    3.375    0.000    9.500 
#    0.000    8.750    0.000    0.000    0.000    0.000 
#    0.000    0.000    0.000    0.000    0.000    0.000 
#
# Total GULP energy -89364.264608 kJ/mol
# GULP energy per Si atom -5585.266538 kJ/mol
# Density = 2.326588 g / cm^3
# Si number density = 23.318950 Si / 1000 Ang^3
#
#
#
# Elastic Constant Matrix: (Units=GPa)
#
#
# Indices 1 2 3 4 5 6 
#
# 1 116.5183 19.0420 49.4516 -0.5732 16.0693 11.8205
# 2 19.0420 57.4585 28.3593 -5.5449 17.8646 6.3527
# 3 49.4516 28.3593 123.3456 -8.4883 30.5196 8.9802
# 4 -0.5732 -5.5449 -8.4883 27.7013 -6.1301 7.7889
# 5 16.0693 17.8646 30.5196 -6.1301 42.8361 -1.8401
# 6 11.8205 6.3527 8.9802 7.7889 -1.8401 22.5397
#
#
#
# Elastic Compliance Matrix: (Units=1/GPa)
#
#
# Indices 1 2 3 4 5 6 
#
# 1 0.010826 -0.001018 -0.003493 -0.000215 -0.001352 -0.004035
# 2 -0.001018 0.022145 -0.002166 0.004119 -0.007015 -0.006841
# 3 -0.003493 -0.002166 0.011988 0.002900 -0.006077 -0.003832
# 4 -0.000215 0.004119 0.002900 0.042940 0.001715 -0.016902
# 5 -0.001352 -0.007015 -0.006077 0.001715 0.031658 0.007099
# 6 -0.004035 -0.006841 -0.003832 -0.016902 0.007099 0.056358
#
#
# Mechanical properties :
#
#
# Convention : Reuss Voigt Hill
#
# Bulk Modulus (GPa) = 31.64070 54.55869 43.09970
# Shear Modulus (GPa) = 25.02465 31.98006 28.50235
#
# Velocity S-wave (km/s) = 3.27945 3.70729 3.49991
# Velocity P-wave (km/s) = 5.28562 6.46319 5.90384
#
# Compressibility (1/GPa) = 0.03160486
#
# Stress axis : x y z
#
# Youngs Moduli (GPa) = 92.37181 45.15660 83.41781
#
# Poissons Ratio (x) = 0.04597 0.29135
# Poissons Ratio (y) = 0.09404 0.18071
# Poissons Ratio (z) = 0.32262 0.09782
#
# Static dielectric constant tensor:
#      x y z
#    x 1.900340 0.018790 0.019700 
#    y 0.018790 1.971270 0.035410 
#    z 0.019700 0.035410 1.909390 
# 
# From -- ./inp_files/298106.got.cif
#   From: 2010.05.17/outbox.cif.g08.bks.cpg/sg2_150_cif.got.tgz:298106.got - 2010.06.03 11:33:40.
