data_PCOD9007454
_publ_section_title
;
Structure prediction by ZEFSAII (Michael W. Deem and Ramdas Pophale) SiO2 
 PCOD9007454
Probable space group: P -1
;
_chemical_formula_sum "Si O2"
_cell_formula_units_Z 14
_cell_length_a 7.590737
_cell_length_b 15.955820
_cell_length_c 10.850585
_cell_angle_alpha 53.106805
_cell_angle_beta 42.355035
_cell_angle_gamma 80.502583
_cell_volume 606.075129
_symmetry_space_group_name_H-M "P -1"
_symmetry_group_IT_number 2
_symmetry_cell_setting 'triclinic'
loop_
_space_group_symop_operation_xyz
x,y,z
-x,-y,-z
loop_
_atom_site_type_symbol
_atom_site_label
_atom_site_fract_x
_atom_site_fract_y
_atom_site_fract_z
Si Si1 0.408556 0.924112 0.242039
Si Si2 0.365403 0.549372 0.864987
Si Si3 0.540045 0.847454 0.907957
Si Si4 0.086223 0.319887 0.703593
Si Si5 0.208239 0.516316 0.631151
Si Si6 0.734940 0.697773 0.782872
Si Si7 0.313317 0.210244 0.861694
O O1 0.650448 0.880583 0.168867
O O2 0.088426 0.800086 0.503041
O O3 0.500000 0.000000 0.000000
O O4 0.386294 0.014979 0.268801
O O5 0.573990 0.626291 0.574778
O O6 0.581979 0.626219 0.799803
O O7 0.318707 0.413940 0.002297
O O8 0.037978 0.530798 0.089480
O O9 0.726472 0.842585 0.933655
O O10 0.172579 0.765215 0.183774
O O11 0.596707 0.778419 0.830038
O O12 0.045129 0.431435 0.671244
O O13 0.074280 0.241865 0.898761
O O14 0.500000 0.500000 0.500000
O O15 0.365465 0.660284 0.406344
#
# Coordination Sequence:
#
# PCOD9007454 Si02
#       7
#     2   2   2   2   2   2   2
#     4  10  21  40  64  88 125 173 218 262 316 377
#     4  11  22  38  67  96 131 168 211 262 328 388
#     4  11  23  41  68  90 132 174 214 266 313 377
#     4  11  24  41  66  99 132 169 208 266 323 383
#     4  10  21  39  61  94 132 162 208 262 320 382
#     4  11  22  39  64  99 127 167 221 263 320 386
#     4  10  22  41  62  94 126 167 216 257 324 374
#
# _framework density 23.099447000000001
#
# number of rings (size 3 to 8) (size 9 to 14) (size 15 to 20)
#    0.000    1.429    2.857    3.000    2.000    4.000 
#    5.143    0.000    0.000    5.143    0.000    0.000 
#    0.000    0.000    0.000    0.000    0.000    0.000 
#
# Total GULP energy -78086.894479 kJ/mol
# GULP energy per Si atom -5577.635320 kJ/mol
# Density = 2.304687 g / cm^3
# Si number density = 23.099447 Si / 1000 Ang^3
#
#
#
# Elastic Constant Matrix: (Units=GPa)
#
#
# Indices 1 2 3 4 5 6 
#
# 1 47.9390 5.8129 -3.6185 -9.9490 -0.9039 3.2692
# 2 5.8129 160.8392 14.3865 -27.7212 -0.4105 -6.5502
# 3 -3.6185 14.3865 49.9967 -6.7357 -14.7186 -0.8141
# 4 -9.9490 -27.7212 -6.7357 33.9308 -5.1886 -0.8679
# 5 -0.9039 -0.4105 -14.7186 -5.1886 26.2999 0.5172
# 6 3.2692 -6.5502 -0.8141 -0.8679 0.5172 26.3411
#
#
#
# Elastic Compliance Matrix: (Units=1/GPa)
#
#
# Indices 1 2 3 4 5 6 
#
# 1 0.023164 0.000151 0.004147 0.008412 0.004828 -0.002527
# 2 0.000151 0.007435 -0.001083 0.006057 0.000671 0.001983
# 3 0.004147 -0.001083 0.026605 0.008154 0.016624 -0.000019
# 4 0.008412 0.006057 0.008154 0.040526 0.012907 0.001796
# 5 0.004828 0.000671 0.016624 0.012907 0.050059 -0.000476
# 6 -0.002527 0.001983 -0.000019 0.001796 -0.000476 0.038838
#
#
# Mechanical properties :
#
#
# Convention : Reuss Voigt Hill
#
# Bulk Modulus (GPa) = 15.71470 32.43741 24.07606
# Shear Modulus (GPa) = 24.82531 33.46064 29.14297
#
# Velocity S-wave (km/s) = 3.28184 3.81011 3.55580
# Velocity P-wave (km/s) = 4.60201 5.78177 5.22529
#
# Compressibility (1/GPa) = 0.06363468
#
# Stress axis : x y z
#
# Youngs Moduli (GPa) = 43.17101 134.49467 37.58668
#
# Poissons Ratio (x) = -0.02035 -0.15585
# Poissons Ratio (y) = -0.00653 0.04069
# Poissons Ratio (z) = -0.17901 0.14559
#
# Static dielectric constant tensor:
#      x y z
#    x 1.931010 0.011650 -0.017120 
#    y 0.011650 1.922840 0.022000 
#    z -0.017120 0.022000 1.889430 
# 
# From -- ./inp_files/402943.got.cif
#   From: 2010.05.17/outbox.cif.g08.bks.cpg/sg2_202_cif.got.tgz:402943.got - 2010.06.03 11:33:40.
