data_PCOD9007822
_publ_section_title
;
Structure prediction by ZEFSAII (Michael W. Deem and Ramdas Pophale) SiO2 
 PCOD9007822
Probable space group: P -1
;
_chemical_formula_sum "Si O2"
_cell_formula_units_Z 16
_cell_length_a 20.843221
_cell_length_b 11.887047
_cell_length_c 9.001723
_cell_angle_alpha 38.042112
_cell_angle_beta 110.895662
_cell_angle_gamma 138.283286
_cell_volume 755.374709
_symmetry_space_group_name_H-M "P -1"
_symmetry_group_IT_number 2
_symmetry_cell_setting 'triclinic'
loop_
_space_group_symop_operation_xyz
x,y,z
-x,-y,-z
loop_
_atom_site_type_symbol
_atom_site_label
_atom_site_fract_x
_atom_site_fract_y
_atom_site_fract_z
Si Si1 0.590296 0.907440 0.008337
Si Si2 0.023965 0.406726 0.395957
Si Si3 0.832442 0.232131 0.318832
Si Si4 0.773244 0.208889 0.602866
Si Si5 0.275450 0.440226 0.515936
Si Si6 0.661886 0.746195 0.443301
Si Si7 0.119478 0.349948 0.280182
Si Si8 0.126708 0.186255 0.945161
O O1 0.635721 0.892677 0.205909
O O2 0.453392 0.575503 0.235809
O O3 0.661493 0.976186 0.857819
O O4 0.624477 0.194314 0.747158
O O5 0.966613 0.463932 0.221063
O O6 0.114760 0.619994 0.385361
O O7 0.091746 0.436276 0.297958
O O8 0.909645 0.045335 0.727300
O O9 0.765719 0.084526 0.573507
O O10 0.769758 0.979725 0.402522
O O11 0.831971 0.434316 0.042339
O O12 0.799694 0.477028 0.302960
O O13 0.317502 0.338950 0.592976
O O14 0.203005 0.379645 0.387663
O O15 0.190892 0.244479 0.792496
O O16 0.000000 0.000000 0.500000
O O17 0.000000 0.000000 0.000000
#
# Coordination Sequence:
#
# PCOD9007822 Si02
#       8
#     2   2   2   2   2   2   2   2
#     4  10  22  46  66  92 124 167 222 263 312 379
#     4  11  21  39  59  91 131 168 209 249 317 389
#     4  12  25  38  59  99 132 165 209 265 316 376
#     4  10  21  39  63  85 130 170 206 260 312 381
#     4  11  21  41  68  92 127 166 217 256 317 378
#     4  11  24  41  69  93 124 168 216 270 317 365
#     4  12  23  38  60  91 135 167 201 263 317 376
#     4   9  18  37  61  89 119 170 210 246 308 379
#
# _framework density 21.181539000000001
#
# number of rings (size 3 to 8) (size 9 to 14) (size 15 to 20)
#    0.000    1.250    5.000    2.625    3.500    1.500 
#    0.000    0.000    0.000    2.250    0.000    0.000 
#    0.000    0.000    0.000    0.000    0.000    0.000 
#
# Total GULP energy -89410.989367 kJ/mol
# GULP energy per Si atom -5588.186835 kJ/mol
# Density = 2.113333 g / cm^3
# Si number density = 21.181539 Si / 1000 Ang^3
#
#
#
# Elastic Constant Matrix: (Units=GPa)
#
#
# Indices 1 2 3 4 5 6 
#
# 1 63.3056 17.0222 15.8138 -3.6729 -10.5317 -14.5288
# 2 17.0222 52.1034 25.7832 7.8324 -1.2093 -11.7820
# 3 15.8138 25.7832 83.7028 -5.5184 -25.7759 -8.4470
# 4 -3.6729 7.8324 -5.5184 23.6491 3.3421 -0.2382
# 5 -10.5317 -1.2093 -25.7759 3.3421 26.6374 4.0118
# 6 -14.5288 -11.7820 -8.4470 -0.2382 4.0118 28.2564
#
#
#
# Elastic Compliance Matrix: (Units=1/GPa)
#
#
# Indices 1 2 3 4 5 6 
#
# 1 0.020273 -0.006183 0.001390 0.004545 0.007418 0.007246
# 2 -0.006183 0.030385 -0.012016 -0.012010 -0.012323 0.007546
# 3 0.001390 -0.012016 0.022124 0.006428 0.020691 -0.000565
# 4 0.004545 -0.012010 0.006428 0.048251 0.001502 -0.000555
# 5 0.007418 -0.012323 0.020691 0.001502 0.060304 -0.003688
# 6 0.007246 0.007546 -0.000565 -0.000555 -0.003688 0.042612
#
#
# Mechanical properties :
#
#
# Convention : Reuss Voigt Hill
#
# Bulk Modulus (GPa) = 25.53486 35.15002 30.34244
# Shear Modulus (GPa) = 18.47596 25.07476 21.77536
#
# Velocity S-wave (km/s) = 2.95662 3.44438 3.20978
# Velocity P-wave (km/s) = 4.87205 5.69640 5.30028
#
# Compressibility (1/GPa) = 0.03916215
#
# Stress axis : x y z
#
# Youngs Moduli (GPa) = 49.32764 32.91137 45.19896
#
# Poissons Ratio (x) = 0.20350 -0.06282
# Poissons Ratio (y) = 0.30501 0.54312
# Poissons Ratio (z) = -0.06856 0.39547
#
# Static dielectric constant tensor:
#      x y z
#    x 1.791330 -0.011840 0.026390 
#    y -0.011840 1.758820 0.012940 
#    z 0.026390 0.012940 1.798330 
# 
# From -- ./inp_files/234788.got.cif
#   From: 2010.05.17/outbox.cif.g08.bks.cpg/sg2_118_cif.got.tgz:234788.got - 2010.06.03 11:33:40.
