data_PCOD9007099
_publ_section_title
;
Structure prediction by ZEFSAII (Michael W. Deem and Ramdas Pophale) SiO2 
 PCOD9007099
Probable space group: P -1
;
_chemical_formula_sum "Si O2"
_cell_formula_units_Z 16
_cell_length_a 22.337157
_cell_length_b 6.725349
_cell_length_c 9.379806
_cell_angle_alpha 130.153122
_cell_angle_beta 48.179099
_cell_angle_gamma 106.692500
_cell_volume 777.001629
_symmetry_space_group_name_H-M "P -1"
_symmetry_group_IT_number 2
_symmetry_cell_setting 'triclinic'
loop_
_space_group_symop_operation_xyz
x,y,z
-x,-y,-z
loop_
_atom_site_type_symbol
_atom_site_label
_atom_site_fract_x
_atom_site_fract_y
_atom_site_fract_z
Si Si1 0.620002 0.252170 0.588746
Si Si2 0.792932 0.903572 0.630166
Si Si3 0.057910 0.817223 0.440105
Si Si4 0.049155 0.255660 0.147499
Si Si5 0.343035 0.078210 0.911828
Si Si6 0.120458 0.666749 0.697212
Si Si7 0.521114 0.869303 0.059177
Si Si8 0.268790 0.678538 0.305024
O O1 0.562293 0.110570 0.709161
O O2 0.699524 0.259899 0.561486
O O3 0.640059 0.113340 0.339980
O O4 0.567150 0.560095 0.808359
O O5 0.833869 0.585319 0.395464
O O6 0.868734 0.041007 0.586421
O O7 0.736188 0.070597 0.673642
O O8 0.738114 0.937001 0.875852
O O9 0.089431 0.505822 0.201464
O O10 0.999821 0.792823 0.655269
O O11 0.000000 0.000000 0.500000
O O12 0.974906 0.329926 0.182719
O O13 0.113554 0.972489 0.892129
O O14 0.417314 0.023424 0.884126
O O15 0.327675 0.391844 0.032863
O O16 0.177161 0.630628 0.448858
O O17 0.500000 0.000000 0.000000
#
# Coordination Sequence:
#
# PCOD9007099 Si02
#       8
#     2   2   2   2   2   2   2   2
#     4  10  22  40  64  91 128 167 202 248 310 365
#     4  11  22  39  63  87 125 164 211 263 313 379
#     4  11  22  37  58  86 116 154 209 260 318 377
#     4  10  22  38  59  84 116 156 203 266 320 374
#     4  10  23  40  63  92 129 166 206 252 311 369
#     4  10  21  39  60  82 118 158 205 261 320 369
#     4  10  21  40  66  97 128 159 205 253 296 368
#     4  10  22  40  58  89 126 165 207 262 310 369
#
# _framework density 20.591978999999998
#
# number of rings (size 3 to 8) (size 9 to 14) (size 15 to 20)
#    0.000    1.750    2.500    1.125    0.000    5.000 
#    0.000    2.500    0.000    0.000    0.000    0.000 
#    0.000    0.000    0.000    0.000    0.000    0.000 
#
# Total GULP energy -89259.705901 kJ/mol
# GULP energy per Si atom -5578.731619 kJ/mol
# Density = 2.054511 g / cm^3
# Si number density = 20.591979 Si / 1000 Ang^3
#
#
#
# Elastic Constant Matrix: (Units=GPa)
#
#
# Indices 1 2 3 4 5 6 
#
# 1 70.3481 33.7867 29.8660 6.6136 1.3402 -10.6096
# 2 33.7867 115.3252 25.7203 12.5593 -0.2698 -22.0114
# 3 29.8660 25.7203 76.6672 14.1186 7.0525 -3.9325
# 4 6.6136 12.5593 14.1186 25.4046 7.5828 -1.5095
# 5 1.3402 -0.2698 7.0525 7.5828 29.7320 -0.9245
# 6 -10.6096 -22.0114 -3.9325 -1.5095 -0.9245 33.1104
#
#
#
# Elastic Compliance Matrix: (Units=1/GPa)
#
#
# Indices 1 2 3 4 5 6 
#
# 1 0.018979 -0.003661 -0.006117 0.000269 0.000585 0.002950
# 2 -0.003661 0.011767 -0.001606 -0.004167 0.001912 0.006322
# 3 -0.006117 -0.001606 0.017326 -0.006668 -0.002189 -0.001335
# 4 0.000269 -0.004167 -0.006668 0.048191 -0.010808 -0.001580
# 5 0.000585 0.001912 -0.002189 -0.010808 0.036954 0.001738
# 6 0.002950 0.006322 -0.001335 -0.001580 0.001738 0.035168
#
#
# Mechanical properties :
#
#
# Convention : Reuss Voigt Hill
#
# Bulk Modulus (GPa) = 39.51958 49.00961 44.26459
# Shear Modulus (GPa) = 25.05180 29.18056 27.11618
#
# Velocity S-wave (km/s) = 3.49174 3.76850 3.63276
# Velocity P-wave (km/s) = 5.95732 6.54121 6.25608
#
# Compressibility (1/GPa) = 0.02530391
#
# Stress axis : x y z
#
# Youngs Moduli (GPa) = 52.69063 84.98617 57.71673
#
# Poissons Ratio (x) = 0.31112 0.35307
# Poissons Ratio (y) = 0.19289 0.09267
# Poissons Ratio (z) = 0.32232 0.13646
#
# Static dielectric constant tensor:
#      x y z
#    x 1.789920 -0.001880 -0.010370 
#    y -0.001880 1.743470 0.018670 
#    z -0.010370 0.018670 1.758760 
# 
# From -- ./inp_files/350839.got.cif
#   From: 2010.05.17/outbox.cif.g08.bks.cpg/sg2_176_cif.got.tgz:350839.got - 2010.06.03 11:33:40.
