data_PCOD9007361
_publ_section_title
;
Structure prediction by ZEFSAII (Michael W. Deem and Ramdas Pophale) SiO2 
 PCOD9007361
Probable space group: P -1
;
_chemical_formula_sum "Si O2"
_cell_formula_units_Z 16
_cell_length_a 9.240763
_cell_length_b 14.124934
_cell_length_c 8.338014
_cell_angle_alpha 48.234269
_cell_angle_beta 94.134689
_cell_angle_gamma 69.155810
_cell_volume 679.951344
_symmetry_space_group_name_H-M "P -1"
_symmetry_group_IT_number 2
_symmetry_cell_setting 'triclinic'
loop_
_space_group_symop_operation_xyz
x,y,z
-x,-y,-z
loop_
_atom_site_type_symbol
_atom_site_label
_atom_site_fract_x
_atom_site_fract_y
_atom_site_fract_z
Si Si1 0.141614 0.853239 0.853859
Si Si2 0.102620 0.134554 0.930128
Si Si3 0.251373 0.592504 0.493914
Si Si4 0.823672 0.892895 0.403235
Si Si5 0.071775 0.623327 0.940480
Si Si6 0.443433 0.107062 0.103185
Si Si7 0.542757 0.293582 0.714040
Si Si8 0.242544 0.383960 0.991182
O O1 0.131771 0.728154 0.896431
O O2 0.145193 0.992213 0.622863
O O3 0.325193 0.757695 0.067720
O O4 0.983559 0.924031 0.889218
O O5 0.142813 0.085040 0.803978
O O6 0.940919 0.307019 0.702457
O O7 0.278342 0.101236 0.057688
O O8 0.374881 0.461225 0.526608
O O9 0.334028 0.693417 0.419676
O O10 0.255315 0.500690 0.749237
O O11 0.950135 0.725311 0.665798
O O12 0.622578 0.953179 0.329516
O O13 0.935731 0.610319 0.052161
O O14 0.221193 0.456941 0.082365
O O15 0.390550 0.220716 0.122247
O O16 0.476406 0.181945 0.863701
#
# Coordination Sequence:
#
# PCOD9007361 Si02
#       8
#     2   2   2   2   2   2   2   2
#     4  10  21  40  63  88 124 166 205 254 306 361
#     4  11  20  38  65  93 119 164 207 252 309 367
#     4   9  17  36  58  89 121 156 195 249 307 358
#     4  11  23  40  63  90 127 160 211 254 300 365
#     4  11  22  41  63  91 122 168 209 247 304 370
#     4  10  21  39  62  94 127 159 198 263 310 356
#     4   8  18  34  57  90 125 151 196 255 309 356
#     4  10  21  39  61  89 126 157 205 256 299 365
#
# _framework density 23.531095000000001
#
# number of rings (size 3 to 8) (size 9 to 14) (size 15 to 20)
#    0.000    2.000    2.500    1.125    0.000    2.500 
#    2.250    5.625    0.000    0.000    0.000    0.000 
#    0.000    0.000    0.000    0.000    0.000    0.000 
#
# Total GULP energy -89180.710572 kJ/mol
# GULP energy per Si atom -5573.794411 kJ/mol
# Density = 2.347754 g / cm^3
# Si number density = 23.531095 Si / 1000 Ang^3
#
#
#
# Elastic Constant Matrix: (Units=GPa)
#
#
# Indices 1 2 3 4 5 6 
#
# 1 132.8789 30.2521 11.5090 0.3726 12.0697 5.2562
# 2 30.2521 94.9986 6.5916 -7.2587 14.0575 -16.0614
# 3 11.5090 6.5916 21.9435 -9.5142 -3.1147 -2.3758
# 4 0.3726 -7.2587 -9.5142 22.9845 -10.9902 -3.1347
# 5 12.0697 14.0575 -3.1147 -10.9902 28.5809 -19.6827
# 6 5.2562 -16.0614 -2.3758 -3.1347 -19.6827 13.8509
#
#
#
# Elastic Compliance Matrix: (Units=1/GPa)
#
#
# Indices 1 2 3 4 5 6 
#
# 1 0.006053 -0.000873 0.003007 0.007276 0.009765 0.012730
# 2 -0.000873 0.011865 -0.007379 -0.005178 -0.011122 -0.004153
# 3 0.003007 -0.007379 0.034221 -0.007480 -0.027551 -0.044672
# 4 0.007276 -0.005178 -0.007480 0.013884 -0.035467 -0.057306
# 5 0.009765 -0.011122 -0.027551 -0.035467 -0.024389 -0.064013
# 6 0.012730 -0.004153 -0.044672 -0.057306 -0.064013 -0.049045
#
#
# Mechanical properties :
#
#
# Convention : Reuss Voigt Hill
#
# Bulk Modulus (GPa) = 24.01108 38.50292 31.25700
# Shear Modulus (GPa) = 294.77731 26.51449 160.64590
#
# Velocity S-wave (km/s) = 11.20461 3.36040 8.27151
# Velocity P-wave (km/s) = 13.32731 5.60843 10.22428
#
# Compressibility (1/GPa) = 0.04164743
#
# Stress axis : x y z
#
# Youngs Moduli (GPa) = 165.20553 84.28473 29.22167
#
# Poissons Ratio (x) = 0.07358 -0.08786
# Poissons Ratio (y) = 0.14423 0.21563
# Poissons Ratio (z) = -0.49670 0.62195
#
# Static dielectric constant tensor:
#      x y z
#    x 1.896870 0.001910 -0.061340 
#    y 0.001910 1.992750 0.040660 
#    z -0.061340 0.040660 1.940180 
# 
# From -- ./inp_files/199585.got.cif
#   From: 2010.05.17/outbox.cif.g08.bks.cpg/sg2_100_cif.got.tgz:199585.got - 2010.06.03 11:33:40.
