data_PCOD9007680
_publ_section_title
;
Structure prediction by ZEFSAII (Michael W. Deem and Ramdas Pophale) SiO2 
 PCOD9007680
Probable space group: P -1
;
_chemical_formula_sum "Si O2"
_cell_formula_units_Z 15
_cell_length_a 15.065404
_cell_length_b 20.642320
_cell_length_c 9.245660
_cell_angle_alpha 46.082933
_cell_angle_beta 44.030697
_cell_angle_gamma 18.677837
_cell_volume 638.978649
_symmetry_space_group_name_H-M "P -1"
_symmetry_group_IT_number 2
_symmetry_cell_setting 'triclinic'
loop_
_space_group_symop_operation_xyz
x,y,z
-x,-y,-z
loop_
_atom_site_type_symbol
_atom_site_label
_atom_site_fract_x
_atom_site_fract_y
_atom_site_fract_z
Si Si1 0.150287 0.089998 0.512941
Si Si2 0.879579 0.095691 0.154449
Si Si3 0.660359 0.706732 0.037226
Si Si4 0.326571 0.226343 0.793353
Si Si5 0.793791 0.938435 0.162980
Si Si6 0.000000 0.500000 0.500000
Si Si7 0.726751 0.483454 0.886461
Si Si8 0.182287 0.578551 0.811573
O O1 0.172264 0.084558 0.668386
O O2 0.890256 0.305704 0.407291
O O3 0.141269 0.991605 0.625959
O O4 0.446176 0.944581 0.329678
O O5 0.567151 0.338674 0.131766
O O6 0.080409 0.045083 0.064076
O O7 0.000000 0.000000 0.000000
O O8 0.520247 0.827774 0.163558
O O9 0.633716 0.620237 0.157081
O O10 0.000000 0.500000 0.000000
O O11 0.532345 0.852053 0.837641
O O12 0.134097 0.419741 0.632772
O O13 0.123080 0.273481 0.008931
O O14 0.993556 0.735922 0.175036
O O15 0.789913 0.549839 0.721179
O O16 0.686517 0.470350 0.115754
#
# Coordination Sequence:
#
# PCOD9007680 Si02
#       8
#     2   2   2   2   2   1   2   2
#     4  11  22  39  67  98 130 176 229 269 334 396
#     4  10  22  43  69  96 136 179 226 276 323 399
#     4  10  23  43  64  94 137 174 224 278 333 392
#     4  10  21  39  62  91 136 168 218 273 340 384
#     4  11  25  43  67  98 132 182 227 271 333 402
#     4  10  22  36  70  94 128 172 214 274 336 390
#     4  11  22  45  69  98 139 175 226 274 341 392
#     4  10  22  39  63  95 134 175 216 282 332 392
#
# _framework density 23.474961
#
# number of rings (size 3 to 8) (size 9 to 14) (size 15 to 20)
#    0.000    1.600    1.333    3.200    5.600    3.200 
#    0.000   14.000    0.000    0.000    0.000    0.000 
#    0.000    0.000    0.000    0.000    0.000    0.000 
#
# Total GULP energy -83529.789285 kJ/mol
# GULP energy per Si atom -5568.652619 kJ/mol
# Density = 2.342153 g / cm^3
# Si number density = 23.474961 Si / 1000 Ang^3
#
#
#
# Elastic Constant Matrix: (Units=GPa)
#
#
# Indices 1 2 3 4 5 6 
#
# 1 31.1507 5.7514 17.2303 -6.3042 22.4215 2.7800
# 2 5.7514 106.5684 28.1208 -22.4131 6.8655 -0.8543
# 3 17.2303 28.1208 97.5066 -32.6347 25.8928 -10.2778
# 4 -6.3042 -22.4131 -32.6347 30.5330 -13.3100 -0.0886
# 5 22.4215 6.8655 25.8928 -13.3100 31.2674 3.6227
# 6 2.7800 -0.8543 -10.2778 -0.0886 3.6227 23.1703
#
#
#
# Elastic Compliance Matrix: (Units=1/GPa)
#
#
# Indices 1 2 3 4 5 6 
#
# 1 0.069006 -0.002487 -0.001744 -0.012401 -0.052661 -0.000959
# 2 -0.002487 0.011296 -0.001087 0.008251 0.003753 -0.000323
# 3 -0.001744 -0.001087 0.019804 0.015975 -0.009323 0.010472
# 4 -0.012401 0.008251 0.015975 0.061826 0.019467 0.006071
# 5 -0.052661 0.003753 -0.009323 0.019467 0.086212 -0.011084
# 6 -0.000959 -0.000323 0.010472 0.006071 -0.011084 0.049663
#
#
# Mechanical properties :
#
#
# Convention : Reuss Voigt Hill
#
# Bulk Modulus (GPa) = 11.17715 37.49231 24.33473
# Shear Modulus (GPa) = 14.78123 29.26903 22.02513
#
# Velocity S-wave (km/s) = 2.51202 3.53486 3.06639
# Velocity P-wave (km/s) = 3.63116 5.71544 4.78809
#
# Compressibility (1/GPa) = 0.08946822
#
# Stress axis : x y z
#
# Youngs Moduli (GPa) = 14.49153 88.52859 50.49526
#
# Poissons Ratio (x) = 0.22018 0.08808
# Poissons Ratio (y) = 0.03604 0.05490
# Poissons Ratio (z) = 0.02528 0.09625
#
# Static dielectric constant tensor:
#      x y z
#    x 1.863240 -0.012380 -0.009000 
#    y -0.012380 1.992950 -0.008900 
#    z -0.009000 -0.008900 1.928430 
# 
# From -- ./inp_files/319246.got.cif
#   From: 2010.05.17/outbox.cif.g08.bks.cpg/sg2_160_cif.got.tgz:319246.got - 2010.06.03 11:33:40.
