data_PCOD9007459
_publ_section_title
;
Structure prediction by ZEFSAII (Michael W. Deem and Ramdas Pophale) SiO2 
 PCOD9007459
Probable space group: P -1
;
_chemical_formula_sum "Si O2"
_cell_formula_units_Z 15
_cell_length_a 10.919418
_cell_length_b 18.529237
_cell_length_c 12.980068
_cell_angle_alpha 26.973482
_cell_angle_beta 43.969885
_cell_angle_gamma 31.354717
_cell_volume 610.232726
_symmetry_space_group_name_H-M "P -1"
_symmetry_group_IT_number 2
_symmetry_cell_setting 'triclinic'
loop_
_space_group_symop_operation_xyz
x,y,z
-x,-y,-z
loop_
_atom_site_type_symbol
_atom_site_label
_atom_site_fract_x
_atom_site_fract_y
_atom_site_fract_z
Si Si1 0.626345 0.466139 0.356110
Si Si2 0.754476 0.057223 0.098250
Si Si3 0.747997 0.050609 0.752013
Si Si4 0.457311 0.270402 0.259638
Si Si5 0.000000 0.500000 0.500000
Si Si6 0.221210 0.633584 0.097253
Si Si7 0.164913 0.189428 0.428409
Si Si8 0.435701 0.038800 0.844495
O O1 0.500000 0.500000 0.500000
O O2 0.690147 0.269948 0.501794
O O3 0.889018 0.380098 0.327472
O O4 0.451910 0.687028 0.118788
O O5 0.807679 0.940074 0.322946
O O6 0.654927 0.978743 0.184218
O O7 0.000000 0.000000 0.000000
O O8 0.681653 0.983070 0.780284
O O9 0.583847 0.088363 0.898269
O O10 0.014735 0.850415 0.883290
O O11 0.299120 0.424532 0.255904
O O12 0.293095 0.275317 0.272353
O O13 0.667931 0.018263 0.483826
O O14 0.567577 0.367825 0.025943
O O15 0.110758 0.621160 0.280499
O O16 0.237281 0.288346 0.679770
#
# Coordination Sequence:
#
# PCOD9007459 Si02
#       8
#     2   2   2   2   1   2   2   2
#     4  12  23  41  70 103 143 182 231 303 365 406
#     4  12  25  40  69 104 138 179 236 300 355 413
#     4  10  21  39  61  94 138 177 221 287 351 422
#     4  10  23  43  70  96 141 201 225 279 363 439
#     4  10  22  36  70 102 132 162 244 294 340 408
#     4  10  21  42  72  97 136 186 234 288 355 416
#     4  11  24  45  69 100 142 189 239 285 354 433
#     4  10  22  36  59  99 136 168 219 288 363 404
#
# _framework density 24.580784000000001
#
# number of rings (size 3 to 8) (size 9 to 14) (size 15 to 20)
#    0.000    1.333    4.000    0.800    5.600    1.067 
#    0.000    2.667    5.867    3.200    0.000    0.000 
#    0.000    0.000    0.000    0.000    0.000    0.000 
#
# Total GULP energy -83591.444966 kJ/mol
# GULP energy per Si atom -5572.762998 kJ/mol
# Density = 2.452484 g / cm^3
# Si number density = 24.580784 Si / 1000 Ang^3
#
#
#
# Elastic Constant Matrix: (Units=GPa)
#
#
# Indices 1 2 3 4 5 6 
#
# 1 106.1497 41.9994 46.2122 -9.0155 -13.2680 -19.5353
# 2 41.9994 72.6044 45.4277 -15.7874 -10.9243 -29.9799
# 3 46.2122 45.4277 134.0633 -16.6223 -6.6510 -24.2667
# 4 -9.0155 -15.7874 -16.6223 45.1351 -6.7838 -0.5727
# 5 -13.2680 -10.9243 -6.6510 -6.7838 47.2237 0.3902
# 6 -19.5353 -29.9799 -24.2667 -0.5727 0.3902 49.6209
#
#
#
# Elastic Compliance Matrix: (Units=1/GPa)
#
#
# Indices 1 2 3 4 5 6 
#
# 1 0.012999 -0.005391 -0.002412 0.000144 0.002080 0.000666
# 2 -0.005391 0.026808 -0.003774 0.007845 0.005181 0.012279
# 3 -0.002412 -0.003774 0.010139 0.001976 0.000147 0.001750
# 4 0.000144 0.007845 0.001976 0.026621 0.005908 0.006024
# 5 0.002080 0.005181 0.000147 0.005908 0.023796 0.003902
# 6 0.000666 0.012279 0.001750 0.006024 0.003902 0.028729
#
#
# Mechanical properties :
#
#
# Convention : Reuss Voigt Hill
#
# Bulk Modulus (GPa) = 37.32404 64.45511 50.88957
# Shear Modulus (GPa) = 31.02223 40.34115 35.68169
#
# Velocity S-wave (km/s) = 3.55639 4.05553 3.81413
# Velocity P-wave (km/s) = 5.66402 6.94323 6.33599
#
# Compressibility (1/GPa) = 0.02679238
#
# Stress axis : x y z
#
# Youngs Moduli (GPa) = 76.93151 37.30170 98.63357
#
# Poissons Ratio (x) = 0.20108 0.23795
# Poissons Ratio (y) = 0.41470 0.37220
# Poissons Ratio (z) = 0.18560 0.14076
#
# Static dielectric constant tensor:
#      x y z
#    x 2.317550 0.282790 -0.115770 
#    y 0.282790 2.319040 -0.014630 
#    z -0.115770 -0.014630 1.943280 
# 
# From -- ./inp_files/570914.got.cif
#   From: 2010.05.17/outbox.cif.g08.bks.cpg/sg2_286_cif.got.tgz:570914.got - 2010.06.03 11:33:40.
