data_PCOD9007748
_publ_section_title
;
Structure prediction by ZEFSAII (Michael W. Deem and Ramdas Pophale) SiO2 
 PCOD9007748
Probable space group: P -1
;
_chemical_formula_sum "Si O2"
_cell_formula_units_Z 16
_cell_length_a 18.036286
_cell_length_b 26.332822
_cell_length_c 14.299587
_cell_angle_alpha 159.213723
_cell_angle_beta 159.141640
_cell_angle_gamma 18.496982
_cell_volume 692.154271
_symmetry_space_group_name_H-M "P -1"
_symmetry_group_IT_number 2
_symmetry_cell_setting 'triclinic'
loop_
_space_group_symop_operation_xyz
x,y,z
-x,-y,-z
loop_
_atom_site_type_symbol
_atom_site_label
_atom_site_fract_x
_atom_site_fract_y
_atom_site_fract_z
Si Si1 0.126262 0.696240 0.821764
Si Si2 0.761316 0.022811 0.590088
Si Si3 0.162239 0.167918 0.841372
Si Si4 0.620973 0.142149 0.297845
Si Si5 0.604286 0.310155 0.390900
Si Si6 0.341068 0.298001 0.702990
Si Si7 0.282786 0.706381 0.716986
Si Si8 0.290856 0.599871 0.060632
O O1 0.399984 0.540516 0.832197
O O2 0.875270 0.711760 0.521245
O O3 0.114381 0.870253 0.090616
O O4 0.155873 0.656011 0.898126
O O5 0.490944 0.151863 0.545890
O O6 0.740118 0.964206 0.360989
O O7 0.975156 0.847739 0.598206
O O8 0.859003 0.300813 0.698283
O O9 0.240273 0.049413 0.821743
O O10 0.324971 0.245557 0.160167
O O11 0.625227 0.162989 0.227534
O O12 0.741463 0.235357 0.644280
O O13 0.366155 0.506460 0.477142
O O14 0.617631 0.282291 0.248398
O O15 0.566649 0.263586 0.977251
O O16 0.211656 0.492973 0.841985
#
# Coordination Sequence:
#
# PCOD9007748 Si02
#       8
#     2   2   2   2   2   2   2   2
#     4  10  22  39  62  92 127 162 202 257 312 371
#     4  10  22  42  59  89 132 159 206 263 303 356
#     4  10  23  40  64  96 124 159 205 256 315 380
#     4  11  21  40  66  94 123 164 200 255 323 369
#     4  10  22  43  61  90 129 164 206 259 303 362
#     4  11  22  40  66  92 120 171 207 246 314 373
#     4  10  22  41  64  88 127 167 213 259 293 361
#     4  10  21  39  62  94 129 156 200 263 312 366
#
# _framework density 23.116233000000001
#
# number of rings (size 3 to 8) (size 9 to 14) (size 15 to 20)
#    0.000    1.750    2.500    1.125    1.750    2.500 
#    4.500   11.875    0.000    0.000    0.000    0.000 
#    0.000    0.000    0.000    0.000    0.000    0.000 
#
# Total GULP energy -89502.402553 kJ/mol
# GULP energy per Si atom -5593.900160 kJ/mol
# Density = 2.306362 g / cm^3
# Si number density = 23.116233 Si / 1000 Ang^3
#
#
#
# Elastic Constant Matrix: (Units=GPa)
#
#
# Indices 1 2 3 4 5 6 
#
# 1 67.2296 2.5008 6.5991 -0.3122 -5.4961 11.2102
# 2 2.5008 57.2293 1.9301 -9.8366 11.6305 5.2192
# 3 6.5991 1.9301 53.1491 -5.0692 10.7236 -5.6183
# 4 -0.3122 -9.8366 -5.0692 18.7093 -5.5665 -3.8183
# 5 -5.4961 11.6305 10.7236 -5.5665 20.1601 -7.0491
# 6 11.2102 5.2192 -5.6183 -3.8183 -7.0491 28.9821
#
#
#
# Elastic Compliance Matrix: (Units=1/GPa)
#
#
# Indices 1 2 3 4 5 6 
#
# 1 0.016667 -0.001250 -0.003741 -0.001151 0.004869 -0.005914
# 2 -0.001250 0.022055 0.002307 0.006761 -0.014401 -0.005653
# 3 -0.003741 0.002307 0.022342 0.004241 -0.012015 0.002999
# 4 -0.001151 0.006761 0.004241 0.065457 0.015996 0.012564
# 5 0.004869 -0.014401 -0.012015 0.015996 0.076744 0.019154
# 6 -0.005914 -0.005653 0.002999 0.012564 0.019154 0.044705
#
#
# Mechanical properties :
#
#
# Convention : Reuss Voigt Hill
#
# Bulk Modulus (GPa) = 17.95503 22.18533 20.07018
# Shear Modulus (GPa) = 18.38888 24.67552 21.53220
#
# Velocity S-wave (km/s) = 2.82351 3.27074 3.05532
# Velocity P-wave (km/s) = 4.29113 4.88690 4.59867
#
# Compressibility (1/GPa) = 0.05569469
#
# Stress axis : x y z
#
# Youngs Moduli (GPa) = 59.99862 45.34163 44.75956
#
# Poissons Ratio (x) = 0.05669 0.16747
# Poissons Ratio (y) = 0.07501 -0.10328
# Poissons Ratio (z) = 0.22448 -0.10462
#
# Static dielectric constant tensor:
#      x y z
#    x 1.878020 -0.019140 -0.018110 
#    y -0.019140 1.890060 0.013340 
#    z -0.018110 0.013340 1.818060 
# 
# From -- ./inp_files/450908.got.cif
#   From: 2010.05.17/outbox.cif.g08.bks.cpg/sg2_226_cif.got.tgz:450908.got - 2010.06.03 11:33:40.
