data_PCOD9007576
_publ_section_title
;
Structure prediction by ZEFSAII (Michael W. Deem and Ramdas Pophale) SiO2 
 PCOD9007576
Probable space group: P -1
;
_chemical_formula_sum "Si O2"
_cell_formula_units_Z 14
_cell_length_a 14.171365
_cell_length_b 6.546596
_cell_length_c 14.353404
_cell_angle_alpha 97.879734
_cell_angle_beta 30.968983
_cell_angle_gamma 87.371204
_cell_volume 642.921473
_symmetry_space_group_name_H-M "P -1"
_symmetry_group_IT_number 2
_symmetry_cell_setting 'triclinic'
loop_
_space_group_symop_operation_xyz
x,y,z
-x,-y,-z
loop_
_atom_site_type_symbol
_atom_site_label
_atom_site_fract_x
_atom_site_fract_y
_atom_site_fract_z
Si Si1 0.979441 0.893849 0.412148
Si Si2 0.368158 0.125608 0.832596
Si Si3 0.717952 0.706515 0.725805
Si Si4 0.324340 0.673227 0.363759
Si Si5 0.443407 0.358103 0.414719
Si Si6 0.286191 0.014386 0.077545
Si Si7 0.232480 0.434632 0.795394
O O1 0.880413 0.718521 0.514660
O O2 0.838862 0.093608 0.484928
O O3 0.000000 0.000000 0.500000
O O4 0.183685 0.840333 0.185890
O O5 0.476568 0.273148 0.801779
O O6 0.297700 0.236082 0.800894
O O7 0.509001 0.884884 0.677483
O O8 0.222736 0.095430 0.032389
O O9 0.697349 0.470599 0.714986
O O10 0.760948 0.787991 0.795731
O O11 0.515542 0.887850 0.879908
O O12 0.334778 0.532340 0.439418
O O13 0.317048 0.380375 0.616402
O O14 0.649979 0.400652 0.261429
O O15 0.000000 0.500000 0.000000
#
# Coordination Sequence:
#
# PCOD9007576 Si02
#       7
#     2   2   2   2   2   2   2
#     4  10  22  39  56  87 123 165 210 255 300 349
#     4  11  22  43  63  94 127 161 203 256 313 363
#     4  10  21  43  58  88 129 167 208 254 299 358
#     4  11  21  40  65  88 128 168 207 248 307 361
#     4  10  22  44  64  91 129 156 200 257 309 369
#     4  10  21  39  62  88 126 165 207 254 304 355
#     4  10  24  43  68  95 117 159 204 251 316 379
#
# _framework density 21.775601000000002
#
# number of rings (size 3 to 8) (size 9 to 14) (size 15 to 20)
#    0.000    1.714    2.857    0.429    2.000    3.429 
#    7.714    0.000    0.000    0.000    0.000    0.000 
#    0.000    0.000    0.000    0.000    0.000    0.000 
#
# Total GULP energy -78110.825128 kJ/mol
# GULP energy per Si atom -5579.344652 kJ/mol
# Density = 2.172604 g / cm^3
# Si number density = 21.775601 Si / 1000 Ang^3
#
#
#
# Elastic Constant Matrix: (Units=GPa)
#
#
# Indices 1 2 3 4 5 6 
#
# 1 54.1194 25.7426 38.3986 -3.1695 3.7033 -3.3175
# 2 25.7426 71.3821 28.1435 -3.7941 12.8433 -5.3783
# 3 38.3986 28.1435 93.8511 -32.4895 7.5705 -2.5451
# 4 -3.1695 -3.7941 -32.4895 30.0949 -3.7067 5.1532
# 5 3.7033 12.8433 7.5705 -3.7067 27.9640 -0.6582
# 6 -3.3175 -5.3783 -2.5451 5.1532 -0.6582 41.5646
#
#
#
# Elastic Compliance Matrix: (Units=1/GPa)
#
#
# Indices 1 2 3 4 5 6 
#
# 1 0.032623 -0.005780 -0.017250 -0.016288 0.000912 0.002833
# 2 -0.005780 0.018931 -0.003970 -0.003766 -0.007304 0.002096
# 3 -0.017250 -0.003970 0.029092 0.029751 0.000086 -0.003796
# 4 -0.016288 -0.003766 0.029751 0.065045 0.004267 -0.007962
# 5 0.000912 -0.007304 0.000086 0.004267 0.039518 -0.000770
# 6 0.002833 0.002096 -0.003796 -0.007962 -0.000770 0.025299
#
#
# Mechanical properties :
#
#
# Convention : Reuss Voigt Hill
#
# Bulk Modulus (GPa) = 37.52704 44.88023 41.20364
# Shear Modulus (GPa) = 18.28887 28.39588 23.34238
#
# Velocity S-wave (km/s) = 2.90121 3.61504 3.27762
# Velocity P-wave (km/s) = 5.33794 6.17088 5.76946
#
# Compressibility (1/GPa) = 0.02664745
#
# Stress axis : x y z
#
# Youngs Moduli (GPa) = 30.65280 52.82406 34.37333
#
# Poissons Ratio (x) = 0.30535 0.59292
# Poissons Ratio (y) = 0.17719 0.13645
# Poissons Ratio (z) = 0.52875 0.20969
#
# Static dielectric constant tensor:
#      x y z
#    x 1.831500 0.002520 -0.036740 
#    y 0.002520 1.797040 -0.042820 
#    z -0.036740 -0.042820 1.832980 
# 
# From -- ./inp_files/52031.got.cif
#   From: 2010.05.17/outbox.cif.g08.bks.cpg/sg2_27_cif.got.tgz:52031.got - 2010.06.03 11:33:40.
