data_PCOD9007925
_publ_section_title
;
Structure prediction by ZEFSAII (Michael W. Deem and Ramdas Pophale) SiO2 
 PCOD9007925
Probable space group: P -1
;
_chemical_formula_sum "Si O2"
_cell_formula_units_Z 14
_cell_length_a 12.154780
_cell_length_b 16.910167
_cell_length_c 8.100082
_cell_angle_alpha 117.839113
_cell_angle_beta 108.968122
_cell_angle_gamma 23.378096
_cell_volume 558.112546
_symmetry_space_group_name_H-M "P -1"
_symmetry_group_IT_number 2
_symmetry_cell_setting 'triclinic'
loop_
_space_group_symop_operation_xyz
x,y,z
-x,-y,-z
loop_
_atom_site_type_symbol
_atom_site_label
_atom_site_fract_x
_atom_site_fract_y
_atom_site_fract_z
Si Si1 0.841177 0.421224 0.302429
Si Si2 0.339409 0.831572 0.659708
Si Si3 0.251642 0.045378 0.604605
Si Si4 0.168484 0.723120 0.617593
Si Si5 0.187067 0.388771 0.722360
Si Si6 0.799311 0.521672 0.852284
Si Si7 0.818522 0.259685 0.989746
O O1 0.499139 0.667134 0.428499
O O2 0.945232 0.296624 0.396429
O O3 0.921593 0.462825 0.322712
O O4 0.921826 0.291100 0.079436
O O5 0.525658 0.682777 0.769940
O O6 0.365511 0.915877 0.696907
O O7 0.008661 0.060024 0.778043
O O8 0.049068 0.112523 0.479880
O O9 0.044549 0.274439 0.759902
O O10 0.540172 0.857380 0.455461
O O11 0.500000 0.500000 0.500000
O O12 0.162200 0.778407 0.843636
O O13 0.946322 0.494633 0.784746
O O14 0.294627 0.372536 0.914556
O O15 0.500000 0.500000 0.000000
#
# Coordination Sequence:
#
# PCOD9007925 Si02
#       7
#     2   2   2   2   2   2   2
#     4   9  22  41  61  91 128 158 205 261 299 373
#     4  11  22  40  67  93 122 171 205 255 314 365
#     4  11  22  41  64  91 130 164 206 260 307 367
#     4  10  21  41  62  89 128 160 203 263 305 365
#     4  10  23  41  62  94 125 167 204 259 315 363
#     4  11  22  42  64  94 127 161 216 251 307 379
#     4  10  21  39  63  91 125 161 208 256 309 366
#
# _framework density 25.084547000000001
#
# number of rings (size 3 to 8) (size 9 to 14) (size 15 to 20)
#    0.857    0.857    1.429    3.000    0.000    2.857 
#    5.143    2.857    0.000    0.000    0.000    0.000 
#    0.000    0.000    0.000    0.000    0.000    0.000 
#
# Total GULP energy -78026.547345 kJ/mol
# GULP energy per Si atom -5573.324810 kJ/mol
# Density = 2.502745 g / cm^3
# Si number density = 25.084547 Si / 1000 Ang^3
#
#
#
# Elastic Constant Matrix: (Units=GPa)
#
#
# Indices 1 2 3 4 5 6 
#
# 1 98.6346 9.2544 11.0079 -6.6200 -6.4861 27.8521
# 2 9.2544 72.2348 13.0468 7.4860 3.9837 10.3032
# 3 11.0079 13.0468 120.6584 19.1254 -13.0633 2.0932
# 4 -6.6200 7.4860 19.1254 29.5314 0.5949 0.8371
# 5 -6.4861 3.9837 -13.0633 0.5949 31.7976 4.6403
# 6 27.8521 10.3032 2.0932 0.8371 4.6403 36.1033
#
#
#
# Elastic Compliance Matrix: (Units=1/GPa)
#
#
# Indices 1 2 3 4 5 6 
#
# 1 0.014061 -0.000645 -0.001283 0.004384 0.003974 -0.011201
# 2 -0.000645 0.015059 -0.001246 -0.003019 -0.001977 -0.003403
# 3 -0.001283 -0.001246 0.010012 -0.006549 0.004073 0.000394
# 4 0.004384 -0.003019 -0.006549 0.039967 -0.001751 -0.002843
# 5 0.003974 -0.001977 0.004073 -0.001751 0.035268 -0.007230
# 6 -0.011201 -0.003403 0.000394 -0.002843 -0.007230 0.038283
#
#
# Mechanical properties :
#
#
# Convention : Reuss Voigt Hill
#
# Bulk Modulus (GPa) = 30.50459 39.79397 35.14928
# Shear Modulus (GPa) = 29.42443 36.70105 33.06274
#
# Velocity S-wave (km/s) = 3.42864 3.82919 3.63444
# Velocity P-wave (km/s) = 5.27837 5.95388 5.62627
#
# Compressibility (1/GPa) = 0.03278195
#
# Stress axis : x y z
#
# Youngs Moduli (GPa) = 71.12001 66.40652 99.88189
#
# Poissons Ratio (x) = 0.04286 0.12818
# Poissons Ratio (y) = 0.04591 0.12444
# Poissons Ratio (z) = 0.09127 0.08274
#
# Static dielectric constant tensor:
#      x y z
#    x 2.068200 -0.002270 0.044100 
#    y -0.002270 2.123320 -0.141870 
#    z 0.044100 -0.141870 2.092190 
# 
# From -- ./inp_files/318444.got.cif
#   From: 2010.05.17/outbox.cif.g08.bks.cpg/sg2_160_cif.got.tgz:318444.got - 2010.06.03 11:33:40.
