data_PCOD9007102
_publ_section_title
;
Structure prediction by ZEFSAII (Michael W. Deem and Ramdas Pophale) SiO2 
 PCOD9007102
Probable space group: P -1
;
_chemical_formula_sum "Si O2"
_cell_formula_units_Z 16
_cell_length_a 5.367061
_cell_length_b 10.133412
_cell_length_c 12.828395
_cell_angle_alpha 66.244438
_cell_angle_beta 97.856452
_cell_angle_gamma 81.364212
_cell_volume 616.169019
_symmetry_space_group_name_H-M "P -1"
_symmetry_group_IT_number 2
_symmetry_cell_setting 'triclinic'
loop_
_space_group_symop_operation_xyz
x,y,z
-x,-y,-z
loop_
_atom_site_type_symbol
_atom_site_label
_atom_site_fract_x
_atom_site_fract_y
_atom_site_fract_z
Si Si1 0.554095 0.160008 0.935880
Si Si2 0.980808 0.930759 0.349889
Si Si3 0.017031 0.745718 0.203592
Si Si4 0.478357 0.971532 0.385007
Si Si5 0.871100 0.314526 0.397438
Si Si6 0.078964 0.461447 0.184353
Si Si7 0.616295 0.623484 0.525766
Si Si8 0.365461 0.364561 0.040121
O O1 0.816410 0.164933 0.887580
O O2 0.541050 0.234318 0.025160
O O3 0.289787 0.242227 0.835645
O O4 0.500000 0.000000 0.000000
O O5 0.023225 0.808687 0.300087
O O6 0.187536 0.028120 0.315181
O O7 0.038967 0.846826 0.492380
O O8 0.692282 0.023469 0.314136
O O9 0.154783 0.577736 0.234142
O O10 0.537180 0.792954 0.423173
O O11 0.500000 0.000000 0.500000
O O12 0.925682 0.358099 0.270373
O O13 0.568396 0.355442 0.389672
O O14 0.074676 0.397444 0.441172
O O15 0.898974 0.579077 0.058991
O O16 0.287934 0.356862 0.157642
O O17 0.500000 0.500000 0.500000
O O18 0.500000 0.500000 0.000000
#
# Coordination Sequence:
#
# PCOD9007102 Si02
#       8
#     2   2   2   2   2   2   2   2
#     4  11  24  45  70  96 131 167 221 272 325 390
#     4  10  22  40  63  94 135 169 214 260 315 386
#     4  11  23  40  68 102 126 173 215 268 329 386
#     4  10  21  39  60  82 121 179 211 253 306 367
#     4  10  23  37  58  97 128 168 205 264 308 379
#     4  10  23  37  67  96 132 168 220 267 335 381
#     4  10  22  36  57  86 123 162 207 255 303 357
#     4  10  21  44  65  94 128 169 213 280 328 380
#
# _framework density 25.966902000000001
#
# number of rings (size 3 to 8) (size 9 to 14) (size 15 to 20)
#    0.000    1.750    1.250    1.875    8.750    0.000 
#    0.000    7.500    0.000    0.000    0.000    0.000 
#    0.000    0.000    0.000    0.000    0.000    0.000 
#
# Total GULP energy -89298.677490 kJ/mol
# GULP energy per Si atom -5581.167343 kJ/mol
# Density = 2.590780 g / cm^3
# Si number density = 25.966902 Si / 1000 Ang^3
#
#
#
# Elastic Constant Matrix: (Units=GPa)
#
#
# Indices 1 2 3 4 5 6 
#
# 1 157.3533 14.0289 21.7062 14.2979 -28.7600 8.9940
# 2 14.0289 133.2393 20.5277 15.2592 -12.0167 0.2921
# 3 21.7062 20.5277 71.4189 15.4037 -35.9737 -17.9160
# 4 14.2979 15.2592 15.4037 39.1383 -2.2135 -7.3641
# 5 -28.7600 -12.0167 -35.9737 -2.2135 53.4871 7.3375
# 6 8.9940 0.2921 -17.9160 -7.3641 7.3375 34.8459
#
#
#
# Elastic Compliance Matrix: (Units=1/GPa)
#
#
# Indices 1 2 3 4 5 6 
#
# 1 0.007685 0.000009 -0.000518 -0.003082 0.004177 -0.003781
# 2 0.000009 0.008172 -0.001821 -0.002759 0.000741 -0.001746
# 3 -0.000518 -0.001821 0.026146 -0.006845 0.015393 0.008904
# 4 -0.003082 -0.002759 -0.006845 0.031067 -0.006308 0.005193
# 5 0.004177 0.000741 0.015393 -0.006308 0.031352 -0.001105
# 6 -0.003781 -0.001746 0.008904 0.005193 -0.001105 0.035597
#
#
# Mechanical properties :
#
#
# Convention : Reuss Voigt Hill
#
# Bulk Modulus (GPa) = 26.77928 52.72636 39.75282
# Shear Modulus (GPa) = 31.82156 45.87749 38.84953
#
# Velocity S-wave (km/s) = 3.50446 4.20785 3.87216
# Velocity P-wave (km/s) = 5.16820 6.63003 5.94422
#
# Compressibility (1/GPa) = 0.03734231
#
# Stress axis : x y z
#
# Youngs Moduli (GPa) = 130.11543 122.37521 38.24675
#
# Poissons Ratio (x) = -0.00105 0.01981
# Poissons Ratio (y) = -0.00112 0.06965
# Poissons Ratio (z) = 0.06740 0.22285
#
# Static dielectric constant tensor:
#      x y z
#    x 2.284100 -0.041980 0.277330 
#    y -0.041980 2.076500 0.023390 
#    z 0.277330 0.023390 2.391680 
# 
# From -- ./inp_files/480320.got.cif
#   From: 2010.05.17/outbox.cif.g08.bks.cpg/sg2_241_cif.got.tgz:480320.got - 2010.06.03 11:33:40.
