data_PCOD9007793
_publ_section_title
;
Structure prediction by ZEFSAII (Michael W. Deem and Ramdas Pophale) SiO2 
 PCOD9007793
Probable space group: P -1
;
_chemical_formula_sum "Si O2"
_cell_formula_units_Z 12
_cell_length_a 6.712413
_cell_length_b 7.765948
_cell_length_c 14.287183
_cell_angle_alpha 119.393777
_cell_angle_beta 60.656926
_cell_angle_gamma 84.452529
_cell_volume 506.836376
_symmetry_space_group_name_H-M "P -1"
_symmetry_group_IT_number 2
_symmetry_cell_setting 'triclinic'
loop_
_space_group_symop_operation_xyz
x,y,z
-x,-y,-z
loop_
_atom_site_type_symbol
_atom_site_label
_atom_site_fract_x
_atom_site_fract_y
_atom_site_fract_z
Si Si1 0.649959 0.322322 0.336732
Si Si2 0.290874 0.953251 0.406744
Si Si3 0.252744 0.659227 0.190890
Si Si4 0.463922 0.236039 0.166256
Si Si5 0.731607 0.700527 0.379393
Si Si6 0.172600 0.940078 0.118834
O O1 0.500000 0.500000 0.500000
O O2 0.479363 0.312006 0.287717
O O3 0.814875 0.444008 0.291308
O O4 0.871739 0.081841 0.245305
O O5 0.362543 0.812712 0.258713
O O6 0.471511 0.808889 0.409863
O O7 0.305779 0.183453 0.478864
O O8 0.000000 0.000000 0.500000
O O9 0.340107 0.443459 0.178924
O O10 0.946585 0.750145 0.295520
O O11 0.278018 0.707459 0.088963
O O12 0.319716 0.081966 0.156722
O O13 0.744413 0.105643 0.020632
#
# Coordination Sequence:
#
# PCOD9007793 Si02
#       6
#     2   2   2   2   2   2
#     4  12  27  43  70 104 142 181 229 288 349 408
#     4   9  20  35  62  93 136 179 216 275 339 397
#     4  11  22  42  72  99 132 182 232 280 344 408
#     4  11  25  51  69  99 143 182 231 289 338 412
#     4  10  21  39  62  98 144 174 220 287 345 400
#     4  11  27  46  72 101 138 186 233 280 345 414
#
# _framework density 23.676280999999999
#
# number of rings (size 3 to 8) (size 9 to 14) (size 15 to 20)
#    0.000    1.333    3.333    1.000    9.333    0.667 
#    0.000    0.833    0.000    0.000    0.000    0.000 
#    0.000    0.000    0.000    0.000    0.000    0.000 
#
# Total GULP energy -66877.304329 kJ/mol
# GULP energy per Si atom -5573.108694 kJ/mol
# Density = 2.362239 g / cm^3
# Si number density = 23.676281 Si / 1000 Ang^3
#
#
#
# Elastic Constant Matrix: (Units=GPa)
#
#
# Indices 1 2 3 4 5 6 
#
# 1 95.9886 22.0725 29.3268 -7.0826 -6.6478 -17.3238
# 2 22.0725 122.2297 10.4510 6.5117 -8.1559 -18.8425
# 3 29.3268 10.4510 76.0995 -21.8863 -4.3432 -21.4957
# 4 -7.0826 6.5117 -21.8863 35.3660 -5.6312 3.6670
# 5 -6.6478 -8.1559 -4.3432 -5.6312 29.9134 14.4079
# 6 -17.3238 -18.8425 -21.4957 3.6670 14.4079 25.1596
#
#
#
# Elastic Compliance Matrix: (Units=1/GPa)
#
#
# Indices 1 2 3 4 5 6 
#
# 1 0.012606 -0.001226 -0.003169 0.000150 -0.000536 0.005339
# 2 -0.001226 0.009688 0.000626 -0.002900 -0.002258 0.008662
# 3 -0.003169 0.000626 0.022124 0.010441 -0.004007 0.017962
# 4 0.000150 -0.002900 0.010441 0.037297 0.009801 -0.004196
# 5 -0.000536 -0.002258 -0.004007 0.009801 0.051490 -0.036399
# 6 0.005339 0.008662 0.017962 -0.004196 -0.036399 0.086712
#
#
# Mechanical properties :
#
#
# Convention : Reuss Voigt Hill
#
# Bulk Modulus (GPa) = 27.11515 46.44649 36.78082
# Shear Modulus (GPa) = 20.85536 33.58566 27.22051
#
# Velocity S-wave (km/s) = 2.97114 3.77043 3.39439
# Velocity P-wave (km/s) = 4.82157 6.21408 5.56158
#
# Compressibility (1/GPa) = 0.03687975
#
# Stress axis : x y z
#
# Youngs Moduli (GPa) = 79.33032 103.21691 45.20063
#
# Poissons Ratio (x) = 0.12655 0.14322
# Poissons Ratio (y) = 0.09727 -0.02829
# Poissons Ratio (z) = 0.25137 -0.06460
#
# Static dielectric constant tensor:
#      x y z
#    x 1.844650 0.008990 -0.025400 
#    y 0.008990 1.950820 0.020000 
#    z -0.025400 0.020000 2.047180 
# 
# From -- ./inp_files/412439.got.cif
#   From: 2010.05.17/outbox.cif.g08.bks.cpg/sg2_207_cif.got.tgz:412439.got - 2010.06.03 11:33:40.
