data_PCOD9007029
_publ_section_title
;
Structure prediction by ZEFSAII (Michael W. Deem and Ramdas Pophale) SiO2 
 PCOD9007029
Probable space group: P -1
;
_chemical_formula_sum "Si O2"
_cell_formula_units_Z 14
_cell_length_a 25.567945
_cell_length_b 6.010943
_cell_length_c 9.113286
_cell_angle_alpha 136.072610
_cell_angle_beta 138.505813
_cell_angle_gamma 55.600351
_cell_volume 642.775604
_symmetry_space_group_name_H-M "P -1"
_symmetry_group_IT_number 2
_symmetry_cell_setting 'triclinic'
loop_
_space_group_symop_operation_xyz
x,y,z
-x,-y,-z
loop_
_atom_site_type_symbol
_atom_site_label
_atom_site_fract_x
_atom_site_fract_y
_atom_site_fract_z
Si Si1 0.257317 0.437611 0.986440
Si Si2 0.173475 0.132464 0.096829
Si Si3 0.541317 0.833630 0.223530
Si Si4 0.321036 0.423454 0.439118
Si Si5 0.390068 0.120019 0.934221
Si Si6 0.964566 0.049898 0.109539
Si Si7 0.895399 0.789376 0.331628
O O1 0.320760 0.361202 0.958332
O O2 0.181934 0.216919 0.730284
O O3 0.222408 0.799930 0.073691
O O4 0.300499 0.385289 0.208052
O O5 0.130735 0.106346 0.836693
O O6 0.105800 0.172226 0.096244
O O7 0.239699 0.388912 0.340719
O O8 0.610870 0.838001 0.490112
O O9 0.582618 0.823759 0.146919
O O10 0.500000 0.500000 0.000000
O O11 0.469639 0.102868 0.192637
O O12 0.353995 0.770805 0.698206
O O13 0.928334 0.417190 0.214817
O O14 0.035726 0.017436 0.360520
O O15 0.000000 0.000000 0.000000
#
# Coordination Sequence:
#
# PCOD9007029 Si02
#       7
#     2   2   2   2   2   2   2
#     4  10  22  38  60  87 117 156 197 239 289 345
#     4  10  21  39  60  87 121 154 192 241 292 347
#     4   9  20  38  60  86 118 154 196 243 290 345
#     4  10  21  39  59  86 120 153 196 247 291 343
#     4  10  21  40  61  85 119 156 195 243 293 344
#     4  10  21  39  61  86 116 152 193 239 289 343
#     4   9  21  39  57  85 120 149 191 241 286 345
#
# _framework density 21.780540999999999
#
# number of rings (size 3 to 8) (size 9 to 14) (size 15 to 20)
#    0.000    2.286    0.000    1.286    0.000   10.286 
#    0.000   17.143    0.000    0.000    0.000    0.000 
#    0.000    0.000    0.000    0.000    0.000    0.000 
#
# Total GULP energy -78216.051626 kJ/mol
# GULP energy per Si atom -5586.860830 kJ/mol
# Density = 2.173097 g / cm^3
# Si number density = 21.780541 Si / 1000 Ang^3
#
#
#
# Elastic Constant Matrix: (Units=GPa)
#
#
# Indices 1 2 3 4 5 6 
#
# 1 164.3948 22.1001 23.4972 6.1469 48.1384 -2.9849
# 2 22.1001 98.9936 83.9710 -46.9521 -11.9020 22.3636
# 3 23.4972 83.9710 158.1790 -49.4588 0.8476 25.2753
# 4 6.1469 -46.9521 -49.4588 47.3206 11.9795 -4.3247
# 5 48.1384 -11.9020 0.8476 11.9795 32.0362 -6.4222
# 6 -2.9849 22.3636 25.2753 -4.3247 -6.4222 41.1549
#
#
#
# Elastic Compliance Matrix: (Units=1/GPa)
#
#
# Indices 1 2 3 4 5 6 
#
# 1 0.013879 -0.008942 0.001731 -0.002979 -0.022925 0.000912
# 2 -0.008942 0.032527 -0.008629 0.019394 0.016821 -0.008361
# 3 0.001731 -0.008629 0.013849 0.007810 -0.009981 -0.004427
# 4 -0.002979 0.019394 0.007810 0.050303 -0.009697 -0.011778
# 5 -0.022925 0.016821 -0.009981 -0.009697 0.077072 0.006335
# 6 0.000912 -0.008361 -0.004427 -0.011778 0.006335 0.031378
#
#
# Mechanical properties :
#
#
# Convention : Reuss Voigt Hill
#
# Bulk Modulus (GPa) = 34.99646 75.63379 55.31513
# Shear Modulus (GPa) = 19.21502 43.56896 31.39199
#
# Velocity S-wave (km/s) = 2.97343 4.47739 3.80055
# Velocity P-wave (km/s) = 5.28119 7.84412 6.68660
#
# Compressibility (1/GPa) = 0.02857432
#
# Stress axis : x y z
#
# Youngs Moduli (GPa) = 72.05328 30.74326 72.20986
#
# Poissons Ratio (x) = 0.27490 -0.12499
# Poissons Ratio (y) = 0.64429 0.62312
# Poissons Ratio (z) = -0.12472 0.26529
#
# Static dielectric constant tensor:
#      x y z
#    x 1.778370 -0.004220 0.031990 
#    y -0.004220 1.808690 -0.001290 
#    z 0.031990 -0.001290 1.814150 
# 
# From -- ./inp_files/8046.got.cif
#   From: 2010.05.17/outbox.cif.g08.bks.cpg/sg2_5_cif.got.tgz:8046.got - 2010.06.03 11:33:40.
