data_PCOD9007777
_publ_section_title
;
Structure prediction by ZEFSAII (Michael W. Deem and Ramdas Pophale) SiO2 
 PCOD9007777
Probable space group: P -1
;
_chemical_formula_sum "Si O2"
_cell_formula_units_Z 14
_cell_length_a 9.703527
_cell_length_b 15.122682
_cell_length_c 16.149415
_cell_angle_alpha 152.226861
_cell_angle_beta 142.606815
_cell_angle_gamma 39.472247
_cell_volume 650.378059
_symmetry_space_group_name_H-M "P -1"
_symmetry_group_IT_number 2
_symmetry_cell_setting 'triclinic'
loop_
_space_group_symop_operation_xyz
x,y,z
-x,-y,-z
loop_
_atom_site_type_symbol
_atom_site_label
_atom_site_fract_x
_atom_site_fract_y
_atom_site_fract_z
Si Si1 0.991847 0.685265 0.205197
Si Si2 0.248757 0.413828 0.437767
Si Si3 0.498122 0.985563 0.238878
Si Si4 0.752723 0.071111 0.579544
Si Si5 0.455750 0.373931 0.797915
Si Si6 0.243137 0.667640 0.804466
Si Si7 0.967606 0.326406 0.593130
O O1 0.742586 0.841518 0.209717
O O2 0.176269 0.792264 0.343089
O O3 0.035399 0.619885 0.267237
O O4 0.000000 0.500000 0.000000
O O5 0.277648 0.577596 0.654191
O O6 0.218728 0.523900 0.426617
O O7 0.012686 0.348854 0.300372
O O8 0.437219 0.206200 0.357595
O O9 0.545180 0.997967 0.371390
O O10 0.301440 0.874707 0.023445
O O11 0.651687 0.186001 0.708665
O O12 0.990413 0.907724 0.576735
O O13 0.423594 0.513674 0.819151
O O14 0.210549 0.328231 0.664315
O O15 0.500000 0.500000 0.000000
#
# Coordination Sequence:
#
# PCOD9007777 Si02
#       7
#     2   2   2   2   2   2   2
#     4  11  24  44  68  92 129 172 217 266 324 381
#     4  10  22  41  62  93 138 165 215 261 319 388
#     4  11  21  40  69  89 124 180 214 251 327 384
#     4  11  22  42  66  92 130 170 214 266 326 379
#     4  11  20  37  65  99 127 160 219 272 315 375
#     4  10  21  39  62  96 133 175 202 265 329 379
#     4  10  22  39  62  97 125 164 212 273 315 373
#
# _framework density 21.525939999999999
#
# number of rings (size 3 to 8) (size 9 to 14) (size 15 to 20)
#    0.000    1.429    1.429    6.000    0.000    0.000 
#    7.714    3.571    0.000    0.000    0.000    0.000 
#    0.000    0.000    0.000    0.000    0.000    0.000 
#
# Total GULP energy -78120.697929 kJ/mol
# GULP energy per Si atom -5580.049852 kJ/mol
# Density = 2.147695 g / cm^3
# Si number density = 21.525940 Si / 1000 Ang^3
#
#
#
# Elastic Constant Matrix: (Units=GPa)
#
#
# Indices 1 2 3 4 5 6 
#
# 1 100.3028 50.4081 46.9347 5.4879 -26.9357 11.8111
# 2 50.4081 140.0873 53.9581 10.7281 -25.8684 27.7907
# 3 46.9347 53.9581 126.6149 10.9071 -18.6226 -0.4852
# 4 5.4879 10.7281 10.9071 26.5944 -5.4474 0.4049
# 5 -26.9357 -25.8684 -18.6226 -5.4474 38.8780 4.6718
# 6 11.8111 27.7907 -0.4852 0.4049 4.6718 35.0524
#
#
#
# Elastic Compliance Matrix: (Units=1/GPa)
#
#
# Indices 1 2 3 4 5 6 
#
# 1 0.015417 -0.001488 -0.003915 0.000858 0.008563 -0.005220
# 2 -0.001488 0.012467 -0.003698 -0.001720 0.006487 -0.010279
# 3 -0.003915 -0.003698 0.011040 -0.002456 -0.000774 0.004536
# 4 0.000858 -0.001720 -0.002456 0.039915 0.003859 0.000065
# 5 0.008563 0.006487 -0.000774 0.003859 0.037716 -0.013110
# 6 -0.005220 -0.010279 0.004536 0.000065 -0.013110 0.040246
#
#
# Mechanical properties :
#
#
# Convention : Reuss Voigt Hill
#
# Bulk Modulus (GPa) = 48.26039 74.40073 61.33056
# Shear Modulus (GPa) = 27.48563 34.48525 30.98544
#
# Velocity S-wave (km/s) = 3.57720 4.00688 3.79812
# Velocity P-wave (km/s) = 6.28730 7.48633 6.91286
#
# Compressibility (1/GPa) = 0.02072093
#
# Stress axis : x y z
#
# Youngs Moduli (GPa) = 64.86256 80.21038 90.57609
#
# Poissons Ratio (x) = 0.11939 0.35461
# Poissons Ratio (y) = 0.09655 0.33499
# Poissons Ratio (z) = 0.25394 0.29665
#
# Static dielectric constant tensor:
#      x y z
#    x 1.738350 0.050880 0.134290 
#    y 0.050880 1.903750 0.067620 
#    z 0.134290 0.067620 1.860490 
# 
# From -- ./inp_files/223776.got.cif
#   From: 2010.05.17/outbox.cif.g08.bks.cpg/sg2_112_cif.got.tgz:223776.got - 2010.06.03 11:33:40.
