data_PCOD9007551
_publ_section_title
;
Structure prediction by ZEFSAII (Michael W. Deem and Ramdas Pophale) SiO2 
 PCOD9007551
Probable space group: P -1
;
_chemical_formula_sum "Si O2"
_cell_formula_units_Z 14
_cell_length_a 4.968991
_cell_length_b 5.881406
_cell_length_c 23.028291
_cell_angle_alpha 123.200595
_cell_angle_beta 104.513942
_cell_angle_gamma 84.501556
_cell_volume 544.449101
_symmetry_space_group_name_H-M "P -1"
_symmetry_group_IT_number 2
_symmetry_cell_setting 'triclinic'
loop_
_space_group_symop_operation_xyz
x,y,z
-x,-y,-z
loop_
_atom_site_type_symbol
_atom_site_label
_atom_site_fract_x
_atom_site_fract_y
_atom_site_fract_z
Si Si1 0.390039 0.440654 0.349642
Si Si2 0.123154 0.939123 0.215073
Si Si3 0.274590 0.762071 0.080745
Si Si4 0.693270 0.282057 0.048383
Si Si5 0.663004 0.278422 0.178625
Si Si6 0.072032 0.229119 0.693045
Si Si7 0.956903 0.375901 0.417249
O O1 0.710922 0.522005 0.390163
O O2 0.182294 0.643442 0.336944
O O3 0.237660 0.386821 0.395941
O O4 0.374454 0.159934 0.272536
O O5 0.041444 0.816069 0.254515
O O6 0.148237 0.734580 0.134332
O O7 0.877206 0.120477 0.206220
O O8 0.514722 0.547588 0.065863
O O9 0.393203 0.076429 0.131630
O O10 0.131712 0.732432 0.005050
O O11 0.784901 0.302987 0.123106
O O12 0.500000 0.000000 0.000000
O O13 0.659802 0.566242 0.251183
O O14 0.139613 0.942535 0.629374
O O15 0.000000 0.500000 0.500000
#
# Coordination Sequence:
#
# PCOD9007551 Si02
#       7
#     2   2   2   2   2   2   2
#     4  10  25  43  71 106 142 184 234 282 353 415
#     4  10  23  39  61  95 126 172 227 282 337 410
#     4  10  21  39  62  87 128 172 222 285 341 410
#     4   9  20  37  59  90 125 171 222 281 349 410
#     4  10  21  40  61  91 126 171 228 283 346 408
#     4  10  24  44  66 104 136 182 229 286 347 417
#     4  11  25  48  73 107 146 182 231 288 345 422
#
# _framework density 25.714062999999999
#
# number of rings (size 3 to 8) (size 9 to 14) (size 15 to 20)
#    0.000    2.000    0.000    1.286    8.000    8.571 
#    2.571   10.000    0.000    0.000    0.000    0.000 
#    0.000    0.000    0.000    0.000    0.000    0.000 
#
# Total GULP energy -78313.908221 kJ/mol
# GULP energy per Si atom -5593.850587 kJ/mol
# Density = 2.565554 g / cm^3
# Si number density = 25.714063 Si / 1000 Ang^3
#
#
#
# Elastic Constant Matrix: (Units=GPa)
#
#
# Indices 1 2 3 4 5 6 
#
# 1 78.2728 7.0746 37.2905 -0.2883 -2.0655 -6.6368
# 2 7.0746 96.6750 55.8059 1.8370 2.6850 -6.0767
# 3 37.2905 55.8059 221.3683 5.0843 -5.7837 -4.0176
# 4 -0.2883 1.8370 5.0843 39.0365 -2.6740 -0.3556
# 5 -2.0655 2.6850 -5.7837 -2.6740 35.8477 -8.4443
# 6 -6.6368 -6.0767 -4.0176 -0.3556 -8.4443 28.3932
#
#
#
# Elastic Compliance Matrix: (Units=1/GPa)
#
#
# Indices 1 2 3 4 5 6 
#
# 1 0.014223 0.000548 -0.002450 0.000515 0.001239 0.003470
# 2 0.000548 0.012294 -0.003174 -0.000207 -0.000939 0.002028
# 3 -0.002450 -0.003174 0.005765 -0.000556 0.000947 -0.000162
# 4 0.000515 -0.000207 -0.000556 0.025856 0.002107 0.000948
# 5 0.001239 -0.000939 0.000947 0.002107 0.030546 0.009334
# 6 0.003470 0.002028 -0.000162 0.000948 0.009334 0.039230
#
#
# Mechanical properties :
#
#
# Convention : Reuss Voigt Hill
#
# Bulk Modulus (GPa) = 45.19386 66.29534 55.74460
# Shear Modulus (GPa) = 34.37766 40.39848 37.38807
#
# Velocity S-wave (km/s) = 3.66036 3.96797 3.81726
# Velocity P-wave (km/s) = 5.95634 6.84330 6.41517
#
# Compressibility (1/GPa) = 0.02212690
#
# Stress axis : x y z
#
# Youngs Moduli (GPa) = 70.31098 81.34180 173.46099
#
# Poissons Ratio (x) = -0.04454 0.42505
# Poissons Ratio (y) = -0.03850 0.55064
# Poissons Ratio (z) = 0.17229 0.25821
#
# Static dielectric constant tensor:
#      x y z
#    x 2.055860 0.097610 0.000270 
#    y 0.097610 2.098750 0.015020 
#    z 0.000270 0.015020 2.018500 
# 
# From -- ./inp_files/581256.got.cif
#   From: 2010.05.17/outbox.cif.g08.bks.cpg/sg2_291_cif.got.tgz:581256.got - 2010.06.03 11:33:40.
