data_PCOD9007274
_publ_section_title
;
Structure prediction by ZEFSAII (Michael W. Deem and Ramdas Pophale) SiO2 
 PCOD9007274
Probable space group: P -1
;
_chemical_formula_sum "Si O2"
_cell_formula_units_Z 14
_cell_length_a 15.480385
_cell_length_b 9.376619
_cell_length_c 8.942588
_cell_angle_alpha 52.475074
_cell_angle_beta 129.633176
_cell_angle_gamma 142.037649
_cell_volume 599.299433
_symmetry_space_group_name_H-M "P -1"
_symmetry_group_IT_number 2
_symmetry_cell_setting 'triclinic'
loop_
_space_group_symop_operation_xyz
x,y,z
-x,-y,-z
loop_
_atom_site_type_symbol
_atom_site_label
_atom_site_fract_x
_atom_site_fract_y
_atom_site_fract_z
Si Si1 0.748025 0.931111 0.778370
Si Si2 0.683237 0.144934 0.334874
Si Si3 0.833595 0.666973 0.171069
Si Si4 0.328226 0.986033 0.903753
Si Si5 0.528163 0.297222 0.186110
Si Si6 0.015057 0.826734 0.547723
Si Si7 0.147210 0.644707 0.165693
O O1 0.578776 0.757082 0.765383
O O2 0.746238 0.038606 0.554630
O O3 0.831380 0.150322 0.847555
O O4 0.819651 0.808832 0.942659
O O5 0.801629 0.426818 0.240749
O O6 0.605622 0.007256 0.184532
O O7 0.578555 0.140856 0.338631
O O8 0.687522 0.558670 0.180987
O O9 0.976197 0.817575 0.336963
O O10 0.174256 0.916481 0.719873
O O11 0.276062 0.779140 0.097726
O O12 0.439804 0.219484 0.979480
O O13 0.884370 0.553367 0.632854
O O14 0.000000 0.000000 0.500000
O O15 0.000000 0.500000 0.000000
#
# Coordination Sequence:
#
# PCOD9007274 Si02
#       7
#     2   2   2   2   2   2   2
#     4  11  19  39  60  87 117 155 198 241 284 345
#     4  10  22  37  60  87 122 151 196 237 301 337
#     4  10  22  36  61  89 117 152 201 238 284 349
#     4  10  21  39  61  84 122 155 189 247 292 343
#     4   9  20  38  61  86 117 157 198 237 286 347
#     4  11  21  39  60  90 116 151 201 241 288 352
#     4   9  18  35  59  80 110 155 190 234 286 341
#
# _framework density 23.360607999999999
#
# number of rings (size 3 to 8) (size 9 to 14) (size 15 to 20)
#    0.857    1.143    1.429    3.857    0.000    0.571 
#    2.571    1.429    0.000    0.000    0.000    0.000 
#    0.000    0.000    0.000    0.000    0.000    0.000 
#
# Total GULP energy -78035.867690 kJ/mol
# GULP energy per Si atom -5573.990549 kJ/mol
# Density = 2.330744 g / cm^3
# Si number density = 23.360608 Si / 1000 Ang^3
#
#
#
# Elastic Constant Matrix: (Units=GPa)
#
#
# Indices 1 2 3 4 5 6 
#
# 1 52.4261 9.8358 33.6108 -8.4540 5.0027 16.0799
# 2 9.8358 67.1891 33.1200 4.5415 13.3145 11.5103
# 3 33.6108 33.1200 179.8662 -7.7436 20.6688 -3.7443
# 4 -8.4540 4.5415 -7.7436 41.7687 -4.6618 6.8130
# 5 5.0027 13.3145 20.6688 -4.6618 29.3951 6.4562
# 6 16.0799 11.5103 -3.7443 6.8130 6.4562 24.2327
#
#
#
# Elastic Compliance Matrix: (Units=1/GPa)
#
#
# Indices 1 2 3 4 5 6 
#
# 1 0.033580 0.001683 -0.007522 0.010737 0.006907 -0.029103
# 2 0.001683 0.018929 -0.003517 -0.001415 -0.004631 -0.009020
# 3 -0.007522 -0.003517 0.008371 -0.001819 -0.005482 0.009927
# 4 0.010737 -0.001415 -0.001819 0.029731 0.008627 -0.017391
# 5 0.006907 -0.004631 -0.005482 0.008627 0.043980 -0.017373
# 6 -0.029103 -0.009020 0.009927 -0.017391 -0.017373 0.075915
#
#
# Mechanical properties :
#
#
# Convention : Reuss Voigt Hill
#
# Bulk Modulus (GPa) = 23.71391 50.29052 37.00222
# Shear Modulus (GPa) = 20.55310 33.94029 27.24669
#
# Velocity S-wave (km/s) = 2.96939 3.81581 3.41889
# Velocity P-wave (km/s) = 4.68291 6.40223 5.60884
#
# Compressibility (1/GPa) = 0.04216934
#
# Stress axis : x y z
#
# Youngs Moduli (GPa) = 29.77975 52.82918 119.45804
#
# Poissons Ratio (x) = -0.08894 0.89858
# Poissons Ratio (y) = -0.05013 0.42009
# Poissons Ratio (z) = 0.22401 0.18578
#
# Static dielectric constant tensor:
#      x y z
#    x 2.143420 0.058290 0.174440 
#    y 0.058290 1.890980 -0.037180 
#    z 0.174440 -0.037180 2.057070 
# 
# From -- ./inp_files/345012.got.cif
#   From: 2010.05.17/outbox.cif.g08.bks.cpg/sg2_173_cif.got.tgz:345012.got - 2010.06.03 11:33:40.
