data_PCOD9007829
_publ_section_title
;
Structure prediction by ZEFSAII (Michael W. Deem and Ramdas Pophale) SiO2 
 PCOD9007829
Probable space group: P -1
;
_chemical_formula_sum "Si O2"
_cell_formula_units_Z 16
_cell_length_a 9.663280
_cell_length_b 8.614172
_cell_length_c 27.885905
_cell_angle_alpha 132.595928
_cell_angle_beta 28.163721
_cell_angle_gamma 131.310146
_cell_volume 792.971926
_symmetry_space_group_name_H-M "P -1"
_symmetry_group_IT_number 2
_symmetry_cell_setting 'triclinic'
loop_
_space_group_symop_operation_xyz
x,y,z
-x,-y,-z
loop_
_atom_site_type_symbol
_atom_site_label
_atom_site_fract_x
_atom_site_fract_y
_atom_site_fract_z
Si Si1 0.191893 0.571320 0.597977
Si Si2 0.332885 0.317530 0.171155
Si Si3 0.602291 0.956749 0.406652
Si Si4 0.796310 0.175496 0.587087
Si Si5 0.738080 0.760245 0.170504
Si Si6 0.313814 0.649292 0.020482
Si Si7 0.245570 0.907429 0.182620
Si Si8 0.241883 0.141313 0.921927
O O1 0.500000 0.500000 0.500000
O O2 0.975135 0.592773 0.713384
O O3 0.994325 0.405318 0.587543
O O4 0.281371 0.807203 0.599783
O O5 0.586323 0.515174 0.152228
O O6 0.312712 0.123390 0.174564
O O7 0.420324 0.264650 0.079820
O O8 0.334762 0.845081 0.430798
O O9 0.895662 0.849178 0.289989
O O10 0.500000 0.000000 0.500000
O O11 0.504941 0.146452 0.704418
O O12 0.000000 0.000000 0.500000
O O13 0.813262 0.882569 0.123038
O O14 0.029558 0.744217 0.108211
O O15 0.354793 0.730445 0.078853
O O16 0.250575 0.392698 0.982353
O O17 0.443207 0.921793 0.172896
O O18 0.000000 0.000000 0.000000
#
# Coordination Sequence:
#
# PCOD9007829 Si02
#       8
#     2   2   2   2   2   2   2   2
#     4  10  21  40  64  94 126 161 214 256 305 375
#     4   9  20  35  61  86 117 161 197 246 305 361
#     4  11  25  42  65  92 129 162 203 268 321 363
#     4  11  22  41  69  92 120 164 216 257 309 375
#     4  10  21  39  63  87 116 160 206 248 301 371
#     4  11  20  38  62  87 118 158 204 243 304 368
#     4  11  22  39  58  89 125 152 202 256 311 363
#     4  11  23  38  58  88 126 161 196 249 307 367
#
# _framework density 20.177257999999998
#
# number of rings (size 3 to 8) (size 9 to 14) (size 15 to 20)
#    0.000    1.500    2.500    3.750    1.750    1.500 
#    0.000    1.250    0.000    0.000    0.000    0.000 
#    0.000    0.000    0.000    0.000    0.000    0.000 
#
# Total GULP energy -89366.099963 kJ/mol
# GULP energy per Si atom -5585.381248 kJ/mol
# Density = 2.013133 g / cm^3
# Si number density = 20.177258 Si / 1000 Ang^3
#
#
#
# Elastic Constant Matrix: (Units=GPa)
#
#
# Indices 1 2 3 4 5 6 
#
# 1 99.5245 7.6455 42.8875 -8.3736 -5.6654 6.8321
# 2 7.6455 52.7415 14.9839 -2.6612 -2.8697 1.8404
# 3 42.8875 14.9839 111.9668 -0.3929 -6.6835 7.1192
# 4 -8.3736 -2.6612 -0.3929 28.4010 0.6477 -1.8805
# 5 -5.6654 -2.8697 -6.6835 0.6477 40.0775 2.1378
# 6 6.8321 1.8404 7.1192 -1.8805 2.1378 24.1246
#
#
#
# Elastic Compliance Matrix: (Units=1/GPa)
#
#
# Indices 1 2 3 4 5 6 
#
# 1 0.012519 -0.000217 -0.004564 0.003451 0.001044 -0.002005
# 2 -0.000217 0.019855 -0.002466 0.001695 0.000989 -0.000681
# 3 -0.004564 -0.002466 0.011205 -0.001585 0.001182 -0.002054
# 4 0.003451 0.001695 -0.001585 0.036521 -0.000365 0.002240
# 5 0.001044 0.000989 0.001182 -0.000365 0.025534 -0.003011
# 6 -0.002005 -0.000681 -0.002054 0.002240 -0.003011 0.043119
#
#
# Mechanical properties :
#
#
# Convention : Reuss Voigt Hill
#
# Bulk Modulus (GPa) = 34.38168 43.91852 39.15010
# Shear Modulus (GPa) = 28.91142 31.76833 30.33987
#
# Velocity S-wave (km/s) = 3.78944 3.97225 3.88192
# Velocity P-wave (km/s) = 6.01857 6.54614 6.28789
#
# Compressibility (1/GPa) = 0.02908526
#
# Stress axis : x y z
#
# Youngs Moduli (GPa) = 79.88049 50.36396 89.24558
#
# Poissons Ratio (x) = 0.01094 0.40733
# Poissons Ratio (y) = 0.01735 0.22005
# Poissons Ratio (z) = 0.36458 0.12418
#
# Static dielectric constant tensor:
#      x y z
#    x 1.690500 0.021950 -0.012520 
#    y 0.021950 1.707420 0.006610 
#    z -0.012520 0.006610 1.766020 
# 
# From -- ./inp_files/186105.got.cif
#   From: 2010.05.17/outbox.cif.g08.bks.cpg/sg2_94_cif.got.tgz:186105.got - 2010.06.03 11:33:40.
