data_PCOD9007108
_publ_section_title
;
Structure prediction by ZEFSAII (Michael W. Deem and Ramdas Pophale) SiO2 
 PCOD9007108
Probable space group: P -1
;
_chemical_formula_sum "Si O2"
_cell_formula_units_Z 16
_cell_length_a 12.250219
_cell_length_b 22.998408
_cell_length_c 7.899708
_cell_angle_alpha 102.842328
_cell_angle_beta 91.386337
_cell_angle_gamma 154.705979
_cell_volume 780.054690
_symmetry_space_group_name_H-M "P -1"
_symmetry_group_IT_number 2
_symmetry_cell_setting 'triclinic'
loop_
_space_group_symop_operation_xyz
x,y,z
-x,-y,-z
loop_
_atom_site_type_symbol
_atom_site_label
_atom_site_fract_x
_atom_site_fract_y
_atom_site_fract_z
Si Si1 0.567721 0.466194 0.432120
Si Si2 0.123040 0.135373 0.275498
Si Si3 0.336963 0.363392 0.000335
Si Si4 0.967823 0.085675 0.597148
Si Si5 0.653284 0.876202 0.791106
Si Si6 0.800303 0.263378 0.417326
Si Si7 0.696162 0.088392 0.900226
Si Si8 0.584437 0.111743 0.628596
O O1 0.500000 0.500000 0.500000
O O2 0.312401 0.292904 0.385388
O O3 0.908034 0.617039 0.581976
O O4 0.537495 0.443993 0.214831
O O5 0.331990 0.187852 0.248267
O O6 0.039440 0.082039 0.434362
O O7 0.841340 0.994257 0.040329
O O8 0.242620 0.264828 0.799375
O O9 0.032276 0.233351 0.995909
O O10 0.500000 0.500000 0.000000
O O11 0.827588 0.983589 0.693248
O O12 0.723561 0.007867 0.460995
O O13 0.324370 0.739311 0.669470
O O14 0.822803 0.270859 0.628020
O O15 0.508206 0.070876 0.277136
O O16 0.705343 0.156059 0.846346
O O17 0.500000 0.000000 0.000000
O O18 0.500000 0.000000 0.500000
#
# Coordination Sequence:
#
# PCOD9007108 Si02
#       8
#     2   2   2   2   2   2   2   2
#     4  12  25  39  61  98 131 167 209 267 331 383
#     4  11  24  40  71  94 127 162 220 271 318 391
#     4  12  23  38  59  91 138 171 210 267 330 392
#     4  11  21  39  64  92 126 165 214 263 324 382
#     4  10  22  46  65  95 121 172 219 265 319 381
#     4  10  21  39  60  83 127 169 210 259 319 386
#     4  11  21  34  58  88 124 172 215 263 317 393
#     4   9  18  32  55  82 116 162 202 248 309 377
#
# _framework density 20.511381
#
# number of rings (size 3 to 8) (size 9 to 14) (size 15 to 20)
#    0.000    1.250    5.000    2.625    8.750    0.500 
#    0.000    0.000    0.000    0.750    0.000    0.000 
#    0.000    0.000    0.000    0.000    0.000    0.000 
#
# Total GULP energy -89108.373327 kJ/mol
# GULP energy per Si atom -5569.273333 kJ/mol
# Density = 2.046470 g / cm^3
# Si number density = 20.511381 Si / 1000 Ang^3
#
#
#
# Elastic Constant Matrix: (Units=GPa)
#
#
# Indices 1 2 3 4 5 6 
#
# 1 102.9537 11.7332 47.2575 4.3101 2.0513 10.3468
# 2 11.7332 51.2425 25.8750 -6.0272 -2.5774 10.1068
# 3 47.2575 25.8750 73.6893 -6.2338 7.8071 13.0874
# 4 4.3101 -6.0272 -6.2338 31.3531 -0.5941 2.9947
# 5 2.0513 -2.5774 7.8071 -0.5941 28.2660 -0.2192
# 6 10.3468 10.1068 13.0874 2.9947 -0.2192 33.6541
#
#
#
# Elastic Compliance Matrix: (Units=1/GPa)
#
#
# Indices 1 2 3 4 5 6 
#
# 1 0.014377 0.001644 -0.010186 -0.003591 0.001840 -0.000621
# 2 0.001644 0.025448 -0.009370 0.003350 0.004823 -0.004771
# 3 -0.010186 -0.009370 0.025335 0.004922 -0.007043 -0.004391
# 4 -0.003591 0.003350 0.004922 0.034476 -0.000107 -0.004885
# 5 0.001840 0.004823 -0.007043 -0.000107 0.037635 0.000980
# 6 -0.000621 -0.004771 -0.004391 -0.004885 0.000980 0.033486
#
#
# Mechanical properties :
#
#
# Convention : Reuss Voigt Hill
#
# Bulk Modulus (GPa) = 34.08757 44.17964 39.13361
# Shear Modulus (GPa) = 23.10957 28.18928 25.64943
#
# Velocity S-wave (km/s) = 3.36023 3.71121 3.54007
# Velocity P-wave (km/s) = 5.63115 6.32060 5.98581
#
# Compressibility (1/GPa) = 0.02933621
#
# Stress axis : x y z
#
# Youngs Moduli (GPa) = 69.55353 39.29644 39.47037
#
# Poissons Ratio (x) = -0.06460 0.40204
# Poissons Ratio (y) = -0.11435 0.36984
# Poissons Ratio (z) = 0.70847 0.36821
#
# Static dielectric constant tensor:
#      x y z
#    x 1.932660 -0.238390 0.110070 
#    y -0.238390 2.118880 -0.389470 
#    z 0.110070 -0.389470 2.271640 
# 
# From -- ./inp_files/283106.got.cif
#   From: 2010.05.17/outbox.cif.g08.bks.cpg/sg2_142_cif.got.tgz:283106.got - 2010.06.03 11:33:40.
