data_PCOD9007559
_publ_section_title
;
Structure prediction by ZEFSAII (Michael W. Deem and Ramdas Pophale) SiO2 
 PCOD9007559
Probable space group: P -1
;
_chemical_formula_sum "Si O2"
_cell_formula_units_Z 16
_cell_length_a 8.532031
_cell_length_b 23.710743
_cell_length_c 8.919921
_cell_angle_alpha 31.728077
_cell_angle_beta 123.153365
_cell_angle_gamma 112.927130
_cell_volume 782.688982
_symmetry_space_group_name_H-M "P -1"
_symmetry_group_IT_number 2
_symmetry_cell_setting 'triclinic'
loop_
_space_group_symop_operation_xyz
x,y,z
-x,-y,-z
loop_
_atom_site_type_symbol
_atom_site_label
_atom_site_fract_x
_atom_site_fract_y
_atom_site_fract_z
Si Si1 0.400084 0.308727 0.182249
Si Si2 0.395565 0.215291 0.728044
Si Si3 0.788213 0.137276 0.272761
Si Si4 0.113537 0.106004 0.011357
Si Si5 0.082548 0.393939 0.194210
Si Si6 0.209385 0.774623 0.593630
Si Si7 0.042245 0.250917 0.942747
Si Si8 0.163881 0.513469 0.670596
O O1 0.396030 0.245673 0.482837
O O2 0.597320 0.267822 0.295620
O O3 0.362428 0.441307 0.883959
O O4 0.228694 0.283241 0.044661
O O5 0.286189 0.325627 0.501358
O O6 0.603314 0.173676 0.992355
O O7 0.263963 0.129906 0.909512
O O8 0.761767 0.200051 0.275259
O O9 0.822434 0.010537 0.617512
O O10 0.962452 0.169517 0.198259
O O11 0.909944 0.120626 0.789516
O O12 0.090453 0.194454 0.935009
O O13 0.931414 0.313238 0.291524
O O14 0.000000 0.500000 0.000000
O O15 0.115314 0.441200 0.944306
O O16 0.875873 0.358729 0.599619
O O17 0.000000 0.500000 0.500000
#
# Coordination Sequence:
#
# PCOD9007559 Si02
#       8
#     2   2   2   2   2   2   2   2
#     4  10  22  40  62  92 125 158 197 246 302 362
#     4  10  22  40  61  89 122 158 201 249 298 358
#     4  12  24  41  62  88 120 162 207 251 297 351
#     4  11  23  42  62  87 120 160 204 256 302 347
#     4  10  21  39  62  88 121 156 194 246 303 358
#     4  11  23  40  62  90 121 159 202 246 299 362
#     4  11  22  40  63  90 122 159 203 250 299 358
#     4   9  18  36  59  84 117 154 189 238 296 352
#
# _framework density 20.442347000000002
#
# number of rings (size 3 to 8) (size 9 to 14) (size 15 to 20)
#    0.000    1.500    0.000    7.125    0.000    2.000 
#    0.000    8.750    0.000    0.000    0.000    0.000 
#    0.000    0.000    0.000    0.000    0.000    0.000 
#
# Total GULP energy -89288.230395 kJ/mol
# GULP energy per Si atom -5580.514400 kJ/mol
# Density = 2.039582 g / cm^3
# Si number density = 20.442347 Si / 1000 Ang^3
#
#
#
# Elastic Constant Matrix: (Units=GPa)
#
#
# Indices 1 2 3 4 5 6 
#
# 1 -141.2052 -29.2780 -146.9504 8.2304 -4.2066 -34.4349
# 2 -29.2780 35.3785 -17.9383 2.2118 0.5103 -16.3817
# 3 -146.9504 -17.9383 -6.7529 5.2099 -6.8319 -13.4468
# 4 8.2304 2.2118 5.2099 33.9589 3.7078 -2.6157
# 5 -4.2066 0.5103 -6.8319 3.7078 32.7091 6.3436
# 6 -34.4349 -16.3817 -13.4468 -2.6157 6.3436 23.2595
#
#
#
# Elastic Compliance Matrix: (Units=1/GPa)
#
#
# Indices 1 2 3 4 5 6 
#
# 1 0.001230 -0.004169 -0.006065 0.000584 -0.000239 -0.004490
# 2 -0.004169 0.028421 -0.004422 0.001305 -0.004507 0.012664
# 3 -0.006065 -0.004422 0.008475 -0.000446 0.002655 -0.007968
# 4 0.000584 0.001305 -0.000446 0.030278 -0.004674 0.006206
# 5 -0.000239 -0.004507 0.002655 -0.004674 0.033982 -0.011787
# 6 -0.004490 0.012664 -0.007968 0.006206 -0.011787 0.044571
#
#
# Mechanical properties :
#
#
# Convention : Reuss Voigt Hill
#
# Bulk Modulus (GPa) = 113.45030 -55.65700 28.89665
# Shear Modulus (GPa) = 27.90068 23.42464 25.66266
#
# Velocity S-wave (km/s) = 3.69839 3.38877 3.54696
# Velocity P-wave (km/s) = 8.59393 3.46031 5.56246
#
# Compressibility (1/GPa) = 0.00881443
#
# Stress axis : x y z
#
# Youngs Moduli (GPa) = 812.78558 35.18533 117.99642
#
# Poissons Ratio (x) = 0.14669 0.71563
# Poissons Ratio (y) = 3.38866 0.52176
# Poissons Ratio (z) = 4.92941 0.15558
#
# Static dielectric constant tensor:
#      x y z
#    x 1.736020 -0.026510 0.040570 
#    y -0.026510 1.739250 -0.042270 
#    z 0.040570 -0.042270 1.753460 
# 
# From -- ./inp_files/218478.got.cif
#   From: 2010.05.17/outbox.cif.g08.bks.cpg/sg2_110_cif.got.tgz:218478.got - 2010.06.03 11:33:40.
