data_PCOD9007685
_publ_section_title
;
Structure prediction by ZEFSAII (Michael W. Deem and Ramdas Pophale) SiO2 
 PCOD9007685
Probable space group: P -1
;
_chemical_formula_sum "Si O2"
_cell_formula_units_Z 16
_cell_length_a 18.990579
_cell_length_b 7.478542
_cell_length_c 22.267690
_cell_angle_alpha 146.778004
_cell_angle_beta 157.649559
_cell_angle_gamma 34.325174
_cell_volume 637.919994
_symmetry_space_group_name_H-M "P -1"
_symmetry_group_IT_number 2
_symmetry_cell_setting 'triclinic'
loop_
_space_group_symop_operation_xyz
x,y,z
-x,-y,-z
loop_
_atom_site_type_symbol
_atom_site_label
_atom_site_fract_x
_atom_site_fract_y
_atom_site_fract_z
Si Si1 0.792252 0.466895 0.493800
Si Si2 0.111664 0.687720 0.962228
Si Si3 0.605028 0.206466 0.062539
Si Si4 0.757531 0.403739 0.626585
Si Si5 0.790735 0.647359 0.403742
Si Si6 0.656339 0.248963 0.633786
Si Si7 0.408145 0.315839 0.179252
Si Si8 0.201526 0.312385 0.824486
O O1 0.776792 0.498901 0.418147
O O2 0.632616 0.294536 0.345277
O O3 0.006749 0.288044 0.633003
O O4 0.743298 0.848137 0.589673
O O5 0.158799 0.677842 0.926410
O O6 0.959161 0.459215 0.782139
O O7 0.312519 0.560331 0.117972
O O8 0.000000 0.000000 0.000000
O O9 0.655462 0.545094 0.218511
O O10 0.717246 0.951579 0.131513
O O11 0.379582 0.257968 0.906017
O O12 0.653504 0.021866 0.984922
O O13 0.740349 0.387576 0.680193
O O14 0.572947 0.684429 0.537925
O O15 0.743856 0.044293 0.489688
O O16 0.000000 0.500000 0.500000
O O17 0.677540 0.480068 0.771826
#
# Coordination Sequence:
#
# PCOD9007685 Si02
#       8
#     2   2   2   2   2   2   2   2
#     4  11  22  38  66  94 120 162 210 258 310 364
#     4  11  21  37  63  93 124 159 202 257 315 364
#     4  10  23  40  60  90 124 161 203 255 311 362
#     4  10  23  41  63  87 125 173 204 249 313 369
#     4  11  23  42  62  86 125 170 210 248 304 372
#     4  10  22  41  61  90 124 163 211 254 308 371
#     4  11  22  37  62  93 124 157 206 262 304 361
#     4  10  21  39  62  92 124 155 205 261 308 361
#
# _framework density 25.081513999999999
#
# number of rings (size 3 to 8) (size 9 to 14) (size 15 to 20)
#    0.000    1.500    0.000    6.375    0.000    5.500 
#    0.000    6.250    0.000    0.000    0.000    0.000 
#    0.000    0.000    0.000    0.000    0.000    0.000 
#
# Total GULP energy -89518.440942 kJ/mol
# GULP energy per Si atom -5594.902559 kJ/mol
# Density = 2.502443 g / cm^3
# Si number density = 25.081514 Si / 1000 Ang^3
#
#
#
# Elastic Constant Matrix: (Units=GPa)
#
#
# Indices 1 2 3 4 5 6 
#
# 1 104.4348 30.0972 27.8335 17.9850 -31.4217 -28.2429
# 2 30.0972 107.6377 64.7403 1.0265 -14.8552 -24.0481
# 3 27.8335 64.7403 126.8874 4.5742 -30.8941 -17.7228
# 4 17.9850 1.0265 4.5742 63.3933 -25.1156 -13.8143
# 5 -31.4217 -14.8552 -30.8941 -25.1156 41.4884 4.3586
# 6 -28.2429 -24.0481 -17.7228 -13.8143 4.3586 45.0004
#
#
#
# Elastic Compliance Matrix: (Units=1/GPa)
#
#
# Indices 1 2 3 4 5 6 
#
# 1 0.015545 -0.001579 0.001803 0.002730 0.013239 0.009178
# 2 -0.001579 0.014734 -0.006669 0.001554 -0.000447 0.004776
# 3 0.001803 -0.006669 0.013938 0.003745 0.011296 0.003112
# 4 0.002730 0.001554 0.003745 0.024404 0.019172 0.009654
# 5 0.013239 -0.000447 0.011296 0.019172 0.052589 0.013311
# 6 0.009178 0.004776 0.003112 0.009654 0.013311 0.033435
#
#
# Mechanical properties :
#
#
# Convention : Reuss Voigt Hill
#
# Bulk Modulus (GPa) = 31.92183 64.92245 48.42214
# Shear Modulus (GPa) = 28.09338 44.39566 36.24452
#
# Velocity S-wave (km/s) = 3.35039 4.21177 3.80553
# Velocity P-wave (km/s) = 5.26514 7.04221 6.21749
#
# Compressibility (1/GPa) = 0.03132652
#
# Stress axis : x y z
#
# Youngs Moduli (GPa) = 64.32837 67.87202 71.74514
#
# Poissons Ratio (x) = 0.10719 -0.12934
# Poissons Ratio (y) = 0.10160 0.47845
# Poissons Ratio (z) = -0.11597 0.45262
#
# Static dielectric constant tensor:
#      x y z
#    x 2.010470 0.056520 -0.059550 
#    y 0.056520 2.108440 0.044230 
#    z -0.059550 0.044230 1.966050 
# 
# From -- ./inp_files/613635.got.cif
#   From: 2010.05.17/outbox.cif.g08.bks.cpg/sg2_307_cif.got.tgz:613635.got - 2010.06.03 11:33:40.
