data_PCOD9007686
_publ_section_title
;
Structure prediction by ZEFSAII (Michael W. Deem and Ramdas Pophale) SiO2 
 PCOD9007686
Probable space group: P -1
;
_chemical_formula_sum "Si O2"
_cell_formula_units_Z 14
_cell_length_a 10.242471
_cell_length_b 13.184525
_cell_length_c 10.388193
_cell_angle_alpha 58.681508
_cell_angle_beta 129.974466
_cell_angle_gamma 144.899757
_cell_volume 618.104742
_symmetry_space_group_name_H-M "P -1"
_symmetry_group_IT_number 2
_symmetry_cell_setting 'triclinic'
loop_
_space_group_symop_operation_xyz
x,y,z
-x,-y,-z
loop_
_atom_site_type_symbol
_atom_site_label
_atom_site_fract_x
_atom_site_fract_y
_atom_site_fract_z
Si Si1 0.035209 0.929381 0.185821
Si Si2 0.991230 0.646005 0.247243
Si Si3 0.659374 0.483492 0.487723
Si Si4 0.253986 0.082236 0.761951
Si Si5 0.803529 0.351470 0.869120
Si Si6 0.855277 0.756828 0.586046
Si Si7 0.620179 0.286668 0.365476
O O1 0.932688 0.748376 0.192625
O O2 0.877862 0.911483 0.212702
O O3 0.340660 0.088655 0.301126
O O4 0.000000 0.000000 0.000000
O O5 0.103237 0.702013 0.136082
O O6 0.196708 0.707435 0.443511
O O7 0.772364 0.429973 0.251222
O O8 0.738249 0.423339 0.679244
O O9 0.881433 0.692336 0.516972
O O10 0.393724 0.416175 0.383690
O O11 0.612016 0.394858 0.384155
O O12 0.542357 0.193804 0.883020
O O13 0.229893 0.157474 0.572777
O O14 0.086470 0.884393 0.742978
O O15 0.000000 0.500000 0.000000
#
# Coordination Sequence:
#
# PCOD9007686 Si02
#       7
#     2   2   2   2   2   2   2
#     4  12  26  42  66  99 133 170 217 268 324 387
#     4  10  24  45  67  95 128 177 214 264 324 384
#     4   9  17  35  61  91 115 161 209 259 313 374
#     4  10  21  39  62  92 124 162 211 267 312 378
#     4  10  23  42  61  87 129 168 206 258 325 387
#     4   9  17  33  62  91 119 150 210 268 312 359
#     4  10  21  44  69  93 129 171 222 265 319 384
#
# _framework density 22.649882999999999
#
# number of rings (size 3 to 8) (size 9 to 14) (size 15 to 20)
#    0.000    2.000    1.429    1.286    4.000    1.714 
#   10.286    1.429    0.000    0.000    0.000    0.000 
#    0.000    0.000    0.000    0.000    0.000    0.000 
#
# Total GULP energy -77956.875683 kJ/mol
# GULP energy per Si atom -5568.348263 kJ/mol
# Density = 2.259833 g / cm^3
# Si number density = 22.649883 Si / 1000 Ang^3
#
#
#
# Elastic Constant Matrix: (Units=GPa)
#
#
# Indices 1 2 3 4 5 6 
#
# 1 88.6748 45.3927 5.9524 19.4731 -14.0509 4.0863
# 2 45.3927 83.2228 18.0273 26.9139 -8.0616 -0.1085
# 3 5.9524 18.0273 43.0584 12.6272 -12.1086 10.7708
# 4 19.4731 26.9139 12.6272 34.7239 -0.8545 4.3232
# 5 -14.0509 -8.0616 -12.1086 -0.8545 12.8379 2.1428
# 6 4.0863 -0.1085 10.7708 4.3232 2.1428 37.9468
#
#
#
# Elastic Compliance Matrix: (Units=1/GPa)
#
#
# Indices 1 2 3 4 5 6 
#
# 1 0.022798 -0.009462 0.014823 -0.009073 0.033649 -0.007556
# 2 -0.009462 0.021233 -0.007646 -0.009081 -0.005607 0.004601
# 3 0.014823 -0.007646 0.051131 -0.017273 0.061443 -0.017633
# 4 -0.009073 -0.009081 -0.017273 0.046209 -0.029223 0.002240
# 5 0.033649 -0.005607 0.061443 -0.029223 0.171791 -0.027451
# 6 -0.007556 0.004601 -0.017633 0.002240 -0.027451 0.033479
#
#
# Mechanical properties :
#
#
# Convention : Reuss Voigt Hill
#
# Bulk Modulus (GPa) = 11.03843 39.30007 25.16925
# Shear Modulus (GPa) = 13.10928 26.80730 19.95829
#
# Velocity S-wave (km/s) = 2.40839 3.44401 2.97166
# Velocity P-wave (km/s) = 3.55217 5.76227 4.78652
#
# Compressibility (1/GPa) = 0.09059260
#
# Stress axis : x y z
#
# Youngs Moduli (GPa) = 43.86284 47.09673 19.55755
#
# Poissons Ratio (x) = 0.44564 -0.28991
# Poissons Ratio (y) = 0.41504 0.14954
# Poissons Ratio (z) = -0.65020 0.36011
#
# Static dielectric constant tensor:
#      x y z
#    x 1.915530 -0.206990 -0.152550 
#    y -0.206990 1.288300 -0.333720 
#    z -0.152550 -0.333720 1.684750 
# 
# From -- ./inp_files/431264.got.cif
#   From: 2010.05.17/outbox.cif.g08.bks.cpg/sg2_216_cif.got.tgz:431264.got - 2010.06.03 11:33:40.
