data_PCOD9007150
_publ_section_title
;
Structure prediction by ZEFSAII (Michael W. Deem and Ramdas Pophale) SiO2 
 PCOD9007150
Probable space group: P -1
;
_chemical_formula_sum "Si O2"
_cell_formula_units_Z 13
_cell_length_a 16.683183
_cell_length_b 11.984871
_cell_length_c 12.108701
_cell_angle_alpha 30.767388
_cell_angle_beta 27.363856
_cell_angle_gamma 28.609805
_cell_volume 496.814184
_symmetry_space_group_name_H-M "P -1"
_symmetry_group_IT_number 2
_symmetry_cell_setting 'triclinic'
loop_
_space_group_symop_operation_xyz
x,y,z
-x,-y,-z
loop_
_atom_site_type_symbol
_atom_site_label
_atom_site_fract_x
_atom_site_fract_y
_atom_site_fract_z
Si Si1 0.718803 0.514039 0.004180
Si Si2 0.760443 0.925114 0.222038
Si Si3 0.000000 0.500000 0.500000
Si Si4 0.386041 0.420213 0.296226
Si Si5 0.299231 0.907920 0.090365
Si Si6 0.257783 0.125817 0.179130
Si Si7 0.846478 0.033735 0.341601
O O1 0.858908 0.413121 0.813038
O O2 0.809495 0.600213 0.921273
O O3 0.521368 0.745665 0.003005
O O4 0.672536 0.301918 0.287263
O O5 0.773112 0.668604 0.473602
O O6 0.579067 0.152162 0.316161
O O7 0.704795 0.951336 0.137056
O O8 0.957674 0.948544 0.948757
O O9 0.868655 0.785170 0.473061
O O10 0.265071 0.671376 0.301998
O O11 0.500000 0.500000 0.000000
O O12 0.192003 0.095461 0.163050
O O13 0.183263 0.989474 0.472602
O O14 0.500000 0.000000 0.000000
#
# Coordination Sequence:
#
# PCOD9007150 Si02
#       7
#     2   2   1   2   2   2   2
#     4  10  22  38  62  90 120 159 206 255 306 367
#     4  10  22  38  61  93 125 158 202 257 313 362
#     4  10  22  40  64  92 124 156 200 258 316 366
#     4   9  20  38  62  89 123 163 204 250 305 370
#     4  10  21  39  60  87 123 165 206 250 306 366
#     4   9  22  41  61  86 123 163 207 256 305 364
#     4  11  23  40  64  93 123 159 205 258 308 365
#
# _framework density 26.166726000000001
#
# number of rings (size 3 to 8) (size 9 to 14) (size 15 to 20)
#    0.000    2.154    0.000    1.385    0.000   16.615 
#    0.000    3.077    0.000    0.000    0.000    0.000 
#    0.000    0.000    0.000    0.000    0.000    0.000 
#
# Total GULP energy -72388.060797 kJ/mol
# GULP energy per Si atom -5568.312369 kJ/mol
# Density = 2.610717 g / cm^3
# Si number density = 26.166726 Si / 1000 Ang^3
#
#
#
# Elastic Constant Matrix: (Units=GPa)
#
#
# Indices 1 2 3 4 5 6 
#
# 1 99.3977 26.5059 40.0946 -10.9940 12.2289 37.8122
# 2 26.5059 75.1062 28.8234 -8.0835 10.2912 20.8706
# 3 40.0946 28.8234 146.7349 -23.8563 -3.7408 14.3535
# 4 -10.9940 -8.0835 -23.8563 39.0461 -5.1524 -7.6661
# 5 12.2289 10.2912 -3.7408 -5.1524 48.2481 5.1745
# 6 37.8122 20.8706 14.3535 -7.6661 5.1745 49.1153
#
#
#
# Elastic Compliance Matrix: (Units=1/GPa)
#
#
# Indices 1 2 3 4 5 6 
#
# 1 0.016059 -0.001070 -0.003236 -0.000164 -0.002965 -0.010676
# 2 -0.001070 0.016483 -0.002483 0.000210 -0.002866 -0.005120
# 3 -0.003236 -0.002483 0.008852 0.004576 0.002372 0.001424
# 4 -0.000164 0.000210 0.004576 0.029403 0.003175 0.002955
# 5 -0.002965 -0.002866 0.002372 0.003175 0.022512 0.000931
# 6 -0.010676 -0.005120 0.001424 0.002955 0.000931 0.030702
#
#
# Mechanical properties :
#
#
# Convention : Reuss Voigt Hill
#
# Bulk Modulus (GPa) = 35.95106 56.89851 46.42479
# Shear Modulus (GPa) = 34.04539 42.33623 38.19081
#
# Velocity S-wave (km/s) = 3.61098 4.02673 3.82451
# Velocity P-wave (km/s) = 5.58163 6.58872 6.10597
#
# Compressibility (1/GPa) = 0.02781559
#
# Stress axis : x y z
#
# Youngs Moduli (GPa) = 62.26896 60.66774 112.96685
#
# Poissons Ratio (x) = 0.06493 0.36554
# Poissons Ratio (y) = 0.06665 0.28054
# Poissons Ratio (z) = 0.20149 0.15066
#
# Static dielectric constant tensor:
#      x y z
#    x 1.973440 -0.104960 -0.057410 
#    y -0.104960 2.204960 0.002170 
#    z -0.057410 0.002170 2.032230 
# 
# From -- ./inp_files/64674.got.cif
#   From: 2010.05.17/outbox.cif.g08.bks.cpg/sg2_33_cif.got.tgz:64674.got - 2010.06.03 11:33:40.
