data_PCOD9007568
_publ_section_title
;
Structure prediction by ZEFSAII (Michael W. Deem and Ramdas Pophale) SiO2 
 PCOD9007568
Probable space group: P -1
;
_chemical_formula_sum "Si O2"
_cell_formula_units_Z 16
_cell_length_a 15.100871
_cell_length_b 7.907250
_cell_length_c 21.388958
_cell_angle_alpha 104.087665
_cell_angle_beta 163.043512
_cell_angle_gamma 69.601996
_cell_volume 659.241689
_symmetry_space_group_name_H-M "P -1"
_symmetry_group_IT_number 2
_symmetry_cell_setting 'triclinic'
loop_
_space_group_symop_operation_xyz
x,y,z
-x,-y,-z
loop_
_atom_site_type_symbol
_atom_site_label
_atom_site_fract_x
_atom_site_fract_y
_atom_site_fract_z
Si Si1 0.116373 0.099841 0.727239
Si Si2 0.372355 0.848674 0.157932
Si Si3 0.385099 0.451897 0.124741
Si Si4 0.523572 0.562219 0.668153
Si Si5 0.365787 0.855286 0.303191
Si Si6 0.918725 0.962576 0.700369
Si Si7 0.435404 0.987177 0.808912
Si Si8 0.350120 0.352132 0.365546
O O1 0.876839 0.321289 0.599414
O O2 0.136372 0.089571 0.664613
O O3 0.955784 0.990549 0.653377
O O4 0.500000 0.000000 0.000000
O O5 0.518377 0.619899 0.221390
O O6 0.386249 0.872703 0.243561
O O7 0.573273 0.944489 0.262045
O O8 0.968966 0.965789 0.884401
O O9 0.389078 0.425604 0.200214
O O10 0.500740 0.234333 0.160095
O O11 0.025868 0.560749 0.860738
O O12 0.667326 0.341937 0.726463
O O13 0.670991 0.658857 0.725598
O O14 0.735906 0.822492 0.572851
O O15 0.631882 0.149799 0.553813
O O16 0.263818 0.954740 0.959444
O O17 0.500000 0.500000 0.500000
#
# Coordination Sequence:
#
# PCOD9007568 Si02
#       8
#     2   2   2   2   2   2   2   2
#     4   9  22  45  62  86 121 166 218 255 308 367
#     4  10  23  39  61  94 131 161 198 260 310 380
#     4  11  22  39  61  96 126 162 206 253 317 374
#     4  10  23  39  63  89 123 169 203 257 318 366
#     4  10  21  40  60  92 129 158 202 253 323 373
#     4  10  21  39  62  88 124 163 203 255 312 363
#     4  11  23  41  63  88 124 168 216 256 302 364
#     4  11  20  35  60  92 125 159 205 254 307 379
#
# _framework density 24.270309000000001
#
# number of rings (size 3 to 8) (size 9 to 14) (size 15 to 20)
#    0.000    1.750    2.500    1.125    3.500    2.000 
#    2.250    2.500    0.000    0.000    0.000    0.000 
#    0.000    0.000    0.000    0.000    0.000    0.000 
#
# Total GULP energy -89163.906729 kJ/mol
# GULP energy per Si atom -5572.744171 kJ/mol
# Density = 2.421507 g / cm^3
# Si number density = 24.270309 Si / 1000 Ang^3
#
#
#
# Elastic Constant Matrix: (Units=GPa)
#
#
# Indices 1 2 3 4 5 6 
#
# 1 126.1147 5.7274 7.3044 -8.4024 2.0499 5.4186
# 2 5.7274 77.3381 5.2279 -4.0902 9.3924 -1.0619
# 3 7.3044 5.2279 92.9932 8.4527 -7.6440 2.7535
# 4 -8.4024 -4.0902 8.4527 26.7007 5.7743 2.9167
# 5 2.0499 9.3924 -7.6440 5.7743 34.7893 -2.6570
# 6 5.4186 -1.0619 2.7535 2.9167 -2.6570 21.5701
#
#
#
# Elastic Compliance Matrix: (Units=1/GPa)
#
#
# Indices 1 2 3 4 5 6 
#
# 1 0.008369 -0.000228 -0.001004 0.003515 -0.001437 -0.002638
# 2 -0.000228 0.013791 -0.001453 0.003514 -0.004622 -0.000123
# 3 -0.001004 -0.001453 0.011695 -0.005056 0.003848 -0.000154
# 4 0.003515 0.003514 -0.005056 0.043661 -0.010064 -0.007208
# 5 -0.001437 -0.004622 0.003848 -0.010064 0.032980 0.005066
# 6 -0.002638 -0.000123 -0.000154 -0.007208 0.005066 0.048635
#
#
# Mechanical properties :
#
#
# Convention : Reuss Voigt Hill
#
# Bulk Modulus (GPa) = 35.10700 36.99614 36.05157
# Shear Modulus (GPa) = 28.73648 35.15777 31.94712
#
# Velocity S-wave (km/s) = 3.44469 3.81017 3.63203
# Velocity P-wave (km/s) = 5.50614 5.88498 5.69871
#
# Compressibility (1/GPa) = 0.02848435
#
# Stress axis : x y z
#
# Youngs Moduli (GPa) = 119.49290 72.51235 85.51004
#
# Poissons Ratio (x) = 0.01651 0.08586
# Poissons Ratio (y) = 0.02720 0.12425
# Poissons Ratio (z) = 0.11999 0.10537
#
# Static dielectric constant tensor:
#      x y z
#    x 2.039240 -0.033420 -0.109580 
#    y -0.033420 1.967450 0.074900 
#    z -0.109580 0.074900 2.012040 
# 
# From -- ./inp_files/180319.got.cif
#   From: 2010.05.17/outbox.cif.g08.bks.cpg/sg2_91_cif.got.tgz:180319.got - 2010.06.03 11:33:40.
