data_PCOD9007241
_publ_section_title
;
Structure prediction by ZEFSAII (Michael W. Deem and Ramdas Pophale) SiO2 
 PCOD9007241
Probable space group: P -1
;
_chemical_formula_sum "Si O2"
_cell_formula_units_Z 16
_cell_length_a 18.554781
_cell_length_b 23.226585
_cell_length_c 12.831481
_cell_angle_alpha 145.353737
_cell_angle_beta 24.813067
_cell_angle_gamma 158.668598
_cell_volume 834.687576
_symmetry_space_group_name_H-M "P -1"
_symmetry_group_IT_number 2
_symmetry_cell_setting 'triclinic'
loop_
_space_group_symop_operation_xyz
x,y,z
-x,-y,-z
loop_
_atom_site_type_symbol
_atom_site_label
_atom_site_fract_x
_atom_site_fract_y
_atom_site_fract_z
Si Si1 0.315833 0.162910 0.566401
Si Si2 0.707807 0.617649 0.994041
Si Si3 0.228001 0.686980 0.955697
Si Si4 0.508875 0.069787 0.845648
Si Si5 0.290077 0.120490 0.028544
Si Si6 0.215393 0.754351 0.849928
Si Si7 0.185495 0.518740 0.202624
Si Si8 0.746629 0.073039 0.354541
O O1 0.317263 0.281204 0.774520
O O2 0.486004 0.230569 0.336486
O O3 0.506331 0.184547 0.425562
O O4 0.010205 0.979628 0.692495
O O5 0.500000 0.500000 0.000000
O O6 0.704182 0.528915 0.952318
O O7 0.998910 0.747805 0.750910
O O8 0.132620 0.707495 0.010176
O O9 0.302173 0.787491 0.107461
O O10 0.000000 0.500000 0.000000
O O11 0.383308 0.089590 0.955214
O O12 0.681761 0.068056 0.549840
O O13 0.279584 0.898259 0.947504
O O14 0.552590 0.305860 0.929334
O O15 0.223301 0.027875 0.871939
O O16 0.007609 0.607761 0.825433
O O17 0.000000 0.500000 0.500000
O O18 0.500000 0.000000 0.500000
#
# Coordination Sequence:
#
# PCOD9007241 Si02
#       8
#     2   2   2   2   2   2   2   2
#     4   9  23  41  57  89 130 155 207 253 321 351
#     4  11  23  38  60  93 127 160 195 261 311 365
#     4  10  23  40  64  88 123 162 214 260 301 370
#     4  11  20  38  67  87 120 168 212 251 309 365
#     4  10  21  39  60  94 129 160 199 261 314 362
#     4  10  22  40  62  91 120 162 214 251 299 380
#     4  12  22  38  65  94 127 166 208 246 306 378
#     4   9  19  35  59  87 118 158 199 241 304 366
#
# _framework density 19.168849000000002
#
# number of rings (size 3 to 8) (size 9 to 14) (size 15 to 20)
#    0.750    1.000    0.000    6.375    1.750    1.500 
#    0.000    3.125    0.000    3.000    0.000    0.000 
#    0.000    0.000    0.000    0.000    0.000    0.000 
#
# Total GULP energy -89143.617345 kJ/mol
# GULP energy per Si atom -5571.476084 kJ/mol
# Density = 1.912522 g / cm^3
# Si number density = 19.168849 Si / 1000 Ang^3
#
#
#
# Elastic Constant Matrix: (Units=GPa)
#
#
# Indices 1 2 3 4 5 6 
#
# 1 130.9416 79.2327 35.3751 -8.9267 7.9323 1.8411
# 2 79.2327 166.9093 40.3646 -30.1612 14.4761 4.5413
# 3 35.3751 40.3646 53.4971 -18.7410 10.9534 10.5106
# 4 -8.9267 -30.1612 -18.7410 37.7957 4.5454 10.7401
# 5 7.9323 14.4761 10.9534 4.5454 33.2016 5.7931
# 6 1.8411 4.5413 10.5106 10.7401 5.7931 40.6890
#
#
#
# Elastic Compliance Matrix: (Units=1/GPa)
#
#
# Indices 1 2 3 4 5 6 
#
# 1 0.012331 -0.005502 -0.007292 -0.006288 0.002144 0.003294
# 2 -0.005502 0.010529 -0.000131 0.008220 -0.003921 -0.002504
# 3 -0.007292 -0.000131 0.035531 0.020694 -0.010523 -0.012798
# 4 -0.006288 0.008220 0.020694 0.048102 -0.012547 -0.016889
# 5 0.002144 -0.003921 -0.010523 -0.012547 0.036296 0.001203
# 6 0.003294 -0.002504 -0.012798 -0.016889 0.001203 0.032300
#
#
# Mechanical properties :
#
#
# Convention : Reuss Voigt Hill
#
# Bulk Modulus (GPa) = 30.73017 73.47698 52.10357
# Shear Modulus (GPa) = 23.60878 35.42896 29.51887
#
# Velocity S-wave (km/s) = 3.51325 4.30380 3.92846
# Velocity P-wave (km/s) = 5.70293 7.94428 6.91502
#
# Compressibility (1/GPa) = 0.03254132
#
# Stress axis : x y z
#
# Youngs Moduli (GPa) = 81.09356 94.97925 28.14414
#
# Poissons Ratio (x) = 0.52260 0.20522
# Poissons Ratio (y) = 0.44620 0.00369
# Poissons Ratio (z) = 0.59131 0.01245
#
# Static dielectric constant tensor:
#      x y z
#    x 1.657680 -0.019250 0.004830 
#    y -0.019250 1.658570 -0.001760 
#    z 0.004830 -0.001760 1.733120 
# 
# From -- ./inp_files/467460.got.cif
#   From: 2010.05.17/outbox.cif.g08.bks.cpg/sg2_234_cif.got.tgz:467460.got - 2010.06.03 11:33:40.
