data_PCOD9007654
_publ_section_title
;
Structure prediction by ZEFSAII (Michael W. Deem and Ramdas Pophale) SiO2 
 PCOD9007654
Probable space group: P -1
;
_chemical_formula_sum "Si O2"
_cell_formula_units_Z 11
_cell_length_a 13.092030
_cell_length_b 6.646179
_cell_length_c 11.196427
_cell_angle_alpha 103.240105
_cell_angle_beta 51.786195
_cell_angle_gamma 139.607892
_cell_volume 436.357992
_symmetry_space_group_name_H-M "P -1"
_symmetry_group_IT_number 2
_symmetry_cell_setting 'triclinic'
loop_
_space_group_symop_operation_xyz
x,y,z
-x,-y,-z
loop_
_atom_site_type_symbol
_atom_site_label
_atom_site_fract_x
_atom_site_fract_y
_atom_site_fract_z
Si Si1 0.964675 0.268827 0.861758
Si Si2 0.500000 0.000000 0.500000
Si Si3 0.544782 0.703218 0.237175
Si Si4 0.127181 0.803784 0.647901
Si Si5 0.768224 0.675778 0.198728
Si Si6 0.134746 0.231608 0.316058
O O1 0.969843 0.481388 0.811352
O O2 0.208920 0.511178 0.769192
O O3 0.894351 0.984212 0.792155
O O4 0.792791 0.074596 0.065378
O O5 0.518633 0.238507 0.598067
O O6 0.674795 0.104948 0.486646
O O7 0.568659 0.492602 0.232645
O O8 0.387078 0.548126 0.219705
O O9 0.971327 0.689988 0.640794
O O10 0.219680 0.131161 0.684980
O O11 0.000000 0.000000 0.000000
O O12 0.000000 0.000000 0.500000
#
# Coordination Sequence:
#
# PCOD9007654 Si02
#       6
#     2   1   2   2   2   2
#     4  10  21  40  65  88 119 157 199 250 294 349
#     4  10  22  38  60  90 122 156 198 240 292 358
#     4  10  21  39  62  91 121 157 200 243 298 354
#     4  10  22  40  60  89 119 156 202 244 299 353
#     4   8  18  36  59  87 117 150 193 242 290 347
#     4  11  24  41  61  87 122 159 198 247 300 356
#
# _framework density 25.208658
#
# number of rings (size 3 to 8) (size 9 to 14) (size 15 to 20)
#    0.000    2.182    0.000    1.636    0.000   11.636 
#    0.000   10.909    0.000    0.000    0.000    0.000 
#    0.000    0.000    0.000    0.000    0.000    0.000 
#
# Total GULP energy -61296.175084 kJ/mol
# GULP energy per Si atom -5572.379553 kJ/mol
# Density = 2.515128 g / cm^3
# Si number density = 25.208658 Si / 1000 Ang^3
#
#
#
# Elastic Constant Matrix: (Units=GPa)
#
#
# Indices 1 2 3 4 5 6 
#
# 1 315.4049 50.2665 38.6732 -5.7641 -26.2535 -23.8237
# 2 50.2665 55.6433 9.2579 16.9653 -10.7824 -10.9518
# 3 38.6732 9.2579 98.9362 16.2291 -11.0714 -9.3823
# 4 -5.7641 16.9653 16.2291 34.5830 -3.9628 0.1707
# 5 -26.2535 -10.7824 -11.0714 -3.9628 42.8440 -12.3231
# 6 -23.8237 -10.9518 -9.3823 0.1707 -12.3231 55.6097
#
#
#
# Elastic Compliance Matrix: (Units=1/GPa)
#
#
# Indices 1 2 3 4 5 6 
#
# 1 0.004352 -0.004216 -0.001602 0.003755 0.001875 0.001168
# 2 -0.004216 0.028034 0.002603 -0.015097 0.005293 0.005373
# 3 -0.001602 0.002603 0.012198 -0.006947 0.002917 0.002552
# 4 0.003755 -0.015097 -0.006947 0.040179 -0.000366 -0.002741
# 5 0.001875 0.005293 0.002917 -0.000366 0.029067 0.008780
# 6 0.001168 0.005373 0.002552 -0.002741 0.008780 0.021926
#
#
# Mechanical properties :
#
#
# Convention : Reuss Voigt Hill
#
# Bulk Modulus (GPa) = 26.20998 74.04217 50.12607
# Shear Modulus (GPa) = 32.27826 51.39314 41.83570
#
# Velocity S-wave (km/s) = 3.58221 4.52011 4.07821
# Velocity P-wave (km/s) = 5.24685 7.52843 6.48871
#
# Compressibility (1/GPa) = 0.03815341
#
# Stress axis : x y z
#
# Youngs Moduli (GPa) = 229.79188 35.67142 81.98001
#
# Poissons Ratio (x) = 0.15040 0.13132
# Poissons Ratio (y) = 0.96889 -0.21341
# Poissons Ratio (z) = 0.36810 -0.09286
#
# Static dielectric constant tensor:
#      x y z
#    x 2.130520 -0.006480 0.071920 
#    y -0.006480 2.126610 -0.240160 
#    z 0.071920 -0.240160 2.121900 
# 
# From -- ./inp_files/17075.got.cif
#   From: 2010.05.17/outbox.cif.g08.bks.cpg/sg2_9_cif.got.tgz:17075.got - 2010.06.03 11:33:40.
