data_PCOD9007784
_publ_section_title
;
Structure prediction by ZEFSAII (Michael W. Deem and Ramdas Pophale) SiO2 
 PCOD9007784
Probable space group: P -1
;
_chemical_formula_sum "Si O2"
_cell_formula_units_Z 16
_cell_length_a 11.633004
_cell_length_b 17.002212
_cell_length_c 9.577621
_cell_angle_alpha 121.832944
_cell_angle_beta 48.341366
_cell_angle_gamma 150.592174
_cell_volume 688.029287
_symmetry_space_group_name_H-M "P -1"
_symmetry_group_IT_number 2
_symmetry_cell_setting 'triclinic'
loop_
_space_group_symop_operation_xyz
x,y,z
-x,-y,-z
loop_
_atom_site_type_symbol
_atom_site_label
_atom_site_fract_x
_atom_site_fract_y
_atom_site_fract_z
Si Si1 0.565104 0.764534 0.422278
Si Si2 0.207780 0.828670 0.516821
Si Si3 0.602785 0.701303 0.060142
Si Si4 0.904336 0.866224 0.696037
Si Si5 0.108040 0.323789 0.091494
Si Si6 0.824043 0.315950 0.138726
Si Si7 0.529075 0.408663 0.427345
Si Si8 0.138253 0.648883 0.165190
O O1 0.486451 0.715958 0.278742
O O2 0.385738 0.746513 0.639715
O O3 0.522442 0.645562 0.422428
O O4 0.867615 0.949076 0.353622
O O5 0.055271 0.842341 0.584086
O O6 0.025415 0.710023 0.685752
O O7 0.234369 0.761055 0.317412
O O8 0.500000 0.000000 0.500000
O O9 0.382732 0.515863 0.024999
O O10 0.743660 0.812868 0.916329
O O11 0.827875 0.751990 0.008994
O O12 0.688519 0.750028 0.639738
O O13 0.914545 0.259792 0.063167
O O14 0.079883 0.513439 0.124803
O O15 0.716085 0.267401 0.022345
O O16 0.500000 0.500000 0.500000
O O17 0.834168 0.532082 0.266770
#
# Coordination Sequence:
#
# PCOD9007784 Si02
#       8
#     2   2   2   2   2   2   2   2
#     4  11  24  41  62 100 134 170 215 269 338 387
#     4  11  23  40  63  94 135 176 213 267 334 397
#     4  10  23  38  67  92 133 172 224 272 322 390
#     4  11  23  42  64  97 135 167 220 276 330 386
#     4  10  21  39  62  97 126 173 228 267 321 392
#     4  10  22  40  65  93 133 170 215 273 323 393
#     4  11  22  40  71  94 124 175 217 273 320 384
#     4  10  22  41  65  96 127 171 224 263 327 392
#
# _framework density 23.254823999999999
#
# number of rings (size 3 to 8) (size 9 to 14) (size 15 to 20)
#    0.000    1.500    1.250    3.750    5.250    3.000 
#    0.000   12.500    0.000    0.000    0.000    0.000 
#    0.000    0.000    0.000    0.000    0.000    0.000 
#
# Total GULP energy -89522.032443 kJ/mol
# GULP energy per Si atom -5595.127028 kJ/mol
# Density = 2.320189 g / cm^3
# Si number density = 23.254824 Si / 1000 Ang^3
#
#
#
# Elastic Constant Matrix: (Units=GPa)
#
#
# Indices 1 2 3 4 5 6 
#
# 1 67.1636 -5.5263 2.6791 0.4083 -2.6235 0.2108
# 2 -5.5263 71.0316 20.3183 -0.7712 3.6303 8.0937
# 3 2.6791 20.3183 128.3086 -4.1831 29.2601 -1.7317
# 4 0.4083 -0.7712 -4.1831 32.7172 1.0496 8.1664
# 5 -2.6235 3.6303 29.2601 1.0496 20.0290 2.4313
# 6 0.2108 8.0937 -1.7317 8.1664 2.4313 30.0847
#
#
#
# Elastic Compliance Matrix: (Units=1/GPa)
#
#
# Indices 1 2 3 4 5 6 
#
# 1 0.015233 0.001501 -0.001493 -0.000262 0.004021 -0.000850
# 2 0.001501 0.015513 -0.003063 0.001089 0.002391 -0.004849
# 3 -0.001493 -0.003063 0.012601 0.001489 -0.018449 0.002647
# 4 -0.000262 0.001089 0.001489 0.033116 -0.003056 -0.008948
# 5 0.004021 0.002391 -0.018449 -0.003056 0.078007 -0.007208
# 6 -0.000850 -0.004849 0.002647 -0.008948 -0.007208 0.037714
#
#
# Mechanical properties :
#
#
# Convention : Reuss Voigt Hill
#
# Bulk Modulus (GPa) = 26.85461 33.49400 30.17430
# Shear Modulus (GPa) = 23.72952 33.16836 28.44894
#
# Velocity S-wave (km/s) = 3.19786 3.78074 3.50145
# Velocity P-wave (km/s) = 5.02076 5.78731 5.41761
#
# Compressibility (1/GPa) = 0.03723756
#
# Stress axis : x y z
#
# Youngs Moduli (GPa) = 65.64544 64.46049 79.35659
#
# Poissons Ratio (x) = -0.09673 0.11845
# Poissons Ratio (y) = -0.09851 0.24309
# Poissons Ratio (z) = 0.09799 0.19746
#
# Static dielectric constant tensor:
#      x y z
#    x 1.921530 -0.004250 -0.030380 
#    y -0.004250 1.842220 0.017830 
#    z -0.030380 0.017830 1.909940 
# 
# From -- ./inp_files/224095.got.cif
#   From: 2010.05.17/outbox.cif.g08.bks.cpg/sg2_113_cif.got.tgz:224095.got - 2010.06.03 11:33:40.
