data_PCOD9007104
_publ_section_title
;
Structure prediction by ZEFSAII (Michael W. Deem and Ramdas Pophale) SiO2 
 PCOD9007104
Probable space group: P -1
;
_chemical_formula_sum "Si O2"
_cell_formula_units_Z 16
_cell_length_a 8.738154
_cell_length_b 6.413852
_cell_length_c 15.236938
_cell_angle_alpha 119.746465
_cell_angle_beta 85.312060
_cell_angle_gamma 89.586317
_cell_volume 737.823883
_symmetry_space_group_name_H-M "P -1"
_symmetry_group_IT_number 2
_symmetry_cell_setting 'triclinic'
loop_
_space_group_symop_operation_xyz
x,y,z
-x,-y,-z
loop_
_atom_site_type_symbol
_atom_site_label
_atom_site_fract_x
_atom_site_fract_y
_atom_site_fract_z
Si Si1 0.316366 0.729011 0.783669
Si Si2 0.819150 0.486617 0.420621
Si Si3 0.866578 0.822176 0.043943
Si Si4 0.100191 0.749329 0.448194
Si Si5 0.582353 0.054169 0.789875
Si Si6 0.204044 0.940247 0.073393
Si Si7 0.373871 0.012844 0.429989
Si Si8 0.637756 0.511042 0.098935
O O1 0.281241 0.647722 0.671377
O O2 0.327012 0.506281 0.802846
O O3 0.180808 0.911674 0.861903
O O4 0.469285 0.876645 0.806300
O O5 0.857148 0.326172 0.470342
O O6 0.981416 0.553559 0.383446
O O7 0.725463 0.734012 0.502991
O O8 0.762323 0.650309 0.067373
O O9 0.048384 0.797018 0.044721
O O10 0.824158 0.837761 0.945954
O O11 0.258456 0.796565 0.402570
O O12 0.000000 0.000000 0.500000
O O13 0.746851 0.008580 0.819188
O O14 0.571106 0.004927 0.676636
O O15 0.520060 0.329816 0.867558
O O16 0.342696 0.765152 0.990642
O O17 0.500000 0.000000 0.500000
#
# Coordination Sequence:
#
# PCOD9007104 Si02
#       8
#     2   2   2   2   2   2   2   2
#     4  10  22  38  58  85 117 154 192 234 290 347
#     4  10  21  40  62  83 118 159 195 241 295 347
#     4   9  21  39  60  86 116 148 190 244 289 340
#     4   9  21  39  60  84 112 154 201 244 291 344
#     4  11  24  37  57  87 118 152 194 240 286 346
#     4  10  21  39  60  85 115 148 191 242 294 344
#     4  11  23  39  59  88 123 156 197 245 291 345
#     4  10  21  39  60  83 113 154 191 232 292 348
#
# _framework density 21.685390000000002
#
# number of rings (size 3 to 8) (size 9 to 14) (size 15 to 20)
#    0.000    2.000    0.000    2.250    0.000   15.500 
#    0.000    0.000    0.000    0.000    0.000    0.000 
#    0.000    0.000    0.000    0.000    0.000    0.000 
#
# Total GULP energy -89288.582868 kJ/mol
# GULP energy per Si atom -5580.536429 kJ/mol
# Density = 2.163603 g / cm^3
# Si number density = 21.685390 Si / 1000 Ang^3
#
#
#
# Elastic Constant Matrix: (Units=GPa)
#
#
# Indices 1 2 3 4 5 6 
#
# 1 82.3214 40.7227 27.1088 -19.6674 5.5429 -11.7386
# 2 40.7227 101.0623 20.1910 -27.1013 6.9242 -10.5632
# 3 27.1088 20.1910 58.6292 -19.1551 7.9873 -17.0020
# 4 -19.6674 -27.1013 -19.1551 29.6487 -2.5057 -0.8172
# 5 5.5429 6.9242 7.9873 -2.5057 30.5154 -11.2500
# 6 -11.7386 -10.5632 -17.0020 -0.8172 -11.2500 37.0736
#
#
#
# Elastic Compliance Matrix: (Units=1/GPa)
#
#
# Indices 1 2 3 4 5 6 
#
# 1 0.017252 -0.004659 -0.004240 0.004535 0.000282 0.002376
# 2 -0.004659 0.015034 0.002131 0.012073 -0.000718 0.003834
# 3 -0.004240 0.002131 0.027483 0.017126 -0.001110 0.011909
# 4 0.004535 0.012073 0.017126 0.059434 0.002264 0.014727
# 5 0.000282 -0.000718 -0.001110 0.002264 0.037322 0.010751
# 6 0.002376 0.003834 0.011909 0.014727 0.010751 0.037866
#
#
# Mechanical properties :
#
#
# Convention : Reuss Voigt Hill
#
# Bulk Modulus (GPa) = 21.62993 46.45090 34.04041
# Shear Modulus (GPa) = 22.38751 29.71358 26.05054
#
# Velocity S-wave (km/s) = 3.21655 3.70565 3.46973
# Velocity P-wave (km/s) = 4.87760 6.30682 5.63769
#
# Compressibility (1/GPa) = 0.04623224
#
# Stress axis : x y z
#
# Youngs Moduli (GPa) = 57.96451 66.51506 36.38628
#
# Poissons Ratio (x) = 0.30992 0.15428
# Poissons Ratio (y) = 0.27008 -0.07754
# Poissons Ratio (z) = 0.24577 -0.14175
#
# Static dielectric constant tensor:
#      x y z
#    x 1.827920 -0.025920 -0.005390 
#    y -0.025920 1.820120 -0.013470 
#    z -0.005390 -0.013470 1.794620 
# 
# From -- ./inp_files/81294.got.cif
#   From: 2010.05.17/outbox.cif.g08.bks.cpg/sg2_41_cif.got.tgz:81294.got - 2010.06.03 11:33:40.
