data_PCOD9007369
_publ_section_title
;
Structure prediction by ZEFSAII (Michael W. Deem and Ramdas Pophale) SiO2 
 PCOD9007369
Probable space group: P -1
;
_chemical_formula_sum "Si O2"
_cell_formula_units_Z 16
_cell_length_a 21.631349
_cell_length_b 6.808160
_cell_length_c 9.458043
_cell_angle_alpha 47.067523
_cell_angle_beta 124.633243
_cell_angle_gamma 93.547647
_cell_volume 706.320348
_symmetry_space_group_name_H-M "P -1"
_symmetry_group_IT_number 2
_symmetry_cell_setting 'triclinic'
loop_
_space_group_symop_operation_xyz
x,y,z
-x,-y,-z
loop_
_atom_site_type_symbol
_atom_site_label
_atom_site_fract_x
_atom_site_fract_y
_atom_site_fract_z
Si Si1 0.985585 0.566534 0.200302
Si Si2 0.048900 0.734637 0.440874
Si Si3 0.469299 0.437290 0.138091
Si Si4 0.119175 0.198848 0.324208
Si Si5 0.598199 0.345078 0.774071
Si Si6 0.242542 0.308907 0.829807
Si Si7 0.346190 0.157585 0.323527
Si Si8 0.290349 0.764204 0.640251
O O1 0.987777 0.319462 0.436107
O O2 0.981153 0.820858 0.180569
O O3 0.070188 0.440430 0.268691
O O4 0.907516 0.662580 0.937775
O O5 0.140710 0.409816 0.668218
O O6 0.078317 0.979442 0.385976
O O7 0.425372 0.702387 0.072629
O O8 0.556326 0.128669 0.463505
O O9 0.500000 0.500000 0.000000
O O10 0.382107 0.450122 0.966193
O O11 0.225285 0.990417 0.569036
O O12 0.500000 0.500000 0.500000
O O13 0.629898 0.597915 0.698377
O O14 0.681100 0.027673 0.970047
O O15 0.240135 0.596731 0.599027
O O16 0.273701 0.308552 0.031925
O O17 0.313301 0.978367 0.471156
#
# Coordination Sequence:
#
# PCOD9007369 Si02
#       8
#     2   2   2   2   2   2   2   2
#     4  10  21  39  61  90 121 155 205 249 310 367
#     4  10  22  38  62  90 123 157 203 254 305 364
#     4  10  21  40  63  85 125 164 200 250 307 355
#     4  10  21  39  63  87 121 164 200 250 310 366
#     4  12  23  40  68  92 122 166 212 250 306 367
#     4  11  23  40  64  93 125 166 207 255 309 366
#     4  11  22  43  62  89 132 165 200 262 308 355
#     4  10  22  41  62  89 127 165 205 253 309 361
#
# _framework density 22.652612000000001
#
# number of rings (size 3 to 8) (size 9 to 14) (size 15 to 20)
#    0.000    1.500    2.500    2.625    1.750    0.000 
#    4.500   10.000    0.000    0.000    0.000    0.000 
#    0.000    0.000    0.000    0.000    0.000    0.000 
#
# Total GULP energy -89073.821033 kJ/mol
# GULP energy per Si atom -5567.113815 kJ/mol
# Density = 2.260105 g / cm^3
# Si number density = 22.652612 Si / 1000 Ang^3
#
#
#
# Elastic Constant Matrix: (Units=GPa)
#
#
# Indices 1 2 3 4 5 6 
#
# 1 113.1718 33.4602 28.2511 1.0131 -7.7027 -3.9651
# 2 33.4602 85.3395 26.6001 -2.4439 -8.6584 -4.2866
# 3 28.2511 26.6001 72.2770 9.0617 -4.6031 -10.8177
# 4 1.0131 -2.4439 9.0617 37.4724 -8.8162 6.1855
# 5 -7.7027 -8.6584 -4.6031 -8.8162 42.3473 -4.9516
# 6 -3.9651 -4.2866 -10.8177 6.1855 -4.9516 32.2605
#
#
#
# Elastic Compliance Matrix: (Units=1/GPa)
#
#
# Indices 1 2 3 4 5 6 
#
# 1 0.010563 -0.003089 -0.002993 0.000495 0.001062 -0.000048
# 2 -0.003089 0.014616 -0.004352 0.002684 0.002509 -0.000027
# 3 -0.002993 -0.004352 0.018259 -0.005627 0.000112 0.006273
# 4 0.000495 0.002684 -0.005627 0.030604 0.005642 -0.006472
# 5 0.001062 0.002509 0.000112 0.005642 0.025904 0.003396
# 6 -0.000048 -0.000027 0.006273 -0.006472 0.003396 0.034854
#
#
# Mechanical properties :
#
#
# Convention : Reuss Voigt Hill
#
# Bulk Modulus (GPa) = 44.31027 49.71233 47.01130
# Shear Modulus (GPa) = 30.63879 34.58119 32.60999
#
# Velocity S-wave (km/s) = 3.68169 3.91140 3.79828
# Velocity P-wave (km/s) = 6.13811 6.51090 6.32725
#
# Compressibility (1/GPa) = 0.02256813
#
# Stress axis : x y z
#
# Youngs Moduli (GPa) = 94.67174 68.41945 54.76757
#
# Poissons Ratio (x) = 0.21135 0.16394
# Poissons Ratio (y) = 0.29244 0.23836
# Poissons Ratio (z) = 0.28339 0.29778
#
# Static dielectric constant tensor:
#      x y z
#    x 2.049340 0.024340 -0.053790 
#    y 0.024340 1.880480 0.004660 
#    z -0.053790 0.004660 1.970470 
# 
# From -- ./inp_files/350958.got.cif
#   From: 2010.05.17/outbox.cif.g08.bks.cpg/sg2_176_cif.got.tgz:350958.got - 2010.06.03 11:33:40.
