data_PCOD9007914
_publ_section_title
;
Structure prediction by ZEFSAII (Michael W. Deem and Ramdas Pophale) SiO2 
 PCOD9007914
Probable space group: P -1
;
_chemical_formula_sum "Si O2"
_cell_formula_units_Z 16
_cell_length_a 15.736685
_cell_length_b 15.260269
_cell_length_c 7.791845
_cell_angle_alpha 66.375957
_cell_angle_beta 88.726988
_cell_angle_gamma 144.004433
_cell_volume 771.351101
_symmetry_space_group_name_H-M "P -1"
_symmetry_group_IT_number 2
_symmetry_cell_setting 'triclinic'
loop_
_space_group_symop_operation_xyz
x,y,z
-x,-y,-z
loop_
_atom_site_type_symbol
_atom_site_label
_atom_site_fract_x
_atom_site_fract_y
_atom_site_fract_z
Si Si1 0.255182 0.341059 0.551370
Si Si2 0.379859 0.162463 0.338515
Si Si3 0.567029 0.527992 0.209678
Si Si4 0.816884 0.376669 0.929703
Si Si5 0.444996 0.715632 0.120746
Si Si6 0.749553 0.176022 0.391890
Si Si7 0.317581 0.878413 0.154900
Si Si8 0.111971 0.043133 0.335710
O O1 0.381896 0.401405 0.373108
O O2 0.296002 0.341311 0.735649
O O3 0.343720 0.535696 0.381048
O O4 0.037435 0.125311 0.676872
O O5 0.503832 0.358107 0.293522
O O6 0.176709 0.009519 0.446686
O O7 0.355989 0.027828 0.494847
O O8 0.472899 0.252876 0.075312
O O9 0.694298 0.710598 0.922253
O O10 0.703192 0.353580 0.883842
O O11 0.832436 0.315055 0.820692
O O12 0.025155 0.614725 0.792067
O O13 0.712843 0.222196 0.217865
O O14 0.619228 0.948628 0.013969
O O15 0.714942 0.163121 0.606148
O O16 0.500000 0.000000 0.000000
O O17 0.000000 0.000000 0.500000
#
# Coordination Sequence:
#
# PCOD9007914 Si02
#       8
#     2   2   2   2   2   2   2   2
#     4  11  23  41  64  91 132 162 213 264 319 381
#     4  11  22  40  64  92 127 166 218 257 318 384
#     4  11  24  41  62  95 126 168 209 266 319 379
#     4  10  21  41  63  91 131 162 214 263 325 375
#     4  10  21  39  63  91 121 168 210 257 315 386
#     4  10  22  38  64  95 124 167 212 267 311 392
#     4   9  20  36  61  86 121 164 205 256 318 367
#     4  12  22  40  67  89 126 172 210 262 318 377
#
# _framework density 20.742823000000001
#
# number of rings (size 3 to 8) (size 9 to 14) (size 15 to 20)
#    0.000    1.500    2.500    2.625    1.750    4.500 
#    2.250    0.000    8.250    0.000    0.000    0.000 
#    0.000    0.000    0.000    0.000    0.000    0.000 
#
# Total GULP energy -89314.033746 kJ/mol
# GULP energy per Si atom -5582.127109 kJ/mol
# Density = 2.069561 g / cm^3
# Si number density = 20.742823 Si / 1000 Ang^3
#
#
#
# Elastic Constant Matrix: (Units=GPa)
#
#
# Indices 1 2 3 4 5 6 
#
# 1 67.8715 4.1525 16.7017 5.4093 3.7056 -14.0979
# 2 4.1525 68.9712 6.4623 -4.9723 -0.4474 -18.0742
# 3 16.7017 6.4623 80.6335 2.4183 14.3177 -16.7533
# 4 5.4093 -4.9723 2.4183 29.1203 1.5594 -0.7866
# 5 3.7056 -0.4474 14.3177 1.5594 29.2832 -4.0793
# 6 -14.0979 -18.0742 -16.7533 -0.7866 -4.0793 35.2710
#
#
#
# Elastic Compliance Matrix: (Units=1/GPa)
#
#
# Indices 1 2 3 4 5 6 
#
# 1 0.016667 0.000537 -0.002191 -0.002661 -0.000076 0.005828
# 2 0.000537 0.017103 0.000127 0.002992 0.001261 0.009251
# 3 -0.002191 0.000127 0.015152 -0.000338 -0.006324 0.005647
# 4 -0.002661 0.002992 -0.000338 0.035464 -0.001207 0.000960
# 5 -0.000076 0.001261 -0.006324 -0.001207 0.037604 0.001934
# 6 0.005828 0.009251 0.005647 0.000960 0.001934 0.038349
#
#
# Mechanical properties :
#
#
# Convention : Reuss Voigt Hill
#
# Bulk Modulus (GPa) = 21.80245 30.23437 26.01841
# Shear Modulus (GPa) = 27.98241 31.41220 29.69731
#
# Velocity S-wave (km/s) = 3.67688 3.89571 3.78787
# Velocity P-wave (km/s) = 5.34412 5.90278 5.63038
#
# Compressibility (1/GPa) = 0.04586640
#
# Stress axis : x y z
#
# Youngs Moduli (GPa) = 59.99942 58.46956 65.99813
#
# Poissons Ratio (x) = -0.03138 0.14461
# Poissons Ratio (y) = -0.03221 -0.00836
# Poissons Ratio (z) = 0.13146 -0.00741
#
# Static dielectric constant tensor:
#      x y z
#    x 1.730490 0.004130 0.005640 
#    y 0.004130 1.801290 -0.007270 
#    z 0.005640 -0.007270 1.755970 
# 
# From -- ./inp_files/312777.got.cif
#   From: 2010.05.17/outbox.cif.g08.bks.cpg/sg2_157_cif.got.tgz:312777.got - 2010.06.03 11:33:40.
