data_PCOD9007505
_publ_section_title
;
Structure prediction by ZEFSAII (Michael W. Deem and Ramdas Pophale) SiO2 
 PCOD9007505
Probable space group: P -1
;
_chemical_formula_sum "Si O2"
_cell_formula_units_Z 14
_cell_length_a 12.999146
_cell_length_b 16.173054
_cell_length_c 15.765864
_cell_angle_alpha 22.982918
_cell_angle_beta 140.418545
_cell_angle_gamma 152.711161
_cell_volume 572.138172
_symmetry_space_group_name_H-M "P -1"
_symmetry_group_IT_number 2
_symmetry_cell_setting 'triclinic'
loop_
_space_group_symop_operation_xyz
x,y,z
-x,-y,-z
loop_
_atom_site_type_symbol
_atom_site_label
_atom_site_fract_x
_atom_site_fract_y
_atom_site_fract_z
Si Si1 0.509623 0.802859 0.380447
Si Si2 0.030607 0.790941 0.801997
Si Si3 0.862597 0.352566 0.350484
Si Si4 0.319710 0.671265 0.107521
Si Si5 0.445365 0.233511 0.166202
Si Si6 0.805891 0.213577 0.707108
Si Si7 0.190217 0.317692 0.515938
O O1 0.777946 0.992855 0.357119
O O2 0.401218 0.808547 0.388638
O O3 0.342472 0.461297 0.562463
O O4 0.490865 0.983550 0.129991
O O5 0.076833 0.000762 0.706318
O O6 0.778537 0.543711 0.833758
O O7 0.107354 0.631949 0.031618
O O8 0.690119 0.347922 0.198494
O O9 0.050044 0.665849 0.227859
O O10 0.993126 0.302896 0.424408
O O11 0.707524 0.063209 0.589688
O O12 0.354721 0.558580 0.316476
O O13 0.303706 0.093460 0.119525
O O14 0.500000 0.500000 0.000000
O O15 0.000000 0.500000 0.500000
#
# Coordination Sequence:
#
# PCOD9007505 Si02
#       7
#     2   2   2   2   2   2   2
#     4   9  19  35  54  79 110 146 182 223 272 328
#     4   9  20  34  52  79 113 145 186 215 268 335
#     4   9  22  37  56  89 110 145 192 231 276 344
#     4   9  20  33  50  78 113 142 182 224 267 320
#     4  10  21  39  62  82 110 148 190 232 288 327
#     4   9  19  38  61  79 117 149 180 240 285 319
#     4  11  19  34  56  78 113 144 181 224 271 327
#
# _framework density 24.469612999999999
#
# number of rings (size 3 to 8) (size 9 to 14) (size 15 to 20)
#    0.857    1.714    0.000    1.286    2.000    2.857 
#    0.000    0.000    6.286    0.000    0.000    0.000 
#    0.000    0.000    0.000    0.000    0.000    0.000 
#
# Total GULP energy -78067.816462 kJ/mol
# GULP energy per Si atom -5576.272604 kJ/mol
# Density = 2.441392 g / cm^3
# Si number density = 24.469613 Si / 1000 Ang^3
#
#
#
# Elastic Constant Matrix: (Units=GPa)
#
#
# Indices 1 2 3 4 5 6 
#
# 1 109.0100 28.5447 5.7276 -24.2388 12.0105 -6.9165
# 2 28.5447 118.7770 40.2389 -52.1500 24.5841 -22.8241
# 3 5.7276 40.2389 48.4003 -23.8722 20.6874 -17.6314
# 4 -24.2388 -52.1500 -23.8722 44.8201 -17.1861 15.7934
# 5 12.0105 24.5841 20.6874 -17.1861 36.7937 -15.5889
# 6 -6.9165 -22.8241 -17.6314 15.7934 -15.5889 36.6632
#
#
#
# Elastic Compliance Matrix: (Units=1/GPa)
#
#
# Indices 1 2 3 4 5 6 
#
# 1 0.010716 -0.000556 0.002931 0.006042 -0.002132 -0.000424
# 2 -0.000556 0.018654 -0.006396 0.017689 -0.000098 0.000771
# 3 0.002931 -0.006396 0.036037 0.006894 -0.011092 0.006216
# 4 0.006042 0.017689 0.006894 0.053727 0.005093 -0.005512
# 5 -0.002132 -0.000098 -0.011092 0.005093 0.040458 0.009211
# 6 -0.000424 0.000771 0.006216 -0.005512 0.009211 0.036955
#
#
# Mechanical properties :
#
#
# Convention : Reuss Voigt Hill
#
# Bulk Modulus (GPa) = 17.43209 47.24552 32.33880
# Shear Modulus (GPa) = 22.35019 37.10046 29.72533
#
# Velocity S-wave (km/s) = 3.02551 3.89805 3.48916
# Velocity P-wave (km/s) = 4.39822 6.29360 5.42926
#
# Compressibility (1/GPa) = 0.05736548
#
# Stress axis : x y z
#
# Youngs Moduli (GPa) = 93.31494 53.60722 27.74931
#
# Poissons Ratio (x) = 0.02980 -0.08132
# Poissons Ratio (y) = 0.05187 0.17748
# Poissons Ratio (z) = -0.27347 0.34286
#
# Static dielectric constant tensor:
#      x y z
#    x 1.996380 -0.008840 0.003060 
#    y -0.008840 1.979360 0.020280 
#    z 0.003060 0.020280 1.950240 
# 
# From -- ./inp_files/532866.got.cif
#   From: 2010.05.17/outbox.cif.g08.bks.cpg/sg2_267_cif.got.tgz:532866.got - 2010.06.03 11:33:40.
