data_PCOD9007527
_publ_section_title
;
Structure prediction by ZEFSAII (Michael W. Deem and Ramdas Pophale) SiO2 
 PCOD9007527
Probable space group: P -1
;
_chemical_formula_sum "Si O2"
_cell_formula_units_Z 14
_cell_length_a 7.830091
_cell_length_b 20.448880
_cell_length_c 7.212506
_cell_angle_alpha 40.059015
_cell_angle_beta 124.866026
_cell_angle_gamma 126.365448
_cell_volume 582.809117
_symmetry_space_group_name_H-M "P -1"
_symmetry_group_IT_number 2
_symmetry_cell_setting 'triclinic'
loop_
_space_group_symop_operation_xyz
x,y,z
-x,-y,-z
loop_
_atom_site_type_symbol
_atom_site_label
_atom_site_fract_x
_atom_site_fract_y
_atom_site_fract_z
Si Si1 0.200051 0.083945 0.346044
Si Si2 0.641830 0.789467 0.149610
Si Si3 0.690913 0.532144 0.303221
Si Si4 0.404792 0.924186 0.935608
Si Si5 0.236595 0.417182 0.200759
Si Si6 0.965738 0.754315 0.985269
Si Si7 0.198778 0.662981 0.015348
O O1 0.361321 0.012410 0.577623
O O2 0.170562 0.132963 0.023787
O O3 0.000000 0.000000 0.500000
O O4 0.217187 0.184343 0.274667
O O5 0.698949 0.690831 0.490035
O O6 0.442378 0.741381 0.982344
O O7 0.558602 0.860069 0.089279
O O8 0.430597 0.505816 0.233450
O O9 0.769481 0.434246 0.632773
O O10 0.841801 0.641617 0.244712
O O11 0.728863 0.546963 0.072251
O O12 0.179441 0.833003 0.042024
O O13 0.500000 0.000000 0.000000
O O14 0.978075 0.388454 0.140569
O O15 0.070621 0.729212 0.914088
#
# Coordination Sequence:
#
# PCOD9007527 Si02
#       7
#     2   2   2   2   2   2   2
#     4  10  22  42  59  80 120 163 204 252 309 348
#     4  10  21  39  62  86 124 160 196 254 305 352
#     4   9  17  32  60  91 122 156 195 245 302 362
#     4  10  22  38  60  89 117 152 209 252 302 362
#     4   9  17  31  59  94 117 150 208 235 297 369
#     4   9  18  35  58  81 118 156 194 246 301 345
#     4   9  18  35  60  91 121 155 197 245 305 363
#
# _framework density 24.021585999999999
#
# number of rings (size 3 to 8) (size 9 to 14) (size 15 to 20)
#    0.000    2.571    0.000    2.143    4.000    1.143 
#    5.143    5.714    0.000    4.286    0.000    0.000 
#    0.000    0.000    0.000    0.000    0.000    0.000 
#
# Total GULP energy -77989.452065 kJ/mol
# GULP energy per Si atom -5570.675147 kJ/mol
# Density = 2.396691 g / cm^3
# Si number density = 24.021586 Si / 1000 Ang^3
#
#
#
# Elastic Constant Matrix: (Units=GPa)
#
#
# Indices 1 2 3 4 5 6 
#
# 1 87.3833 23.7767 27.5004 -0.3590 2.5422 4.1799
# 2 23.7767 139.6145 18.2219 -8.7012 -2.6941 15.6420
# 3 27.5004 18.2219 103.6040 -15.0589 4.2614 -8.0153
# 4 -0.3590 -8.7012 -15.0589 35.9943 6.3508 7.7173
# 5 2.5422 -2.6941 4.2614 6.3508 24.5619 -3.8100
# 6 4.1799 15.6420 -8.0153 7.7173 -3.8100 24.1392
#
#
#
# Elastic Compliance Matrix: (Units=1/GPa)
#
#
# Indices 1 2 3 4 5 6 
#
# 1 0.013108 -0.001619 -0.003479 -0.001071 -0.000993 -0.002190
# 2 -0.001619 0.008516 -0.001111 0.003107 -0.000546 -0.006686
# 3 -0.003479 -0.001111 0.011761 0.004289 -0.002371 0.003482
# 4 -0.001071 0.003107 0.004289 0.035236 -0.011495 -0.013483
# 5 -0.000993 -0.000546 -0.002371 -0.011495 0.045790 0.010641
# 6 -0.002190 -0.006686 0.003482 -0.013483 0.010641 0.053285
#
#
# Mechanical properties :
#
#
# Convention : Reuss Voigt Hill
#
# Bulk Modulus (GPa) = 47.69337 52.17774 49.93555
# Shear Modulus (GPa) = 26.72311 34.34592 30.53452
#
# Velocity S-wave (km/s) = 3.33898 3.78536 3.56916
# Velocity P-wave (km/s) = 5.89597 6.39325 6.14964
#
# Compressibility (1/GPa) = 0.02096727
#
# Stress axis : x y z
#
# Youngs Moduli (GPa) = 76.28640 117.43231 85.02391
#
# Poissons Ratio (x) = 0.19011 0.29580
# Poissons Ratio (y) = 0.12350 0.09448
# Poissons Ratio (z) = 0.26540 0.13049
#
# Static dielectric constant tensor:
#      x y z
#    x 2.022080 0.014530 0.041700 
#    y 0.014530 2.063150 0.026250 
#    z 0.041700 0.026250 1.959870 
# 
# From -- ./inp_files/225196.got.cif
#   From: 2010.05.17/outbox.cif.g08.bks.cpg/sg2_113_cif.got.tgz:225196.got - 2010.06.03 11:33:40.
