data_PCOD9007545
_publ_section_title
;
Structure prediction by ZEFSAII (Michael W. Deem and Ramdas Pophale) SiO2 
 PCOD9007545
Probable space group: P -1
;
_chemical_formula_sum "Si O2"
_cell_formula_units_Z 14
_cell_length_a 7.057788
_cell_length_b 11.724585
_cell_length_c 13.826752
_cell_angle_alpha 117.369880
_cell_angle_beta 38.780388
_cell_angle_gamma 117.958783
_cell_volume 623.734253
_symmetry_space_group_name_H-M "P -1"
_symmetry_group_IT_number 2
_symmetry_cell_setting 'triclinic'
loop_
_space_group_symop_operation_xyz
x,y,z
-x,-y,-z
loop_
_atom_site_type_symbol
_atom_site_label
_atom_site_fract_x
_atom_site_fract_y
_atom_site_fract_z
Si Si1 0.061162 0.218405 0.982002
Si Si2 0.152798 0.000390 0.168372
Si Si3 0.218247 0.548520 0.842890
Si Si4 0.862344 0.505746 0.358715
Si Si5 0.639071 0.883250 0.446364
Si Si6 0.592770 0.361101 0.696741
Si Si7 0.894596 0.210607 0.259774
O O1 0.781771 0.297649 0.107362
O O2 0.038290 0.183364 0.089300
O O3 0.366450 0.317850 0.862076
O O4 0.034843 0.092758 0.876164
O O5 0.005267 0.930407 0.298923
O O6 0.073479 0.143161 0.242602
O O7 0.500000 0.000000 0.000000
O O8 0.062567 0.482729 0.780858
O O9 0.520402 0.491901 0.725857
O O10 0.000000 0.500000 0.000000
O O11 0.500000 0.500000 0.500000
O O12 0.926403 0.365875 0.312294
O O13 0.065095 0.613948 0.387299
O O14 0.508565 0.752455 0.385623
O O15 0.470342 0.852556 0.604508
O O16 0.500000 0.000000 0.500000
#
# Coordination Sequence:
#
# PCOD9007545 Si02
#       7
#     2   2   2   2   2   2   2
#     4   9  20  39  61  90 123 161 212 254 315 376
#     4  10  21  39  63  91 120 163 211 258 316 376
#     4   9  20  37  61  91 123 160 208 250 309 377
#     4  11  24  40  60  97 128 166 216 253 315 382
#     4   9  20  41  64  86 122 165 208 255 320 375
#     4  10  21  41  65  87 131 170 201 268 314 365
#     4  10  21  39  62  87 127 159 206 264 304 372
#
# _framework density 22.445457999999999
#
# number of rings (size 3 to 8) (size 9 to 14) (size 15 to 20)
#    0.000    2.286    0.000    1.286    2.000    7.429 
#   15.429    0.714    0.000    0.000    0.000    0.000 
#    0.000    0.000    0.000    0.000    0.000    0.000 
#
# Total GULP energy -78049.041596 kJ/mol
# GULP energy per Si atom -5574.931543 kJ/mol
# Density = 2.239437 g / cm^3
# Si number density = 22.445458 Si / 1000 Ang^3
#
#
#
# Elastic Constant Matrix: (Units=GPa)
#
#
# Indices 1 2 3 4 5 6 
#
# 1 63.4564 31.0516 12.3798 -9.0338 -18.4766 -1.1085
# 2 31.0516 55.5229 8.1025 -1.3012 -4.6468 -10.9659
# 3 12.3798 8.1025 85.9047 -22.1750 -5.2028 -1.8770
# 4 -9.0338 -1.3012 -22.1750 46.1357 -7.3127 -1.0680
# 5 -18.4766 -4.6468 -5.2028 -7.3127 33.9502 -7.1474
# 6 -1.1085 -10.9659 -1.8770 -1.0680 -7.1474 18.5836
#
#
#
# Elastic Compliance Matrix: (Units=1/GPa)
#
#
# Indices 1 2 3 4 5 6 
#
# 1 0.028228 -0.014530 0.000127 0.007517 0.014858 -0.000731
# 2 -0.014530 0.029211 -0.001001 -0.002342 -0.001274 0.015645
# 3 0.000127 -0.001001 0.013965 0.007456 0.004290 0.002906
# 4 0.007517 -0.002342 0.007456 0.028779 0.012428 0.006253
# 5 0.014858 -0.001274 0.004290 0.012428 0.044581 0.018428
# 6 -0.000731 0.015645 0.002906 0.006253 0.018428 0.070739
#
#
# Mechanical properties :
#
#
# Convention : Reuss Voigt Hill
#
# Bulk Modulus (GPa) = 24.63341 34.21686 29.42514
# Shear Modulus (GPa) = 19.24240 29.95725 24.59983
#
# Velocity S-wave (km/s) = 2.93114 3.65727 3.31415
# Velocity P-wave (km/s) = 4.73857 5.75428 5.27095
#
# Compressibility (1/GPa) = 0.04059527
#
# Stress axis : x y z
#
# Youngs Moduli (GPa) = 35.42632 34.23387 71.60798
#
# Poissons Ratio (x) = 0.49740 -0.00907
# Poissons Ratio (y) = 0.51473 0.07169
# Poissons Ratio (z) = -0.00449 0.03427
#
# Static dielectric constant tensor:
#      x y z
#    x 1.876120 -0.009920 -0.036050 
#    y -0.009920 1.867330 -0.007210 
#    z -0.036050 -0.007210 1.938840 
# 
# From -- ./inp_files/364923.got.cif
#   From: 2010.05.17/outbox.cif.g08.bks.cpg/sg2_183_cif.got.tgz:364923.got - 2010.06.03 11:33:40.
