data_PCOD9007058
_publ_section_title
;
Structure prediction by ZEFSAII (Michael W. Deem and Ramdas Pophale) SiO2 
 PCOD9007058
Probable space group: P -1
;
_chemical_formula_sum "Si O2"
_cell_formula_units_Z 16
_cell_length_a 15.845426
_cell_length_b 8.846454
_cell_length_c 5.551256
_cell_angle_alpha 102.638738
_cell_angle_beta 93.080561
_cell_angle_gamma 110.812356
_cell_volume 702.338613
_symmetry_space_group_name_H-M "P -1"
_symmetry_group_IT_number 2
_symmetry_cell_setting 'triclinic'
loop_
_space_group_symop_operation_xyz
x,y,z
-x,-y,-z
loop_
_atom_site_type_symbol
_atom_site_label
_atom_site_fract_x
_atom_site_fract_y
_atom_site_fract_z
Si Si1 0.665546 0.917985 0.418196
Si Si2 0.453734 0.415662 0.714308
Si Si3 0.263121 0.185762 0.104243
Si Si4 0.946859 0.358375 0.759467
Si Si5 0.261362 0.415953 0.545019
Si Si6 0.945485 0.815420 0.546130
Si Si7 0.783775 0.276495 0.412985
Si Si8 0.901871 0.112255 0.059020
O O1 0.562364 0.781910 0.370569
O O2 0.707177 0.887595 0.672165
O O3 0.702718 0.117322 0.457670
O O4 0.693494 0.857730 0.143006
O O5 0.500000 0.500000 0.500000
O O6 0.351836 0.418687 0.691056
O O7 0.500000 0.500000 0.000000
O O8 0.278662 0.373441 0.253525
O O9 0.156785 0.081916 0.007538
O O10 0.860909 0.386744 0.649464
O O11 0.021705 0.329697 0.596489
O O12 0.902337 0.178640 0.816461
O O13 0.000000 0.500000 0.000000
O O14 0.163758 0.263504 0.530294
O O15 0.252251 0.590549 0.656914
O O16 0.995877 0.839076 0.819849
O O17 0.000000 0.000000 0.500000
O O18 0.845091 0.201456 0.234298
#
# Coordination Sequence:
#
# PCOD9007058 Si02
#       8
#     2   2   2   2   2   2   2   2
#     4  10  21  44  72 100 131 180 223 278 357 416
#     4  11  25  50  75 101 133 176 231 296 361 417
#     4  10  21  39  67  97 135 184 227 272 330 406
#     4  11  21  37  58  88 143 187 222 272 334 400
#     4  11  24  43  67 103 136 178 234 297 340 410
#     4  11  25  39  61  99 140 181 239 281 326 409
#     4  10  22  41  63 100 139 183 228 277 345 415
#     4  10  21  39  59  89 144 188 228 268 334 403
#
# _framework density 22.781033000000001
#
# number of rings (size 3 to 8) (size 9 to 14) (size 15 to 20)
#    0.000    1.500    1.250    3.750    8.750    5.000 
#   11.250    1.250    0.000    0.000    0.000    0.000 
#    0.000    0.000    0.000    0.000    0.000    0.000 
#
# Total GULP energy -89104.679750 kJ/mol
# GULP energy per Si atom -5569.042484 kJ/mol
# Density = 2.272918 g / cm^3
# Si number density = 22.781033 Si / 1000 Ang^3
#
#
#
# Elastic Constant Matrix: (Units=GPa)
#
#
# Indices 1 2 3 4 5 6 
#
# 1 61.6563 37.0628 34.8344 6.7733 28.2791 6.9160
# 2 37.0628 124.0938 28.8886 8.4039 3.7330 18.6694
# 3 34.8344 28.8886 113.0239 13.7272 9.9156 8.9319
# 4 6.7733 8.4039 13.7272 45.7165 3.3071 -1.9082
# 5 28.2791 3.7330 9.9156 3.3071 28.8796 6.1112
# 6 6.9160 18.6694 8.9319 -1.9082 6.1112 39.8434
#
#
#
# Elastic Compliance Matrix: (Units=1/GPa)
#
#
# Indices 1 2 3 4 5 6 
#
# 1 0.046810 -0.011717 -0.008262 0.001042 -0.042840 0.005838
# 2 -0.011717 0.012115 0.000157 -0.001576 0.011192 -0.005470
# 3 -0.008262 0.000157 0.011413 -0.002673 0.004896 -0.002077
# 4 0.001042 -0.001576 -0.002673 0.023153 -0.003131 0.002746
# 5 -0.042840 0.011192 0.004896 -0.003131 0.076076 -0.010724
# 6 0.005838 -0.005470 -0.002077 0.002746 -0.010724 0.028890
#
#
# Mechanical properties :
#
#
# Convention : Reuss Voigt Hill
#
# Bulk Modulus (GPa) = 32.58100 55.59395 44.08747
# Shear Modulus (GPa) = 20.13437 36.08712 28.11074
#
# Velocity S-wave (km/s) = 2.97614 3.98438 3.51658
# Velocity P-wave (km/s) = 5.11300 6.75452 5.99026
#
# Compressibility (1/GPa) = 0.03069274
#
# Stress axis : x y z
#
# Youngs Moduli (GPa) = 21.36306 82.54549 87.61911
#
# Poissons Ratio (x) = 0.96722 0.72387
# Poissons Ratio (y) = 0.25032 -0.01373
# Poissons Ratio (z) = 0.17649 -0.01294
#
# Static dielectric constant tensor:
#      x y z
#    x 1.898740 0.017810 -0.064340 
#    y 0.017810 2.020040 -0.046400 
#    z -0.064340 -0.046400 1.958800 
# 
# From -- ./inp_files/90785.got.cif
#   From: 2010.05.17/outbox.cif.g08.bks.cpg/sg2_46_cif.got.tgz:90785.got - 2010.06.03 11:33:40.
