data_PCOD9007190
_publ_section_title
;
Structure prediction by ZEFSAII (Michael W. Deem and Ramdas Pophale) SiO2 
 PCOD9007190
Probable space group: P -1
;
_chemical_formula_sum "Si O2"
_cell_formula_units_Z 14
_cell_length_a 8.859578
_cell_length_b 5.204187
_cell_length_c 17.595254
_cell_angle_alpha 121.778123
_cell_angle_beta 73.184292
_cell_angle_gamma 122.457122
_cell_volume 581.896369
_symmetry_space_group_name_H-M "P -1"
_symmetry_group_IT_number 2
_symmetry_cell_setting 'triclinic'
loop_
_space_group_symop_operation_xyz
x,y,z
-x,-y,-z
loop_
_atom_site_type_symbol
_atom_site_label
_atom_site_fract_x
_atom_site_fract_y
_atom_site_fract_z
Si Si1 0.550048 0.686325 0.135454
Si Si2 0.995444 0.653344 0.917021
Si Si3 0.882778 0.022989 0.404232
Si Si4 0.828726 0.736429 0.215887
Si Si5 0.193379 0.355055 0.213255
Si Si6 0.636559 0.230733 0.953513
Si Si7 0.127265 0.752442 0.406179
O O1 0.704416 0.838437 0.198991
O O2 0.377303 0.384117 0.157782
O O3 0.449843 0.861105 0.132000
O O4 0.641155 0.586376 0.037406
O O5 0.910084 0.603864 0.837816
O O6 0.845515 0.342934 0.940937
O O7 0.168373 0.598948 0.871751
O O8 0.000000 0.000000 0.000000
O O9 0.782290 0.043147 0.498021
O O10 0.968251 0.390753 0.406001
O O11 0.780177 0.736698 0.310818
O O12 0.039013 0.947872 0.402992
O O13 0.038109 0.017267 0.222621
O O14 0.238457 0.651547 0.315274
O O15 0.500000 0.000000 0.000000
#
# Coordination Sequence:
#
# PCOD9007190 Si02
#       7
#     2   2   2   2   2   2   2
#     4  10  23  38  59  87 120 160 211 258 314 374
#     4  11  23  39  62  89 122 167 217 264 321 383
#     4   9  18  34  63  94 124 165 208 262 318 390
#     4  11  22  39  62  91 123 163 209 266 314 382
#     4  10  21  39  60  89 124 165 209 256 318 388
#     4  10  22  42  59  81 121 169 210 261 320 379
#     4   9  17  35  63  93 125 164 211 256 323 386
#
# _framework density 24.059266999999998
#
# number of rings (size 3 to 8) (size 9 to 14) (size 15 to 20)
#    0.000    2.000    1.429    1.714    0.000    6.857 
#    0.000    4.286    0.000    0.000    0.000   10.000 
#    0.000    0.000    0.000    0.857    0.000    0.000 
#
# Total GULP energy -78051.118421 kJ/mol
# GULP energy per Si atom -5575.079887 kJ/mol
# Density = 2.400451 g / cm^3
# Si number density = 24.059267 Si / 1000 Ang^3
#
#
#
# Elastic Constant Matrix: (Units=GPa)
#
#
# Indices 1 2 3 4 5 6 
#
# 1 86.6718 21.3936 40.9098 -3.2296 11.3651 2.3544
# 2 21.3936 85.7879 6.3608 -0.5102 0.6285 -1.6368
# 3 40.9098 6.3608 175.5387 -7.5433 20.7045 4.2786
# 4 -3.2296 -0.5102 -7.5433 21.9921 -8.0461 -2.0608
# 5 11.3651 0.6285 20.7045 -8.0461 29.8360 -10.1689
# 6 2.3544 -1.6368 4.2786 -2.0608 -10.1689 39.5239
#
#
#
# Elastic Compliance Matrix: (Units=1/GPa)
#
#
# Indices 1 2 3 4 5 6 
#
# 1 0.014213 -0.003354 -0.002668 -0.000648 -0.004292 -0.001835
# 2 -0.003354 0.012495 0.000157 0.000465 0.001400 0.001085
# 3 -0.002668 0.000157 0.006865 0.000258 -0.004246 -0.001657
# 4 -0.000648 0.000465 0.000258 0.052172 0.016513 0.006999
# 5 -0.004292 0.001400 -0.004246 0.016513 0.047220 0.013783
# 6 -0.001835 0.001085 -0.001657 0.006999 0.013783 0.029546
#
#
# Mechanical properties :
#
#
# Convention : Reuss Voigt Hill
#
# Bulk Modulus (GPa) = 45.77927 53.92520 49.85223
# Shear Modulus (GPa) = 27.54491 36.89267 32.21879
#
# Velocity S-wave (km/s) = 3.38727 3.92012 3.66340
# Velocity P-wave (km/s) = 5.86235 6.55377 6.21768
#
# Compressibility (1/GPa) = 0.02184395
#
# Stress axis : x y z
#
# Youngs Moduli (GPa) = 70.35579 80.03432 145.66470
#
# Poissons Ratio (x) = 0.26845 0.38860
# Poissons Ratio (y) = 0.23598 -0.02291
# Poissons Ratio (z) = 0.18769 -0.01259
#
# Static dielectric constant tensor:
#      x y z
#    x 1.939630 -0.089960 -0.038480 
#    y -0.089960 2.183180 0.138610 
#    z -0.038480 0.138610 2.045380 
# 
# From -- ./inp_files/553834.got.cif
#   From: 2010.05.17/outbox.cif.g08.bks.cpg/sg2_277_cif.got.tgz:553834.got - 2010.06.03 11:33:40.
