data_PCOD9007282
_publ_section_title
;
Structure prediction by ZEFSAII (Michael W. Deem and Ramdas Pophale) SiO2 
 PCOD9007282
Probable space group: P -1
;
_chemical_formula_sum "Si O2"
_cell_formula_units_Z 14
_cell_length_a 8.046585
_cell_length_b 10.861726
_cell_length_c 12.940027
_cell_angle_alpha 108.725730
_cell_angle_beta 46.585056
_cell_angle_gamma 75.598435
_cell_volume 568.827185
_symmetry_space_group_name_H-M "P -1"
_symmetry_group_IT_number 2
_symmetry_cell_setting 'triclinic'
loop_
_space_group_symop_operation_xyz
x,y,z
-x,-y,-z
loop_
_atom_site_type_symbol
_atom_site_label
_atom_site_fract_x
_atom_site_fract_y
_atom_site_fract_z
Si Si1 0.983610 0.207811 0.248171
Si Si2 0.559749 0.356366 0.082399
Si Si3 0.252857 0.756452 0.320938
Si Si4 0.459160 0.874460 0.097417
Si Si5 0.482022 0.590313 0.653905
Si Si6 0.828886 0.824945 0.353643
Si Si7 0.250506 0.411219 0.774594
O O1 0.809833 0.398928 0.427928
O O2 0.695033 0.261787 0.319703
O O3 0.163713 0.052487 0.213798
O O4 0.265225 0.128766 0.026318
O O5 0.434164 0.549706 0.166457
O O6 0.512505 0.346384 0.220390
O O7 0.404995 0.299619 0.072216
O O8 0.908962 0.223270 0.851278
O O9 0.351530 0.845019 0.238366
O O10 0.400299 0.733966 0.363499
O O11 0.924195 0.839316 0.431009
O O12 0.260038 0.549647 0.758368
O O13 0.827184 0.670735 0.295067
O O14 0.500000 0.000000 0.500000
O O15 0.000000 0.500000 0.000000
#
# Coordination Sequence:
#
# PCOD9007282 Si02
#       7
#     2   2   2   2   2   2   2
#     4  10  23  39  60  85 117 171 196 248 293 361
#     4  10  22  41  64  89 118 159 199 261 306 367
#     4  10  22  41  66  93 124 158 203 256 316 371
#     4  10  21  39  61  85 123 154 202 251 305 354
#     4  10  22  40  59  87 118 158 216 233 301 374
#     4  11  23  37  58 100 126 155 197 249 332 356
#     4  11  21  38  68  92 121 165 198 258 316 369
#
# _framework density 24.612047
#
# number of rings (size 3 to 8) (size 9 to 14) (size 15 to 20)
#    0.000    1.714    2.857    2.571    6.000    1.714 
#    2.571    0.000    0.000    0.000    0.000    0.000 
#    0.000    0.000    0.000    0.000    0.000    0.000 
#
# Total GULP energy -78104.128361 kJ/mol
# GULP energy per Si atom -5578.866311 kJ/mol
# Density = 2.455603 g / cm^3
# Si number density = 24.612047 Si / 1000 Ang^3
#
#
#
# Elastic Constant Matrix: (Units=GPa)
#
#
# Indices 1 2 3 4 5 6 
#
# 1 78.7216 -10.9249 57.5620 -6.7889 0.2797 -31.2895
# 2 -10.9249 46.8015 66.6207 5.8631 -35.8338 -49.5170
# 3 57.5620 66.6207 37.6330 34.5624 -19.4354 23.0652
# 4 -6.7889 5.8631 34.5624 29.4271 -5.0784 -25.2931
# 5 0.2797 -35.8338 -19.4354 -5.0784 37.3097 4.6317
# 6 -31.2895 -49.5170 23.0652 -25.2931 4.6317 32.0032
#
#
#
# Elastic Compliance Matrix: (Units=1/GPa)
#
#
# Indices 1 2 3 4 5 6 
#
# 1 0.009479 -0.008432 0.000409 -0.001505 -0.007645 -0.004156
# 2 -0.008432 0.018495 0.010410 -0.017979 0.021352 -0.004429
# 3 0.000409 0.010410 0.007007 0.000741 0.012475 0.010236
# 4 -0.001505 -0.017979 0.000741 0.031574 -0.012187 -0.003106
# 5 -0.007645 0.021352 0.012475 -0.012187 0.052285 -0.000628
# 6 -0.004156 -0.004429 0.010236 -0.003106 -0.000628 0.010589
#
#
# Mechanical properties :
#
#
# Convention : Reuss Voigt Hill
#
# Bulk Modulus (GPa) = 25.15413 43.29684 34.22548
# Shear Modulus (GPa) = 36.25619 23.07455 29.66537
#
# Velocity S-wave (km/s) = 3.84227 3.06523 3.47554
# Velocity P-wave (km/s) = 5.47051 5.49158 5.48106
#
# Compressibility (1/GPa) = 0.03975491
#
# Stress axis : x y z
#
# Youngs Moduli (GPa) = 105.49428 54.06919 142.70781
#
# Poissons Ratio (x) = 0.45590 -0.05836
# Poissons Ratio (y) = 0.88951 -1.48553
# Poissons Ratio (z) = -0.04314 -0.56284
#
# Static dielectric constant tensor:
#      x y z
#    x 1.986880 -0.026820 0.010980 
#    y -0.026820 1.978130 -0.014420 
#    z 0.010980 -0.014420 2.016990 
# 
# From -- ./inp_files/190732.got.cif
#   From: 2010.05.17/outbox.cif.g08.bks.cpg/sg2_96_cif.got.tgz:190732.got - 2010.06.03 11:33:40.
