data_PCOD9007181
_publ_section_title
;
Structure prediction by ZEFSAII (Michael W. Deem and Ramdas Pophale) SiO2 
 PCOD9007181
Probable space group: P -1
;
_chemical_formula_sum "Si O2"
_cell_formula_units_Z 12
_cell_length_a 18.246028
_cell_length_b 24.248175
_cell_length_c 7.691274
_cell_angle_alpha 41.676444
_cell_angle_beta 139.018502
_cell_angle_gamma 168.028925
_cell_volume 462.000193
_symmetry_space_group_name_H-M "P -1"
_symmetry_group_IT_number 2
_symmetry_cell_setting 'triclinic'
loop_
_space_group_symop_operation_xyz
x,y,z
-x,-y,-z
loop_
_atom_site_type_symbol
_atom_site_label
_atom_site_fract_x
_atom_site_fract_y
_atom_site_fract_z
Si Si1 0.777978 0.439571 0.608202
Si Si2 0.807656 0.838327 0.356785
Si Si3 0.164590 0.328033 0.241603
Si Si4 0.869902 0.328463 0.961213
Si Si5 0.740436 0.179008 0.731163
Si Si6 0.615686 0.663219 0.929402
O O1 0.586180 0.392986 0.352691
O O2 0.817848 0.446266 0.867558
O O3 0.155648 0.715195 0.522121
O O4 0.656216 0.265445 0.720530
O O5 0.375480 0.519893 0.328923
O O6 0.955997 0.851308 0.545096
O O7 0.000000 0.000000 0.500000
O O8 0.964179 0.019521 0.084476
O O9 0.492683 0.559574 0.146831
O O10 0.877254 0.181811 0.977730
O O11 0.634157 0.090275 0.198908
O O12 0.979447 0.390278 0.813810
O O13 0.500000 0.500000 0.000000
#
# Coordination Sequence:
#
# PCOD9007181 Si02
#       6
#     2   2   2   2   2   2
#     4  10  22  38  61  90 121 160 204 255 302 371
#     4  11  22  38  62  87 124 165 207 250 305 372
#     4  10  23  40  60  90 126 162 205 259 306 369
#     4  10  21  39  63  86 122 158 205 254 309 363
#     4  10  21  39  60  89 120 157 204 254 312 366
#     4  11  22  40  61  91 128 163 206 252 313 370
#
# _framework density 25.974015999999999
#
# number of rings (size 3 to 8) (size 9 to 14) (size 15 to 20)
#    0.000    1.667    1.667    2.500    2.333    0.000 
#    0.000    8.333    0.000    0.000    0.000    0.000 
#    0.000    0.000    0.000    0.000    0.000    0.000 
#
# Total GULP energy -66814.571732 kJ/mol
# GULP energy per Si atom -5567.880978 kJ/mol
# Density = 2.591490 g / cm^3
# Si number density = 25.974016 Si / 1000 Ang^3
#
#
#
# Elastic Constant Matrix: (Units=GPa)
#
#
# Indices 1 2 3 4 5 6 
#
# 1 85.2543 5.6598 32.4361 -6.9119 -1.0006 -18.3862
# 2 5.6598 76.8470 9.0441 -40.0750 2.8614 -14.1241
# 3 32.4361 9.0441 106.8761 -12.8636 15.5010 -8.8335
# 4 -6.9119 -40.0750 -12.8636 48.3854 2.3131 0.9939
# 5 -1.0006 2.8614 15.5010 2.3131 52.7029 -8.7522
# 6 -18.3862 -14.1241 -8.8335 0.9939 -8.7522 35.9083
#
#
#
# Elastic Compliance Matrix: (Units=1/GPa)
#
#
# Indices 1 2 3 4 5 6 
#
# 1 0.015172 0.002052 -0.004196 0.002458 0.002651 0.008122
# 2 0.002052 0.026318 0.000823 0.022127 -0.000810 0.010795
# 3 -0.004196 0.000823 0.011489 0.003311 -0.003645 0.000022
# 4 0.002458 0.022127 0.003311 0.040152 -0.002382 0.009084
# 5 0.002651 -0.000810 -0.003645 -0.002382 0.021135 0.005360
# 6 0.008122 0.010795 0.000022 0.009084 0.005360 0.037314
#
#
# Mechanical properties :
#
#
# Convention : Reuss Voigt Hill
#
# Bulk Modulus (GPa) = 19.86565 40.36194 30.11379
# Shear Modulus (GPa) = 29.23973 42.18848 35.71410
#
# Velocity S-wave (km/s) = 3.35883 4.03458 3.71211
# Velocity P-wave (km/s) = 4.76521 6.10548 5.47650
#
# Compressibility (1/GPa) = 0.05033816
#
# Stress axis : x y z
#
# Youngs Moduli (GPa) = 65.91279 37.99679 87.03774
#
# Poissons Ratio (x) = -0.07798 0.36517
# Poissons Ratio (y) = -0.13526 -0.07164
# Poissons Ratio (z) = 0.27654 -0.03127
#
# Static dielectric constant tensor:
#      x y z
#    x 2.186820 -0.061340 -0.013350 
#    y -0.061340 2.488770 0.102150 
#    z -0.013350 0.102150 2.037710 
# 
# From -- ./inp_files/301121.got.cif
#   From: 2010.05.17/outbox.cif.g08.bks.cpg/sg2_151_cif.got.tgz:301121.got - 2010.06.03 11:33:40.
