data_PCOD9007952
_publ_section_title
;
Structure prediction by ZEFSAII (Michael W. Deem and Ramdas Pophale) SiO2 
 PCOD9007952
Probable space group: P -1
;
_chemical_formula_sum "Si O2"
_cell_formula_units_Z 16
_cell_length_a 12.023196
_cell_length_b 13.636292
_cell_length_c 12.842135
_cell_angle_alpha 35.090265
_cell_angle_beta 111.296763
_cell_angle_gamma 135.852556
_cell_volume 698.858847
_symmetry_space_group_name_H-M "P -1"
_symmetry_group_IT_number 2
_symmetry_cell_setting 'triclinic'
loop_
_space_group_symop_operation_xyz
x,y,z
-x,-y,-z
loop_
_atom_site_type_symbol
_atom_site_label
_atom_site_fract_x
_atom_site_fract_y
_atom_site_fract_z
Si Si1 0.438650 0.191249 0.866588
Si Si2 0.400184 0.184932 0.290226
Si Si3 0.116679 0.952991 0.801045
Si Si4 0.124143 0.596401 0.704944
Si Si5 0.201338 0.202341 0.073018
Si Si6 0.767629 0.541345 0.321071
Si Si7 0.225343 0.603515 0.331516
Si Si8 0.381157 0.294977 0.402461
O O1 0.620818 0.331855 0.738590
O O2 0.515086 0.414492 0.780354
O O3 0.287787 0.111628 0.805075
O O4 0.333466 0.907041 0.125473
O O5 0.300342 0.136209 0.192717
O O6 0.328441 0.228290 0.321537
O O7 0.318724 0.909960 0.528389
O O8 0.627739 0.472276 0.116674
O O9 0.989869 0.970662 0.778526
O O10 0.207470 0.072388 0.615540
O O11 0.973071 0.632561 0.043422
O O12 0.164377 0.528664 0.674677
O O13 0.962219 0.555079 0.659166
O O14 0.170928 0.217222 0.929487
O O15 0.832391 0.557276 0.442821
O O16 0.538162 0.318457 0.448336
#
# Coordination Sequence:
#
# PCOD9007952 Si02
#       8
#     2   2   2   2   2   2   2   2
#     4  10  22  40  64  96 134 153 199 268 311 368
#     4  10  23  44  61  89 126 171 209 253 308 361
#     4  10  21  40  63  94 123 160 205 258 316 358
#     4  10  23  41  63  89 133 165 203 258 303 371
#     4   9  22  41  60  87 124 159 211 254 302 362
#     4  10  21  39  63  92 121 162 208 250 313 363
#     4  10  21  40  65  96 125 163 202 253 322 368
#     4  11  23  39  66  93 125 169 206 251 312 370
#
# _framework density 22.894466000000001
#
# number of rings (size 3 to 8) (size 9 to 14) (size 15 to 20)
#    0.000    2.000    1.250    0.750    1.750    8.500 
#    0.000   10.625    0.000    0.000    0.000    0.000 
#    0.000    0.000    0.000    0.000    0.000    0.000 
#
# Total GULP energy -89408.649422 kJ/mol
# GULP energy per Si atom -5588.040589 kJ/mol
# Density = 2.284236 g / cm^3
# Si number density = 22.894466 Si / 1000 Ang^3
#
#
#
# Elastic Constant Matrix: (Units=GPa)
#
#
# Indices 1 2 3 4 5 6 
#
# 1 112.5848 24.8627 30.9180 0.2324 -26.6452 9.0280
# 2 24.8627 64.3482 35.8026 5.4353 4.8219 -0.7657
# 3 30.9180 35.8026 96.5607 -8.8815 -19.1551 -10.1595
# 4 0.2324 5.4353 -8.8815 42.0732 -5.0876 1.4632
# 5 -26.6452 4.8219 -19.1551 -5.0876 39.7583 0.5938
# 6 9.0280 -0.7657 -10.1595 1.4632 0.5938 36.6512
#
#
#
# Elastic Compliance Matrix: (Units=1/GPa)
#
#
# Indices 1 2 3 4 5 6 
#
# 1 0.012703 -0.005611 -0.000346 0.001832 0.009315 -0.003566
# 2 -0.005611 0.025328 -0.010884 -0.007086 -0.012973 -0.000613
# 3 -0.000346 -0.010884 0.017567 0.006210 0.010282 0.004313
# 4 0.001832 -0.007086 0.006210 0.027020 0.008538 -0.000095
# 5 0.009315 -0.012973 0.010282 0.008538 0.039025 -0.000688
# 6 -0.003566 -0.000613 0.004313 -0.000095 -0.000688 0.029360
#
#
# Mechanical properties :
#
#
# Convention : Reuss Voigt Hill
#
# Bulk Modulus (GPa) = 45.62913 50.74003 48.18458
# Shear Modulus (GPa) = 26.04304 35.82390 30.93347
#
# Velocity S-wave (km/s) = 3.37638 3.95997 3.67976
# Velocity P-wave (km/s) = 5.93072 6.56652 6.25670
#
# Compressibility (1/GPa) = 0.02191582
#
# Stress axis : x y z
#
# Youngs Moduli (GPa) = 78.72186 39.48260 56.92430
#
# Poissons Ratio (x) = 0.22153 0.01969
# Poissons Ratio (y) = 0.44170 0.61958
# Poissons Ratio (z) = 0.02723 0.42974
#
# Static dielectric constant tensor:
#      x y z
#    x 1.829200 0.019490 0.035440 
#    y 0.019490 1.884940 -0.012200 
#    z 0.035440 -0.012200 1.906950 
# 
# From -- ./inp_files/522161.got.cif
#   From: 2010.05.17/outbox.cif.g08.bks.cpg/sg2_262_cif.got.tgz:522161.got - 2010.06.03 11:33:40.
