data_PCOD9007064
_publ_section_title
;
Structure prediction by ZEFSAII (Michael W. Deem and Ramdas Pophale) SiO2 
 PCOD9007064
Probable space group: P -1
;
_chemical_formula_sum "Si O2"
_cell_formula_units_Z 14
_cell_length_a 12.479813
_cell_length_b 26.496458
_cell_length_c 9.591543
_cell_angle_alpha 146.576741
_cell_angle_beta 129.106145
_cell_angle_gamma 27.858431
_cell_volume 742.274779
_symmetry_space_group_name_H-M "P -1"
_symmetry_group_IT_number 2
_symmetry_cell_setting 'triclinic'
loop_
_space_group_symop_operation_xyz
x,y,z
-x,-y,-z
loop_
_atom_site_type_symbol
_atom_site_label
_atom_site_fract_x
_atom_site_fract_y
_atom_site_fract_z
Si Si1 0.090058 0.089704 0.859250
Si Si2 0.391359 0.771410 0.205333
Si Si3 0.676399 0.659584 0.904983
Si Si4 0.718786 0.781576 0.000935
Si Si5 0.073707 0.590620 0.095777
Si Si6 0.751780 0.871519 0.689088
Si Si7 0.069986 0.306315 0.310902
O O1 0.828478 0.181910 0.874699
O O2 0.276409 0.920892 0.538930
O O3 0.199603 0.060934 0.032655
O O4 0.048075 0.211817 0.033138
O O5 0.480229 0.750879 0.076215
O O6 0.636433 0.594315 0.075757
O O7 0.807033 0.494826 0.577565
O O8 0.596795 0.766173 0.953601
O O9 0.907437 0.592704 0.999875
O O10 0.961357 0.676261 0.048666
O O11 0.506956 0.976670 0.256699
O O12 0.813690 0.703434 0.744481
O O13 0.979295 0.718850 0.422922
O O14 0.751035 0.799045 0.648638
#
# Coordination Sequence:
#
# PCOD9007064 Si02
#       7
#     2   2   2   2   2   2   2
#     4   9  25  35  67  79 120 166 205 236 291 357
#     4  11  20  44  55  93 116 162 201 249 290 361
#     4  10  23  34  63  90 124 150 196 248 303 342
#     4  10  23  35  60  96 126 150 190 253 303 348
#     4  10  23  34  63  90 124 150 196 248 303 342
#     4  10  21  39  59  91 117 162 198 237 297 357
#     4  10  21  39  59  91 117 162 198 237 297 357
#
# _framework density 18.860938000000001
#
# number of rings (size 3 to 8) (size 9 to 14) (size 15 to 20)
#    1.714    0.286    1.429    1.714    4.000    2.286 
#    0.000    1.429    0.000    0.000    0.000    0.000 
#    0.000    0.000    0.000    0.000    0.000    0.000 
#
# Total GULP energy -77955.783451 kJ/mol
# GULP energy per Si atom -5568.270247 kJ/mol
# Density = 1.881801 g / cm^3
# Si number density = 18.860938 Si / 1000 Ang^3
#
#
#
# Elastic Constant Matrix: (Units=GPa)
#
#
# Indices 1 2 3 4 5 6 
#
# 1 68.7151 61.2961 39.7063 11.3846 -13.7019 0.5689
# 2 61.2961 97.0009 45.3897 3.9660 -22.5742 26.6852
# 3 39.7063 45.3897 130.2622 15.0280 -15.2133 2.2671
# 4 11.3846 3.9660 15.0280 7.9193 -14.7473 -0.8097
# 5 -13.7019 -22.5742 -15.2133 -14.7473 21.2674 -0.8182
# 6 0.5689 26.6852 2.2671 -0.8097 -0.8182 34.0566
#
#
#
# Elastic Compliance Matrix: (Units=1/GPa)
#
#
# Indices 1 2 3 4 5 6 
#
# 1 0.025265 -0.009077 -0.006085 0.049335 0.036852 0.009153
# 2 -0.009077 0.013166 0.001607 -0.063459 -0.035212 -0.012627
# 3 -0.006085 0.001607 0.009309 0.005820 0.008425 -0.001437
# 4 0.049335 -0.063459 0.005820 -0.086845 -0.089926 0.044287
# 5 0.036852 -0.035212 0.008425 -0.089926 -0.022030 0.023747
# 6 0.009153 -0.012627 -0.001437 0.044287 0.023747 0.040823
#
#
# Mechanical properties :
#
#
# Convention : Reuss Voigt Hill
#
# Bulk Modulus (GPa) = 48.47116 65.41805 56.94460
# Shear Modulus (GPa) = 365.63798 22.62107 194.12952
#
# Velocity S-wave (km/s) = 13.93846 3.46694 10.15629
# Velocity P-wave (km/s) = 16.87590 7.12642 12.95342
#
# Compressibility (1/GPa) = 0.02063083
#
# Stress axis : x y z
#
# Youngs Moduli (GPa) = 39.58112 75.95166 107.42024
#
# Poissons Ratio (x) = 0.68938 0.65370
# Poissons Ratio (y) = 0.35926 -0.17266
# Poissons Ratio (z) = 0.24087 -0.12208
#
# Static dielectric constant tensor:
#      x y z
#    x 1.650340 0.025620 0.009550 
#    y 0.025620 1.672410 -0.006530 
#    z 0.009550 -0.006530 1.684120 
# 
# From -- ./inp_files/285040.got.cif
#   From: 2010.05.17/outbox.cif.g08.bks.cpg/sg2_143_cif.got.tgz:285040.got - 2010.06.03 11:33:40.
