data_PCOD9007218
_publ_section_title
;
Structure prediction by ZEFSAII (Michael W. Deem and Ramdas Pophale) SiO2 
 PCOD9007218
Probable space group: P -1
;
_chemical_formula_sum "Si O2"
_cell_formula_units_Z 16
_cell_length_a 9.584565
_cell_length_b 8.845634
_cell_length_c 26.457808
_cell_angle_alpha 135.966761
_cell_angle_beta 28.223429
_cell_angle_gamma 121.428208
_cell_volume 693.191100
_symmetry_space_group_name_H-M "P -1"
_symmetry_group_IT_number 2
_symmetry_cell_setting 'triclinic'
loop_
_space_group_symop_operation_xyz
x,y,z
-x,-y,-z
loop_
_atom_site_type_symbol
_atom_site_label
_atom_site_fract_x
_atom_site_fract_y
_atom_site_fract_z
Si Si1 0.787472 0.604286 0.435992
Si Si2 0.278945 0.544025 0.178099
Si Si3 0.796058 0.519517 0.252833
Si Si4 0.754677 0.592081 0.556208
Si Si5 0.374592 0.120723 0.690807
Si Si6 0.829471 0.991822 0.965588
Si Si7 0.631913 0.862208 0.184973
Si Si8 0.766582 0.038084 0.878151
O O1 0.500000 0.500000 0.500000
O O2 0.902639 0.556181 0.445133
O O3 0.064132 0.513301 0.285561
O O4 0.664163 0.883546 0.535591
O O5 0.454492 0.718705 0.178354
O O6 0.037157 0.621346 0.227581
O O7 0.545921 0.303879 0.020791
O O8 0.511957 0.525423 0.381831
O O9 0.647895 0.666981 0.286801
O O10 0.998576 0.246279 0.116811
O O11 0.000000 0.500000 0.500000
O O12 0.568993 0.865634 0.687864
O O13 0.343108 0.197204 0.777752
O O14 0.080507 0.037715 0.752176
O O15 0.861025 0.944838 0.882911
O O16 0.455651 0.068215 0.108002
O O17 0.023859 0.162627 0.952370
#
# Coordination Sequence:
#
# PCOD9007218 Si02
#       8
#     2   2   2   2   2   2   2   2
#     4  11  24  41  60  94 125 156 203 254 301 362
#     4  11  23  37  65  91 127 153 204 255 304 345
#     4  10  21  39  60  91 121 159 201 255 293 358
#     4  10  22  39  64  82 122 167 205 238 306 366
#     4  10  23  38  65  90 122 161 209 240 300 366
#     4   8  17  35  61  81 115 156 209 232 291 358
#     4   9  21  39  59  89 121 157 200 251 299 359
#     4   9  19  38  67  86 113 173 202 241 297 370
#
# _framework density 23.081658000000001
#
# number of rings (size 3 to 8) (size 9 to 14) (size 15 to 20)
#    0.000    2.250    1.250    0.750    8.750    6.500 
#    0.000    0.000    2.750    3.000    0.000    0.000 
#    0.000    0.000    0.000    0.000    0.000    0.000 
#
# Total GULP energy -89407.936276 kJ/mol
# GULP energy per Si atom -5587.996017 kJ/mol
# Density = 2.302912 g / cm^3
# Si number density = 23.081658 Si / 1000 Ang^3
#
#
#
# Elastic Constant Matrix: (Units=GPa)
#
#
# Indices 1 2 3 4 5 6 
#
# 1 110.0121 54.1604 18.9661 9.5388 -26.5345 -8.0152
# 2 54.1604 99.1180 5.5822 2.2822 -12.7057 1.3047
# 3 18.9661 5.5822 60.4109 2.3885 -9.8660 -3.1501
# 4 9.5388 2.2822 2.3885 23.3408 3.7065 -17.8993
# 5 -26.5345 -12.7057 -9.8660 3.7065 18.7965 0.2859
# 6 -8.0152 1.3047 -3.1501 -17.8993 0.2859 59.2994
#
#
#
# Elastic Compliance Matrix: (Units=1/GPa)
#
#
# Indices 1 2 3 4 5 6 
#
# 1 0.019839 -0.007303 -0.001066 -0.011960 0.024883 -0.000945
# 2 -0.007303 0.013948 0.000818 0.000881 -0.000611 -0.000982
# 3 -0.001066 0.000818 0.018457 -0.003157 0.009361 -0.000180
# 4 -0.011960 0.000881 -0.003157 0.067276 -0.031495 0.018655
# 5 0.024883 -0.000611 0.009361 -0.031495 0.099132 -0.006111
# 6 -0.000945 -0.000982 -0.000180 0.018655 -0.006111 0.022408
#
#
# Mechanical properties :
#
#
# Convention : Reuss Voigt Hill
#
# Bulk Modulus (GPa) = 26.92423 47.43982 37.18202
# Shear Modulus (GPa) = 18.61910 33.00950 25.81430
#
# Velocity S-wave (km/s) = 2.84326 3.78579 3.34786
# Velocity P-wave (km/s) = 4.74014 6.30137 5.57567
#
# Compressibility (1/GPa) = 0.03714127
#
# Stress axis : x y z
#
# Youngs Moduli (GPa) = 50.40605 71.69613 54.18095
#
# Poissons Ratio (x) = 0.52359 0.05777
# Poissons Ratio (y) = 0.36811 -0.04433
# Poissons Ratio (z) = 0.05375 -0.05866
#
# Static dielectric constant tensor:
#      x y z
#    x 1.847910 0.020770 -0.023800 
#    y 0.020770 1.909270 -0.020600 
#    z -0.023800 -0.020600 1.873810 
# 
# From -- ./inp_files/616675.got.cif
#   From: 2010.05.17/outbox.cif.g08.bks.cpg/sg2_309_cif.got.tgz:616675.got - 2010.06.03 11:33:40.
