data_PCOD9007638
_publ_section_title
;
Structure prediction by ZEFSAII (Michael W. Deem and Ramdas Pophale) SiO2 
 PCOD9007638
Probable space group: P -1
;
_chemical_formula_sum "Si O2"
_cell_formula_units_Z 16
_cell_length_a 20.334690
_cell_length_b 9.162829
_cell_length_c 9.705720
_cell_angle_alpha 149.423989
_cell_angle_beta 60.684026
_cell_angle_gamma 119.044807
_cell_volume 793.710222
_symmetry_space_group_name_H-M "P -1"
_symmetry_group_IT_number 2
_symmetry_cell_setting 'triclinic'
loop_
_space_group_symop_operation_xyz
x,y,z
-x,-y,-z
loop_
_atom_site_type_symbol
_atom_site_label
_atom_site_fract_x
_atom_site_fract_y
_atom_site_fract_z
Si Si1 0.700073 0.027741 0.740088
Si Si2 0.540276 0.713566 0.745181
Si Si3 0.931183 0.311198 0.332719
Si Si4 0.174050 0.267801 0.120606
Si Si5 0.929968 0.405920 0.094790
Si Si6 0.519693 0.684270 0.264407
Si Si7 0.171540 0.145957 0.339756
Si Si8 0.309801 0.325534 0.809529
O O1 0.627845 0.824610 0.713581
O O2 0.770305 0.992693 0.737605
O O3 0.711247 0.908400 0.478870
O O4 0.685003 0.357050 0.007029
O O5 0.500000 0.500000 0.500000
O O6 0.527509 0.516278 0.733988
O O7 0.500000 0.000000 0.000000
O O8 0.860164 0.437938 0.576989
O O9 0.953061 0.400963 0.226458
O O10 0.000000 0.500000 0.500000
O O11 0.894853 0.971080 0.066391
O O12 0.200094 0.203953 0.199384
O O13 0.244755 0.296198 0.968522
O O14 0.859530 0.593080 0.333284
O O15 0.000000 0.500000 0.000000
O O16 0.900497 0.089591 0.810631
O O17 0.607900 0.710399 0.241652
O O18 0.500000 0.000000 0.500000
O O19 0.500000 0.500000 0.000000
#
# Coordination Sequence:
#
# PCOD9007638 Si02
#       8
#     2   2   2   2   2   2   2   2
#     4  12  24  43  67  95 129 173 217 269 327 391
#     4  12  23  46  68  94 134 174 218 277 331 385
#     4  10  21  39  63  91 124 166 211 255 321 381
#     4  10  23  42  61  92 130 166 207 267 319 379
#     4  10  21  39  62  90 126 160 208 266 311 377
#     4  12  26  44  67 100 131 171 226 271 330 396
#     4  10  23  41  61  93 125 166 212 255 327 382
#     4  12  25  44  65  96 134 167 218 273 322 389
#
# _framework density 20.158488999999999
#
# number of rings (size 3 to 8) (size 9 to 14) (size 15 to 20)
#    0.000    1.000    2.500    3.750    1.750    3.000 
#    4.500    0.000    0.000    0.000    0.000    0.000 
#    0.000    0.000    0.000    0.000    0.000    0.000 
#
# Total GULP energy -89160.688844 kJ/mol
# GULP energy per Si atom -5572.543053 kJ/mol
# Density = 2.011261 g / cm^3
# Si number density = 20.158489 Si / 1000 Ang^3
#
#
#
# Elastic Constant Matrix: (Units=GPa)
#
#
# Indices 1 2 3 4 5 6 
#
# 1 60.8472 18.3585 -5.9540 -6.0001 13.4993 -13.7730
# 2 18.3585 116.1248 11.1574 -12.9280 -15.3329 5.2039
# 3 -5.9540 11.1574 103.2629 11.2391 5.9469 -13.4151
# 4 -6.0001 -12.9280 11.2391 39.3116 -0.0127 -10.5003
# 5 13.4993 -15.3329 5.9469 -0.0127 27.6089 -0.1607
# 6 -13.7730 5.2039 -13.4151 -10.5003 -0.1607 25.7717
#
#
#
# Elastic Compliance Matrix: (Units=1/GPa)
#
#
# Indices 1 2 3 4 5 6 
#
# 1 0.030062 -0.008409 0.006183 0.006305 -0.020562 0.023423
# 2 -0.008409 0.012409 -0.003751 0.001685 0.011764 -0.008192
# 3 0.006183 -0.003751 0.012307 -0.001153 -0.007700 0.009950
# 4 0.006305 0.001685 -0.001153 0.031340 -0.001795 0.015187
# 5 -0.020562 0.011764 -0.007700 -0.001795 0.054362 -0.017765
# 6 0.023423 -0.008192 0.009950 0.015187 -0.017765 0.064230
#
#
# Mechanical properties :
#
#
# Convention : Reuss Voigt Hill
#
# Bulk Modulus (GPa) = 23.35137 36.37317 29.86227
# Shear Modulus (GPa) = 21.65062 35.64997 28.65030
#
# Velocity S-wave (km/s) = 3.28078 4.20990 3.77404
# Velocity P-wave (km/s) = 5.09513 6.45862 5.81696
#
# Compressibility (1/GPa) = 0.04282405
#
# Stress axis : x y z
#
# Youngs Moduli (GPa) = 33.26444 80.58415 81.25192
#
# Poissons Ratio (x) = 0.67766 -0.50236
# Poissons Ratio (y) = 0.27973 0.30477
# Poissons Ratio (z) = -0.20567 0.30227
#
# Static dielectric constant tensor:
#      x y z
#    x 1.682110 0.042560 -0.043000 
#    y 0.042560 1.654000 -0.007040 
#    z -0.043000 -0.007040 1.694650 
# 
# From -- ./inp_files/217764.got.cif
#   From: 2010.05.17/outbox.cif.g08.bks.cpg/sg2_109_cif.got.tgz:217764.got - 2010.06.03 11:33:40.
