data_PCOD9007670
_publ_section_title
;
Structure prediction by ZEFSAII (Michael W. Deem and Ramdas Pophale) SiO2 
 PCOD9007670
Probable space group: P -1
;
_chemical_formula_sum "Si O2"
_cell_formula_units_Z 16
_cell_length_a 5.124617
_cell_length_b 22.201702
_cell_length_c 5.152117
_cell_angle_alpha 97.349345
_cell_angle_beta 90.548203
_cell_angle_gamma 106.191948
_cell_volume 557.676234
_symmetry_space_group_name_H-M "P -1"
_symmetry_group_IT_number 2
_symmetry_cell_setting 'triclinic'
loop_
_space_group_symop_operation_xyz
x,y,z
-x,-y,-z
loop_
_atom_site_type_symbol
_atom_site_label
_atom_site_fract_x
_atom_site_fract_y
_atom_site_fract_z
Si Si1 0.168478 0.711560 0.640885
Si Si2 0.140890 0.051509 0.817823
Si Si3 0.304742 0.910052 0.423780
Si Si4 0.290121 0.422818 0.143114
Si Si5 0.884971 0.785642 0.334277
Si Si6 0.428423 0.679831 0.104746
Si Si7 0.824718 0.535259 0.342643
Si Si8 0.430674 0.153073 0.237008
O O1 0.931045 0.731147 0.497579
O O2 0.321018 0.684056 0.397634
O O3 0.341300 0.782443 0.767593
O O4 0.187446 0.677530 0.895439
O O5 0.435131 0.052433 0.716135
O O6 0.926155 0.055363 0.595951
O O7 0.217445 0.119887 0.001265
O O8 0.000000 0.000000 0.000000
O O9 0.170545 0.836201 0.291368
O O10 0.419629 0.898934 0.698081
O O11 0.532848 0.486736 0.247825
O O12 0.186346 0.407870 0.430423
O O13 0.440221 0.376040 0.990845
O O14 0.090663 0.438610 0.931253
O O15 0.680268 0.743566 0.102248
O O16 0.735375 0.828104 0.517871
O O17 0.000000 0.500000 0.500000
#
# Coordination Sequence:
#
# PCOD9007670 Si02
#       8
#     2   2   2   2   2   2   2   2
#     4  10  24  38  66  93 132 174 223 274 349 414
#     4  12  27  43  70 101 133 174 228 287 347 415
#     4  11  24  46  66  95 134 174 221 280 347 420
#     4  10  22  38  62  91 134 171 229 280 338 405
#     4  10  23  43  67  96 128 182 225 278 353 420
#     4  11  23  42  61 101 134 175 226 291 341 418
#     4  10  21  39  62  91 126 184 226 281 342 403
#     4  10  24  43  68  93 128 179 219 281 341 424
#
# _framework density 28.690480999999998
#
# number of rings (size 3 to 8) (size 9 to 14) (size 15 to 20)
#    0.000    1.500    1.250    2.250    7.000    5.000 
#    0.000    0.000    0.000    0.000    0.000    0.000 
#    0.000    0.000    0.000    0.000    0.000    0.000 
#
# Total GULP energy -89634.495575 kJ/mol
# GULP energy per Si atom -5602.155973 kJ/mol
# Density = 2.862518 g / cm^3
# Si number density = 28.690481 Si / 1000 Ang^3
#
#
#
# Elastic Constant Matrix: (Units=GPa)
#
#
# Indices 1 2 3 4 5 6 
#
# 1 119.7719 22.5942 37.5226 -8.1067 17.3872 -24.9662
# 2 22.5942 97.0883 47.0886 -3.9700 -0.9347 -18.1399
# 3 37.5226 47.0886 163.2584 -0.6188 23.4339 -19.5900
# 4 -8.1067 -3.9700 -0.6188 66.5184 -4.7842 14.3800
# 5 17.3872 -0.9347 23.4339 -4.7842 53.3726 -3.2216
# 6 -24.9662 -18.1399 -19.5900 14.3800 -3.2216 61.4458
#
#
#
# Elastic Compliance Matrix: (Units=1/GPa)
#
#
# Indices 1 2 3 4 5 6 
#
# 1 0.009988 -0.001160 -0.001222 0.000279 -0.002524 0.003129
# 2 -0.001160 0.012694 -0.003452 0.000265 0.002274 0.002233
# 3 -0.001222 -0.003452 0.007978 -0.000732 -0.003168 0.001033
# 4 0.000279 0.000265 -0.000732 0.015981 0.001444 -0.003706
# 5 -0.002524 0.002274 -0.003168 0.001444 0.021083 -0.000597
# 6 0.003129 0.002233 0.001033 -0.003706 -0.000597 0.019370
#
#
# Mechanical properties :
#
#
# Convention : Reuss Voigt Hill
#
# Bulk Modulus (GPa) = 52.65627 66.05883 59.35755
# Shear Modulus (GPa) = 47.57621 54.46158 51.01890
#
# Velocity S-wave (km/s) = 4.07659 4.36161 4.22151
# Velocity P-wave (km/s) = 6.36798 6.95985 6.67048
#
# Compressibility (1/GPa) = 0.01899109
#
# Stress axis : x y z
#
# Youngs Moduli (GPa) = 100.11636 78.77643 125.34635
#
# Poissons Ratio (x) = 0.09138 0.15322
# Poissons Ratio (y) = 0.11613 0.43274
# Poissons Ratio (z) = 0.12238 0.27196
#
# Static dielectric constant tensor:
#      x y z
#    x 2.228270 0.064020 -0.062840 
#    y 0.064020 2.372520 -0.074200 
#    z -0.062840 -0.074200 2.185110 
# 
# From -- ./inp_files/13468.got.cif
#   From: 2010.05.17/outbox.cif.g08.bks.cpg/sg2_7_cif.got.tgz:13468.got - 2010.06.03 11:33:40.
