data_PCOD9007232
_publ_section_title
;
Structure prediction by ZEFSAII (Michael W. Deem and Ramdas Pophale) SiO2 
 PCOD9007232
Probable space group: P -1
;
_chemical_formula_sum "Si O2"
_cell_formula_units_Z 14
_cell_length_a 17.262117
_cell_length_b 27.180117
_cell_length_c 5.005562
_cell_angle_alpha 86.514950
_cell_angle_beta 95.049226
_cell_angle_gamma 166.711249
_cell_volume 534.557029
_symmetry_space_group_name_H-M "P -1"
_symmetry_group_IT_number 2
_symmetry_cell_setting 'triclinic'
loop_
_space_group_symop_operation_xyz
x,y,z
-x,-y,-z
loop_
_atom_site_type_symbol
_atom_site_label
_atom_site_fract_x
_atom_site_fract_y
_atom_site_fract_z
Si Si1 0.377157 0.386973 0.271486
Si Si2 0.715112 0.298849 0.810061
Si Si3 0.803462 0.085312 0.920248
Si Si4 0.441295 0.897766 0.352942
Si Si5 0.181580 0.033512 0.523377
Si Si6 0.237408 0.472069 0.661082
Si Si7 0.640174 0.757900 0.180793
O O1 0.500000 0.500000 0.500000
O O2 0.656604 0.518330 0.241199
O O3 0.174383 0.292048 0.014140
O O4 0.086091 0.172164 0.386158
O O5 0.433437 0.107119 0.002128
O O6 0.803047 0.300758 0.706069
O O7 0.538585 0.225307 0.563579
O O8 0.000000 0.500000 0.000000
O O9 0.682377 0.050726 0.116847
O O10 0.683576 0.029411 0.618124
O O11 0.166583 0.769849 0.368305
O O12 0.253379 0.122818 0.719832
O O13 0.980992 0.934714 0.249253
O O14 0.375931 0.572712 0.379711
O O15 0.450688 0.636129 0.883790
#
# Coordination Sequence:
#
# PCOD9007232 Si02
#       7
#     2   2   2   2   2   2   2
#     4  10  23  45  69  95 127 175 224 269 318 379
#     4   9  19  34  57  88 126 165 203 252 316 384
#     4   9  22  40  61  87 129 163 212 261 314 387
#     4  10  21  39  60  92 130 161 212 258 323 383
#     4   9  20  39  61  95 131 169 213 263 322 384
#     4  11  23  40  69  96 133 166 216 262 325 387
#     4  10  22  39  62  97 133 167 208 266 326 383
#
# _framework density 26.189909
#
# number of rings (size 3 to 8) (size 9 to 14) (size 15 to 20)
#    0.857    1.429    0.000    1.714    4.000    5.714 
#    2.571    7.857    0.000    0.000    0.000    0.000 
#    0.000    0.000    0.000    0.000    0.000    0.000 
#
# Total GULP energy -78378.250723 kJ/mol
# GULP energy per Si atom -5598.446480 kJ/mol
# Density = 2.613030 g / cm^3
# Si number density = 26.189909 Si / 1000 Ang^3
#
#
#
# Elastic Constant Matrix: (Units=GPa)
#
#
# Indices 1 2 3 4 5 6 
#
# 1 141.5323 48.3800 17.6555 21.9784 8.4469 10.4434
# 2 48.3800 103.3333 28.5965 29.7790 7.5891 18.2753
# 3 17.6555 28.5965 97.3015 12.1319 1.6128 19.9744
# 4 21.9784 29.7790 12.1319 48.7976 3.9698 4.5140
# 5 8.4469 7.5891 1.6128 3.9698 19.9081 11.9197
# 6 10.4434 18.2753 19.9744 4.5140 11.9197 55.0873
#
#
#
# Elastic Compliance Matrix: (Units=1/GPa)
#
#
# Indices 1 2 3 4 5 6 
#
# 1 0.008618 -0.003350 -0.000390 -0.001585 -0.002162 0.000217
# 2 -0.003350 0.014200 -0.002248 -0.006280 -0.001049 -0.002519
# 3 -0.000390 -0.002248 0.011942 -0.001272 0.002697 -0.003990
# 4 -0.001585 -0.006280 -0.001272 0.025451 -0.002712 0.001346
# 5 -0.002162 -0.001049 0.002697 -0.002712 0.059589 -0.012892
# 6 0.000217 -0.002519 -0.003990 0.001346 -0.012892 0.023074
#
#
# Mechanical properties :
#
#
# Convention : Reuss Voigt Hill
#
# Bulk Modulus (GPa) = 43.89110 59.04792 51.46951
# Shear Modulus (GPa) = 30.77959 41.26092 36.02026
#
# Velocity S-wave (km/s) = 3.43191 3.97350 3.71259
# Velocity P-wave (km/s) = 5.70080 6.60656 6.17032
#
# Compressibility (1/GPa) = 0.02278366
#
# Stress axis : x y z
#
# Youngs Moduli (GPa) = 116.03029 70.42117 83.74012
#
# Poissons Ratio (x) = 0.23591 0.03269
# Poissons Ratio (y) = 0.38870 0.18825
# Poissons Ratio (z) = 0.04529 0.15831
#
# Static dielectric constant tensor:
#      x y z
#    x 2.073440 -0.009140 -0.034260 
#    y -0.009140 2.124720 -0.036630 
#    z -0.034260 -0.036630 1.985650 
# 
# From -- ./inp_files/101219.got.cif
#   From: 2010.05.17/outbox.cif.g08.bks.cpg/sg2_51_cif.got.tgz:101219.got - 2010.06.03 11:33:40.
