data_PCOD9007852
_publ_section_title
;
Structure prediction by ZEFSAII (Michael W. Deem and Ramdas Pophale) SiO2 
 PCOD9007852
Probable space group: P -1
;
_chemical_formula_sum "Si O2"
_cell_formula_units_Z 16
_cell_length_a 9.961755
_cell_length_b 6.907067
_cell_length_c 17.819277
_cell_angle_alpha 133.392155
_cell_angle_beta 52.320858
_cell_angle_gamma 126.367556
_cell_volume 672.465609
_symmetry_space_group_name_H-M "P -1"
_symmetry_group_IT_number 2
_symmetry_cell_setting 'triclinic'
loop_
_space_group_symop_operation_xyz
x,y,z
-x,-y,-z
loop_
_atom_site_type_symbol
_atom_site_label
_atom_site_fract_x
_atom_site_fract_y
_atom_site_fract_z
Si Si1 0.187907 0.695996 0.895868
Si Si2 0.020516 0.648436 0.791270
Si Si3 0.808166 0.355439 0.562477
Si Si4 0.677674 0.335226 0.769796
Si Si5 0.941424 0.087612 0.848852
Si Si6 0.752939 0.724346 0.423144
Si Si7 0.395655 0.305594 0.370528
Si Si8 0.449798 0.211701 0.130134
O O1 0.130045 0.801538 0.866003
O O2 0.395347 0.728389 0.844859
O O3 0.071662 0.370495 0.847977
O O4 0.124300 0.832845 0.026298
O O5 0.079653 0.377626 0.679946
O O6 0.807265 0.523587 0.838117
O O7 0.046714 0.867270 0.772639
O O8 0.788934 0.356724 0.659531
O O9 0.677079 0.518642 0.618067
O O10 0.000000 0.500000 0.500000
O O11 0.758096 0.027416 0.472321
O O12 0.537174 0.496613 0.838587
O O13 0.611872 0.013226 0.727897
O O14 0.761589 0.941299 0.824662
O O15 0.588460 0.489631 0.380869
O O16 0.727334 0.718615 0.519704
O O17 0.500000 0.000000 0.000000
#
# Coordination Sequence:
#
# PCOD9007852 Si02
#       8
#     2   2   2   2   2   2   2   2
#     4  10  21  39  63  88 122 166 203 252 315 367
#     4  11  22  37  59  92 119 155 206 255 305 366
#     4  11  22  39  63  87 122 166 207 255 316 372
#     4  10  23  39  62  92 124 162 211 258 309 374
#     4   9  21  41  61  88 125 161 204 255 308 371
#     4  10  23  38  57  92 120 161 206 259 305 370
#     4  10  22  41  60  83 127 161 205 257 308 372
#     4   9  20  40  63  91 126 160 204 257 306 369
#
# _framework density 23.793037000000002
#
# number of rings (size 3 to 8) (size 9 to 14) (size 15 to 20)
#    0.000    2.000    0.000    2.250    3.500    7.000 
#    0.000    0.000    0.000    9.000    0.000    0.000 
#    0.000    0.000    0.000    0.000    0.000    0.000 
#
# Total GULP energy -89459.013583 kJ/mol
# GULP energy per Si atom -5591.188349 kJ/mol
# Density = 2.373888 g / cm^3
# Si number density = 23.793037 Si / 1000 Ang^3
#
#
#
# Elastic Constant Matrix: (Units=GPa)
#
#
# Indices 1 2 3 4 5 6 
#
# 1 147.5800 42.3573 23.5804 2.1238 -3.5404 -14.6310
# 2 42.3573 118.2777 35.5038 22.9691 -5.3043 -1.2723
# 3 23.5804 35.5038 79.1734 25.1401 -5.7337 -9.2177
# 4 2.1238 22.9691 25.1401 37.9155 0.9998 0.8233
# 5 -3.5404 -5.3043 -5.7337 0.9998 28.0353 8.3865
# 6 -14.6310 -1.2723 -9.2177 0.8233 8.3865 29.7465
#
#
#
# Elastic Compliance Matrix: (Units=1/GPa)
#
#
# Indices 1 2 3 4 5 6 
#
# 1 0.008155 -0.002916 -0.001479 0.002238 -0.000995 0.003647
# 2 -0.002916 0.011350 -0.002789 -0.004868 0.002058 -0.002259
# 3 -0.001479 -0.002789 0.018349 -0.010547 0.002053 0.004552
# 4 0.002238 -0.004868 -0.010547 0.036333 -0.003363 -0.002433
# 5 -0.000995 0.002058 0.002053 -0.003363 0.039725 -0.010872
# 6 0.003647 -0.002259 0.004552 -0.002433 -0.010872 0.039858
#
#
# Mechanical properties :
#
#
# Convention : Reuss Voigt Hill
#
# Bulk Modulus (GPa) = 42.58047 60.87936 51.72992
# Shear Modulus (GPa) = 28.41443 35.37878 31.89661
#
# Velocity S-wave (km/s) = 3.45952 3.86027 3.66537
# Velocity P-wave (km/s) = 5.82175 6.74622 6.30096
#
# Compressibility (1/GPa) = 0.02348495
#
# Stress axis : x y z
#
# Youngs Moduli (GPa) = 122.62750 88.10837 54.49749
#
# Poissons Ratio (x) = 0.25696 0.08060
# Poissons Ratio (y) = 0.35763 0.15200
# Poissons Ratio (z) = 0.18137 0.24574
#
# Static dielectric constant tensor:
#      x y z
#    x 1.906800 -0.011880 0.006660 
#    y -0.011880 1.876730 -0.019840 
#    z 0.006660 -0.019840 1.939020 
# 
# From -- ./inp_files/38463.got.cif
#   From: 2010.05.17/outbox.cif.g08.bks.cpg/sg2_20_cif.got.tgz:38463.got - 2010.06.03 11:33:40.
