data_PCOD9007184
_publ_section_title
;
Structure prediction by ZEFSAII (Michael W. Deem and Ramdas Pophale) SiO2 
 PCOD9007184
Probable space group: P -1
;
_chemical_formula_sum "Si O2"
_cell_formula_units_Z 16
_cell_length_a 16.040579
_cell_length_b 6.930580
_cell_length_c 13.020932
_cell_angle_alpha 62.329059
_cell_angle_beta 34.550976
_cell_angle_gamma 61.073975
_cell_volume 712.155763
_symmetry_space_group_name_H-M "P -1"
_symmetry_group_IT_number 2
_symmetry_cell_setting 'triclinic'
loop_
_space_group_symop_operation_xyz
x,y,z
-x,-y,-z
loop_
_atom_site_type_symbol
_atom_site_label
_atom_site_fract_x
_atom_site_fract_y
_atom_site_fract_z
Si Si1 0.681914 0.446400 0.903042
Si Si2 0.502225 0.689502 0.187469
Si Si3 0.236877 0.115697 0.379367
Si Si4 0.537905 0.864878 0.390004
Si Si5 0.675476 0.401249 0.432463
Si Si6 0.996847 0.579510 0.363021
Si Si7 0.954055 0.200894 0.343407
Si Si8 0.292389 0.029104 0.004142
O O1 0.705771 0.665958 0.766685
O O2 0.835098 0.380449 0.832688
O O3 0.532312 0.533885 0.097675
O O4 0.677735 0.212408 0.912770
O O5 0.454779 0.544034 0.362245
O O6 0.376793 0.914522 0.269424
O O7 0.651531 0.784758 0.031270
O O8 0.141273 0.209263 0.555450
O O9 0.107283 0.001387 0.489560
O O10 0.663116 0.635986 0.331868
O O11 0.388033 0.780611 0.525354
O O12 0.500000 0.000000 0.500000
O O13 0.607088 0.990338 0.196736
O O14 0.829834 0.303300 0.358266
O O15 0.000000 0.500000 0.500000
O O16 0.965820 0.389868 0.366711
O O17 0.115186 0.111335 0.152247
#
# Coordination Sequence:
#
# PCOD9007184 Si02
#       8
#     2   2   2   2   2   2   2   2
#     4  11  21  37  58  89 123 165 212 258 302 370
#     4  10  21  39  60  89 121 163 204 265 307 368
#     4  10  23  38  58  89 125 163 218 255 310 363
#     4  10  21  43  65  93 120 158 202 265 321 380
#     4   9  22  40  65  90 123 156 211 251 326 375
#     4  10  22  38  60  90 124 169 214 253 304 362
#     4  11  22  41  63  91 126 170 208 261 308 373
#     4  11  23  37  64  90 123 165 207 254 321 370
#
# _framework density 22.466995000000001
#
# number of rings (size 3 to 8) (size 9 to 14) (size 15 to 20)
#    0.000    1.750    2.500    1.125    0.000   10.000 
#    0.000    0.625    0.000    0.000    0.000    0.000 
#    0.000    0.000    0.000    0.000    0.000    0.000 
#
# Total GULP energy -89129.695456 kJ/mol
# GULP energy per Si atom -5570.605966 kJ/mol
# Density = 2.241586 g / cm^3
# Si number density = 22.466995 Si / 1000 Ang^3
#
#
#
# Elastic Constant Matrix: (Units=GPa)
#
#
# Indices 1 2 3 4 5 6 
#
# 1 85.6877 32.1641 23.3634 12.5754 -21.8044 3.4200
# 2 32.1641 109.7722 34.1630 14.0628 -6.2405 -1.7656
# 3 23.3634 34.1630 72.7810 9.6518 -18.0905 1.8504
# 4 12.5754 14.0628 9.6518 41.4461 0.0851 3.5447
# 5 -21.8044 -6.2405 -18.0905 0.0851 27.2778 2.2565
# 6 3.4200 -1.7656 1.8504 3.5447 2.2565 35.5944
#
#
#
# Elastic Compliance Matrix: (Units=1/GPa)
#
#
# Indices 1 2 3 4 5 6 
#
# 1 0.017031 -0.003850 0.000128 -0.003722 0.013018 -0.002289
# 2 -0.003850 0.011861 -0.005098 -0.001802 -0.003875 0.001648
# 3 0.000128 -0.005098 0.019483 -0.002719 0.012012 -0.001769
# 4 -0.003722 -0.001802 -0.002719 0.026677 -0.005115 -0.001923
# 5 0.013018 -0.003875 0.012012 -0.005115 0.054576 -0.005018
# 6 -0.002289 0.001648 -0.001769 -0.001923 -0.005018 0.028998
#
#
# Mechanical properties :
#
#
# Convention : Reuss Voigt Hill
#
# Bulk Modulus (GPa) = 32.53629 49.73577 41.13603
# Shear Modulus (GPa) = 26.80798 32.76702 29.78750
#
# Velocity S-wave (km/s) = 3.45804 3.82311 3.64515
# Velocity P-wave (km/s) = 5.51882 6.45551 6.00545
#
# Compressibility (1/GPa) = 0.03073491
#
# Stress axis : x y z
#
# Youngs Moduli (GPa) = 58.71711 84.30645 51.32657
#
# Poissons Ratio (x) = 0.32456 -0.00655
# Poissons Ratio (y) = 0.22605 0.26167
# Poissons Ratio (z) = -0.00749 0.42980
#
# Static dielectric constant tensor:
#      x y z
#    x 1.919490 -0.059880 -0.019410 
#    y -0.059880 1.876550 -0.006690 
#    z -0.019410 -0.006690 1.838250 
# 
# From -- ./inp_files/536276.got.cif
#   From: 2010.05.17/outbox.cif.g08.bks.cpg/sg2_269_cif.got.tgz:536276.got - 2010.06.03 11:33:40.
