data_PCOD9007754
_publ_section_title
;
Structure prediction by ZEFSAII (Michael W. Deem and Ramdas Pophale) SiO2 
 PCOD9007754
Probable space group: P -1
;
_chemical_formula_sum "Si O2"
_cell_formula_units_Z 14
_cell_length_a 11.958777
_cell_length_b 15.003238
_cell_length_c 14.856031
_cell_angle_alpha 160.380233
_cell_angle_beta 68.017160
_cell_angle_gamma 122.610703
_cell_volume 664.917208
_symmetry_space_group_name_H-M "P -1"
_symmetry_group_IT_number 2
_symmetry_cell_setting 'triclinic'
loop_
_space_group_symop_operation_xyz
x,y,z
-x,-y,-z
loop_
_atom_site_type_symbol
_atom_site_label
_atom_site_fract_x
_atom_site_fract_y
_atom_site_fract_z
Si Si1 0.858409 0.757128 0.877305
Si Si2 0.717783 0.632569 0.395669
Si Si3 0.297610 0.803799 0.859996
Si Si4 0.948874 0.331177 0.516980
Si Si5 0.587369 0.505721 0.590456
Si Si6 0.000185 0.362619 0.014833
Si Si7 0.858526 0.616265 0.172308
O O1 0.859553 0.448285 0.605732
O O2 0.707044 0.649200 0.771658
O O3 0.886794 0.966815 0.158106
O O4 0.000000 0.000000 0.000000
O O5 0.700930 0.344650 0.186290
O O6 0.577310 0.637441 0.461253
O O7 0.729226 0.579806 0.236028
O O8 0.877392 0.972429 0.702246
O O9 0.389860 0.736788 0.701057
O O10 0.123213 0.577772 0.668592
O O11 0.358432 0.181178 0.192521
O O12 0.952436 0.410440 0.696481
O O13 0.905709 0.423172 0.032572
O O14 0.143066 0.455078 0.000493
O O15 0.000000 0.000000 0.500000
#
# Coordination Sequence:
#
# PCOD9007754 Si02
#       7
#     2   2   2   2   2   2   2
#     4  12  23  40  59  86 120 173 211 247 281 346
#     4  11  23  38  60  92 127 161 196 250 318 370
#     4  12  22  38  59  91 125 166 199 254 296 362
#     4  12  22  39  65  85 124 158 212 252 293 348
#     4  12  26  38  59  87 133 168 207 239 295 366
#     4  10  21  39  62  95 115 153 199 261 316 360
#     4   9  20  37  63  91 118 148 197 255 324 362
#
# _framework density 21.055254999999999
#
# number of rings (size 3 to 8) (size 9 to 14) (size 15 to 20)
#    0.000    0.857    4.286    3.857    4.000    0.000 
#    0.000    0.000    0.000    1.714    0.000    0.000 
#    0.000    0.000    0.000    0.000    0.000    0.000 
#
# Total GULP energy -78311.145357 kJ/mol
# GULP energy per Si atom -5593.653240 kJ/mol
# Density = 2.100733 g / cm^3
# Si number density = 21.055255 Si / 1000 Ang^3
#
#
#
# Elastic Constant Matrix: (Units=GPa)
#
#
# Indices 1 2 3 4 5 6 
#
# 1 102.2610 43.2942 17.7799 -9.3945 -1.2844 11.5196
# 2 43.2942 128.6175 28.1315 -25.2885 5.2873 22.4100
# 3 17.7799 28.1315 80.9923 -4.2339 -10.2999 1.6422
# 4 -9.3945 -25.2885 -4.2339 35.0190 -4.7270 -10.8571
# 5 -1.2844 5.2873 -10.2999 -4.7270 30.8776 -3.9912
# 6 11.5196 22.4100 1.6422 -10.8571 -3.9912 24.5625
#
#
#
# Elastic Compliance Matrix: (Units=1/GPa)
#
#
# Indices 1 2 3 4 5 6 
#
# 1 0.011651 -0.003230 -0.001358 -0.000088 0.000258 -0.002423
# 2 -0.003230 0.012039 -0.003552 0.004458 -0.003715 -0.007864
# 3 -0.001358 -0.003552 0.014626 0.001017 0.006148 0.004349
# 4 -0.000088 0.004458 0.001017 0.036960 0.006959 0.013374
# 5 0.000258 -0.003715 0.006148 0.006959 0.037708 0.012061
# 6 -0.002423 -0.007864 0.004349 0.013374 0.012061 0.056605
#
#
# Mechanical properties :
#
#
# Convention : Reuss Voigt Hill
#
# Bulk Modulus (GPa) = 45.38559 54.47580 49.93069
# Shear Modulus (GPa) = 25.87793 32.93616 29.40704
#
# Velocity S-wave (km/s) = 3.50958 3.95938 3.74125
# Velocity P-wave (km/s) = 6.16645 6.84333 6.51369
#
# Compressibility (1/GPa) = 0.02203343
#
# Stress axis : x y z
#
# Youngs Moduli (GPa) = 85.83073 83.06424 68.37266
#
# Poissons Ratio (x) = 0.26834 0.09287
# Poissons Ratio (y) = 0.27727 0.24288
# Poissons Ratio (z) = 0.11658 0.29507
#
# Static dielectric constant tensor:
#      x y z
#    x 1.774180 -0.000570 -0.025180 
#    y -0.000570 1.822330 -0.016700 
#    z -0.025180 -0.016700 1.850000 
# 
# From -- ./inp_files/71776.got.cif
#   From: 2010.05.17/outbox.cif.g08.bks.cpg/sg2_36_cif.got.tgz:71776.got - 2010.06.03 11:33:40.
