data_PCOD9007372
_publ_section_title
;
Structure prediction by ZEFSAII (Michael W. Deem and Ramdas Pophale) SiO2 
 PCOD9007372
Probable space group: P -1
;
_chemical_formula_sum "Si O2"
_cell_formula_units_Z 16
_cell_length_a 13.172768
_cell_length_b 9.434810
_cell_length_c 13.193227
_cell_angle_alpha 152.056814
_cell_angle_beta 115.060618
_cell_angle_gamma 66.162344
_cell_volume 694.283500
_symmetry_space_group_name_H-M "P -1"
_symmetry_group_IT_number 2
_symmetry_cell_setting 'triclinic'
loop_
_space_group_symop_operation_xyz
x,y,z
-x,-y,-z
loop_
_atom_site_type_symbol
_atom_site_label
_atom_site_fract_x
_atom_site_fract_y
_atom_site_fract_z
Si Si1 0.200077 0.522643 0.192647
Si Si2 0.460342 0.323707 0.139341
Si Si3 0.249283 0.532909 0.438320
Si Si4 0.857869 0.878460 0.260163
Si Si5 0.585280 0.896085 0.557039
Si Si6 0.621549 0.089892 0.903679
Si Si7 0.786725 0.486437 0.348476
Si Si8 0.087317 0.192811 0.548626
O O1 0.331247 0.433640 0.168003
O O2 0.179265 0.448397 0.254845
O O3 0.160800 0.869767 0.372983
O O4 0.134927 0.320853 0.961763
O O5 0.531708 0.590321 0.381616
O O6 0.507782 0.254379 0.003195
O O7 0.500000 0.000000 0.000000
O O8 0.255275 0.892724 0.646150
O O9 0.207156 0.536642 0.540548
O O10 0.351837 0.275942 0.308211
O O11 0.874709 0.687893 0.249890
O O12 0.961114 0.093428 0.435476
O O13 0.701516 0.781078 0.483695
O O14 0.500000 0.000000 0.500000
O O15 0.613108 0.126046 0.802177
O O16 0.721509 0.228806 0.099140
O O17 0.894042 0.573243 0.385587
#
# Coordination Sequence:
#
# PCOD9007372 Si02
#       8
#     2   2   2   2   2   2   2   2
#     4  11  22  40  66  90 126 163 207 259 319 363
#     4  11  23  37  62  96 121 166 212 250 309 370
#     4  10  21  39  61  90 123 160 200 260 303 370
#     4  10  23  41  66  91 123 159 214 259 317 367
#     4  10  23  40  58  89 129 165 210 256 309 375
#     4  10  22  40  61  87 128 163 205 252 305 372
#     4  10  22  40  63  87 125 165 207 251 318 372
#     4  10  23  43  63  93 122 162 209 267 307 377
#
# _framework density 23.045341000000001
#
# number of rings (size 3 to 8) (size 9 to 14) (size 15 to 20)
#    0.000    1.750    1.250    1.875    3.500    9.000 
#    0.000    1.250    0.000    0.000    0.000    0.000 
#    0.000    0.000    0.000    0.000    0.000    0.000 
#
# Total GULP energy -89094.595086 kJ/mol
# GULP energy per Si atom -5568.412193 kJ/mol
# Density = 2.299289 g / cm^3
# Si number density = 23.045341 Si / 1000 Ang^3
#
#
#
# Elastic Constant Matrix: (Units=GPa)
#
#
# Indices 1 2 3 4 5 6 
#
# 1 78.5135 13.3865 27.1150 6.9958 -3.2219 -3.1874
# 2 13.3865 84.2172 65.5707 -14.4315 -9.3834 -3.8380
# 3 27.1150 65.5707 125.8056 -43.5401 -18.0201 6.2700
# 4 6.9958 -14.4315 -43.5401 31.9001 -1.9511 -6.0046
# 5 -3.2219 -9.3834 -18.0201 -1.9511 15.6950 2.9895
# 6 -3.1874 -3.8380 6.2700 -6.0046 2.9895 25.4128
#
#
#
# Elastic Compliance Matrix: (Units=1/GPa)
#
#
# Indices 1 2 3 4 5 6 
#
# 1 0.022667 0.007067 -0.025227 -0.036937 -0.025518 0.004409
# 2 0.007067 0.025657 -0.027539 -0.027337 -0.019638 0.007407
# 3 -0.025227 -0.027539 0.070345 0.091341 0.072697 -0.011649
# 4 -0.036937 -0.027337 0.091341 0.156799 0.101620 -0.006203
# 5 -0.025518 -0.019638 0.072697 0.101620 0.146126 -0.017281
# 6 0.004409 0.007407 -0.011649 -0.006203 -0.017281 0.044463
#
#
# Mechanical properties :
#
#
# Convention : Reuss Voigt Hill
#
# Bulk Modulus (GPa) = 36.66889 55.63120 46.15004
# Shear Modulus (GPa) = 8.82539 26.76586 17.79563
#
# Velocity S-wave (km/s) = 1.95905 3.41169 2.78186
# Velocity P-wave (km/s) = 4.58948 6.30173 5.51249
#
# Compressibility (1/GPa) = 0.02727108
#
# Stress axis : x y z
#
# Youngs Moduli (GPa) = 44.11681 38.97497 14.21561
#
# Poissons Ratio (x) = -0.27543 0.35862
# Poissons Ratio (y) = -0.31177 0.39148
# Poissons Ratio (z) = 1.11294 1.07333
#
# Static dielectric constant tensor:
#      x y z
#    x 1.936340 0.046490 0.015210 
#    y 0.046490 1.982400 0.018690 
#    z 0.015210 0.018690 1.896510 
# 
# From -- ./inp_files/448461.got.cif
#   From: 2010.05.17/outbox.cif.g08.bks.cpg/sg2_225_cif.got.tgz:448461.got - 2010.06.03 11:33:40.
