data_PCOD9007403
_publ_section_title
;
Structure prediction by ZEFSAII (Michael W. Deem and Ramdas Pophale) SiO2 
 PCOD9007403
Probable space group: P -1
;
_chemical_formula_sum "Si O2"
_cell_formula_units_Z 14
_cell_length_a 5.301435
_cell_length_b 14.384912
_cell_length_c 24.301072
_cell_angle_alpha 19.344775
_cell_angle_beta 101.038251
_cell_angle_gamma 103.949786
_cell_volume 592.029727
_symmetry_space_group_name_H-M "P -1"
_symmetry_group_IT_number 2
_symmetry_cell_setting 'triclinic'
loop_
_space_group_symop_operation_xyz
x,y,z
-x,-y,-z
loop_
_atom_site_type_symbol
_atom_site_label
_atom_site_fract_x
_atom_site_fract_y
_atom_site_fract_z
Si Si1 0.472418 0.268079 0.080465
Si Si2 0.992781 0.068405 0.108400
Si Si3 0.651635 0.510646 0.831600
Si Si4 0.667084 0.034962 0.599100
Si Si5 0.449444 0.396230 0.688457
Si Si6 0.231774 0.063671 0.646791
Si Si7 0.262039 0.050373 0.018290
O O1 0.565466 0.405773 0.948811
O O2 0.648045 0.045805 0.232566
O O3 0.500000 0.500000 0.000000
O O4 0.172157 0.124749 0.137650
O O5 0.744094 0.815628 0.240467
O O6 0.163867 0.977375 0.117349
O O7 0.903494 0.360187 0.920637
O O8 0.440939 0.360616 0.862556
O O9 0.679642 0.850803 0.647510
O O10 0.389509 0.939909 0.672251
O O11 0.922226 0.983572 0.672210
O O12 0.685966 0.377168 0.409757
O O13 0.561081 0.187927 0.851295
O O14 0.666515 0.601328 0.547032
O O15 0.000000 0.000000 0.000000
#
# Coordination Sequence:
#
# PCOD9007403 Si02
#       7
#     2   2   2   2   2   2   2
#     4  11  20  35  57  92 128 172 207 253 297 366
#     4  10  22  38  61  88 127 159 214 258 311 367
#     4  10  22  36  61  94 123 164 210 261 305 369
#     4  10  21  39  61  91 126 171 204 255 302 365
#     4   9  21  40  61  89 124 167 204 258 307 376
#     4  10  22  35  62  87 131 169 207 240 305 358
#     4  10  22  43  66  90 118 159 209 265 322 376
#
# _framework density 23.647461
#
# number of rings (size 3 to 8) (size 9 to 14) (size 15 to 20)
#    0.857    1.143    1.429    1.714    4.000    4.000 
#    0.000    7.857    0.000    2.571    0.000    0.000 
#    0.000    0.000    0.000    0.000    0.000    0.000 
#
# Total GULP energy -78094.571836 kJ/mol
# GULP energy per Si atom -5578.183703 kJ/mol
# Density = 2.359364 g / cm^3
# Si number density = 23.647461 Si / 1000 Ang^3
#
#
#
# Elastic Constant Matrix: (Units=GPa)
#
#
# Indices 1 2 3 4 5 6 
#
# 1 67.3009 38.5738 27.1431 -9.1585 18.7664 29.1566
# 2 38.5738 159.3882 64.5903 -23.4355 6.8633 43.4528
# 3 27.1431 64.5903 131.3554 -27.4628 27.7573 27.3353
# 4 -9.1585 -23.4355 -27.4628 33.8138 -1.5367 0.2396
# 5 18.7664 6.8633 27.7573 -1.5367 35.5444 5.4361
# 6 29.1566 43.4528 27.3353 0.2396 5.4361 51.9029
#
#
#
# Elastic Compliance Matrix: (Units=1/GPa)
#
#
# Indices 1 2 3 4 5 6 
#
# 1 0.024740 -0.002172 0.002533 0.006772 -0.012471 -0.012138
# 2 -0.002172 0.010141 -0.002961 0.004196 0.002600 -0.006002
# 3 0.002533 -0.002961 0.013758 0.009375 -0.010316 -0.005153
# 4 0.006772 0.004196 0.009375 0.041643 -0.008133 -0.011595
# 5 -0.012471 0.002600 -0.010316 -0.008133 0.041002 0.006005
# 6 -0.012138 -0.006002 -0.005153 -0.011595 0.006005 0.033249
#
#
# Mechanical properties :
#
#
# Convention : Reuss Voigt Hill
#
# Bulk Modulus (GPa) = 23.02076 68.73987 45.88032
# Shear Modulus (GPa) = 27.14280 39.43470 33.28875
#
# Velocity S-wave (km/s) = 3.39161 4.08807 3.75602
# Velocity P-wave (km/s) = 5.00934 7.17041 6.18499
#
# Compressibility (1/GPa) = 0.04343905
#
# Stress axis : x y z
#
# Youngs Moduli (GPa) = 40.42094 98.61236 72.68652
#
# Poissons Ratio (x) = 0.21417 -0.18411
# Poissons Ratio (y) = 0.08779 0.21520
# Poissons Ratio (z) = -0.10239 0.29196
#
# Static dielectric constant tensor:
#      x y z
#    x 1.995880 -0.029820 0.025140 
#    y -0.029820 1.861440 -0.014910 
#    z 0.025140 -0.014910 1.974210 
# 
# From -- ./inp_files/96627.got.cif
#   From: 2010.05.17/outbox.cif.g08.bks.cpg/sg2_49_cif.got.tgz:96627.got - 2010.06.03 11:33:40.
