data_PCOD9007962
_publ_section_title
;
Structure prediction by ZEFSAII (Michael W. Deem and Ramdas Pophale) SiO2 
 PCOD9007962
Probable space group: P -1
;
_chemical_formula_sum "Si O2"
_cell_formula_units_Z 16
_cell_length_a 6.055202
_cell_length_b 6.296410
_cell_length_c 21.600597
_cell_angle_alpha 92.325735
_cell_angle_beta 62.668687
_cell_angle_gamma 88.570152
_cell_volume 730.125408
_symmetry_space_group_name_H-M "P -1"
_symmetry_group_IT_number 2
_symmetry_cell_setting 'triclinic'
loop_
_space_group_symop_operation_xyz
x,y,z
-x,-y,-z
loop_
_atom_site_type_symbol
_atom_site_label
_atom_site_fract_x
_atom_site_fract_y
_atom_site_fract_z
Si Si1 0.853870 0.708158 0.341553
Si Si2 0.452754 0.929861 0.846750
Si Si3 0.244937 0.633109 0.964984
Si Si4 0.373389 0.442098 0.409066
Si Si5 0.928317 0.806275 0.465000
Si Si6 0.686792 0.275711 0.904724
Si Si7 0.218069 0.265847 0.785168
Si Si8 0.348852 0.407292 0.273996
O O1 0.635608 0.548617 0.381889
O O2 0.878317 0.855519 0.400080
O O3 0.793322 0.816097 0.284956
O O4 0.108605 0.565975 0.299195
O O5 0.259120 0.793515 0.908125
O O6 0.635194 0.775677 0.781009
O O7 0.600830 0.068472 0.878017
O O8 0.313490 0.086951 0.818384
O O9 0.476083 0.462738 0.925737
O O10 0.276258 0.754890 0.027153
O O11 0.000000 0.500000 0.000000
O O12 0.306414 0.296065 0.473242
O O13 0.356782 0.326817 0.343127
O O14 0.157973 0.630878 0.435600
O O15 0.000000 0.000000 0.500000
O O16 0.944434 0.343007 0.842985
O O17 0.409294 0.453301 0.763516
#
# Coordination Sequence:
#
# PCOD9007962 Si02
#       8
#     2   2   2   2   2   2   2   2
#     4  10  21  42  65  90 129 169 207 257 315 372
#     4  12  24  41  66  95 126 163 209 257 309 372
#     4  11  25  46  67  92 129 166 204 258 314 369
#     4   9  21  39  61  91 124 164 210 255 311 371
#     4  10  21  39  63  92 126 163 209 263 311 364
#     4  11  25  42  66  95 125 163 210 255 311 373
#     4  11  24  42  63  93 128 165 209 257 309 374
#     4  10  23  43  64  89 129 168 206 260 313 369
#
# _framework density 21.914042999999999
#
# number of rings (size 3 to 8) (size 9 to 14) (size 15 to 20)
#    0.000    1.500    0.000    4.500    0.000   11.500 
#    0.000    6.250    0.000    0.000    0.000    0.000 
#    0.000    0.000    0.000    0.000    0.000    0.000 
#
# Total GULP energy -89554.365937 kJ/mol
# GULP energy per Si atom -5597.147871 kJ/mol
# Density = 2.186417 g / cm^3
# Si number density = 21.914043 Si / 1000 Ang^3
#
#
#
# Elastic Constant Matrix: (Units=GPa)
#
#
# Indices 1 2 3 4 5 6 
#
# 1 89.9990 29.7984 62.6846 9.8385 1.3471 18.3068
# 2 29.7984 52.8454 62.0572 19.6835 16.2326 14.7437
# 3 62.6846 62.0572 161.8477 18.0930 13.1063 14.0497
# 4 9.8385 19.6835 18.0930 20.8369 18.8104 12.6416
# 5 1.3471 16.2326 13.1063 18.8104 61.9987 1.4553
# 6 18.3068 14.7437 14.0497 12.6416 1.4553 22.6827
#
#
#
# Elastic Compliance Matrix: (Units=1/GPa)
#
#
# Indices 1 2 3 4 5 6 
#
# 1 0.017674 -0.002134 -0.005622 0.007017 -0.000454 -0.013277
# 2 -0.002134 0.049829 -0.014452 -0.029650 -0.000828 -0.005137
# 3 -0.005622 -0.014452 0.013281 0.001166 0.000627 0.005015
# 4 0.007017 -0.029650 0.001166 0.140602 -0.033809 -0.063305
# 5 -0.000454 -0.000828 0.000627 -0.033809 0.026066 0.017687
# 6 -0.013277 -0.005137 0.005015 -0.063305 0.017687 0.089181
#
#
# Mechanical properties :
#
#
# Convention : Reuss Voigt Hill
#
# Bulk Modulus (GPa) = 27.49659 68.19693 47.84676
# Shear Modulus (GPa) = 12.71710 31.11379 21.91545
#
# Velocity S-wave (km/s) = 2.41159 3.77213 3.16581
# Velocity P-wave (km/s) = 4.50878 7.08235 5.93670
#
# Compressibility (1/GPa) = 0.03636815
#
# Stress axis : x y z
#
# Youngs Moduli (GPa) = 56.58052 20.06865 75.29558
#
# Poissons Ratio (x) = 0.04282 0.42333
# Poissons Ratio (y) = 0.12073 1.08816
# Poissons Ratio (z) = 0.31811 0.29003
#
# Static dielectric constant tensor:
#      x y z
#    x 1.793620 -0.001250 0.025930 
#    y -0.001250 1.768950 0.002440 
#    z 0.025930 0.002440 1.810480 
# 
# From -- ./inp_files/47675.got.cif
#   From: 2010.05.17/outbox.cif.g08.bks.cpg/sg2_24_cif.got.tgz:47675.got - 2010.06.03 11:33:40.
