data_PCOD9007244
_publ_section_title
;
Structure prediction by ZEFSAII (Michael W. Deem and Ramdas Pophale) SiO2 
 PCOD9007244
Probable space group: P -1
;
_chemical_formula_sum "Si O2"
_cell_formula_units_Z 16
_cell_length_a 21.438966
_cell_length_b 7.741842
_cell_length_c 14.067672
_cell_angle_alpha 130.910833
_cell_angle_beta 20.639252
_cell_angle_gamma 126.784477
_cell_volume 621.112513
_symmetry_space_group_name_H-M "P -1"
_symmetry_group_IT_number 2
_symmetry_cell_setting 'triclinic'
loop_
_space_group_symop_operation_xyz
x,y,z
-x,-y,-z
loop_
_atom_site_type_symbol
_atom_site_label
_atom_site_fract_x
_atom_site_fract_y
_atom_site_fract_z
Si Si1 0.952729 0.840861 0.241807
Si Si2 0.321714 0.291411 0.557170
Si Si3 0.644776 0.503824 0.143448
Si Si4 0.354821 0.810658 0.149887
Si Si5 0.726993 0.419164 0.619480
Si Si6 0.433070 0.149448 0.910871
Si Si7 0.865442 0.127880 0.814663
Si Si8 0.113952 0.180800 0.003046
O O1 0.808499 0.687549 0.340681
O O2 0.060920 0.768671 0.154934
O O3 0.835145 0.054028 0.530643
O O4 0.060878 0.939053 0.034453
O O5 0.444340 0.505636 0.469413
O O6 0.467285 0.075376 0.265573
O O7 0.215516 0.211010 0.770761
O O8 0.633939 0.384843 0.014765
O O9 0.770328 0.336045 0.968446
O O10 0.751500 0.729174 0.077850
O O11 0.352011 0.682346 0.207523
O O12 0.500000 0.000000 0.000000
O O13 0.594169 0.295567 0.692992
O O14 0.928477 0.327060 0.301994
O O15 0.688818 0.689355 0.784729
O O16 0.288175 0.050695 0.011624
O O17 0.000000 0.000000 0.500000
#
# Coordination Sequence:
#
# PCOD9007244 Si02
#       8
#     2   2   2   2   2   2   2   2
#     4  11  23  38  66  96 123 178 218 259 326 392
#     4  11  22  45  69  90 133 180 217 255 329 402
#     4  11  23  39  66  96 130 169 219 274 323 379
#     4  11  19  37  62  95 127 167 221 266 323 384
#     4  10  22  36  64  97 128 164 219 272 326 371
#     4  10  21  39  60  95 127 168 212 273 321 377
#     4  11  22  37  62  93 136 164 210 273 335 376
#     4  11  24  42  68  96 130 175 221 267 315 394
#
# _framework density 25.760228000000001
#
# number of rings (size 3 to 8) (size 9 to 14) (size 15 to 20)
#    0.000    1.250    5.000    2.250    1.750    1.000 
#    0.000    3.125    2.750    0.000    0.000    0.875 
#    0.000    0.000    0.000    0.000    0.000    0.000 
#
# Total GULP energy -89361.704099 kJ/mol
# GULP energy per Si atom -5585.106506 kJ/mol
# Density = 2.570160 g / cm^3
# Si number density = 25.760228 Si / 1000 Ang^3
#
#
#
# Elastic Constant Matrix: (Units=GPa)
#
#
# Indices 1 2 3 4 5 6 
#
# 1 112.8266 5.2301 40.4968 -12.8751 -11.5517 16.3647
# 2 5.2301 67.8120 14.8901 -30.7389 -16.1230 17.7299
# 3 40.4968 14.8901 101.1717 -22.5583 -3.3471 -3.8535
# 4 -12.8751 -30.7389 -22.5583 40.9629 7.2321 -15.3847
# 5 -11.5517 -16.1230 -3.3471 7.2321 40.8869 -5.8031
# 6 16.3647 17.7299 -3.8535 -15.3847 -5.8031 37.3386
#
#
#
# Elastic Compliance Matrix: (Units=1/GPa)
#
#
# Indices 1 2 3 4 5 6 
#
# 1 0.011914 0.002586 -0.005372 -0.000313 0.003057 -0.006658
# 2 0.002586 0.024986 -0.001234 0.015539 0.006933 -0.005645
# 3 -0.005372 -0.001234 0.014337 0.008383 -0.001223 0.007684
# 4 -0.000313 0.015539 0.008383 0.045121 0.000489 0.012291
# 5 0.003057 0.006933 -0.001223 0.000489 0.027836 -0.000230
# 6 -0.006658 -0.005645 0.007684 0.012291 -0.000230 0.038202
#
#
# Mechanical properties :
#
#
# Convention : Reuss Voigt Hill
#
# Bulk Modulus (GPa) = 23.14824 44.78271 33.96547
# Shear Modulus (GPa) = 27.05100 38.58390 32.81745
#
# Velocity S-wave (km/s) = 3.24405 3.87435 3.57313
# Velocity P-wave (km/s) = 4.79973 6.11852 5.49880
#
# Compressibility (1/GPa) = 0.04319983
#
# Stress axis : x y z
#
# Youngs Moduli (GPa) = 83.93201 40.02202 69.74720
#
# Poissons Ratio (x) = -0.10351 0.37468
# Poissons Ratio (y) = -0.21708 0.08603
# Poissons Ratio (z) = 0.45088 0.04937
#
# Static dielectric constant tensor:
#      x y z
#    x 2.096440 0.085050 -0.024440 
#    y 0.085050 2.196240 -0.005870 
#    z -0.024440 -0.005870 2.087120 
# 
# From -- ./inp_files/540561.got.cif
#   From: 2010.05.17/outbox.cif.g08.bks.cpg/sg2_271_cif.got.tgz:540561.got - 2010.06.03 11:33:40.
