data_PCOD9007993
_publ_section_title
;
Structure prediction by ZEFSAII (Michael W. Deem and Ramdas Pophale) SiO2 
 PCOD9007993
Probable space group: P -1
;
_chemical_formula_sum "Si O2"
_cell_formula_units_Z 12
_cell_length_a 15.295553
_cell_length_b 7.240299
_cell_length_c 7.571211
_cell_angle_alpha 103.384070
_cell_angle_beta 46.232535
_cell_angle_gamma 120.732623
_cell_volume 510.312189
_symmetry_space_group_name_H-M "P -1"
_symmetry_group_IT_number 2
_symmetry_cell_setting 'triclinic'
loop_
_space_group_symop_operation_xyz
x,y,z
-x,-y,-z
loop_
_atom_site_type_symbol
_atom_site_label
_atom_site_fract_x
_atom_site_fract_y
_atom_site_fract_z
Si Si1 0.553386 0.284391 0.530691
Si Si2 0.921578 0.232104 0.273493
Si Si3 0.113002 0.919910 0.323175
Si Si4 0.425882 0.238041 0.040739
Si Si5 0.831312 0.355932 0.091287
Si Si6 0.333712 0.202971 0.531727
O O1 0.667100 0.245059 0.267228
O O2 0.413943 0.204195 0.595018
O O3 0.632236 0.549524 0.485948
O O4 0.515147 0.195058 0.762545
O O5 0.906318 0.220832 0.502965
O O6 0.853708 0.340612 0.265956
O O7 0.829493 0.978345 0.286687
O O8 0.083262 0.392778 0.036823
O O9 0.267723 0.129757 0.165992
O O10 0.108770 0.776315 0.130278
O O11 0.000000 0.000000 0.500000
O O12 0.405852 0.157221 0.251675
O O13 0.500000 0.500000 0.000000
#
# Coordination Sequence:
#
# PCOD9007993 Si02
#       6
#     2   2   2   2   2   2
#     4  10  21  39  63  93 126 161 204 252 310 369
#     4  10  24  42  61  92 126 164 210 253 308 367
#     4  11  25  44  66  89 122 168 213 259 311 368
#     4   9  20  38  61  90 119 155 202 252 304 362
#     4  11  25  41  62  93 130 165 204 260 311 367
#     4   9  20  39  63  90 124 166 205 248 302 371
#
# _framework density 23.515018000000001
#
# number of rings (size 3 to 8) (size 9 to 14) (size 15 to 20)
#    0.000    2.000    0.000    1.500    0.000   18.667 
#    0.000    3.333    0.000    0.000    0.000    0.000 
#    0.000    0.000    0.000    0.000    0.000    0.000 
#
# Total GULP energy -66983.415332 kJ/mol
# GULP energy per Si atom -5581.951278 kJ/mol
# Density = 2.346150 g / cm^3
# Si number density = 23.515018 Si / 1000 Ang^3
#
#
#
# Elastic Constant Matrix: (Units=GPa)
#
#
# Indices 1 2 3 4 5 6 
#
# 1 63.7983 27.3834 47.7070 4.8572 29.3523 2.2938
# 2 27.3834 133.7063 58.2718 -20.8786 1.3585 7.1589
# 3 47.7070 58.2718 137.2718 0.6972 8.9527 -2.9032
# 4 4.8572 -20.8786 0.6972 34.0360 -2.0576 0.9829
# 5 29.3523 1.3585 8.9527 -2.0576 33.8568 -6.5641
# 6 2.2938 7.1589 -2.9032 0.9829 -6.5641 26.7297
#
#
#
# Elastic Compliance Matrix: (Units=1/GPa)
#
#
# Indices 1 2 3 4 5 6 
#
# 1 0.046391 -0.005168 -0.011526 -0.011604 -0.040249 -0.013306
# 2 -0.005168 0.011367 -0.003442 0.008144 0.005035 -0.002038
# 3 -0.011526 -0.003442 0.012352 -0.000395 0.007848 0.005194
# 4 -0.011604 0.008144 -0.000395 0.036763 0.012150 0.000403
# 5 -0.040249 0.005035 0.007848 0.012150 0.066547 0.018853
# 6 -0.013306 -0.002038 0.005194 0.000403 0.018853 0.044278
#
#
# Mechanical properties :
#
#
# Convention : Reuss Voigt Hill
#
# Bulk Modulus (GPa) = 33.51499 66.83342 50.17420
# Shear Modulus (GPa) = 18.66238 32.35210 25.50724
#
# Velocity S-wave (km/s) = 2.82021 3.71321 3.29708
# Velocity P-wave (km/s) = 4.98882 6.84596 5.98980
#
# Compressibility (1/GPa) = 0.02983739
#
# Stress axis : x y z
#
# Youngs Moduli (GPa) = 21.55568 87.97078 80.95947
#
# Poissons Ratio (x) = 0.45465 0.93316
# Poissons Ratio (y) = 0.11140 0.27867
# Poissons Ratio (z) = 0.24846 0.30281
#
# Static dielectric constant tensor:
#      x y z
#    x 1.842090 0.001110 0.009310 
#    y 0.001110 1.936690 0.014110 
#    z 0.009310 0.014110 1.901840 
# 
# From -- ./inp_files/290513.got.cif
#   From: 2010.05.17/outbox.cif.g08.bks.cpg/sg2_146_cif.got.tgz:290513.got - 2010.06.03 11:33:40.
