data_PCOD9007055
_publ_section_title
;
Structure prediction by ZEFSAII (Michael W. Deem and Ramdas Pophale) SiO2 
 PCOD9007055
Probable space group: P -1
;
_chemical_formula_sum "Si O2"
_cell_formula_units_Z 16
_cell_length_a 6.541004
_cell_length_b 11.660381
_cell_length_c 24.738123
_cell_angle_alpha 150.866446
_cell_angle_beta 127.802598
_cell_angle_gamma 57.089598
_cell_volume 725.639881
_symmetry_space_group_name_H-M "P -1"
_symmetry_group_IT_number 2
_symmetry_cell_setting 'triclinic'
loop_
_space_group_symop_operation_xyz
x,y,z
-x,-y,-z
loop_
_atom_site_type_symbol
_atom_site_label
_atom_site_fract_x
_atom_site_fract_y
_atom_site_fract_z
Si Si1 0.962352 0.150745 0.502304
Si Si2 0.578813 0.033780 0.678685
Si Si3 0.160078 0.767745 0.293199
Si Si4 0.712557 0.730798 0.864919
Si Si5 0.819159 0.047370 0.908090
Si Si6 0.380040 0.153046 0.807195
Si Si7 0.150102 0.675684 0.746316
Si Si8 0.896738 0.264235 0.360154
O O1 0.656114 0.144813 0.438449
O O2 0.062814 0.411033 0.632990
O O3 0.102504 0.002441 0.415707
O O4 0.000000 0.000000 0.500000
O O5 0.519632 0.177252 0.782385
O O6 0.850169 0.900617 0.673268
O O7 0.608748 0.188120 0.693056
O O8 0.223459 0.545288 0.249661
O O9 0.900409 0.725470 0.198061
O O10 0.734423 0.899415 0.886028
O O11 0.421589 0.738296 0.843836
O O12 0.933686 0.806953 0.973520
O O13 0.582365 0.201079 0.907611
O O14 0.928317 0.859490 0.804558
O O15 0.303682 0.880779 0.696146
O O16 0.206954 0.689818 0.697488
O O17 0.000000 0.500000 0.500000
#
# Coordination Sequence:
#
# PCOD9007055 Si02
#       8
#     2   2   2   2   2   2   2   2
#     4  11  24  38  62  94 128 169 204 254 322 386
#     4  10  21  39  59  89 130 161 202 256 311 382
#     4  10  23  42  63  95 129 166 209 257 319 381
#     4  11  25  44  65  92 129 165 216 269 310 369
#     4  11  24  43  68  92 123 171 216 265 313 367
#     4  10  21  41  63  90 125 164 213 258 312 373
#     4  12  23  39  64  94 126 164 209 259 316 374
#     4  11  22  34  60  94 124 162 203 257 313 374
#
# _framework density 22.049503999999999
#
# number of rings (size 3 to 8) (size 9 to 14) (size 15 to 20)
#    0.000    1.250    2.500    4.125    1.750    6.500 
#    0.000    0.625    0.000    0.000    0.000    0.000 
#    0.000    0.000    0.000    0.000    0.000    0.000 
#
# Total GULP energy -89391.063382 kJ/mol
# GULP energy per Si atom -5586.941461 kJ/mol
# Density = 2.199932 g / cm^3
# Si number density = 22.049504 Si / 1000 Ang^3
#
#
#
# Elastic Constant Matrix: (Units=GPa)
#
#
# Indices 1 2 3 4 5 6 
#
# 1 81.9840 14.2861 13.7110 -1.7245 11.1393 8.5458
# 2 14.2861 62.4610 3.2679 -7.1524 13.7577 8.7487
# 3 13.7110 3.2679 59.3574 -6.8849 12.3736 4.1431
# 4 -1.7245 -7.1524 -6.8849 34.1417 -6.4137 1.5498
# 5 11.1393 13.7577 12.3736 -6.4137 25.3683 -6.8835
# 6 8.5458 8.7487 4.1431 1.5498 -6.8835 37.3231
#
#
#
# Elastic Compliance Matrix: (Units=1/GPa)
#
#
# Indices 1 2 3 4 5 6 
#
# 1 0.013876 -0.001420 -0.001792 -0.000855 -0.005656 -0.003653
# 2 -0.001420 0.020395 0.002747 0.002627 -0.013089 -0.007283
# 3 -0.001792 0.002747 0.020045 0.002659 -0.011058 -0.004608
# 4 -0.000855 0.002627 0.002659 0.031377 0.005305 -0.001040
# 5 -0.005656 -0.013089 -0.011058 0.005305 0.060206 0.016474
# 6 -0.003653 -0.007283 -0.004608 -0.001040 0.016474 0.032930
#
#
# Mechanical properties :
#
#
# Convention : Reuss Voigt Hill
#
# Bulk Modulus (GPa) = 18.73204 29.59249 24.16227
# Shear Modulus (GPa) = 25.30938 30.86911 28.08924
#
# Velocity S-wave (km/s) = 3.39166 3.74570 3.57307
# Velocity P-wave (km/s) = 4.88382 5.67073 5.29192
#
# Compressibility (1/GPa) = 0.05338447
#
# Stress axis : x y z
#
# Youngs Moduli (GPa) = 72.06691 49.03148 49.88745
#
# Poissons Ratio (x) = 0.06965 0.08941
# Poissons Ratio (y) = 0.10237 -0.13703
# Poissons Ratio (z) = 0.12916 -0.13468
#
# Static dielectric constant tensor:
#      x y z
#    x 1.809230 0.008470 0.008470 
#    y 0.008470 1.846730 -0.033390 
#    z 0.008470 -0.033390 1.826590 
# 
# From -- ./inp_files/71865.got.cif
#   From: 2010.05.17/outbox.cif.g08.bks.cpg/sg2_36_cif.got.tgz:71865.got - 2010.06.03 11:33:40.
