data_PCOD9007056
_publ_section_title
;
Structure prediction by ZEFSAII (Michael W. Deem and Ramdas Pophale) SiO2 
 PCOD9007056
Probable space group: P -1
;
_chemical_formula_sum "Si O2"
_cell_formula_units_Z 12
_cell_length_a 6.230722
_cell_length_b 14.719813
_cell_length_c 11.455566
_cell_angle_alpha 149.477089
_cell_angle_beta 105.045279
_cell_angle_gamma 77.460211
_cell_volume 515.269440
_symmetry_space_group_name_H-M "P -1"
_symmetry_group_IT_number 2
_symmetry_cell_setting 'triclinic'
loop_
_space_group_symop_operation_xyz
x,y,z
-x,-y,-z
loop_
_atom_site_type_symbol
_atom_site_label
_atom_site_fract_x
_atom_site_fract_y
_atom_site_fract_z
Si Si1 0.364499 0.593447 0.477947
Si Si2 0.647627 0.902887 0.818001
Si Si3 0.890544 0.213035 0.146997
Si Si4 0.425656 0.702389 0.183219
Si Si5 0.758263 0.959528 0.363179
Si Si6 0.973666 0.679229 0.947511
O O1 0.500000 0.500000 0.500000
O O2 0.526988 0.719951 0.566915
O O3 0.198528 0.710663 0.661077
O O4 0.220115 0.468121 0.235593
O O5 0.868485 0.855230 0.865556
O O6 0.500000 0.000000 0.000000
O O7 0.725964 0.052999 0.904037
O O8 0.921258 0.347320 0.194786
O O9 0.608535 0.810724 0.248254
O O10 0.371846 0.852963 0.442056
O O11 0.500000 0.500000 0.000000
O O12 0.184673 0.676511 0.058362
O O13 0.838352 0.864826 0.150044
O O14 0.000000 0.000000 0.500000
#
# Coordination Sequence:
#
# PCOD9007056 Si02
#       6
#     2   2   2   2   2   2
#     4  11  22  37  64  90 135 175 218 262 308 391
#     4   9  20  38  57  85 131 175 216 269 311 367
#     4  10  21  39  59  89 135 174 220 265 313 393
#     4  10  23  47  73  96 131 166 221 287 334 397
#     4   9  22  45  69  96 129 166 222 278 338 394
#     4  11  23  38  68  98 129 179 216 263 341 387
#
# _framework density 23.288786999999999
#
# number of rings (size 3 to 8) (size 9 to 14) (size 15 to 20)
#    0.000    2.000    1.667    0.500    2.333    2.667 
#    0.000   28.333    0.000    0.000    0.000    0.000 
#    0.000    0.000    0.000    0.000    0.000    0.000 
#
# Total GULP energy -66887.987217 kJ/mol
# GULP energy per Si atom -5573.998935 kJ/mol
# Density = 2.323578 g / cm^3
# Si number density = 23.288787 Si / 1000 Ang^3
#
#
#
# Elastic Constant Matrix: (Units=GPa)
#
#
# Indices 1 2 3 4 5 6 
#
# 1 129.8032 32.1109 64.0221 13.2232 21.3767 -15.7151
# 2 32.1109 50.2691 30.3859 18.3429 3.5909 -10.2564
# 3 64.0221 30.3859 135.2333 19.3003 26.7017 -3.9675
# 4 13.2232 18.3429 19.3003 33.4205 0.8582 0.5146
# 5 21.3767 3.5909 26.7017 0.8582 69.9794 15.2434
# 6 -15.7151 -10.2564 -3.9675 0.5146 15.2434 31.1908
#
#
#
# Elastic Compliance Matrix: (Units=1/GPa)
#
#
# Indices 1 2 3 4 5 6 
#
# 1 0.011801 -0.003591 -0.003915 -0.000445 -0.003192 0.005834
# 2 -0.003591 0.030838 -0.002735 -0.014031 -0.001186 0.008794
# 3 -0.003915 -0.002735 0.010850 -0.003144 -0.002744 -0.000099
# 4 -0.000445 -0.014031 -0.003144 0.039647 0.003193 -0.007452
# 5 -0.003192 -0.001186 -0.002744 0.003193 0.018865 -0.011619
# 6 0.005834 0.008794 -0.000099 -0.007452 -0.011619 0.043681
#
#
# Mechanical properties :
#
#
# Convention : Reuss Voigt Hill
#
# Bulk Modulus (GPa) = 30.29518 63.14928 46.72223
# Shear Modulus (GPa) = 26.71441 39.50391 33.10916
#
# Velocity S-wave (km/s) = 3.39055 4.12304 3.77461
# Velocity P-wave (km/s) = 5.32583 7.05978 6.25320
#
# Compressibility (1/GPa) = 0.03300855
#
# Stress axis : x y z
#
# Youngs Moduli (GPa) = 84.74191 32.42715 92.16600
#
# Poissons Ratio (x) = 0.11644 0.36081
# Poissons Ratio (y) = 0.30428 0.25204
# Poissons Ratio (z) = 0.33175 0.08868
#
# Static dielectric constant tensor:
#      x y z
#    x 1.565550 0.218180 -0.060050 
#    y 0.218180 1.789460 0.047470 
#    z -0.060050 0.047470 2.021700 
# 
# From -- ./inp_files/97535.got.cif
#   From: 2010.05.17/outbox.cif.g08.bks.cpg/sg2_49_cif.got.tgz:97535.got - 2010.06.03 11:33:40.
