data_PCOD9007939
_publ_section_title
;
Structure prediction by ZEFSAII (Michael W. Deem and Ramdas Pophale) SiO2 
 PCOD9007939
Probable space group: P -1
;
_chemical_formula_sum "Si O2"
_cell_formula_units_Z 16
_cell_length_a 10.240295
_cell_length_b 11.889944
_cell_length_c 12.762659
_cell_angle_alpha 55.699154
_cell_angle_beta 81.429304
_cell_angle_gamma 38.990293
_cell_volume 671.341578
_symmetry_space_group_name_H-M "P -1"
_symmetry_group_IT_number 2
_symmetry_cell_setting 'triclinic'
loop_
_space_group_symop_operation_xyz
x,y,z
-x,-y,-z
loop_
_atom_site_type_symbol
_atom_site_label
_atom_site_fract_x
_atom_site_fract_y
_atom_site_fract_z
Si Si1 0.789469 0.014043 0.416773
Si Si2 0.350774 0.507932 0.571230
Si Si3 0.901865 0.607997 0.670092
Si Si4 0.368070 0.390395 0.414353
Si Si5 0.079713 0.078846 0.916874
Si Si6 0.494634 0.341101 0.069721
Si Si7 0.988820 0.659333 0.015744
Si Si8 0.540323 0.860211 0.167557
O O1 0.827418 0.826144 0.545573
O O2 0.075087 0.806932 0.471017
O O3 0.618825 0.228988 0.415434
O O4 0.627062 0.169066 0.249410
O O5 0.500000 0.500000 0.500000
O O6 0.367884 0.380743 0.542820
O O7 0.439724 0.325302 0.748985
O O8 0.705877 0.682584 0.597505
O O9 0.927452 0.547302 0.821413
O O10 0.178738 0.343573 0.726640
O O11 0.133700 0.690635 0.259698
O O12 0.058779 0.194301 0.958601
O O13 0.341381 0.847363 0.948962
O O14 0.000000 0.000000 0.000000
O O15 0.217001 0.524460 0.997081
O O16 0.500000 0.500000 0.000000
O O17 0.720316 0.883179 0.875830
O O18 0.500000 0.000000 0.000000
#
# Coordination Sequence:
#
# PCOD9007939 Si02
#       8
#     2   2   2   2   2   2   2   2
#     4  11  22  41  65  97 128 164 217 272 324 380
#     4  11  26  42  67  96 132 173 213 274 329 389
#     4   9  20  41  67  94 125 170 213 271 318 377
#     4  11  22  40  67  98 124 165 222 273 318 385
#     4  11  21  37  59  92 126 166 210 262 315 383
#     4  12  22  36  62  96 127 169 212 267 323 376
#     4  10  21  39  63  91 128 169 211 257 322 384
#     4   9  21  43  64  89 133 176 209 262 331 386
#
# _framework density 23.832875999999999
#
# number of rings (size 3 to 8) (size 9 to 14) (size 15 to 20)
#    0.000    1.500    5.000    0.375    3.500    2.500 
#    2.250    2.500    0.000   11.250    0.000    0.000 
#    0.000    0.000    0.000    0.000    0.000    0.000 
#
# Total GULP energy -89296.330805 kJ/mol
# GULP energy per Si atom -5581.020675 kJ/mol
# Density = 2.377863 g / cm^3
# Si number density = 23.832876 Si / 1000 Ang^3
#
#
#
# Elastic Constant Matrix: (Units=GPa)
#
#
# Indices 1 2 3 4 5 6 
#
# 1 69.0481 34.4983 22.2429 -13.1548 -11.0666 -36.4503
# 2 34.4983 195.2849 25.7959 -25.2333 17.3418 -40.9190
# 3 22.2429 25.7959 82.9643 -20.0627 -1.5155 -11.6281
# 4 -13.1548 -25.2333 -20.0627 27.9347 -8.8147 12.7376
# 5 -11.0666 17.3418 -1.5155 -8.8147 33.3079 -0.1957
# 6 -36.4503 -40.9190 -11.6281 12.7376 -0.1957 50.9006
#
#
#
# Elastic Compliance Matrix: (Units=1/GPa)
#
#
# Indices 1 2 3 4 5 6 
#
# 1 0.027966 -0.001260 -0.003162 0.005639 0.011395 0.016924
# 2 -0.001260 0.006841 -0.000782 0.002188 -0.003414 0.003858
# 3 -0.003162 -0.000782 0.015524 0.010801 0.002909 -0.002038
# 4 0.005639 0.002188 0.010801 0.055792 0.015958 -0.005635
# 5 0.011395 -0.003414 0.002909 0.015958 0.039955 0.002241
# 6 0.016924 0.003858 -0.002038 -0.005635 0.002241 0.035820
#
#
# Mechanical properties :
#
#
# Convention : Reuss Voigt Hill
#
# Bulk Modulus (GPa) = 25.04826 56.93018 40.98922
# Shear Modulus (GPa) = 24.31758 40.07932 32.19845
#
# Velocity S-wave (km/s) = 3.19774 4.10528 3.67960
# Velocity P-wave (km/s) = 4.91598 6.81250 5.94041
#
# Compressibility (1/GPa) = 0.03992294
#
# Stress axis : x y z
#
# Youngs Moduli (GPa) = 35.75831 146.18134 64.41782
#
# Poissons Ratio (x) = 0.18415 0.20369
# Poissons Ratio (y) = 0.04505 0.05036
# Poissons Ratio (z) = 0.11307 0.11428
#
# Static dielectric constant tensor:
#      x y z
#    x 1.949970 -0.006900 0.012950 
#    y -0.006900 1.936910 0.008010 
#    z 0.012950 0.008010 1.948720 
# 
# From -- ./inp_files/522345.got.cif
#   From: 2010.05.17/outbox.cif.g08.bks.cpg/sg2_262_cif.got.tgz:522345.got - 2010.06.03 11:33:40.
