data_PCOD9007516
_publ_section_title
;
Structure prediction by ZEFSAII (Michael W. Deem and Ramdas Pophale) SiO2 
 PCOD9007516
Probable space group: P -1
;
_chemical_formula_sum "Si O2"
_cell_formula_units_Z 14
_cell_length_a 14.159941
_cell_length_b 5.777275
_cell_length_c 13.933574
_cell_angle_alpha 112.704593
_cell_angle_beta 151.124496
_cell_angle_gamma 62.414567
_cell_volume 487.360862
_symmetry_space_group_name_H-M "P -1"
_symmetry_group_IT_number 2
_symmetry_cell_setting 'triclinic'
loop_
_space_group_symop_operation_xyz
x,y,z
-x,-y,-z
loop_
_atom_site_type_symbol
_atom_site_label
_atom_site_fract_x
_atom_site_fract_y
_atom_site_fract_z
Si Si1 0.445480 0.695017 0.772970
Si Si2 0.581689 0.785083 0.244299
Si Si3 0.476395 0.109939 0.389126
Si Si4 0.962168 0.310121 0.287545
Si Si5 0.867416 0.405243 0.012451
Si Si6 0.980025 0.859246 0.360463
Si Si7 0.163052 0.662918 0.232638
O O1 0.461284 0.496171 0.844576
O O2 0.221573 0.719028 0.532113
O O3 0.457632 0.992055 0.835842
O O4 0.631858 0.548002 0.847044
O O5 0.821606 0.723646 0.473617
O O6 0.468631 0.920198 0.263569
O O7 0.288208 0.362476 0.272534
O O8 0.676228 0.203240 0.561525
O O9 0.500000 0.000000 0.500000
O O10 0.875763 0.626873 0.251648
O O11 0.963986 0.240314 0.165431
O O12 0.879090 0.100334 0.237917
O O13 0.985565 0.627396 0.137350
O O14 0.891381 0.248223 0.910235
O O15 0.000000 0.000000 0.500000
#
# Coordination Sequence:
#
# PCOD9007516 Si02
#       7
#     2   2   2   2   2   2   2
#     4  10  22  41  65  91 130 167 207 269 322 388
#     4  10  21  39  62  85 121 172 223 251 314 374
#     4  11  21  37  60  85 119 181 233 275 301 360
#     4  10  23  39  69  96 132 165 209 272 324 395
#     4  11  22  42  58  98 135 176 212 271 341 365
#     4  10  22  45  73  99 121 167 219 263 322 408
#     4  10  24  39  59  88 136 174 234 269 306 383
#
# _framework density 28.726147999999998
#
# number of rings (size 3 to 8) (size 9 to 14) (size 15 to 20)
#    0.000    1.714    1.429    2.143    8.000    1.143 
#    5.143    4.286    0.000    0.000    0.000    0.000 
#    0.000    0.000    0.000    0.000    0.000    0.000 
#
# Total GULP energy -78395.467828 kJ/mol
# GULP energy per Si atom -5599.676273 kJ/mol
# Density = 2.866077 g / cm^3
# Si number density = 28.726148 Si / 1000 Ang^3
#
#
#
# Elastic Constant Matrix: (Units=GPa)
#
#
# Indices 1 2 3 4 5 6 
#
# 1 85.9244 66.3443 38.7470 -7.5124 -15.9924 12.3977
# 2 66.3443 222.3239 51.2474 -20.2986 -14.4841 52.3795
# 3 38.7470 51.2474 100.9428 -1.8637 14.8688 18.8071
# 4 -7.5124 -20.2986 -1.8637 56.9524 17.7437 -8.8877
# 5 -15.9924 -14.4841 14.8688 17.7437 61.0127 -9.6394
# 6 12.3977 52.3795 18.8071 -8.8877 -9.6394 47.2420
#
#
#
# Elastic Compliance Matrix: (Units=1/GPa)
#
#
# Indices 1 2 3 4 5 6 
#
# 1 0.018690 -0.004692 -0.006465 -0.000727 0.006204 0.004000
# 2 -0.004692 0.007788 -0.000722 0.001249 -0.000677 -0.007020
# 3 -0.006465 -0.000722 0.014522 0.000631 -0.006291 -0.004449
# 4 -0.000727 0.001249 0.000631 0.019865 -0.005645 0.001141
# 5 0.006204 -0.000677 -0.006291 -0.005645 0.021823 0.005018
# 6 0.004000 -0.007020 -0.004449 0.001141 0.005018 0.030910
#
#
# Mechanical properties :
#
#
# Convention : Reuss Voigt Hill
#
# Bulk Modulus (GPa) = 57.99617 80.20762 69.10189
# Shear Modulus (GPa) = 34.93958 49.89824 42.41891
#
# Velocity S-wave (km/s) = 3.49133 4.17229 3.84691
# Velocity P-wave (km/s) = 6.04034 7.15491 6.62112
#
# Compressibility (1/GPa) = 0.01724252
#
# Stress axis : x y z
#
# Youngs Moduli (GPa) = 53.50463 128.39817 68.86054
#
# Poissons Ratio (x) = 0.60241 0.44516
# Poissons Ratio (y) = 0.25103 0.04975
# Poissons Ratio (z) = 0.34589 0.09276
#
# Static dielectric constant tensor:
#      x y z
#    x 2.294860 0.044060 -0.022800 
#    y 0.044060 2.264810 -0.036880 
#    z -0.022800 -0.036880 2.249090 
# 
# From -- ./inp_files/135066.got.cif
#   From: 2010.05.17/outbox.cif.g08.bks.cpg/sg2_68_cif.got.tgz:135066.got - 2010.06.03 11:33:40.
