data_PCOD9007554
_publ_section_title
;
Structure prediction by ZEFSAII (Michael W. Deem and Ramdas Pophale) SiO2 
 PCOD9007554
Probable space group: P -1
;
_chemical_formula_sum "Si O2"
_cell_formula_units_Z 16
_cell_length_a 12.883911
_cell_length_b 12.133528
_cell_length_c 5.139106
_cell_angle_alpha 96.539944
_cell_angle_beta 74.902858
_cell_angle_gamma 63.789920
_cell_volume 671.158477
_symmetry_space_group_name_H-M "P -1"
_symmetry_group_IT_number 2
_symmetry_cell_setting 'triclinic'
loop_
_space_group_symop_operation_xyz
x,y,z
-x,-y,-z
loop_
_atom_site_type_symbol
_atom_site_label
_atom_site_fract_x
_atom_site_fract_y
_atom_site_fract_z
Si Si1 0.722070 0.871392 0.776918
Si Si2 0.647759 0.689198 0.497141
Si Si3 0.794673 0.999256 0.122749
Si Si4 0.076374 0.085999 0.489488
Si Si5 0.103122 0.542487 0.950394
Si Si6 0.446353 0.909679 0.405225
Si Si7 0.424498 0.500994 0.298720
Si Si8 0.861500 0.330673 0.522879
O O1 0.675568 0.777587 0.693796
O O2 0.763822 0.884052 0.041534
O O3 0.847440 0.835894 0.530472
O O4 0.619155 0.015821 0.797483
O O5 0.770890 0.577730 0.262259
O O6 0.560413 0.771585 0.339742
O O7 0.587618 0.624570 0.693416
O O8 0.846372 0.013959 0.816349
O O9 0.899079 0.970060 0.256907
O O10 0.664244 0.093785 0.362317
O O11 0.940231 0.184361 0.518563
O O12 0.081370 0.648964 0.775549
O O13 0.122580 0.588016 0.232045
O O14 0.000000 0.500000 0.000000
O O15 0.500000 0.000000 0.500000
O O16 0.500000 0.500000 0.500000
O O17 0.283589 0.616854 0.410550
O O18 0.500000 0.500000 0.000000
#
# Coordination Sequence:
#
# PCOD9007554 Si02
#       8
#     2   2   2   2   2   2   2   2
#     4   8  18  35  55  90 130 148 192 223 297 379
#     4  10  21  39  62  88 118 174 196 249 312 353
#     4   9  18  34  51  86 128 156 178 231 270 368
#     4   9  18  34  57  85 121 154 186 227 297 368
#     4  11  23  38  55  92 128 157 197 244 292 387
#     4   9  18  35  53  89 125 159 194 229 288 383
#     4  11  25  48  60  83 116 156 225 279 291 336
#     4  11  22  40  62  85 113 167 204 248 312 355
#
# _framework density 23.839376000000001
#
# number of rings (size 3 to 8) (size 9 to 14) (size 15 to 20)
#    0.750    1.500    0.000    3.375    0.000    5.000 
#   27.000    0.000    0.000    0.000    0.000   12.250 
#    0.000    0.000    0.000    0.000    0.000    0.000 
#
# Total GULP energy -89288.623230 kJ/mol
# GULP energy per Si atom -5580.538952 kJ/mol
# Density = 2.378512 g / cm^3
# Si number density = 23.839376 Si / 1000 Ang^3
#
#
#
# Elastic Constant Matrix: (Units=GPa)
#
#
# Indices 1 2 3 4 5 6 
#
# 1 156.7197 48.5003 58.1687 -15.8574 1.8455 -7.0487
# 2 48.5003 59.2984 20.0497 -6.6697 -3.1148 -5.1601
# 3 58.1687 20.0497 110.3255 -21.7950 12.6567 -2.4941
# 4 -15.8574 -6.6697 -21.7950 16.4458 -1.8900 0.7564
# 5 1.8455 -3.1148 12.6567 -1.8900 39.4144 -8.8332
# 6 -7.0487 -5.1601 -2.4941 0.7564 -8.8332 40.5712
#
#
#
# Elastic Compliance Matrix: (Units=1/GPa)
#
#
# Indices 1 2 3 4 5 6 
#
# 1 0.010056 -0.006644 -0.003717 0.002095 0.000463 0.000735
# 2 -0.006644 0.023105 -0.000473 0.002567 0.002938 0.002347
# 3 -0.003717 -0.000473 0.014523 0.015053 -0.004022 -0.000970
# 4 0.002095 0.002567 0.015053 0.083737 -0.000738 -0.000106
# 5 0.000463 0.002938 -0.004022 -0.000738 0.028267 0.006375
# 6 0.000735 0.002347 -0.000970 -0.000106 0.006375 0.026405
#
#
# Mechanical properties :
#
#
# Convention : Reuss Voigt Hill
#
# Bulk Modulus (GPa) = 38.43712 64.42011 51.42861
# Shear Modulus (GPa) = 23.10171 32.59459 27.84815
#
# Velocity S-wave (km/s) = 3.11635 3.70166 3.42154
# Velocity P-wave (km/s) = 5.39511 6.73431 6.10156
#
# Compressibility (1/GPa) = 0.02601652
#
# Stress axis : x y z
#
# Youngs Moduli (GPa) = 99.43942 43.27993 68.85489
#
# Poissons Ratio (x) = 0.28757 0.25596
# Poissons Ratio (y) = 0.66071 0.03254
# Poissons Ratio (z) = 0.36965 0.02046
#
# Static dielectric constant tensor:
#      x y z
#    x 1.933510 -0.014250 -0.018670 
#    y -0.014250 1.959740 -0.038080 
#    z -0.018670 -0.038080 1.954410 
# 
# From -- ./inp_files/70374.got.cif
#   From: 2010.05.17/outbox.cif.g08.bks.cpg/sg2_36_cif.got.tgz:70374.got - 2010.06.03 11:33:40.
