data_PCOD9007695
_publ_section_title
;
Structure prediction by ZEFSAII (Michael W. Deem and Ramdas Pophale) SiO2 
 PCOD9007695
Probable space group: P -1
;
_chemical_formula_sum "Si O2"
_cell_formula_units_Z 16
_cell_length_a 12.260186
_cell_length_b 7.000052
_cell_length_c 13.911458
_cell_angle_alpha 91.278984
_cell_angle_beta 91.353516
_cell_angle_gamma 29.557638
_cell_volume 588.785477
_symmetry_space_group_name_H-M "P -1"
_symmetry_group_IT_number 2
_symmetry_cell_setting 'triclinic'
loop_
_space_group_symop_operation_xyz
x,y,z
-x,-y,-z
loop_
_atom_site_type_symbol
_atom_site_label
_atom_site_fract_x
_atom_site_fract_y
_atom_site_fract_z
Si Si1 0.826405 0.130001 0.943852
Si Si2 0.483718 0.386208 0.407679
Si Si3 0.100203 0.453866 0.354008
Si Si4 0.325253 0.033757 0.994412
Si Si5 0.821127 0.555219 0.431036
Si Si6 0.608916 0.547881 0.318547
Si Si7 0.203368 0.660262 0.259055
Si Si8 0.435056 0.120806 0.841007
O O1 0.823281 0.919947 0.982574
O O2 0.854235 0.120843 0.830007
O O3 0.574170 0.582513 0.967310
O O4 0.000000 0.000000 0.000000
O O5 0.238531 0.563050 0.607954
O O6 0.613331 0.316057 0.330930
O O7 0.247445 0.704501 0.359576
O O8 0.592204 0.023500 0.435721
O O9 0.077274 0.579036 0.462326
O O10 0.066253 0.677665 0.279918
O O11 0.954697 0.484527 0.357336
O O12 0.352313 0.998298 0.337440
O O13 0.369331 0.095536 0.089563
O O14 0.269767 0.255766 0.906571
O O15 0.500000 0.500000 0.500000
O O16 0.658968 0.556581 0.214868
O O17 0.447401 0.203033 0.232970
#
# Coordination Sequence:
#
# PCOD9007695 Si02
#       8
#     2   2   2   2   2   2   2   2
#     4  10  21  39  62  92 126 157 202 261 311 371
#     4  12  22  38  68  93 125 173 212 261 321 370
#     4  10  21  40  61  84 126 164 203 263 310 370
#     4   9  19  38  62  87 118 161 203 252 313 374
#     4  11  22  41  61  89 124 164 213 257 315 373
#     4  11  21  39  62  88 125 165 205 258 314 373
#     4  10  21  40  62  89 128 164 207 261 312 371
#     4   9  18  37  63  83 119 165 201 253 310 364
#
# _framework density 27.174586000000001
#
# number of rings (size 3 to 8) (size 9 to 14) (size 15 to 20)
#    0.000    1.750    3.750    1.875    0.000    1.000 
#    6.750   10.000    0.000    0.000    0.000    0.000 
#    0.000    0.000    0.000    0.000    0.000    0.000 
#
# Total GULP energy -89663.148063 kJ/mol
# GULP energy per Si atom -5603.946754 kJ/mol
# Density = 2.711274 g / cm^3
# Si number density = 27.174586 Si / 1000 Ang^3
#
#
#
# Elastic Constant Matrix: (Units=GPa)
#
#
# Indices 1 2 3 4 5 6 
#
# 1 192.5517 31.8893 41.5279 0.7247 -50.8681 -9.0629
# 2 31.8893 75.9796 12.5909 1.4120 -15.5979 -12.6957
# 3 41.5279 12.5909 127.0102 -8.2781 -40.5692 2.7090
# 4 0.7247 1.4120 -8.2781 27.9832 7.2690 -16.9598
# 5 -50.8681 -15.5979 -40.5692 7.2690 58.8934 -1.3220
# 6 -9.0629 -12.6957 2.7090 -16.9598 -1.3220 51.9636
#
#
#
# Elastic Compliance Matrix: (Units=1/GPa)
#
#
# Indices 1 2 3 4 5 6 
#
# 1 0.007054 -0.001632 -0.000486 -0.001333 0.005503 0.000562
# 2 -0.001632 0.014979 -0.000211 0.000863 0.002389 0.003728
# 3 -0.000486 -0.000211 0.010176 0.001338 0.006367 -0.000068
# 4 -0.001333 0.000863 0.001338 0.046611 -0.005418 0.014984
# 5 0.005503 0.002389 0.006367 -0.005418 0.027424 0.000141
# 6 0.000562 0.003728 -0.000068 0.014984 0.000141 0.025151
#
#
# Mechanical properties :
#
#
# Convention : Reuss Voigt Hill
#
# Bulk Modulus (GPa) = 36.29718 63.06198 49.67958
# Shear Modulus (GPa) = 34.42714 48.40360 41.41537
#
# Velocity S-wave (km/s) = 3.56320 4.22502 3.90814
# Velocity P-wave (km/s) = 5.50586 6.85986 6.21981
#
# Compressibility (1/GPa) = 0.02755035
#
# Stress axis : x y z
#
# Youngs Moduli (GPa) = 141.77227 66.76121 98.27361
#
# Poissons Ratio (x) = 0.10893 0.04773
# Poissons Ratio (y) = 0.23132 0.02078
# Poissons Ratio (z) = 0.06886 0.01412
#
# Static dielectric constant tensor:
#      x y z
#    x 2.054500 0.036230 -0.009740 
#    y 0.036230 2.286140 0.023020 
#    z -0.009740 0.023020 2.146550 
# 
# From -- ./inp_files/513017.got.cif
#   From: 2010.05.17/outbox.cif.g08.bks.cpg/sg2_257_cif.got.tgz:513017.got - 2010.06.03 11:33:40.
