data_PCOD9007699
_publ_section_title
;
Structure prediction by ZEFSAII (Michael W. Deem and Ramdas Pophale) SiO2 
 PCOD9007699
Probable space group: P -1
;
_chemical_formula_sum "Si O2"
_cell_formula_units_Z 15
_cell_length_a 20.373465
_cell_length_b 21.012361
_cell_length_c 6.843682
_cell_angle_alpha 64.611692
_cell_angle_beta 53.941244
_cell_angle_gamma 18.239990
_cell_volume 635.491591
_symmetry_space_group_name_H-M "P -1"
_symmetry_group_IT_number 2
_symmetry_cell_setting 'triclinic'
loop_
_space_group_symop_operation_xyz
x,y,z
-x,-y,-z
loop_
_atom_site_type_symbol
_atom_site_label
_atom_site_fract_x
_atom_site_fract_y
_atom_site_fract_z
Si Si1 0.497048 0.836447 0.193447
Si Si2 0.000000 0.500000 0.000000
Si Si3 0.200647 0.083697 0.020000
Si Si4 0.805645 0.157568 0.945392
Si Si5 0.892838 0.678288 0.221161
Si Si6 0.828722 0.287739 0.651893
Si Si7 0.181197 0.008304 0.778943
Si Si8 0.206375 0.215381 0.295507
O O1 0.470523 0.851529 0.986990
O O2 0.431606 0.817648 0.441850
O O3 0.259147 0.088156 0.340500
O O4 0.806986 0.605349 0.999881
O O5 0.730710 0.756569 0.275871
O O6 0.003855 0.422428 0.232395
O O7 0.985448 0.214566 0.344712
O O8 0.199935 0.053155 0.846569
O O9 0.130119 0.223935 0.941589
O O10 0.894830 0.150732 0.667268
O O11 0.491620 0.435024 0.178100
O O12 0.808176 0.072636 0.009676
O O13 0.000000 0.000000 0.000000
O O14 0.863864 0.703588 0.468271
O O15 0.924371 0.219202 0.801212
O O16 0.500000 0.000000 0.000000
#
# Coordination Sequence:
#
# PCOD9007699 Si02
#       8
#     2   1   2   2   2   2   2   2
#     4  11  24  43  64  93 131 166 217 271 320 389
#     4  12  26  44  68  92 124 170 212 270 334 382
#     4  11  23  41  64  94 130 168 216 266 322 382
#     4   9  18  38  63  90 130 171 211 263 313 369
#     4  12  26  44  67  97 127 173 219 268 330 391
#     4   9  20  38  62  92 129 167 213 265 309 380
#     4  10  21  39  62  92 126 171 212 263 322 377
#     4  12  26  46  66  96 129 165 219 271 325 397
#
# _framework density 23.603774999999999
#
# number of rings (size 3 to 8) (size 9 to 14) (size 15 to 20)
#    0.000    1.333    4.000    1.200    0.000    4.267 
#    0.000    6.000    0.000    0.000    0.000    0.000 
#    0.000    0.000    0.000    0.000    0.000    0.000 
#
# Total GULP energy -83556.366092 kJ/mol
# GULP energy per Si atom -5570.424406 kJ/mol
# Density = 2.355005 g / cm^3
# Si number density = 23.603775 Si / 1000 Ang^3
#
#
#
# Elastic Constant Matrix: (Units=GPa)
#
#
# Indices 1 2 3 4 5 6 
#
# 1 110.9534 50.3212 38.4639 -8.8777 4.9632 17.8736
# 2 50.3212 123.6533 54.0584 -18.8451 0.6559 -0.9266
# 3 38.4639 54.0584 112.9671 -34.9048 13.2067 -0.1658
# 4 -8.8777 -18.8451 -34.9048 32.0336 -1.6606 -9.2204
# 5 4.9632 0.6559 13.2067 -1.6606 45.3490 -3.5964
# 6 17.8736 -0.9266 -0.1658 -9.2204 -3.5964 51.7693
#
#
#
# Elastic Compliance Matrix: (Units=1/GPa)
#
#
# Indices 1 2 3 4 5 6 
#
# 1 0.012765 -0.004362 -0.003548 -0.004482 -0.000890 -0.005357
# 2 -0.004362 0.011821 -0.003547 0.002622 0.001617 0.002286
# 3 -0.003548 -0.003547 0.017397 0.016834 -0.003696 0.003958
# 4 -0.004482 0.002622 0.016834 0.052931 -0.001642 0.010961
# 5 -0.000890 0.001617 -0.003696 -0.001642 0.023272 0.001649
# 6 -0.005357 0.002286 0.003958 0.010961 0.001649 0.023286
#
#
# Mechanical properties :
#
#
# Convention : Reuss Voigt Hill
#
# Bulk Modulus (GPa) = 52.44042 70.36231 61.40137
# Shear Modulus (GPa) = 29.28380 39.47907 34.38144
#
# Velocity S-wave (km/s) = 3.52609 4.09415 3.82069
# Velocity P-wave (km/s) = 6.23241 7.22661 6.74785
#
# Compressibility (1/GPa) = 0.01906926
#
# Stress axis : x y z
#
# Youngs Moduli (GPa) = 78.33750 84.59315 57.48214
#
# Poissons Ratio (x) = 0.36904 0.20392
# Poissons Ratio (y) = 0.34175 0.20388
# Poissons Ratio (z) = 0.27791 0.30004
#
# Static dielectric constant tensor:
#      x y z
#    x 2.162710 -0.009220 0.040360 
#    y -0.009220 1.997420 0.009260 
#    z 0.040360 0.009260 1.961970 
# 
# From -- ./inp_files/114450.got.cif
#   From: 2010.05.17/outbox.cif.g08.bks.cpg/sg2_58_cif.got.tgz:114450.got - 2010.06.03 11:33:40.
