data_PCOD9007763
_publ_section_title
;
Structure prediction by ZEFSAII (Michael W. Deem and Ramdas Pophale) SiO2 
 PCOD9007763
Probable space group: P -1
;
_chemical_formula_sum "Si O2"
_cell_formula_units_Z 14
_cell_length_a 15.701209
_cell_length_b 25.667914
_cell_length_c 15.082669
_cell_angle_alpha 159.876927
_cell_angle_beta 149.912131
_cell_angle_gamma 17.683351
_cell_volume 609.697369
_symmetry_space_group_name_H-M "P -1"
_symmetry_group_IT_number 2
_symmetry_cell_setting 'triclinic'
loop_
_space_group_symop_operation_xyz
x,y,z
-x,-y,-z
loop_
_atom_site_type_symbol
_atom_site_label
_atom_site_fract_x
_atom_site_fract_y
_atom_site_fract_z
Si Si1 0.454767 0.487151 0.149124
Si Si2 0.702072 0.235864 0.159641
Si Si3 0.157407 0.197376 0.758777
Si Si4 0.406277 0.842818 0.728232
Si Si5 0.635335 0.813026 0.241273
Si Si6 0.945887 0.044864 0.255151
Si Si7 0.878078 0.718523 0.953746
O O1 0.517704 0.433011 0.225924
O O2 0.356139 0.732317 0.444100
O O3 0.208895 0.540069 0.985793
O O4 0.757854 0.242132 0.977439
O O5 0.782590 0.241812 0.338194
O O6 0.572533 0.165712 0.949497
O O7 0.000000 0.000000 0.000000
O O8 0.324442 0.099741 0.662199
O O9 0.297938 0.106232 0.835507
O O10 0.044879 0.109085 0.509415
O O11 0.926465 0.507089 0.041380
O O12 0.269530 0.905546 0.802396
O O13 0.230940 0.108876 0.952549
O O14 0.753100 0.636972 0.706095
O O15 0.500000 0.000000 0.500000
#
# Coordination Sequence:
#
# PCOD9007763 Si02
#       7
#     2   2   2   2   2   2   2
#     4  11  23  45  68  97 134 179 218 275 332 400
#     4  10  21  39  62  95 132 167 216 265 326 396
#     4  11  24  39  65  94 130 174 216 270 327 393
#     4  11  25  46  69  94 135 173 225 286 325 392
#     4  11  22  39  61  95 130 171 215 265 323 390
#     4  11  24  43  66  99 133 178 221 270 339 394
#     4  11  24  47  67  99 132 174 227 276 335 391
#
# _framework density 22.962211
#
# number of rings (size 3 to 8) (size 9 to 14) (size 15 to 20)
#    0.000    1.143    2.857    3.000    0.000    7.429 
#    2.571    1.429    0.000    0.000    0.000    0.000 
#    0.000    0.000    0.000    0.000    0.000    0.000 
#
# Total GULP energy -77986.078841 kJ/mol
# GULP energy per Si atom -5570.434203 kJ/mol
# Density = 2.290995 g / cm^3
# Si number density = 22.962211 Si / 1000 Ang^3
#
#
#
# Elastic Constant Matrix: (Units=GPa)
#
#
# Indices 1 2 3 4 5 6 
#
# 1 131.8581 30.1263 21.9925 11.4451 7.4323 -7.2978
# 2 30.1263 80.7954 2.0912 -11.2313 5.5043 -5.3317
# 3 21.9925 2.0912 54.5025 -10.7501 -2.5193 -6.7780
# 4 11.4451 -11.2313 -10.7501 28.5104 -9.1361 -2.6316
# 5 7.4323 5.5043 -2.5193 -9.1361 37.5303 -10.4227
# 6 -7.2978 -5.3317 -6.7780 -2.6316 -10.4227 44.3544
#
#
#
# Elastic Compliance Matrix: (Units=1/GPa)
#
#
# Indices 1 2 3 4 5 6 
#
# 1 0.011038 -0.005212 -0.006821 -0.010803 -0.004971 -0.001662
# 2 -0.005212 0.015753 0.004123 0.010906 0.002456 0.002890
# 3 -0.006821 0.004123 0.025513 0.017253 0.008400 0.006269
# 4 -0.010803 0.010906 0.017253 0.056989 0.018307 0.009853
# 5 -0.004971 0.002456 0.008400 0.018307 0.035093 0.010094
# 6 -0.001662 0.002890 0.006269 0.009853 0.010094 0.026534
#
#
# Mechanical properties :
#
#
# Convention : Reuss Voigt Hill
#
# Bulk Modulus (GPa) = 27.40954 41.73065 34.57010
# Shear Modulus (GPa) = 25.13793 36.27542 30.70667
#
# Velocity S-wave (km/s) = 3.31229 3.97897 3.66084
# Velocity P-wave (km/s) = 5.15666 6.27078 5.74081
#
# Compressibility (1/GPa) = 0.03648365
#
# Stress axis : x y z
#
# Youngs Moduli (GPa) = 90.59383 63.47939 39.19582
#
# Poissons Ratio (x) = 0.33085 0.26736
# Poissons Ratio (y) = 0.47217 -0.16160
# Poissons Ratio (z) = 0.61796 -0.26172
#
# Static dielectric constant tensor:
#      x y z
#    x 1.918570 -0.022170 0.032760 
#    y -0.022170 2.013220 0.018000 
#    z 0.032760 0.018000 1.868520 
# 
# From -- ./inp_files/535453.got.cif
#   From: 2010.05.17/outbox.cif.g08.bks.cpg/sg2_268_cif.got.tgz:535453.got - 2010.06.03 11:33:40.
