data_PCOD9007713
_publ_section_title
;
Structure prediction by ZEFSAII (Michael W. Deem and Ramdas Pophale) SiO2 
 PCOD9007713
Probable space group: P -1
;
_chemical_formula_sum "Si O2"
_cell_formula_units_Z 16
_cell_length_a 16.228568
_cell_length_b 30.420181
_cell_length_c 19.825972
_cell_angle_alpha 17.032195
_cell_angle_beta 165.530545
_cell_angle_gamma 163.032407
_cell_volume 650.453251
_symmetry_space_group_name_H-M "P -1"
_symmetry_group_IT_number 2
_symmetry_cell_setting 'triclinic'
loop_
_space_group_symop_operation_xyz
x,y,z
-x,-y,-z
loop_
_atom_site_type_symbol
_atom_site_label
_atom_site_fract_x
_atom_site_fract_y
_atom_site_fract_z
Si Si1 0.333280 0.677925 0.666232
Si Si2 0.164359 0.044057 0.140883
Si Si3 0.867233 0.775367 0.400244
Si Si4 0.716539 0.374806 0.137201
Si Si5 0.964812 0.396100 0.691536
Si Si6 0.475042 0.969381 0.104528
Si Si7 0.786932 0.041702 0.470969
Si Si8 0.875447 0.255224 0.096588
O O1 0.285306 0.671888 0.717376
O O2 0.016780 0.521660 0.609763
O O3 0.440941 0.865373 0.451932
O O4 0.689209 0.648625 0.971476
O O5 0.340409 0.240321 0.005387
O O6 0.500000 0.000000 0.500000
O O7 0.866667 0.919865 0.138473
O O8 0.000000 0.000000 0.000000
O O9 0.484219 0.708391 0.232792
O O10 0.971936 0.654553 0.614518
O O11 0.183925 0.853140 0.593000
O O12 0.801191 0.566635 0.918890
O O13 0.000000 0.500000 0.500000
O O14 0.615394 0.221547 0.672983
O O15 0.801832 0.118808 0.180381
O O16 0.123377 0.990815 0.821802
O O17 0.500000 0.000000 0.000000
O O18 0.894008 0.160973 0.317076
#
# Coordination Sequence:
#
# PCOD9007713 Si02
#       8
#     2   2   2   2   2   2   2   2
#     4  10  21  40  63  89 130 163 221 279 330 407
#     4  10  23  44  67  99 134 183 233 285 341 404
#     4  10  23  42  64  91 137 177 222 276 343 405
#     4  11  23  43  64 100 127 177 232 280 336 406
#     4  10  21  39  62  93 121 166 216 274 337 401
#     4  10  22  41  62  90 131 168 215 276 345 407
#     4  10  22  41  62  91 129 175 216 271 345 406
#     4  11  24  40  65  95 132 177 224 279 345 408
#
# _framework density 24.598231999999999
#
# number of rings (size 3 to 8) (size 9 to 14) (size 15 to 20)
#    0.000    1.750    1.250    1.875    3.500    2.000 
#   13.500    0.000    0.000    0.000    0.000    0.000 
#    0.000    0.000    0.000    0.000    0.000    0.000 
#
# Total GULP energy -89472.393586 kJ/mol
# GULP energy per Si atom -5592.024599 kJ/mol
# Density = 2.454225 g / cm^3
# Si number density = 24.598232 Si / 1000 Ang^3
#
#
#
# Elastic Constant Matrix: (Units=GPa)
#
#
# Indices 1 2 3 4 5 6 
#
# 1 124.7437 69.4334 16.3039 -18.1796 -23.5596 -40.9462
# 2 69.4334 241.6496 66.9334 -38.9195 -19.3298 -16.4340
# 3 16.3039 66.9334 82.6487 -25.3576 -3.0608 -9.2310
# 4 -18.1796 -38.9195 -25.3576 54.4780 11.3864 3.5257
# 5 -23.5596 -19.3298 -3.0608 11.3864 54.4455 0.2517
# 6 -40.9462 -16.4340 -9.2310 3.5257 0.2517 48.7671
#
#
#
# Elastic Compliance Matrix: (Units=1/GPa)
#
#
# Indices 1 2 3 4 5 6 
#
# 1 0.014381 -0.003195 0.001655 0.001560 0.004804 0.011173
# 2 -0.003195 0.006408 -0.004227 0.001568 0.000334 -0.001438
# 3 0.001655 -0.004227 0.017178 0.005553 -0.000993 0.002820
# 4 0.001560 0.001568 0.005553 0.023194 -0.003313 0.001229
# 5 0.004804 0.000334 -0.000993 -0.003313 0.021182 0.004088
# 6 0.011173 -0.001438 0.002820 0.001229 0.004088 0.029826
#
#
# Mechanical properties :
#
#
# Convention : Reuss Voigt Hill
#
# Bulk Modulus (GPa) = 37.83078 83.82037 60.82558
# Shear Modulus (GPa) = 37.73150 51.29621 44.51386
#
# Velocity S-wave (km/s) = 3.92077 4.57153 4.25860
# Velocity P-wave (km/s) = 5.99245 7.87496 6.99730
#
# Compressibility (1/GPa) = 0.02643350
#
# Stress axis : x y z
#
# Youngs Moduli (GPa) = 69.53765 156.04361 58.21347
#
# Poissons Ratio (x) = 0.49858 -0.09635
# Poissons Ratio (y) = 0.22218 0.24606
# Poissons Ratio (z) = -0.11509 0.65957
#
# Static dielectric constant tensor:
#      x y z
#    x 1.932580 -0.011560 0.044830 
#    y -0.011560 2.007650 0.033060 
#    z 0.044830 0.033060 1.799830 
# 
# From -- ./inp_files/574532.got.cif
#   From: 2010.05.17/outbox.cif.g08.bks.cpg/sg2_288_cif.got.tgz:574532.got - 2010.06.03 11:33:40.
