data_PCOD9007696
_publ_section_title
;
Structure prediction by ZEFSAII (Michael W. Deem and Ramdas Pophale) SiO2 
 PCOD9007696
Probable space group: P -1
;
_chemical_formula_sum "Si O2"
_cell_formula_units_Z 14
_cell_length_a 17.632098
_cell_length_b 8.544494
_cell_length_c 9.396358
_cell_angle_alpha 118.771137
_cell_angle_beta 79.416996
_cell_angle_gamma 50.430956
_cell_volume 658.243820
_symmetry_space_group_name_H-M "P -1"
_symmetry_group_IT_number 2
_symmetry_cell_setting 'triclinic'
loop_
_space_group_symop_operation_xyz
x,y,z
-x,-y,-z
loop_
_atom_site_type_symbol
_atom_site_label
_atom_site_fract_x
_atom_site_fract_y
_atom_site_fract_z
Si Si1 0.530907 0.488877 0.817941
Si Si2 0.468480 0.237664 0.700627
Si Si3 0.879630 0.439832 0.359919
Si Si4 0.816644 0.236413 0.120170
Si Si5 0.384624 0.315342 0.075821
Si Si6 0.048939 0.357039 0.077117
Si Si7 0.239847 0.247729 0.150567
O O1 0.559182 0.237838 0.635067
O O2 0.646501 0.423162 0.744145
O O3 0.500000 0.500000 0.000000
O O4 0.389248 0.849224 0.950156
O O5 0.305360 0.595292 0.867425
O O6 0.500000 0.000000 0.500000
O O7 0.463298 0.196482 0.848447
O O8 0.787245 0.478776 0.317596
O O9 0.820601 0.603968 0.604883
O O10 0.917068 0.542357 0.300386
O O11 0.965153 0.961004 0.860925
O O12 0.849253 0.016759 0.125377
O O13 0.265554 0.395405 0.141447
O O14 0.500000 0.000000 0.000000
O O15 0.134606 0.340549 0.127121
O O16 0.000000 0.500000 0.000000
#
# Coordination Sequence:
#
# PCOD9007696 Si02
#       7
#     2   2   2   2   2   2   2
#     4   9  19  39  59  91 124 160 210 258 299 378
#     4  11  22  39  68  86 126 175 204 252 324 367
#     4   9  21  39  65  84 126 170 203 249 323 375
#     4   9  21  40  60  90 129 159 215 253 313 379
#     4   9  22  38  59  92 125 158 210 262 300 373
#     4  10  21  39  62  92 126 157 206 268 311 361
#     4  11  20  39  67  88 129 165 208 259 319 376
#
# _framework density 21.268715
#
# number of rings (size 3 to 8) (size 9 to 14) (size 15 to 20)
#    0.857    1.429    1.429    0.429    8.000    0.000 
#    0.000   10.000    0.000    0.000    0.000    0.000 
#    0.000    0.000    0.000    0.000    0.000    0.000 
#
# Total GULP energy -78005.701951 kJ/mol
# GULP energy per Si atom -5571.835854 kJ/mol
# Density = 2.122031 g / cm^3
# Si number density = 21.268715 Si / 1000 Ang^3
#
#
#
# Elastic Constant Matrix: (Units=GPa)
#
#
# Indices 1 2 3 4 5 6 
#
# 1 208.4953 40.7069 39.2226 -8.2142 37.7870 33.0127
# 2 40.7069 93.8549 13.5757 -12.5270 8.0338 11.7795
# 3 39.2226 13.5757 61.6401 -5.5815 19.2419 15.5555
# 4 -8.2142 -12.5270 -5.5815 20.4113 0.9120 0.9842
# 5 37.7870 8.0338 19.2419 0.9120 29.7575 2.7055
# 6 33.0127 11.7795 15.5555 0.9842 2.7055 38.6435
#
#
#
# Elastic Compliance Matrix: (Units=1/GPa)
#
#
# Indices 1 2 3 4 5 6 
#
# 1 0.007709 -0.001495 -0.000163 0.002802 -0.008864 -0.005515
# 2 -0.001495 0.012764 -0.000043 0.007417 -0.001504 -0.002680
# 3 -0.000163 -0.000043 0.023722 0.007459 -0.014570 -0.008566
# 4 0.002802 0.007417 0.007459 0.057623 -0.011393 -0.008327
# 5 -0.008864 -0.001504 -0.014570 -0.011393 0.054092 0.010399
# 6 -0.005515 -0.002680 -0.008566 -0.008327 0.010399 0.034338
#
#
# Mechanical properties :
#
#
# Convention : Reuss Voigt Hill
#
# Bulk Modulus (GPa) = 24.51366 61.22232 42.86799
# Shear Modulus (GPa) = 24.12562 35.79479 29.96021
#
# Velocity S-wave (km/s) = 3.37163 4.10686 3.75727
# Velocity P-wave (km/s) = 5.16797 7.16492 6.24676
#
# Compressibility (1/GPa) = 0.04079358
#
# Stress axis : x y z
#
# Youngs Moduli (GPa) = 129.71679 78.34295 42.15484
#
# Poissons Ratio (x) = 0.11712 0.00689
# Poissons Ratio (y) = 0.19392 0.00179
# Poissons Ratio (z) = 0.02121 0.00333
#
# Static dielectric constant tensor:
#      x y z
#    x 1.846380 -0.016740 0.036090 
#    y -0.016740 1.771570 0.042830 
#    z 0.036090 0.042830 1.770990 
# 
# From -- ./inp_files/327828.got.cif
#   From: 2010.05.17/outbox.cif.g08.bks.cpg/sg2_164_cif.got.tgz:327828.got - 2010.06.03 11:33:40.
