data_PCOD9007837
_publ_section_title
;
Structure prediction by ZEFSAII (Michael W. Deem and Ramdas Pophale) SiO2 
 PCOD9007837
Probable space group: P -1
;
_chemical_formula_sum "Si O2"
_cell_formula_units_Z 16
_cell_length_a 10.369413
_cell_length_b 7.793600
_cell_length_c 17.119387
_cell_angle_alpha 35.622652
_cell_angle_beta 50.722887
_cell_angle_gamma 61.400337
_cell_volume 621.792721
_symmetry_space_group_name_H-M "P -1"
_symmetry_group_IT_number 2
_symmetry_cell_setting 'triclinic'
loop_
_space_group_symop_operation_xyz
x,y,z
-x,-y,-z
loop_
_atom_site_type_symbol
_atom_site_label
_atom_site_fract_x
_atom_site_fract_y
_atom_site_fract_z
Si Si1 0.719969 0.692326 0.704908
Si Si2 0.691884 0.861126 0.397621
Si Si3 0.802958 0.824247 0.106611
Si Si4 0.381883 0.752454 0.863974
Si Si5 0.975013 0.216802 0.776560
Si Si6 0.463957 0.619949 0.258283
Si Si7 0.126792 0.819914 0.639892
Si Si8 0.209946 0.102770 0.182310
O O1 0.577638 0.706269 0.819297
O O2 0.870916 0.490540 0.737070
O O3 0.620600 0.523662 0.733266
O O4 0.792091 0.007713 0.528592
O O5 0.558685 0.620293 0.574716
O O6 0.839643 0.705498 0.354788
O O7 0.623142 0.073573 0.280939
O O8 0.774685 0.044056 0.371247
O O9 0.657278 0.721881 0.137728
O O10 0.854007 0.527650 0.237542
O O11 0.704904 0.043706 0.116482
O O12 0.955610 0.986568 0.940440
O O13 0.279421 0.436755 0.015966
O O14 0.883784 0.044198 0.802892
O O15 0.356770 0.892143 0.219530
O O16 0.935620 0.895062 0.697943
#
# Coordination Sequence:
#
# PCOD9007837 Si02
#       8
#     2   2   2   2   2   2   2   2
#     4  10  21  39  63  88 113 145 189 240 290 338
#     4  10  21  39  63  88 113 145 189 240 290 338
#     4  12  25  38  55  84 121 158 193 228 274 338
#     4  12  25  38  55  84 121 158 193 228 274 338
#     4  10  21  39  63  88 113 145 189 240 290 338
#     4  10  21  39  63  88 113 145 189 240 290 338
#     4  10  21  39  63  88 113 145 189 240 290 338
#     4  10  21  39  63  88 113 145 189 240 290 338
#
# _framework density 25.732046
#
# number of rings (size 3 to 8) (size 9 to 14) (size 15 to 20)
#    0.000    1.500    0.000    5.250    0.000   15.000 
#    0.000    0.000    0.000    4.500    0.000    0.000 
#    0.000    0.000    0.000    0.000    0.000    0.000 
#
# Total GULP energy -89816.216506 kJ/mol
# GULP energy per Si atom -5613.513532 kJ/mol
# Density = 2.567348 g / cm^3
# Si number density = 25.732046 Si / 1000 Ang^3
#
#
#
# Elastic Constant Matrix: (Units=GPa)
#
#
# Indices 1 2 3 4 5 6 
#
# 1 61.0903 21.2629 0.7566 -2.8125 -0.0801 -4.2653
# 2 21.2629 150.8481 34.7572 0.9797 -8.4147 -12.1248
# 3 0.7566 34.7572 91.5021 3.8941 0.4251 3.2028
# 4 -2.8125 0.9797 3.8941 50.8400 -9.3286 -3.2883
# 5 -0.0801 -8.4147 0.4251 -9.3286 25.6321 10.0466
# 6 -4.2653 -12.1248 3.2028 -3.2883 10.0466 49.7111
#
#
#
# Elastic Compliance Matrix: (Units=1/GPa)
#
#
# Indices 1 2 3 4 5 6 
#
# 1 0.017376 -0.002600 0.000775 0.000852 -0.000913 0.001048
# 2 -0.002600 0.007946 -0.003078 0.000444 0.002228 0.001492
# 3 0.000775 -0.003078 0.012191 -0.001119 -0.001100 -0.001322
# 4 0.000852 0.000444 -0.001119 0.021243 0.007871 0.000068
# 5 -0.000913 0.002228 -0.001100 0.007871 0.045842 -0.008208
# 6 0.001048 0.001492 -0.001322 0.000068 -0.008208 0.022319
#
#
# Mechanical properties :
#
#
# Convention : Reuss Voigt Hill
#
# Bulk Modulus (GPa) = 36.09294 46.33267 41.21281
# Shear Modulus (GPa) = 34.25637 41.68090 37.96863
#
# Velocity S-wave (km/s) = 3.65262 4.02905 3.84544
# Velocity P-wave (km/s) = 5.64320 6.29994 5.98059
#
# Compressibility (1/GPa) = 0.02770625
#
# Stress axis : x y z
#
# Youngs Moduli (GPa) = 57.55143 125.84372 82.03030
#
# Poissons Ratio (x) = 0.32721 -0.06360
# Poissons Ratio (y) = 0.14964 0.25252
# Poissons Ratio (z) = -0.04462 0.38740
#
# Static dielectric constant tensor:
#      x y z
#    x 2.090830 0.036850 -0.007900 
#    y 0.036850 1.975760 -0.003210 
#    z -0.007900 -0.003210 1.906700 
# 
# From -- ./inp_files/279983.got.cif
#   From: 2010.05.17/outbox.cif.g08.bks.cpg/sg2_140_cif.got.tgz:279983.got - 2010.06.03 11:33:40.
