data_PCOD9007051
_publ_section_title
;
Structure prediction by ZEFSAII (Michael W. Deem and Ramdas Pophale) SiO2 
 PCOD9007051
Probable space group: P -1
;
_chemical_formula_sum "Si O2"
_cell_formula_units_Z 16
_cell_length_a 12.364210
_cell_length_b 5.295103
_cell_length_c 12.056887
_cell_angle_alpha 116.273244
_cell_angle_beta 81.692507
_cell_angle_gamma 72.510764
_cell_volume 638.566141
_symmetry_space_group_name_H-M "P -1"
_symmetry_group_IT_number 2
_symmetry_cell_setting 'triclinic'
loop_
_space_group_symop_operation_xyz
x,y,z
-x,-y,-z
loop_
_atom_site_type_symbol
_atom_site_label
_atom_site_fract_x
_atom_site_fract_y
_atom_site_fract_z
Si Si1 0.842854 0.603789 0.920165
Si Si2 0.386725 0.728550 0.636162
Si Si3 0.338114 0.510768 0.216196
Si Si4 0.879748 0.882145 0.566668
Si Si5 0.064013 0.032625 0.885654
Si Si6 0.316050 0.366100 0.431608
Si Si7 0.478705 0.233698 0.710691
Si Si8 0.988228 0.415159 0.301560
O O1 0.715854 0.602217 0.902697
O O2 0.897155 0.679079 0.813749
O O3 0.954779 0.289032 0.882130
O O4 0.839515 0.839778 0.064720
O O5 0.500000 0.500000 0.500000
O O6 0.291402 0.687419 0.559299
O O7 0.401830 0.527377 0.704676
O O8 0.394871 0.053615 0.717811
O O9 0.374159 0.319544 0.289524
O O10 0.441734 0.631010 0.198950
O O11 0.216465 0.778299 0.334177
O O12 0.804203 0.679593 0.563183
O O13 0.972935 0.783720 0.632058
O O14 0.939650 0.766007 0.417057
O O15 0.105990 0.693828 0.762537
O O16 0.000000 0.000000 0.000000
O O17 0.409382 0.054021 0.420184
#
# Coordination Sequence:
#
# PCOD9007051 Si02
#       8
#     2   2   2   2   2   2   2   2
#     4  10  19  32  50  70  90 129 167 216 253 291
#     4  10  17  29  45  64  97 137 169 194 246 302
#     4  11  19  29  45  72 102 129 170 205 250 297
#     4  10  21  29  45  71 101 138 165 204 244 301
#     4   9  19  34  51  64  87 127 171 214 256 295
#     4  10  19  29  45  67 101 134 170 198 242 298
#     4  10  19  29  45  68  96 139 164 203 244 304
#     4  10  19  34  46  67 101 132 172 202 252 296
#
# _framework density 25.056134
#
# number of rings (size 3 to 8) (size 9 to 14) (size 15 to 20)
#    0.000    2.000    5.000    1.500    1.750    1.500 
#    0.000    0.000    0.000    0.000    0.000    0.000 
#    0.000    2.000    0.000   10.000    0.000    2.625 
#
# Total GULP energy -89082.287665 kJ/mol
# GULP energy per Si atom -5567.642979 kJ/mol
# Density = 2.499910 g / cm^3
# Si number density = 25.056134 Si / 1000 Ang^3
#
#
#
# Elastic Constant Matrix: (Units=GPa)
#
#
# Indices 1 2 3 4 5 6 
#
# 1 82.2562 28.2028 36.5877 -0.4241 43.3788 24.6179
# 2 28.2028 104.3829 21.2956 -9.6449 19.8909 13.7524
# 3 36.5877 21.2956 77.2181 1.1510 49.6344 6.7671
# 4 -0.4241 -9.6449 1.1510 19.4255 6.4216 7.4786
# 5 43.3788 19.8909 49.6344 6.4216 58.3701 10.7087
# 6 24.6179 13.7524 6.7671 7.4786 10.7087 37.5912
#
#
#
# Elastic Compliance Matrix: (Units=1/GPa)
#
#
# Indices 1 2 3 4 5 6 
#
# 1 0.026069 -0.000762 0.000818 0.011649 -0.018526 -0.013980
# 2 -0.000762 0.011916 -0.000734 0.008704 -0.002982 -0.004610
# 3 0.000818 -0.000734 0.029483 0.006335 -0.026243 0.000641
# 4 0.011649 0.008704 0.006335 0.070326 -0.021089 -0.019937
# 5 -0.018526 -0.002982 -0.026243 -0.021089 0.055384 0.006366
# 6 -0.013980 -0.004610 0.000641 -0.019937 0.006366 0.039482
#
#
# Mechanical properties :
#
#
# Convention : Reuss Voigt Hill
#
# Bulk Modulus (GPa) = 15.12609 48.44770 31.78689
# Shear Modulus (GPa) = 19.52729 34.92875 27.22802
#
# Velocity S-wave (km/s) = 2.79470 3.73771 3.30006
# Velocity P-wave (km/s) = 4.05756 6.16481 5.21865
#
# Compressibility (1/GPa) = 0.06611096
#
# Stress axis : x y z
#
# Youngs Moduli (GPa) = 38.36037 83.92408 33.91772
#
# Poissons Ratio (x) = 0.06392 -0.02774
# Poissons Ratio (y) = 0.02922 0.02491
# Poissons Ratio (z) = -0.03138 0.06163
#
# Static dielectric constant tensor:
#      x y z
#    x 2.229750 0.044020 0.172410 
#    y 0.044020 2.132720 0.004130 
#    z 0.172410 0.004130 2.133660 
# 
# From -- ./inp_files/108726.got.cif
#   From: 2010.05.17/outbox.cif.g08.bks.cpg/sg2_55_cif.got.tgz:108726.got - 2010.06.03 11:33:40.
