data_PCOD9007154
_publ_section_title
;
Structure prediction by ZEFSAII (Michael W. Deem and Ramdas Pophale) SiO2 
 PCOD9007154
Probable space group: P -1
;
_chemical_formula_sum "Si O2"
_cell_formula_units_Z 16
_cell_length_a 9.646845
_cell_length_b 5.591563
_cell_length_c 19.238275
_cell_angle_alpha 126.618141
_cell_angle_beta 121.889002
_cell_angle_gamma 83.553794
_cell_volume 675.153024
_symmetry_space_group_name_H-M "P -1"
_symmetry_group_IT_number 2
_symmetry_cell_setting 'triclinic'
loop_
_space_group_symop_operation_xyz
x,y,z
-x,-y,-z
loop_
_atom_site_type_symbol
_atom_site_label
_atom_site_fract_x
_atom_site_fract_y
_atom_site_fract_z
Si Si1 0.293070 0.072553 0.632327
Si Si2 0.868603 0.048130 0.726647
Si Si3 0.974001 0.345809 0.042930
Si Si4 0.527910 0.216360 0.184984
Si Si5 0.194468 0.099098 0.751072
Si Si6 0.636476 0.321342 0.029201
Si Si7 0.564737 0.761718 0.690033
Si Si8 0.328401 0.079777 0.488900
O O1 0.344093 0.441776 0.718905
O O2 0.156357 0.963781 0.639313
O O3 0.249964 0.963233 0.523271
O O4 0.476354 0.017986 0.686687
O O5 0.901661 0.388050 0.828705
O O6 0.047039 0.978506 0.748043
O O7 0.731541 0.801430 0.694997
O O8 0.796451 0.035768 0.627814
O O9 0.785099 0.348818 0.016331
O O10 0.000000 0.500000 0.000000
O O11 0.000000 0.000000 0.000000
O O12 0.397774 0.212991 0.213641
O O13 0.641858 0.005755 0.204828
O O14 0.447433 0.056086 0.063846
O O15 0.257286 0.476013 0.844005
O O16 0.500000 0.500000 0.000000
O O17 0.407201 0.452736 0.581007
O O18 0.500000 0.000000 0.500000
#
# Coordination Sequence:
#
# PCOD9007154 Si02
#       8
#     2   2   2   2   2   2   2   2
#     4  10  21  39  60  87 126 159 215 266 324 402
#     4  11  23  42  67  95 132 170 216 283 338 397
#     4  11  26  47  69 106 146 182 232 288 358 418
#     4   9  19  38  64  86 122 171 216 264 328 400
#     4   9  21  41  55  93 127 166 216 267 342 394
#     4   9  19  41  64  95 131 179 235 278 341 415
#     4  10  21  39  63  90 122 162 215 273 322 396
#     4  11  23  40  65  97 119 167 229 270 336 397
#
# _framework density 23.698333000000002
#
# number of rings (size 3 to 8) (size 9 to 14) (size 15 to 20)
#    0.000    2.000    1.250    1.125    1.750    2.000 
#   15.750    5.625    0.000    0.000    0.000    0.000 
#    0.000    0.000    0.000    0.000    0.000    0.000 
#
# Total GULP energy -89152.382819 kJ/mol
# GULP energy per Si atom -5572.023926 kJ/mol
# Density = 2.364439 g / cm^3
# Si number density = 23.698333 Si / 1000 Ang^3
#
#
#
# Elastic Constant Matrix: (Units=GPa)
#
#
# Indices 1 2 3 4 5 6 
#
# 1 147.4278 22.1615 16.0239 -17.6279 -28.0966 8.6061
# 2 22.1615 35.9115 11.7132 6.5593 -17.4402 2.3251
# 3 16.0239 11.7132 117.8274 -12.6460 -36.7268 5.5205
# 4 -17.6279 6.5593 -12.6460 21.3263 7.1151 -7.7287
# 5 -28.0966 -17.4402 -36.7268 7.1151 42.3582 -6.1301
# 6 8.6061 2.3251 5.5205 -7.7287 -6.1301 23.2755
#
#
#
# Elastic Compliance Matrix: (Units=1/GPa)
#
#
# Indices 1 2 3 4 5 6 
#
# 1 0.009342 -0.006522 0.001386 0.009835 0.003203 0.000978
# 2 -0.006522 0.046527 -0.000933 -0.028688 0.017851 -0.006840
# 3 0.001386 -0.000933 0.012152 0.005669 0.010307 0.001295
# 4 0.009835 -0.028688 0.005669 0.078364 -0.010476 0.021146
# 5 0.003203 0.017851 0.010307 -0.010476 0.044176 0.002744
# 6 0.000978 -0.006840 0.001295 0.021146 0.002744 0.050723
#
#
# Mechanical properties :
#
#
# Convention : Reuss Voigt Hill
#
# Bulk Modulus (GPa) = 17.89423 44.55155 31.22289
# Shear Modulus (GPa) = 18.37915 34.14318 26.26116
#
# Velocity S-wave (km/s) = 2.78788 3.79983 3.33249
# Velocity P-wave (km/s) = 4.23442 6.17186 5.29255
#
# Compressibility (1/GPa) = 0.05588392
#
# Stress axis : x y z
#
# Youngs Moduli (GPa) = 107.04404 21.49282 82.29436
#
# Poissons Ratio (x) = 0.14017 -0.11405
# Poissons Ratio (y) = 0.69809 0.07675
# Poissons Ratio (z) = -0.14835 0.02005
#
# Static dielectric constant tensor:
#      x y z
#    x 2.087250 -0.034150 -0.107740 
#    y -0.034150 1.730570 -0.193190 
#    z -0.107740 -0.193190 1.769330 
# 
# From -- ./inp_files/485839.got.cif
#   From: 2010.05.17/outbox.cif.g08.bks.cpg/sg2_243_cif.got.tgz:485839.got - 2010.06.03 11:33:40.
