data_PCOD9007859
_publ_section_title
;
Structure prediction by ZEFSAII (Michael W. Deem and Ramdas Pophale) SiO2 
 PCOD9007859
Probable space group: P -1
;
_chemical_formula_sum "Si O2"
_cell_formula_units_Z 12
_cell_length_a 16.175941
_cell_length_b 15.201593
_cell_length_c 12.190373
_cell_angle_alpha 29.556015
_cell_angle_beta 21.683843
_cell_angle_gamma 27.030936
_cell_volume 487.247886
_symmetry_space_group_name_H-M "P -1"
_symmetry_group_IT_number 2
_symmetry_cell_setting 'triclinic'
loop_
_space_group_symop_operation_xyz
x,y,z
-x,-y,-z
loop_
_atom_site_type_symbol
_atom_site_label
_atom_site_fract_x
_atom_site_fract_y
_atom_site_fract_z
Si Si1 0.353600 0.007958 0.510602
Si Si2 0.842704 0.684383 0.914011
Si Si3 0.796514 0.307297 0.884943
Si Si4 0.341114 0.522791 0.782268
Si Si5 0.720488 0.071610 0.559974
Si Si6 0.454648 0.685846 0.020360
O O1 0.537967 0.102292 0.212085
O O2 0.080216 0.165620 0.719889
O O3 0.332614 0.993695 0.421538
O O4 0.380841 0.795984 0.748324
O O5 0.831021 0.580681 0.926820
O O6 0.556761 0.806309 0.178397
O O7 0.000000 0.500000 0.000000
O O8 0.899621 0.873271 0.621478
O O9 0.695409 0.517916 0.840897
O O10 0.765172 0.310493 0.788959
O O11 0.500000 0.500000 0.500000
O O12 0.189871 0.756762 0.743383
O O13 0.516137 0.406296 0.794415
#
# Coordination Sequence:
#
# PCOD9007859 Si02
#       6
#     2   2   2   2   2   2
#     4  11  21  41  62  93 127 163 215 269 318 376
#     4  10  22  41  62  94 122 170 214 253 331 386
#     4  10  24  39  63  93 125 167 218 259 324 380
#     4  10  21  39  63  88 129 162 203 269 316 375
#     4  10  21  40  63  88 131 160 207 277 308 381
#     4  11  21  42  64  90 126 171 209 267 323 377
#
# _framework density 24.628122000000001
#
# number of rings (size 3 to 8) (size 9 to 14) (size 15 to 20)
#    0.000    1.667    3.333    1.000    0.000    3.333 
#    3.000    0.000    0.000    0.000    0.000    0.000 
#    0.000    0.000    0.000    0.000    0.000    0.000 
#
# Total GULP energy -67010.634087 kJ/mol
# GULP energy per Si atom -5584.219507 kJ/mol
# Density = 2.457207 g / cm^3
# Si number density = 24.628122 Si / 1000 Ang^3
#
#
#
# Elastic Constant Matrix: (Units=GPa)
#
#
# Indices 1 2 3 4 5 6 
#
# 1 115.5114 21.9557 27.2703 -21.9284 10.8326 1.6344
# 2 21.9557 107.8660 34.4476 -35.4315 -11.5236 -4.4655
# 3 27.2703 34.4476 86.9009 -33.8771 -0.9176 6.3267
# 4 -21.9284 -35.4315 -33.8771 41.0078 -0.1574 2.9643
# 5 10.8326 -11.5236 -0.9176 -0.1574 18.0592 -17.3286
# 6 1.6344 -4.4655 6.3267 2.9643 -17.3286 47.8661
#
#
#
# Elastic Compliance Matrix: (Units=1/GPa)
#
#
# Indices 1 2 3 4 5 6 
#
# 1 0.011452 -0.002680 -0.000920 0.003419 -0.014247 -0.005889
# 2 -0.002680 0.016463 -0.001949 0.010639 0.020353 0.008594
# 3 -0.000920 -0.001949 0.017942 0.012984 -0.004379 -0.004911
# 4 0.003419 0.010639 0.012984 0.046324 0.003435 -0.002466
# 5 -0.014247 0.020353 -0.004379 0.003435 0.121592 0.046770
# 6 -0.005889 0.008594 -0.004911 -0.002466 0.046770 0.039628
#
#
# Mechanical properties :
#
#
# Convention : Reuss Voigt Hill
#
# Bulk Modulus (GPa) = 28.76888 53.06949 40.91919
# Shear Modulus (GPa) = 18.11035 36.49362 27.30198
#
# Velocity S-wave (km/s) = 2.71468 3.85357 3.33313
# Velocity P-wave (km/s) = 4.64033 6.43391 5.60927
#
# Compressibility (1/GPa) = 0.03475978
#
# Stress axis : x y z
#
# Youngs Moduli (GPa) = 87.31866 60.74135 55.73629
#
# Poissons Ratio (x) = 0.16278 0.05129
# Poissons Ratio (y) = 0.23400 0.10860
# Poissons Ratio (z) = 0.08036 0.11836
#
# Static dielectric constant tensor:
#      x y z
#    x 1.960210 -0.029250 0.020190 
#    y -0.029250 1.949150 0.002010 
#    z 0.020190 0.002010 2.186740 
# 
# From -- ./inp_files/188970.got.cif
#   From: 2010.05.17/outbox.cif.g08.bks.cpg/sg2_95_cif.got.tgz:188970.got - 2010.06.03 11:33:40.
