data_PCOD9007041
_publ_section_title
;
Structure prediction by ZEFSAII (Michael W. Deem and Ramdas Pophale) SiO2 
 PCOD9007041
Probable space group: P -1
;
_chemical_formula_sum "Si O2"
_cell_formula_units_Z 14
_cell_length_a 11.623398
_cell_length_b 6.155255
_cell_length_c 13.018401
_cell_angle_alpha 51.959097
_cell_angle_beta 48.661701
_cell_angle_gamma 58.323894
_cell_volume 539.666025
_symmetry_space_group_name_H-M "P -1"
_symmetry_group_IT_number 2
_symmetry_cell_setting 'triclinic'
loop_
_space_group_symop_operation_xyz
x,y,z
-x,-y,-z
loop_
_atom_site_type_symbol
_atom_site_label
_atom_site_fract_x
_atom_site_fract_y
_atom_site_fract_z
Si Si1 0.126574 0.220460 0.474558
Si Si2 0.833614 0.987676 0.697712
Si Si3 0.366099 0.990740 0.999004
Si Si4 0.322024 0.386806 0.477582
Si Si5 0.662187 0.433146 0.242240
Si Si6 0.207705 0.752266 0.002248
Si Si7 0.884804 0.620552 0.196565
O O1 0.193265 0.210362 0.323245
O O2 0.263627 0.188404 0.485152
O O3 0.000000 0.500000 0.500000
O O4 0.017609 0.990131 0.599041
O O5 0.779298 0.938853 0.858128
O O6 0.740055 0.298736 0.624838
O O7 0.389512 0.229314 0.835937
O O8 0.331076 0.731239 0.028757
O O9 0.500000 0.000000 0.000000
O O10 0.507614 0.333443 0.399826
O O11 0.230033 0.352559 0.645856
O O12 0.820903 0.401644 0.223716
O O13 0.704229 0.327436 0.133386
O O14 0.135620 0.086408 0.940300
O O15 0.938383 0.404291 0.860558
#
# Coordination Sequence:
#
# PCOD9007041 Si02
#       7
#     2   2   2   2   2   2   2
#     4   9  21  37  58  88 122 161 205 243 301 371
#     4  10  21  39  59  87 127 163 199 250 303 367
#     4  11  23  40  61  90 127 159 202 252 308 369
#     4  11  22  37  62  92 123 159 202 255 312 364
#     4  11  24  39  64  93 122 163 208 257 310 360
#     4  10  24  43  65  88 121 167 211 255 305 365
#     4  10  23  44  62  87 124 161 213 256 304 370
#
# _framework density 25.941970999999999
#
# number of rings (size 3 to 8) (size 9 to 14) (size 15 to 20)
#    0.000    1.714    1.429    1.714    2.000    8.000 
#    0.000    0.000    0.000    0.000    0.000    0.000 
#    0.000    0.000    0.000    0.000    0.000    0.000 
#
# Total GULP energy -78242.608637 kJ/mol
# GULP energy per Si atom -5588.757760 kJ/mol
# Density = 2.588293 g / cm^3
# Si number density = 25.941971 Si / 1000 Ang^3
#
#
#
# Elastic Constant Matrix: (Units=GPa)
#
#
# Indices 1 2 3 4 5 6 
#
# 1 198.3918 64.0530 46.4301 6.2914 -16.1490 46.7071
# 2 64.0530 84.7327 29.9627 12.9914 -4.7992 42.6742
# 3 46.4301 29.9627 128.8781 15.7758 -23.1137 23.5268
# 4 6.2914 12.9914 15.7758 46.4412 1.5946 19.1215
# 5 -16.1490 -4.7992 -23.1137 1.5946 44.3127 0.2662
# 6 46.7071 42.6742 23.5268 19.1215 0.2662 52.7686
#
#
#
# Elastic Compliance Matrix: (Units=1/GPa)
#
#
# Indices 1 2 3 4 5 6 
#
# 1 0.007418 -0.003382 -0.001069 0.001915 0.001735 -0.004058
# 2 -0.003382 0.022040 -0.001233 0.000673 0.000574 -0.014528
# 3 -0.001069 -0.001233 0.009861 -0.002353 0.004715 -0.001624
# 4 0.001915 0.000673 -0.002353 0.026349 -0.001340 -0.010732
# 5 0.001735 0.000574 0.004715 -0.001340 0.025792 -0.003747
# 6 -0.004058 -0.014528 -0.001624 -0.010732 -0.003747 0.038923
#
#
# Mechanical properties :
#
#
# Convention : Reuss Voigt Hill
#
# Bulk Modulus (GPa) = 35.77498 76.98824 56.38161
# Shear Modulus (GPa) = 33.09767 46.80826 39.95296
#
# Velocity S-wave (km/s) = 3.57576 4.25237 3.92866
# Velocity P-wave (km/s) = 5.55593 7.33837 6.50846
#
# Compressibility (1/GPa) = 0.02795250
#
# Stress axis : x y z
#
# Youngs Moduli (GPa) = 134.80254 45.37145 101.40722
#
# Poissons Ratio (x) = 0.15343 0.10839
# Poissons Ratio (y) = 0.45585 0.12505
# Poissons Ratio (z) = 0.14409 0.05595
#
# Static dielectric constant tensor:
#      x y z
#    x 2.141800 -0.042340 -0.026860 
#    y -0.042340 2.096240 -0.072620 
#    z -0.026860 -0.072620 2.192640 
# 
# From -- ./inp_files/409029.got.cif
#   From: 2010.05.17/outbox.cif.g08.bks.cpg/sg2_205_cif.got.tgz:409029.got - 2010.06.03 11:33:40.
