data_PCOD9007223
_publ_section_title
;
Structure prediction by ZEFSAII (Michael W. Deem and Ramdas Pophale) SiO2 
 PCOD9007223
Probable space group: P -1
;
_chemical_formula_sum "Si O2"
_cell_formula_units_Z 16
_cell_length_a 12.208657
_cell_length_b 15.214744
_cell_length_c 22.656546
_cell_angle_alpha 154.548631
_cell_angle_beta 23.940402
_cell_angle_gamma 152.586949
_cell_volume 685.232842
_symmetry_space_group_name_H-M "P -1"
_symmetry_group_IT_number 2
_symmetry_cell_setting 'triclinic'
loop_
_space_group_symop_operation_xyz
x,y,z
-x,-y,-z
loop_
_atom_site_type_symbol
_atom_site_label
_atom_site_fract_x
_atom_site_fract_y
_atom_site_fract_z
Si Si1 0.824502 0.752733 0.953801
Si Si2 0.068808 0.166390 0.928927
Si Si3 0.422787 0.656461 0.371636
Si Si4 0.028349 0.382543 0.769985
Si Si5 0.890267 0.041464 0.337298
Si Si6 0.162840 0.430157 0.606615
Si Si7 0.535535 0.734288 0.965380
Si Si8 0.682903 0.577716 0.604357
O O1 0.620304 0.661596 0.943651
O O2 0.047122 0.629847 0.780136
O O3 0.707982 0.768628 0.086435
O O4 0.000000 0.000000 0.000000
O O5 0.779103 0.965163 0.968644
O O6 0.998498 0.378397 0.075132
O O7 0.173570 0.079586 0.767218
O O8 0.251983 0.772528 0.485638
O O9 0.466237 0.450945 0.193089
O O10 0.265013 0.576529 0.463362
O O11 0.730791 0.852551 0.347259
O O12 0.002100 0.295472 0.662161
O O13 0.352195 0.441997 0.669163
O O14 0.773914 0.247047 0.857079
O O15 0.227558 0.180424 0.264596
O O16 0.500000 0.500000 0.500000
O O17 0.145512 0.360512 0.504676
#
# Coordination Sequence:
#
# PCOD9007223 Si02
#       8
#     2   2   2   2   2   2   2   2
#     4   9  20  35  63  92 114 161 200 254 309 356
#     4  10  21  39  60  91 126 155 199 256 305 365
#     4  11  24  39  62  92 123 158 208 253 301 373
#     4  10  23  42  61  91 124 158 208 256 300 367
#     4  11  23  41  59  93 126 157 204 258 302 364
#     4   9  20  40  61  88 122 160 206 250 303 368
#     4  11  21  40  62  93 122 158 209 257 301 363
#     4  11  23  41  66  84 124 172 198 246 316 366
#
# _framework density 23.349727000000001
#
# number of rings (size 3 to 8) (size 9 to 14) (size 15 to 20)
#    0.000    1.750    2.500    1.125    3.500    4.000 
#    4.500    0.000    0.000   16.500    0.000    0.000 
#    0.000    0.000    0.000    0.000    0.000    0.000 
#
# Total GULP energy -89200.066524 kJ/mol
# GULP energy per Si atom -5575.004158 kJ/mol
# Density = 2.329658 g / cm^3
# Si number density = 23.349727 Si / 1000 Ang^3
#
#
#
# Elastic Constant Matrix: (Units=GPa)
#
#
# Indices 1 2 3 4 5 6 
#
# 1 82.2734 17.2083 20.1229 4.0209 17.8886 3.6404
# 2 17.2083 105.9609 2.3212 -12.0134 6.4259 -14.9651
# 3 20.1229 2.3212 54.7920 -17.1797 23.9702 0.8656
# 4 4.0209 -12.0134 -17.1797 22.6121 -1.5439 4.7281
# 5 17.8886 6.4259 23.9702 -1.5439 29.9239 -8.7850
# 6 3.6404 -14.9651 0.8656 4.7281 -8.7850 20.1608
#
#
#
# Elastic Compliance Matrix: (Units=1/GPa)
#
#
# Indices 1 2 3 4 5 6 
#
# 1 0.016563 -0.004032 -0.004900 -0.007811 -0.007649 -0.007274
# 2 -0.004032 0.012025 0.003772 0.008413 -0.000633 0.007243
# 3 -0.004900 0.003772 0.060224 0.052183 -0.053551 -0.034474
# 4 -0.007811 0.008413 0.052183 0.094239 -0.044691 -0.036160
# 5 -0.007649 -0.000633 -0.053551 -0.044691 0.094873 0.055032
# 6 -0.007274 0.007243 -0.034474 -0.036160 0.055032 0.090232
#
#
# Mechanical properties :
#
#
# Convention : Reuss Voigt Hill
#
# Bulk Modulus (GPa) = 12.74027 35.81457 24.27742
# Shear Modulus (GPa) = 12.35666 28.09761 20.22714
#
# Velocity S-wave (km/s) = 2.30293 3.47268 2.94644
# Velocity P-wave (km/s) = 3.54111 5.60812 4.68990
#
# Compressibility (1/GPa) = 0.07849126
#
# Stress axis : x y z
#
# Youngs Moduli (GPa) = 60.37507 83.16173 16.60465
#
# Poissons Ratio (x) = 0.33528 0.08137
# Poissons Ratio (y) = 0.24341 -0.06263
# Poissons Ratio (z) = 0.29585 -0.31365
#
# Static dielectric constant tensor:
#      x y z
#    x 1.967590 0.034420 0.047410 
#    y 0.034420 1.925020 -0.071300 
#    z 0.047410 -0.071300 1.930860 
# 
# From -- ./inp_files/595530.got.cif
#   From: 2010.05.17/outbox.cif.g08.bks.cpg/sg2_298_cif.got.tgz:595530.got - 2010.06.03 11:33:40.
