data_PCOD9007540
_publ_section_title
;
Structure prediction by ZEFSAII (Michael W. Deem and Ramdas Pophale) SiO2 
 PCOD9007540
Probable space group: P -1
;
_chemical_formula_sum "Si O2"
_cell_formula_units_Z 12
_cell_length_a 16.534056
_cell_length_b 8.285215
_cell_length_c 6.063466
_cell_angle_alpha 65.105784
_cell_angle_beta 111.692332
_cell_angle_gamma 138.558475
_cell_volume 496.646568
_symmetry_space_group_name_H-M "P -1"
_symmetry_group_IT_number 2
_symmetry_cell_setting 'triclinic'
loop_
_space_group_symop_operation_xyz
x,y,z
-x,-y,-z
loop_
_atom_site_type_symbol
_atom_site_label
_atom_site_fract_x
_atom_site_fract_y
_atom_site_fract_z
Si Si1 0.253085 0.980123 0.950052
Si Si2 0.963861 0.284972 0.429132
Si Si3 0.202958 0.194954 0.156566
Si Si4 0.602875 0.000103 0.571926
Si Si5 0.207485 0.481851 0.647942
Si Si6 0.619961 0.536893 0.448447
O O1 0.124759 0.769354 0.818345
O O2 0.344563 0.217812 0.744561
O O3 0.223296 0.069077 0.072232
O O4 0.325053 0.925114 0.170118
O O5 0.000000 0.500000 0.500000
O O6 0.092765 0.379284 0.445505
O O7 0.887630 0.021267 0.630947
O O8 0.329613 0.418797 0.281227
O O9 0.162202 0.311546 0.916100
O O10 0.521708 0.714759 0.584791
O O11 0.500000 0.000000 0.500000
O O12 0.706805 0.224080 0.383661
O O13 0.294903 0.471639 0.610495
#
# Coordination Sequence:
#
# PCOD9007540 Si02
#       6
#     2   2   2   2   2   2
#     4  10  22  41  62  88 120 155 199 247 294 349
#     4  11  24  40  62  89 119 157 199 245 297 352
#     4  10  22  39  62  90 120 156 196 243 297 353
#     4  10  21  39  62  87 121 159 196 244 294 347
#     4  10  22  39  60  91 122 155 197 243 294 350
#     4   9  21  40  63  89 119 158 198 241 294 349
#
# _framework density 24.162051000000002
#
# number of rings (size 3 to 8) (size 9 to 14) (size 15 to 20)
#    0.000    2.000    0.000    2.000    0.000   14.000 
#    0.000    6.667    0.000    0.000    0.000    0.000 
#    0.000    0.000    0.000    0.000    0.000    0.000 
#
# Total GULP energy -67120.675783 kJ/mol
# GULP energy per Si atom -5593.389649 kJ/mol
# Density = 2.410706 g / cm^3
# Si number density = 24.162051 Si / 1000 Ang^3
#
#
#
# Elastic Constant Matrix: (Units=GPa)
#
#
# Indices 1 2 3 4 5 6 
#
# 1 60.4805 19.8829 24.8424 -1.7131 18.6337 27.4183
# 2 19.8829 142.3696 57.3632 13.9933 16.5806 25.8380
# 3 24.8424 57.3632 118.7196 23.7030 41.0326 17.6452
# 4 -1.7131 13.9933 23.7030 39.8089 -1.5380 5.4645
# 5 18.6337 16.5806 41.0326 -1.5380 40.1764 10.2690
# 6 27.4183 25.8380 17.6452 5.4645 10.2690 29.2269
#
#
#
# Elastic Compliance Matrix: (Units=1/GPa)
#
#
# Indices 1 2 3 4 5 6 
#
# 1 0.032224 0.001984 -0.002760 0.006209 -0.005122 -0.029679
# 2 0.001984 0.009931 -0.004813 0.000725 0.002127 -0.008619
# 3 -0.002760 -0.004813 0.019022 -0.010915 -0.017485 0.003544
# 4 0.006209 0.000725 -0.010915 0.033507 0.011888 -0.010318
# 5 -0.005122 0.002127 -0.017485 0.011888 0.045949 -0.004887
# 6 -0.029679 -0.008619 0.003544 -0.010318 -0.004887 0.071184
#
#
# Mechanical properties :
#
#
# Convention : Reuss Voigt Hill
#
# Bulk Modulus (GPa) = 19.99976 58.41632 39.20804
# Shear Modulus (GPa) = 20.86283 36.47452 28.66868
#
# Velocity S-wave (km/s) = 2.94165 3.88955 3.44832
# Velocity P-wave (km/s) = 4.45343 6.66339 5.66718
#
# Compressibility (1/GPa) = 0.05000061
#
# Stress axis : x y z
#
# Youngs Moduli (GPa) = 31.03241 100.69345 52.57113
#
# Poissons Ratio (x) = -0.19981 0.14509
# Poissons Ratio (y) = -0.06158 0.25302
# Poissons Ratio (z) = 0.08564 0.48462
#
# Static dielectric constant tensor:
#      x y z
#    x 1.949620 -0.051740 0.010250 
#    y -0.051740 1.972180 -0.036980 
#    z 0.010250 -0.036980 1.939350 
# 
# From -- ./inp_files/22043.got.cif
#   From: 2010.05.17/outbox.cif.g08.bks.cpg/sg2_12_cif.got.tgz:22043.got - 2010.06.03 11:33:40.
