data_PCOD9007449
_publ_section_title
;
Structure prediction by ZEFSAII (Michael W. Deem and Ramdas Pophale) SiO2 
 PCOD9007449
Probable space group: P -1
;
_chemical_formula_sum "Si O2"
_cell_formula_units_Z 16
_cell_length_a 14.226068
_cell_length_b 8.351356
_cell_length_c 9.963225
_cell_angle_alpha 56.575636
_cell_angle_beta 111.666357
_cell_angle_gamma 70.297117
_cell_volume 658.499904
_symmetry_space_group_name_H-M "P -1"
_symmetry_group_IT_number 2
_symmetry_cell_setting 'triclinic'
loop_
_space_group_symop_operation_xyz
x,y,z
-x,-y,-z
loop_
_atom_site_type_symbol
_atom_site_label
_atom_site_fract_x
_atom_site_fract_y
_atom_site_fract_z
Si Si1 0.871048 0.442408 0.921238
Si Si2 0.592399 0.896163 0.231248
Si Si3 0.317918 0.652831 0.107015
Si Si4 0.137008 0.206432 0.656455
Si Si5 0.845688 0.835509 0.897282
Si Si6 0.641935 0.511389 0.101467
Si Si7 0.082378 0.635261 0.723858
Si Si8 0.605908 0.440759 0.420293
O O1 0.740358 0.475802 0.817290
O O2 0.936566 0.278433 0.171784
O O3 0.998418 0.279272 0.960626
O O4 0.835059 0.711320 0.814555
O O5 0.737072 0.820024 0.313695
O O6 0.616720 0.641079 0.392624
O O7 0.500000 0.000000 0.000000
O O8 0.485132 0.166117 0.137618
O O9 0.348366 0.604903 0.983647
O O10 0.197956 0.973393 0.901582
O O11 0.453664 0.544989 0.306967
O O12 0.000000 0.500000 0.500000
O O13 0.066661 0.180950 0.509351
O O14 0.727090 0.148133 0.678934
O O15 0.844037 0.671520 0.082579
O O16 0.794855 0.403512 0.256882
O O17 0.617263 0.439154 0.263144
#
# Coordination Sequence:
#
# PCOD9007449 Si02
#       8
#     2   2   2   2   2   2   2   2
#     4   8  20  39  60  90 124 159 201 253 300 361
#     4  10  21  40  56  89 126 160 193 250 312 356
#     4  11  23  36  64  99 116 160 211 254 306 355
#     4  12  24  37  63  91 126 159 204 257 307 362
#     4   9  20  41  60  87 128 163 199 248 311 361
#     4  10  21  39  61  94 126 151 208 260 298 366
#     4   9  21  39  60  88 123 156 199 253 303 357
#     4  11  22  37  65  88 126 164 201 248 311 367
#
# _framework density 24.297650999999998
#
# number of rings (size 3 to 8) (size 9 to 14) (size 15 to 20)
#    0.750    1.250    2.500    1.875    5.250    1.500 
#    0.000    1.250    0.000    0.000    0.000    0.000 
#    0.000    0.000    0.000    0.000    0.000    0.000 
#
# Total GULP energy -89383.835599 kJ/mol
# GULP energy per Si atom -5586.489725 kJ/mol
# Density = 2.424235 g / cm^3
# Si number density = 24.297651 Si / 1000 Ang^3
#
#
#
# Elastic Constant Matrix: (Units=GPa)
#
#
# Indices 1 2 3 4 5 6 
#
# 1 113.6850 25.6670 33.0861 12.7610 27.2193 33.4173
# 2 25.6670 69.1007 36.2767 -7.7933 4.9864 -0.2449
# 3 33.0861 36.2767 128.4507 -7.6251 4.4871 17.6293
# 4 12.7610 -7.7933 -7.6251 52.2843 13.3084 3.1856
# 5 27.2193 4.9864 4.4871 13.3084 39.6592 6.2831
# 6 33.4173 -0.2449 17.6293 3.1856 6.2831 35.6031
#
#
#
# Elastic Compliance Matrix: (Units=1/GPa)
#
#
# Indices 1 2 3 4 5 6 
#
# 1 0.016182 -0.005403 -0.000670 -0.002124 -0.007519 -0.013377
# 2 -0.005403 0.019479 -0.004928 0.003158 -0.000421 0.007438
# 3 -0.000670 -0.004928 0.010024 0.001091 0.000295 -0.004519
# 4 -0.002124 0.003158 0.001091 0.021892 -0.006515 0.000666
# 5 -0.007519 -0.000421 0.000295 -0.006515 0.032297 0.001792
# 6 -0.013377 0.007438 -0.004519 0.000666 0.001792 0.042556
#
#
# Mechanical properties :
#
#
# Convention : Reuss Voigt Hill
#
# Bulk Modulus (GPa) = 42.22524 55.69956 48.96240
# Shear Modulus (GPa) = 29.01484 39.92311 34.46897
#
# Velocity S-wave (km/s) = 3.45938 4.05790 3.77053
# Velocity P-wave (km/s) = 5.77689 6.70291 6.25706
#
# Compressibility (1/GPa) = 0.02368252
#
# Stress axis : x y z
#
# Youngs Moduli (GPa) = 61.79776 51.33824 99.76159
#
# Poissons Ratio (x) = 0.27741 0.06679
# Poissons Ratio (y) = 0.33392 0.49162
# Poissons Ratio (z) = 0.04137 0.25299
#
# Static dielectric constant tensor:
#      x y z
#    x 1.939480 -0.015830 -0.021540 
#    y -0.015830 2.073900 -0.005300 
#    z -0.021540 -0.005300 1.901660 
# 
# From -- ./inp_files/529410.got.cif
#   From: 2010.05.17/outbox.cif.g08.bks.cpg/sg2_265_cif.got.tgz:529410.got - 2010.06.03 11:33:40.
