data_PCOD9007978
_publ_section_title
;
Structure prediction by ZEFSAII (Michael W. Deem and Ramdas Pophale) SiO2 
 PCOD9007978
Probable space group: P -1
;
_chemical_formula_sum "Si O2"
_cell_formula_units_Z 15
_cell_length_a 7.142888
_cell_length_b 6.872174
_cell_length_c 21.844172
_cell_angle_alpha 55.896863
_cell_angle_beta 98.922559
_cell_angle_gamma 61.063083
_cell_volume 628.277720
_symmetry_space_group_name_H-M "P -1"
_symmetry_group_IT_number 2
_symmetry_cell_setting 'triclinic'
loop_
_space_group_symop_operation_xyz
x,y,z
-x,-y,-z
loop_
_atom_site_type_symbol
_atom_site_label
_atom_site_fract_x
_atom_site_fract_y
_atom_site_fract_z
Si Si1 0.689994 0.807940 0.485752
Si Si2 0.000000 0.000000 0.000000
Si Si3 0.811294 0.789093 0.201771
Si Si4 0.172752 0.256621 0.931346
Si Si5 0.140853 0.058986 0.637873
Si Si6 0.798864 0.294649 0.071418
Si Si7 0.398627 0.198033 0.209065
Si Si8 0.765836 0.944332 0.660934
O O1 0.762818 0.978129 0.420411
O O2 0.963378 0.440256 0.578677
O O3 0.500000 0.000000 0.500000
O O4 0.517547 0.799066 0.431252
O O5 0.713365 0.082445 0.978423
O O6 0.032526 0.871519 0.951806
O O7 0.558153 0.968816 0.199558
O O8 0.758892 0.772140 0.130837
O O9 0.067762 0.414985 0.296661
O O10 0.876848 0.008151 0.169150
O O11 0.174050 0.480948 0.933258
O O12 0.861835 0.423769 0.888098
O O13 0.398462 0.834305 0.733089
O O14 0.950632 0.005991 0.649150
O O15 0.500000 0.500000 0.000000
O O16 0.286822 0.086763 0.266079
#
# Coordination Sequence:
#
# PCOD9007978 Si02
#       8
#     2   1   2   2   2   2   2   2
#     4  10  21  39  63  92 131 165 218 260 317 386
#     4  10  22  42  66  94 126 168 216 258 332 380
#     4  10  23  40  62  95 124 170 218 256 329 382
#     4  10  23  43  62  96 129 167 218 267 321 389
#     4  10  22  39  64  90 130 169 209 272 314 377
#     4  11  24  42  66  93 131 167 213 271 322 386
#     4  10  22  41  60  90 129 164 213 267 313 381
#     4  10  22  41  60  97 126 170 219 260 323 381
#
# _framework density 23.874794000000001
#
# number of rings (size 3 to 8) (size 9 to 14) (size 15 to 20)
#    0.000    1.867    0.000    2.400    3.733    4.800 
#   12.000    0.000    0.000    0.000    0.000    0.000 
#    0.000    0.000    0.000    0.000    0.000    0.000 
#
# Total GULP energy -83692.576719 kJ/mol
# GULP energy per Si atom -5579.505115 kJ/mol
# Density = 2.382045 g / cm^3
# Si number density = 23.874794 Si / 1000 Ang^3
#
#
#
# Elastic Constant Matrix: (Units=GPa)
#
#
# Indices 1 2 3 4 5 6 
#
# 1 149.6095 67.5530 46.8724 17.3659 -18.7166 -5.6157
# 2 67.5530 162.8008 20.5210 17.7324 -22.5771 -17.2784
# 3 46.8724 20.5210 74.7738 -2.0463 0.4429 -5.6387
# 4 17.3659 17.7324 -2.0463 30.2893 -14.6880 -7.7533
# 5 -18.7166 -22.5771 0.4429 -14.6880 45.3382 2.4789
# 6 -5.6157 -17.2784 -5.6387 -7.7533 2.4789 70.9879
#
#
#
# Elastic Compliance Matrix: (Units=1/GPa)
#
#
# Indices 1 2 3 4 5 6 
#
# 1 0.010590 -0.003060 -0.005988 -0.004128 0.001618 -0.000890
# 2 -0.003060 0.008068 -0.000242 -0.001559 0.002172 0.001456
# 3 -0.005988 -0.000242 0.017428 0.004425 -0.001405 0.001384
# 4 -0.004128 -0.001559 0.004425 0.043038 0.011203 0.003955
# 5 0.001618 0.002172 -0.001405 0.011203 0.027405 0.000812
# 6 -0.000890 0.001456 0.001384 0.003955 0.000812 0.014885
#
#
# Mechanical properties :
#
#
# Convention : Reuss Voigt Hill
#
# Bulk Modulus (GPa) = 57.12395 73.00856 65.06625
# Shear Modulus (GPa) = 34.28673 46.13894 40.21284
#
# Velocity S-wave (km/s) = 3.79371 4.40083 4.10850
# Velocity P-wave (km/s) = 6.57024 7.51460 7.05823
#
# Compressibility (1/GPa) = 0.01750579
#
# Stress axis : x y z
#
# Youngs Moduli (GPa) = 94.42890 123.94213 57.38001
#
# Poissons Ratio (x) = 0.37925 0.34361
# Poissons Ratio (y) = 0.28894 0.01388
# Poissons Ratio (z) = 0.56547 0.02998
#
# Static dielectric constant tensor:
#      x y z
#    x 2.129310 0.082830 -0.164220 
#    y 0.082830 1.938260 -0.144330 
#    z -0.164220 -0.144330 2.274010 
# 
# From -- ./inp_files/600569.got.cif
#   From: 2010.05.17/outbox.cif.g08.bks.cpg/sg2_301_cif.got.tgz:600569.got - 2010.06.03 11:33:40.
