data_PCOD9007264
_publ_section_title
;
Structure prediction by ZEFSAII (Michael W. Deem and Ramdas Pophale) SiO2 
 PCOD9007264
Probable space group: P -1
;
_chemical_formula_sum "Si O2"
_cell_formula_units_Z 12
_cell_length_a 16.618558
_cell_length_b 7.957591
_cell_length_c 16.617476
_cell_angle_alpha 86.036759
_cell_angle_beta 17.670809
_cell_angle_gamma 93.922087
_cell_volume 596.492104
_symmetry_space_group_name_H-M "P -1"
_symmetry_group_IT_number 2
_symmetry_cell_setting 'triclinic'
loop_
_space_group_symop_operation_xyz
x,y,z
-x,-y,-z
loop_
_atom_site_type_symbol
_atom_site_label
_atom_site_fract_x
_atom_site_fract_y
_atom_site_fract_z
Si Si1 0.099837 0.499805 0.598616
Si Si2 0.106226 0.873189 0.297470
Si Si3 0.913094 0.223158 0.139006
Si Si4 0.200592 0.872277 0.395438
Si Si5 0.654531 0.500136 0.153451
Si Si6 0.639040 0.776923 0.413220
O O1 0.119483 0.678727 0.524524
O O2 0.415068 0.552748 0.337953
O O3 0.025272 0.320049 0.619303
O O4 0.839861 0.447758 0.913362
O O5 0.085936 0.831669 0.413884
O O6 0.940036 0.001475 0.435126
O O7 0.448892 0.999595 0.946566
O O8 0.641650 0.269252 0.375890
O O9 0.783041 0.000042 0.283341
O O10 0.106181 0.333873 0.026415
O O11 0.123909 0.269086 0.858352
O O12 0.473522 0.333756 0.393657
#
# Coordination Sequence:
#
# PCOD9007264 Si02
#       6
#     2   2   2   2   2   2
#     4  12  25  39  60  94 129 160 195 248 312 363
#     4  10  22  42  66  89 119 163 209 249 292 354
#     4  10  21  39  61  83 112 156 205 247 290 351
#     4  10  22  42  66  89 119 163 209 249 292 354
#     4  12  24  37  59  90 125 158 191 248 311 359
#     4  10  21  39  61  83 112 156 205 247 290 351
#
# _framework density 20.117618
#
# number of rings (size 3 to 8) (size 9 to 14) (size 15 to 20)
#    0.000    1.333    0.000    5.500    0.000    4.000 
#    0.000    6.667    0.000    0.000    0.000    0.000 
#    0.000    0.000    0.000    0.000    0.000    0.000 
#
# Total GULP energy -67156.009483 kJ/mol
# GULP energy per Si atom -5596.334124 kJ/mol
# Density = 2.007183 g / cm^3
# Si number density = 20.117618 Si / 1000 Ang^3
#
#
#
# Elastic Constant Matrix: (Units=GPa)
#
#
# Indices 1 2 3 4 5 6 
#
# 1 87.7481 72.0251 43.5700 -14.6251 8.8174 2.4365
# 2 72.0251 145.9926 52.0655 -12.4518 4.6601 -3.6215
# 3 43.5700 52.0655 93.3041 2.7809 -11.4696 1.9278
# 4 -14.6251 -12.4518 2.7809 30.1789 -7.8033 -2.7073
# 5 8.8174 4.6601 -11.4696 -7.8033 -10.2919 9.3379
# 6 2.4365 -3.6215 1.9278 -2.7073 9.3379 7.0660
#
#
#
# Elastic Compliance Matrix: (Units=1/GPa)
#
#
# Indices 1 2 3 4 5 6 
#
# 1 0.022666 -0.009212 -0.004971 0.007377 0.003463 -0.012930
# 2 -0.009212 0.012470 -0.002369 0.002451 0.003936 0.005951
# 3 -0.004971 -0.002369 0.013278 -0.006405 -0.009246 0.006642
# 4 0.007377 0.002451 -0.006405 0.039634 -0.000585 0.016419
# 5 0.003463 0.003936 -0.009246 -0.000585 -0.035850 0.050498
# 6 -0.012930 0.005951 0.006642 0.016419 0.050498 0.086776
#
#
# Mechanical properties :
#
#
# Convention : Reuss Voigt Hill
#
# Bulk Modulus (GPa) = 65.31444 73.59622 69.45533
# Shear Modulus (GPa) = 28.21958 16.01623 22.11790
#
# Velocity S-wave (km/s) = 3.74937 2.82464 3.31936
# Velocity P-wave (km/s) = 7.16104 6.87754 7.02072
#
# Compressibility (1/GPa) = 0.01531055
#
# Stress axis : x y z
#
# Youngs Moduli (GPa) = 44.11854 80.19164 75.31164
#
# Poissons Ratio (x) = 0.73869 0.37439
# Poissons Ratio (y) = 0.40640 0.17843
# Poissons Ratio (z) = 0.21932 0.18999
#
# Static dielectric constant tensor:
#      x y z
#    x 1.687910 -0.002260 0.011570 
#    y -0.002260 1.679130 0.022250 
#    z 0.011570 0.022250 1.596640 
# 
# From -- ./inp_files/501345.got.cif
#   From: 2010.05.17/outbox.cif.g08.bks.cpg/sg2_251_cif.got.tgz:501345.got - 2010.06.03 11:33:40.
