data_PCOD9007300
_publ_section_title
;
Structure prediction by ZEFSAII (Michael W. Deem and Ramdas Pophale) SiO2 
 PCOD9007300
Probable space group: P -1
;
_chemical_formula_sum "Si O2"
_cell_formula_units_Z 16
_cell_length_a 5.240537
_cell_length_b 19.262824
_cell_length_c 11.891376
_cell_angle_alpha 44.902342
_cell_angle_beta 89.242369
_cell_angle_gamma 63.005587
_cell_volume 658.140230
_symmetry_space_group_name_H-M "P -1"
_symmetry_group_IT_number 2
_symmetry_cell_setting 'triclinic'
loop_
_space_group_symop_operation_xyz
x,y,z
-x,-y,-z
loop_
_atom_site_type_symbol
_atom_site_label
_atom_site_fract_x
_atom_site_fract_y
_atom_site_fract_z
Si Si1 0.830810 0.495225 0.869936
Si Si2 0.697782 0.137588 0.798060
Si Si3 0.475824 0.002850 0.633228
Si Si4 0.099829 0.203551 0.583093
Si Si5 0.586471 0.465761 0.363151
Si Si6 0.861225 0.098110 0.284408
Si Si7 0.547916 0.359098 0.104461
Si Si8 0.615031 0.617895 0.344549
O O1 0.731344 0.497906 0.740925
O O2 0.552025 0.628990 0.778446
O O3 0.765381 0.403538 0.032953
O O4 0.185828 0.450805 0.945051
O O5 0.423754 0.141220 0.729108
O O6 0.502622 0.245985 0.773015
O O7 0.864042 0.177112 0.667438
O O8 0.000000 0.000000 0.000000
O O9 0.216071 0.139768 0.532617
O O10 0.500000 0.000000 0.500000
O O11 0.384811 0.913402 0.765012
O O12 0.831523 0.945598 0.741369
O O13 0.902417 0.354201 0.419107
O O14 0.553529 0.587701 0.255883
O O15 0.603435 0.398802 0.553780
O O16 0.712359 0.227847 0.195767
O O17 0.000000 0.000000 0.500000
O O18 0.000000 0.500000 0.500000
#
# Coordination Sequence:
#
# PCOD9007300 Si02
#       8
#     2   2   2   2   2   2   2   2
#     4  10  23  40  65  92 124 174 204 270 323 383
#     4  11  24  45  69  97 138 174 210 277 343 393
#     4  10  22  39  60  96 127 167 211 267 322 366
#     4  11  23  43  68  98 126 171 230 264 322 409
#     4  10  23  40  70  95 124 169 225 273 327 390
#     4  10  21  39  61  86 124 175 209 262 315 370
#     4  10  22  43  59  91 136 160 219 259 320 387
#     4  10  21  44  66  98 130 163 222 284 323 390
#
# _framework density 24.310929000000002
#
# number of rings (size 3 to 8) (size 9 to 14) (size 15 to 20)
#    0.000    1.750    1.250    1.875    5.250    0.000 
#   13.500    0.000    0.000    0.000    0.000    0.000 
#    0.000    0.000    0.000    0.000    0.000    0.000 
#
# Total GULP energy -89400.651940 kJ/mol
# GULP energy per Si atom -5587.540746 kJ/mol
# Density = 2.425560 g / cm^3
# Si number density = 24.310929 Si / 1000 Ang^3
#
#
#
# Elastic Constant Matrix: (Units=GPa)
#
#
# Indices 1 2 3 4 5 6 
#
# 1 136.0197 20.5598 6.7355 -3.1891 4.9145 0.6859
# 2 20.5598 190.0067 27.5607 -26.8860 -2.0600 -2.5013
# 3 6.7355 27.5607 52.5713 -13.8350 2.5142 -6.2158
# 4 -3.1891 -26.8860 -13.8350 40.8154 2.7510 9.1900
# 5 4.9145 -2.0600 2.5142 2.7510 25.6999 0.4130
# 6 0.6859 -2.5013 -6.2158 9.1900 0.4130 36.2979
#
#
#
# Elastic Compliance Matrix: (Units=1/GPa)
#
#
# Indices 1 2 3 4 5 6 
#
# 1 0.007547 -0.000749 -0.000516 0.000084 -0.001457 -0.000287
# 2 -0.000749 0.006156 -0.002374 0.003341 0.000525 -0.000820
# 3 -0.000516 -0.002374 0.022216 0.005612 -0.002902 0.002263
# 4 0.000084 0.003341 0.005612 0.030292 -0.003436 -0.006441
# 5 -0.001457 0.000525 -0.002902 -0.003436 0.039883 -0.000017
# 6 -0.000287 -0.000820 0.002263 -0.006441 -0.000017 0.029517
#
#
# Mechanical properties :
#
#
# Convention : Reuss Voigt Hill
#
# Bulk Modulus (GPa) = 34.91713 54.25662 44.58688
# Shear Modulus (GPa) = 32.80040 42.14542 37.47291
#
# Velocity S-wave (km/s) = 3.67714 4.16817 3.93033
# Velocity P-wave (km/s) = 5.69406 6.74767 6.24313
#
# Compressibility (1/GPa) = 0.02863923
#
# Stress axis : x y z
#
# Youngs Moduli (GPa) = 132.50691 162.44062 45.01292
#
# Poissons Ratio (x) = 0.12174 0.02324
# Poissons Ratio (y) = 0.09930 0.10687
# Poissons Ratio (z) = 0.06840 0.38565
#
# Static dielectric constant tensor:
#      x y z
#    x 2.100930 0.025830 -0.002080 
#    y 0.025830 2.003490 0.019350 
#    z -0.002080 0.019350 1.960910 
# 
# From -- ./inp_files/369362.got.cif
#   From: 2010.05.17/outbox.cif.g08.bks.cpg/sg2_185_cif.got.tgz:369362.got - 2010.06.03 11:33:40.
