data_PCOD9007407
_publ_section_title
;
Structure prediction by ZEFSAII (Michael W. Deem and Ramdas Pophale) SiO2 
 PCOD9007407
Probable space group: P -1
;
_chemical_formula_sum "Si O2"
_cell_formula_units_Z 16
_cell_length_a 29.341233
_cell_length_b 4.962254
_cell_length_c 27.502050
_cell_angle_alpha 64.587169
_cell_angle_beta 9.629604
_cell_angle_gamma 65.708644
_cell_volume 603.191702
_symmetry_space_group_name_H-M "P -1"
_symmetry_group_IT_number 2
_symmetry_cell_setting 'triclinic'
loop_
_space_group_symop_operation_xyz
x,y,z
-x,-y,-z
loop_
_atom_site_type_symbol
_atom_site_label
_atom_site_fract_x
_atom_site_fract_y
_atom_site_fract_z
Si Si1 0.199201 0.129715 0.480896
Si Si2 0.063611 0.178539 0.085660
Si Si3 0.022399 0.240452 0.415097
Si Si4 0.352275 0.671735 0.419953
Si Si5 0.312810 0.485862 0.005243
Si Si6 0.905635 0.657370 0.135562
Si Si7 0.510664 0.551742 0.927439
Si Si8 0.429979 0.662672 0.706248
O O1 0.429206 0.323900 0.256185
O O2 0.318481 0.166079 0.298155
O O3 0.184217 0.792708 0.541888
O O4 0.921400 0.283962 0.767641
O O5 0.255086 0.345912 0.912206
O O6 0.230535 0.920024 0.907098
O O7 0.025935 0.440953 0.066026
O O8 0.773572 0.114511 0.422903
O O9 0.717361 0.299715 0.715506
O O10 0.197860 0.222299 0.182982
O O11 0.209220 0.506850 0.225427
O O12 0.000000 0.000000 0.500000
O O13 0.621774 0.635417 0.107146
O O14 0.354792 0.372012 0.473721
O O15 0.597626 0.682529 0.477947
O O16 0.000000 0.500000 0.000000
O O17 0.000000 0.000000 0.000000
O O18 0.500000 0.500000 0.000000
#
# Coordination Sequence:
#
# PCOD9007407 Si02
#       8
#     2   2   2   2   2   2   2   2
#     4  10  24  43  64  96 135 178 238 300 370 445
#     4  11  26  45  70 105 144 191 245 304 361 431
#     4  10  21  39  61  91 127 170 222 293 364 446
#     4  11  26  40  70  92 136 184 240 306 364 440
#     4  10  24  43  64  96 135 178 238 300 370 445
#     4  11  24  44  72 108 148 192 242 298 362 430
#     4  10  21  39  61  91 127 170 222 293 364 446
#     4  11  26  45  70 105 144 191 245 304 361 431
#
# _framework density 26.525566999999999
#
# number of rings (size 3 to 8) (size 9 to 14) (size 15 to 20)
#    0.000    1.500    0.000    3.000    8.750    5.000 
#    0.000    0.000    0.000    0.000    0.000    0.000 
#    0.000    0.000    0.000    0.000    0.000    0.000 
#
# Total GULP energy -89219.433978 kJ/mol
# GULP energy per Si atom -5576.214624 kJ/mol
# Density = 2.646519 g / cm^3
# Si number density = 26.525567 Si / 1000 Ang^3
#
#
#
# Elastic Constant Matrix: (Units=GPa)
#
#
# Indices 1 2 3 4 5 6 
#
# 1 115.8064 44.3994 80.1332 -0.0034 33.9972 -3.5667
# 2 44.3994 91.6327 66.6778 36.8650 15.0216 1.8089
# 3 80.1332 66.6778 178.6271 33.0016 36.5410 8.5171
# 4 -0.0034 36.8650 33.0016 55.1295 -7.8454 6.1363
# 5 33.9972 15.0216 36.5410 -7.8454 75.9834 -1.9715
# 6 -3.5667 1.8089 8.5171 6.1363 -1.9715 56.7511
#
#
#
# Elastic Compliance Matrix: (Units=1/GPa)
#
#
# Indices 1 2 3 4 5 6 
#
# 1 0.015444 -0.005756 -0.005599 0.006735 -0.002353 0.001184
# 2 -0.005756 0.020985 -0.002586 -0.012793 -0.001633 0.000684
# 3 -0.005599 -0.002586 0.010562 -0.004804 -0.002596 -0.001425
# 4 0.006735 -0.012793 -0.004804 0.030447 0.004929 -0.001569
# 5 -0.002353 -0.001633 -0.002596 0.004929 0.016302 0.000327
# 6 0.001184 0.000684 -0.001425 -0.001569 0.000327 0.018068
#
#
# Mechanical properties :
#
#
# Convention : Reuss Voigt Hill
#
# Bulk Modulus (GPa) = 52.33230 85.38743 68.85986
# Shear Modulus (GPa) = 34.23267 50.56319 42.39793
#
# Velocity S-wave (km/s) = 3.59633 4.37075 4.00231
# Velocity P-wave (km/s) = 6.08412 7.59814 6.88289
#
# Compressibility (1/GPa) = 0.01910866
#
# Stress axis : x y z
#
# Youngs Moduli (GPa) = 64.75167 47.65292 94.68009
#
# Poissons Ratio (x) = 0.27429 0.53010
# Poissons Ratio (y) = 0.37271 0.24485
# Poissons Ratio (z) = 0.36253 0.12324
#
# Static dielectric constant tensor:
#      x y z
#    x 2.247340 0.043940 -0.115650 
#    y 0.043940 2.099860 -0.054730 
#    z -0.115650 -0.054730 2.148150 
# 
# From -- ./inp_files/621431.got.cif
#   From: 2010.05.17/outbox.cif.g08.bks.cpg/sg2_311_cif.got.tgz:621431.got - 2010.06.03 11:33:40.
