data_PCOD9007457
_publ_section_title
;
Structure prediction by ZEFSAII (Michael W. Deem and Ramdas Pophale) SiO2 
 PCOD9007457
Probable space group: P -1
;
_chemical_formula_sum "Si O2"
_cell_formula_units_Z 16
_cell_length_a 17.420732
_cell_length_b 26.947689
_cell_length_c 14.598439
_cell_angle_alpha 21.352083
_cell_angle_beta 158.690999
_cell_angle_gamma 161.704603
_cell_volume 712.909415
_symmetry_space_group_name_H-M "P -1"
_symmetry_group_IT_number 2
_symmetry_cell_setting 'triclinic'
loop_
_space_group_symop_operation_xyz
x,y,z
-x,-y,-z
loop_
_atom_site_type_symbol
_atom_site_label
_atom_site_fract_x
_atom_site_fract_y
_atom_site_fract_z
Si Si1 0.796463 0.097871 0.446844
Si Si2 0.783948 0.217257 0.033732
Si Si3 0.242487 0.489310 0.483545
Si Si4 0.841764 0.073896 0.176257
Si Si5 0.326286 0.806294 0.678950
Si Si6 0.314168 0.540497 0.679685
Si Si7 0.401119 0.371835 0.698262
Si Si8 0.733338 0.233073 0.628323
O O1 0.824162 0.135908 0.304459
O O2 0.709314 0.187913 0.260752
O O3 0.098569 0.192500 0.653606
O O4 0.534354 0.896126 0.507239
O O5 0.924429 0.218735 0.095780
O O6 0.845333 0.391171 0.840445
O O7 0.470108 0.089323 0.879909
O O8 0.381425 0.559890 0.614330
O O9 0.403277 0.479406 0.599637
O O10 0.965809 0.296303 0.514747
O O11 0.843179 0.142206 0.959735
O O12 0.000000 0.000000 0.500000
O O13 0.500000 0.000000 0.500000
O O14 0.436340 0.698580 0.974109
O O15 0.354810 0.697882 0.507964
O O16 0.993056 0.389513 0.594228
O O17 0.500000 0.500000 0.000000
O O18 0.500000 0.500000 0.500000
#
# Coordination Sequence:
#
# PCOD9007457 Si02
#       8
#     2   2   2   2   2   2   2   2
#     4  10  23  42  68  96 135 174 221 285 337 400
#     4  10  21  39  61  94 134 168 219 276 328 391
#     4  11  24  43  68  97 137 177 225 288 334 402
#     4  10  22  37  62  90 129 174 216 264 328 396
#     4  11  25  44  67  98 137 177 227 285 347 403
#     4  11  25  42  67  96 135 181 226 271 336 405
#     4  11  25  45  73 103 130 180 236 280 351 413
#     4  10  23  43  63  95 135 173 223 276 331 401
#
# _framework density 22.443242999999999
#
# number of rings (size 3 to 8) (size 9 to 14) (size 15 to 20)
#    0.000    1.500    1.250    2.250    1.750   13.000 
#    0.000    0.000    0.000    0.000    0.000    0.000 
#    0.000    0.000    0.000    0.000    0.000    0.000 
#
# Total GULP energy -89294.708197 kJ/mol
# GULP energy per Si atom -5580.919262 kJ/mol
# Density = 2.239216 g / cm^3
# Si number density = 22.443243 Si / 1000 Ang^3
#
#
#
# Elastic Constant Matrix: (Units=GPa)
#
#
# Indices 1 2 3 4 5 6 
#
# 1 108.6842 8.4198 19.8706 -0.3635 12.3486 -25.2794
# 2 8.4198 79.2352 -4.8623 0.8216 7.8990 -16.1084
# 3 19.8706 -4.8623 78.4126 -0.3058 10.6519 -6.4592
# 4 -0.3635 0.8216 -0.3058 33.0210 -1.5374 -2.7826
# 5 12.3486 7.8990 10.6519 -1.5374 26.4916 -6.9589
# 6 -25.2794 -16.1084 -6.4592 -2.7826 -6.9589 26.9228
#
#
#
# Elastic Compliance Matrix: (Units=1/GPa)
#
#
# Indices 1 2 3 4 5 6 
#
# 1 0.012345 0.001099 -0.001808 0.000936 -0.002330 0.011310
# 2 0.001099 0.014882 0.001866 0.000321 -0.003159 0.009600
# 3 -0.001808 0.001866 0.014131 -0.000041 -0.005000 0.001512
# 4 0.000936 0.000321 -0.000041 0.030819 0.002562 0.004909
# 5 -0.002330 -0.003159 -0.005000 0.002562 0.043577 0.006251
# 6 0.011310 0.009600 0.001512 0.004909 0.006251 0.055992
#
#
# Mechanical properties :
#
#
# Convention : Reuss Voigt Hill
#
# Bulk Modulus (GPa) = 22.89940 34.79868 28.84904
# Shear Modulus (GPa) = 27.17548 33.48066 30.32807
#
# Velocity S-wave (km/s) = 3.48351 3.86656 3.68002
# Velocity P-wave (km/s) = 5.13860 5.95589 5.56227
#
# Compressibility (1/GPa) = 0.04366927
#
# Stress axis : x y z
#
# Youngs Moduli (GPa) = 81.00542 67.19695 70.76822
#
# Poissons Ratio (x) = -0.07385 0.12798
# Poissons Ratio (y) = -0.08902 -0.13202
# Poissons Ratio (z) = 0.14649 -0.12536
#
# Static dielectric constant tensor:
#      x y z
#    x 1.862620 0.011080 -0.017690 
#    y 0.011080 1.895510 -0.009580 
#    z -0.017690 -0.009580 1.833060 
# 
# From -- ./inp_files/539392.got.cif
#   From: 2010.05.17/outbox.cif.g08.bks.cpg/sg2_270_cif.got.tgz:539392.got - 2010.06.03 11:33:40.
