data_PCOD9007254
_publ_section_title
;
Structure prediction by ZEFSAII (Michael W. Deem and Ramdas Pophale) SiO2 
 PCOD9007254
Probable space group: P -1
;
_chemical_formula_sum "Si O2"
_cell_formula_units_Z 16
_cell_length_a 17.365618
_cell_length_b 11.730876
_cell_length_c 8.786009
_cell_angle_alpha 72.840897
_cell_angle_beta 33.734676
_cell_angle_gamma 52.864028
_cell_volume 700.429347
_symmetry_space_group_name_H-M "P -1"
_symmetry_group_IT_number 2
_symmetry_cell_setting 'triclinic'
loop_
_space_group_symop_operation_xyz
x,y,z
-x,-y,-z
loop_
_atom_site_type_symbol
_atom_site_label
_atom_site_fract_x
_atom_site_fract_y
_atom_site_fract_z
Si Si1 0.080083 0.073235 0.614393
Si Si2 0.339672 0.786769 0.076859
Si Si3 0.362137 0.681900 0.734636
Si Si4 0.092282 0.395373 0.743109
Si Si5 0.472628 0.067383 0.351169
Si Si6 0.950735 0.393486 0.674868
Si Si7 0.650609 0.585574 0.865321
Si Si8 0.428632 0.864711 0.338566
O O1 0.088127 0.204183 0.483996
O O2 0.150970 0.933309 0.427432
O O3 0.220851 0.988121 0.559177
O O4 0.863351 0.191273 0.978976
O O5 0.354459 0.708801 0.921740
O O6 0.423317 0.868771 0.869073
O O7 0.480064 0.638289 0.022762
O O8 0.500000 0.500000 0.500000
O O9 0.431457 0.764207 0.506259
O O10 0.256952 0.215161 0.602003
O O11 0.958497 0.406013 0.839109
O O12 0.185438 0.458780 0.490419
O O13 0.000000 0.500000 0.000000
O O14 0.500000 0.000000 0.500000
O O15 0.521537 0.931009 0.215605
O O16 0.000000 0.500000 0.500000
O O17 0.758108 0.466492 0.878831
O O18 0.554239 0.754844 0.033492
#
# Coordination Sequence:
#
# PCOD9007254 Si02
#       8
#     2   2   2   2   2   2   2   2
#     4  11  24  44  71 101 135 180 230 286 331 413
#     4  10  24  44  69 101 133 179 231 280 347 398
#     4  12  26  48  71  96 137 185 230 282 338 413
#     4  10  22  36  57  96 142 175 214 270 337 405
#     4  11  22  38  68 102 138 169 219 283 340 404
#     4  10  21  39  61 101 137 175 218 269 344 398
#     4   9  22  38  63  94 132 176 218 274 333 406
#     4  11  23  44  69 100 133 178 229 275 346 400
#
# _framework density 22.843132000000001
#
# number of rings (size 3 to 8) (size 9 to 14) (size 15 to 20)
#    0.000    1.500    2.500    1.500    5.250    4.500 
#    0.000    6.875    0.000    0.000    0.000    0.000 
#    0.000    0.000    0.000    0.000    0.000    0.000 
#
# Total GULP energy -89118.199958 kJ/mol
# GULP energy per Si atom -5569.887497 kJ/mol
# Density = 2.279114 g / cm^3
# Si number density = 22.843132 Si / 1000 Ang^3
#
#
#
# Elastic Constant Matrix: (Units=GPa)
#
#
# Indices 1 2 3 4 5 6 
#
# 1 121.4213 36.2616 45.3310 23.9475 18.1367 3.9771
# 2 36.2616 81.0201 21.8292 18.5741 -3.7029 10.0824
# 3 45.3310 21.8292 126.0833 5.2682 13.4387 11.1078
# 4 23.9475 18.5741 5.2682 21.0589 1.1768 -0.5355
# 5 18.1367 -3.7029 13.4387 1.1768 31.5898 7.6209
# 6 3.9771 10.0824 11.1078 -0.5355 7.6209 50.8829
#
#
#
# Elastic Compliance Matrix: (Units=1/GPa)
#
#
# Indices 1 2 3 4 5 6 
#
# 1 0.013586 -0.002974 -0.003280 -0.011609 -0.006588 0.001108
# 2 -0.002974 0.017713 -0.001775 -0.012228 0.005937 -0.003908
# 3 -0.003280 -0.001775 0.009633 0.002983 -0.002263 -0.001125
# 4 -0.011609 -0.012228 0.002983 0.070782 0.000519 0.003346
# 5 -0.006588 0.005937 -0.002263 0.000519 0.038508 -0.005930
# 6 0.001108 -0.003908 -0.001125 0.003346 -0.005930 0.021509
#
#
# Mechanical properties :
#
#
# Convention : Reuss Voigt Hill
#
# Bulk Modulus (GPa) = 40.20299 59.48537 49.84418
# Shear Modulus (GPa) = 25.49951 35.71319 30.60635
#
# Velocity S-wave (km/s) = 3.34471 3.95829 3.66437
# Velocity P-wave (km/s) = 5.70561 6.85478 6.30643
#
# Compressibility (1/GPa) = 0.02487377
#
# Stress axis : x y z
#
# Youngs Moduli (GPa) = 73.60472 56.45588 103.80500
#
# Poissons Ratio (x) = 0.16792 0.34048
# Poissons Ratio (y) = 0.21893 0.18425
# Poissons Ratio (z) = 0.24142 0.10021
#
# Static dielectric constant tensor:
#      x y z
#    x 1.464310 -0.083800 -0.364200 
#    y -0.083800 1.930080 -0.075720 
#    z -0.364200 -0.075720 1.646370 
# 
# From -- ./inp_files/333196.got.cif
#   From: 2010.05.17/outbox.cif.g08.bks.cpg/sg2_167_cif.got.tgz:333196.got - 2010.06.03 11:33:40.
