data_PCOD9007738
_publ_section_title
;
Structure prediction by ZEFSAII (Michael W. Deem and Ramdas Pophale) SiO2 
 PCOD9007738
Probable space group: P -1
;
_chemical_formula_sum "Si O2"
_cell_formula_units_Z 14
_cell_length_a 10.324699
_cell_length_b 10.290585
_cell_length_c 11.808502
_cell_angle_alpha 101.269935
_cell_angle_beta 36.949600
_cell_angle_gamma 120.449119
_cell_volume 594.617464
_symmetry_space_group_name_H-M "P -1"
_symmetry_group_IT_number 2
_symmetry_cell_setting 'triclinic'
loop_
_space_group_symop_operation_xyz
x,y,z
-x,-y,-z
loop_
_atom_site_type_symbol
_atom_site_label
_atom_site_fract_x
_atom_site_fract_y
_atom_site_fract_z
Si Si1 0.237491 0.031938 0.263051
Si Si2 0.538842 0.572862 0.294422
Si Si3 0.851173 0.164540 0.119981
Si Si4 0.443669 0.102796 0.896660
Si Si5 0.155394 0.642632 0.663262
Si Si6 0.299540 0.514402 0.217578
Si Si7 0.294594 0.640125 0.903497
O O1 0.213661 0.015628 0.140943
O O2 0.476858 0.221723 0.151287
O O3 0.000000 0.000000 0.500000
O O4 0.341653 0.929043 0.218846
O O5 0.338533 0.481932 0.312728
O O6 0.601157 0.443330 0.260898
O O7 0.392775 0.624601 0.483793
O O8 0.828568 0.737663 0.085123
O O9 0.795646 0.267852 0.091018
O O10 0.767438 0.189726 0.305115
O O11 0.685609 0.986346 0.147752
O O12 0.588414 0.295686 0.827541
O O13 0.994056 0.602791 0.651868
O O14 0.934187 0.499689 0.878629
O O15 0.500000 0.500000 0.000000
#
# Coordination Sequence:
#
# PCOD9007738 Si02
#       7
#     2   2   2   2   2   2   2
#     4  10  21  39  63  93 125 161 208 254 308 368
#     4  11  23  38  65  91 122 167 209 253 305 364
#     4  10  23  41  60  93 128 161 204 255 316 367
#     4  10  23  41  63  91 128 162 203 258 311 366
#     4  11  22  40  63  92 123 161 212 253 302 368
#     4  12  22  44  66  89 123 168 212 256 304 368
#     4  10  21  39  62  94 124 161 203 258 309 364
#
# _framework density 23.544549
#
# number of rings (size 3 to 8) (size 9 to 14) (size 15 to 20)
#    0.000    1.429    4.286    2.143    2.000    5.143 
#    2.571    0.714    0.000    0.000    0.000    0.000 
#    0.000    0.000    0.000    0.000    0.000    0.000 
#
# Total GULP energy -78306.144494 kJ/mol
# GULP energy per Si atom -5593.296035 kJ/mol
# Density = 2.349096 g / cm^3
# Si number density = 23.544549 Si / 1000 Ang^3
#
#
#
# Elastic Constant Matrix: (Units=GPa)
#
#
# Indices 1 2 3 4 5 6 
#
# 1 76.0278 28.1119 12.2970 9.6300 -0.8375 16.4018
# 2 28.1119 141.5129 35.1654 33.1888 -1.7127 16.8477
# 3 12.2970 35.1654 145.7565 44.5333 -4.6464 0.2856
# 4 9.6300 33.1888 44.5333 28.1910 -3.2732 0.8646
# 5 -0.8375 -1.7127 -4.6464 -3.2732 18.5846 9.1727
# 6 16.4018 16.8477 0.2856 0.8646 9.1727 44.0287
#
#
#
# Elastic Compliance Matrix: (Units=1/GPa)
#
#
# Indices 1 2 3 4 5 6 
#
# 1 0.015374 -0.001691 0.000107 -0.002931 0.002816 -0.005610
# 2 -0.001691 0.010950 0.002391 -0.015945 0.000371 -0.003340
# 3 0.000107 0.002391 0.013809 -0.024703 -0.000442 -0.000467
# 4 -0.002931 -0.015945 -0.024703 0.094951 0.006951 0.004041
# 5 0.002816 0.000371 -0.000442 0.006951 0.062124 -0.014267
# 6 -0.005610 -0.003340 -0.000467 0.004041 -0.014267 0.028976
#
#
# Mechanical properties :
#
#
# Convention : Reuss Voigt Hill
#
# Bulk Modulus (GPa) = 23.95418 57.16064 40.55741
# Shear Modulus (GPa) = 20.96558 37.34239 29.15399
#
# Velocity S-wave (km/s) = 2.98730 3.98682 3.52269
# Velocity P-wave (km/s) = 4.70050 6.74710 5.81455
#
# Compressibility (1/GPa) = 0.04174636
#
# Stress axis : x y z
#
# Youngs Moduli (GPa) = 65.04660 91.32462 72.41572
#
# Poissons Ratio (x) = 0.15446 -0.00777
# Poissons Ratio (y) = 0.11002 -0.17314
# Poissons Ratio (z) = -0.00698 -0.21835
#
# Static dielectric constant tensor:
#      x y z
#    x 1.942070 0.020790 0.012470 
#    y 0.020790 1.902590 0.025120 
#    z 0.012470 0.025120 1.889560 
# 
# From -- ./inp_files/471689.got.cif
#   From: 2010.05.17/outbox.cif.g08.bks.cpg/sg2_236_cif.got.tgz:471689.got - 2010.06.03 11:33:40.
