data_PCOD9007579
_publ_section_title
;
Structure prediction by ZEFSAII (Michael W. Deem and Ramdas Pophale) SiO2 
 PCOD9007579
Probable space group: P -1
;
_chemical_formula_sum "Si O2"
_cell_formula_units_Z 14
_cell_length_a 15.911820
_cell_length_b 11.132205
_cell_length_c 16.500398
_cell_angle_alpha 38.762684
_cell_angle_beta 144.575068
_cell_angle_gamma 156.157951
_cell_volume 677.376708
_symmetry_space_group_name_H-M "P -1"
_symmetry_group_IT_number 2
_symmetry_cell_setting 'triclinic'
loop_
_space_group_symop_operation_xyz
x,y,z
-x,-y,-z
loop_
_atom_site_type_symbol
_atom_site_label
_atom_site_fract_x
_atom_site_fract_y
_atom_site_fract_z
Si Si1 0.445977 0.624232 0.334954
Si Si2 0.520334 0.778354 0.699365
Si Si3 0.104794 0.901914 0.659810
Si Si4 0.880181 0.448042 0.582632
Si Si5 0.499786 0.616390 0.022059
Si Si6 0.640583 0.175381 0.286773
Si Si7 0.037907 0.760868 0.870434
O O1 0.500000 0.500000 0.500000
O O2 0.198589 0.368384 0.236206
O O3 0.637619 0.835759 0.306506
O O4 0.474586 0.840047 0.301174
O O5 0.293184 0.567699 0.578174
O O6 0.575769 0.615401 0.848930
O O7 0.452869 0.824735 0.704564
O O8 0.727584 0.102084 0.650914
O O9 0.090390 0.842736 0.773760
O O10 0.971088 0.607271 0.657354
O O11 0.000000 0.000000 0.500000
O O12 0.105225 0.649594 0.599292
O O13 0.752635 0.942695 0.070676
O O14 0.500000 0.500000 0.000000
O O15 0.353770 0.656116 0.867531
O O16 0.000000 0.500000 0.000000
#
# Coordination Sequence:
#
# PCOD9007579 Si02
#       7
#     2   2   2   2   2   2   2
#     4  11  23  41  68  97 127 169 216 267 329 380
#     4  10  21  39  62  88 126 167 207 257 320 375
#     4  11  23  40  66  96 128 165 219 269 315 389
#     4  10  22  38  62  91 123 163 212 263 314 373
#     4  10  23  42  64  90 128 168 209 257 319 384
#     4  10  21  41  60  90 126 162 211 261 311 384
#     4  12  24  44  69  94 133 173 210 273 326 377
#
# _framework density 20.667967000000001
#
# number of rings (size 3 to 8) (size 9 to 14) (size 15 to 20)
#    0.000    1.429    2.857    2.143    4.000    1.143 
#    0.000    0.000    0.000    0.000    0.000    0.000 
#    0.000    0.000    0.000    0.000    0.000    0.000 
#
# Total GULP energy -78238.669443 kJ/mol
# GULP energy per Si atom -5588.476389 kJ/mol
# Density = 2.062093 g / cm^3
# Si number density = 20.667967 Si / 1000 Ang^3
#
#
#
# Elastic Constant Matrix: (Units=GPa)
#
#
# Indices 1 2 3 4 5 6 
#
# 1 55.7224 23.8204 0.6671 9.3715 -11.4957 -2.4385
# 2 23.8204 52.8233 0.0963 9.9464 -10.4408 -7.0487
# 3 0.6671 0.0963 95.7706 -11.1027 -13.7490 -9.6975
# 4 9.3715 9.9464 -11.1027 38.3161 -0.5738 3.6211
# 5 -11.4957 -10.4408 -13.7490 -0.5738 26.0322 -2.9163
# 6 -2.4385 -7.0487 -9.6975 3.6211 -2.9163 31.4988
#
#
#
# Elastic Compliance Matrix: (Units=1/GPa)
#
#
# Indices 1 2 3 4 5 6 
#
# 1 0.023709 -0.008395 0.000649 -0.003437 0.007510 0.001247
# 2 -0.008395 0.026175 0.001341 -0.004886 0.008169 0.006938
# 3 0.000649 0.001341 0.012356 0.002760 0.007923 0.004571
# 4 -0.003437 -0.004886 0.002760 0.029363 -0.001827 -0.004055
# 5 0.007510 0.008169 0.007923 -0.001827 0.050239 0.009710
# 6 0.001247 0.006938 0.004571 -0.004055 0.009710 0.036169
#
#
# Mechanical properties :
#
#
# Convention : Reuss Voigt Hill
#
# Bulk Modulus (GPa) = 20.23040 28.16489 24.19765
# Shear Modulus (GPa) = 24.12011 31.15158 27.63585
#
# Velocity S-wave (km/s) = 3.41989 3.88653 3.66065
# Velocity P-wave (km/s) = 5.04021 5.81352 5.44062
#
# Compressibility (1/GPa) = 0.04943055
#
# Stress axis : x y z
#
# Youngs Moduli (GPa) = 42.17849 38.20498 80.93214
#
# Poissons Ratio (x) = 0.32072 -0.05255
# Poissons Ratio (y) = 0.35407 -0.10853
# Poissons Ratio (z) = -0.02739 -0.05123
#
# Static dielectric constant tensor:
#      x y z
#    x 1.659170 0.009120 0.037770 
#    y 0.009120 1.721200 -0.009320 
#    z 0.037770 -0.009320 1.734600 
# 
# From -- ./inp_files/224311.got.cif
#   From: 2010.05.17/outbox.cif.g08.bks.cpg/sg2_113_cif.got.tgz:224311.got - 2010.06.03 11:33:40.
