data_PCOD9007452
_publ_section_title
;
Structure prediction by ZEFSAII (Michael W. Deem and Ramdas Pophale) SiO2 
 PCOD9007452
Probable space group: P -1
;
_chemical_formula_sum "Si O2"
_cell_formula_units_Z 16
_cell_length_a 8.945440
_cell_length_b 13.763001
_cell_length_c 14.254448
_cell_angle_alpha 136.859491
_cell_angle_beta 40.382348
_cell_angle_gamma 138.138760
_cell_volume 703.222314
_symmetry_space_group_name_H-M "P -1"
_symmetry_group_IT_number 2
_symmetry_cell_setting 'triclinic'
loop_
_space_group_symop_operation_xyz
x,y,z
-x,-y,-z
loop_
_atom_site_type_symbol
_atom_site_label
_atom_site_fract_x
_atom_site_fract_y
_atom_site_fract_z
Si Si1 0.938955 0.252789 0.029103
Si Si2 0.145001 0.619551 0.149703
Si Si3 0.249383 0.479003 0.333479
Si Si4 0.484436 0.340731 0.845305
Si Si5 0.546618 0.144409 0.978093
Si Si6 0.406092 0.863698 0.711558
Si Si7 0.405662 0.401942 0.573285
Si Si8 0.969646 0.877757 0.844813
O O1 0.815192 0.237475 0.179155
O O2 0.052844 0.432790 0.067846
O O3 0.710876 0.155420 0.999099
O O4 0.189059 0.219487 0.893608
O O5 0.334724 0.702043 0.203852
O O6 0.301783 0.689891 0.030447
O O7 0.887460 0.640419 0.297394
O O8 0.400523 0.610942 0.278369
O O9 0.418099 0.492166 0.353206
O O10 0.173398 0.310272 0.203797
O O11 0.000000 0.500000 0.500000
O O12 0.500000 0.500000 0.000000
O O13 0.557678 0.021482 0.809137
O O14 0.246574 0.105564 0.106426
O O15 0.554519 0.757197 0.551765
O O16 0.262012 0.895062 0.712495
O O17 0.500000 0.500000 0.500000
O O18 0.000000 0.000000 0.000000
#
# Coordination Sequence:
#
# PCOD9007452 Si02
#       8
#     2   2   2   2   2   2   2   2
#     4  11  20  39  64  90 128 166 230 267 324 380
#     4  11  21  38  63  90 126 167 212 275 322 388
#     4  12  22  39  68 100 131 175 222 272 334 389
#     4  10  22  39  66  96 128 167 224 278 327 381
#     4  11  23  38  64  95 127 168 226 267 333 385
#     4  11  23  41  60  94 131 178 205 281 325 394
#     4  12  24  41  64  93 137 168 227 268 331 394
#     4  10  21  39  61  94 129 168 213 266 323 390
#
# _framework density 22.752406000000001
#
# number of rings (size 3 to 8) (size 9 to 14) (size 15 to 20)
#    0.000    1.000    2.500    6.750    0.000    0.500 
#    0.000    0.000    0.000    1.500    0.000    0.000 
#    0.000    0.000    0.000    0.000    0.000    0.000 
#
# Total GULP energy -89349.286646 kJ/mol
# GULP energy per Si atom -5584.330415 kJ/mol
# Density = 2.270062 g / cm^3
# Si number density = 22.752406 Si / 1000 Ang^3
#
#
#
# Elastic Constant Matrix: (Units=GPa)
#
#
# Indices 1 2 3 4 5 6 
#
# 1 223.7241 41.8521 51.7422 -14.6366 -19.0146 41.2047
# 2 41.8521 81.8537 23.8003 0.6621 -4.0941 16.9493
# 3 51.7422 23.8003 81.9833 -7.8266 -28.8217 13.2165
# 4 -14.6366 0.6621 -7.8266 45.6032 -0.2403 -2.0789
# 5 -19.0146 -4.0941 -28.8217 -0.2403 45.0717 -10.0654
# 6 41.2047 16.9493 13.2165 -2.0789 -10.0654 48.4015
#
#
#
# Elastic Compliance Matrix: (Units=1/GPa)
#
#
# Indices 1 2 3 4 5 6 
#
# 1 0.006203 -0.001573 -0.002746 0.001361 -0.000158 -0.003954
# 2 -0.001573 0.014697 -0.003752 -0.001529 -0.002488 -0.003366
# 3 -0.002746 -0.003752 0.018922 0.002516 0.010802 0.000839
# 4 0.001361 -0.001529 0.002516 0.022837 0.002194 0.000127
# 5 -0.000158 -0.002488 0.010802 0.002194 0.029783 0.004344
# 6 -0.003954 -0.003366 0.000839 0.000127 0.004344 0.025885
#
#
# Mechanical properties :
#
#
# Convention : Reuss Voigt Hill
#
# Bulk Modulus (GPa) = 42.22951 69.15002 55.68976
# Shear Modulus (GPa) = 35.12138 45.82637 40.47388
#
# Velocity S-wave (km/s) = 3.93317 4.49278 4.22226
# Velocity P-wave (km/s) = 6.26316 7.57442 6.94978
#
# Compressibility (1/GPa) = 0.02368013
#
# Stress axis : x y z
#
# Youngs Moduli (GPa) = 161.20662 68.04073 52.84773
#
# Poissons Ratio (x) = 0.10704 0.14514
# Poissons Ratio (y) = 0.25362 0.19826
# Poissons Ratio (z) = 0.44274 0.25526
#
# Static dielectric constant tensor:
#      x y z
#    x 1.928620 -0.018960 -0.048630 
#    y -0.018960 1.895060 0.029430 
#    z -0.048630 0.029430 1.823120 
# 
# From -- ./inp_files/205164.got.cif
#   From: 2010.05.17/outbox.cif.g08.bks.cpg/sg2_103_cif.got.tgz:205164.got - 2010.06.03 11:33:40.
