data_PCOD9007432
_publ_section_title
;
Structure prediction by ZEFSAII (Michael W. Deem and Ramdas Pophale) SiO2 
 PCOD9007432
Probable space group: P -1
;
_chemical_formula_sum "Si O2"
_cell_formula_units_Z 16
_cell_length_a 10.997659
_cell_length_b 13.636078
_cell_length_c 12.589253
_cell_angle_alpha 149.454588
_cell_angle_beta 62.512552
_cell_angle_gamma 128.612541
_cell_volume 735.914063
_symmetry_space_group_name_H-M "P -1"
_symmetry_group_IT_number 2
_symmetry_cell_setting 'triclinic'
loop_
_space_group_symop_operation_xyz
x,y,z
-x,-y,-z
loop_
_atom_site_type_symbol
_atom_site_label
_atom_site_fract_x
_atom_site_fract_y
_atom_site_fract_z
Si Si1 0.113081 0.665484 0.797183
Si Si2 0.919216 0.891701 0.040577
Si Si3 0.997872 0.993678 0.335718
Si Si4 0.707752 0.486105 0.968390
Si Si5 0.318964 0.142087 0.253759
Si Si6 0.586778 0.545728 0.848814
Si Si7 0.949610 0.363342 0.783804
Si Si8 0.351055 0.565981 0.507097
O O1 0.192431 0.577206 0.599964
O O2 0.964588 0.696234 0.854484
O O3 0.061199 0.516841 0.785910
O O4 0.249224 0.916836 0.004635
O O5 0.733546 0.796558 0.017262
O O6 0.977365 0.038257 0.260363
O O7 0.000000 0.000000 0.000000
O O8 0.961086 0.141750 0.567235
O O9 0.183504 0.069802 0.332660
O O10 0.864061 0.732394 0.150960
O O11 0.579382 0.463423 0.084329
O O12 0.624403 0.462248 0.866015
O O13 0.772927 0.316756 0.791197
O O14 0.327926 0.341632 0.364389
O O15 0.493927 0.233065 0.312586
O O16 0.605198 0.431708 0.630755
O O17 0.000000 0.500000 0.000000
#
# Coordination Sequence:
#
# PCOD9007432 Si02
#       8
#     2   2   2   2   2   2   2   2
#     4  11  22  42  61  95 128 160 216 271 304 383
#     4  10  21  41  69  94 127 168 205 263 323 380
#     4  10  21  42  63  90 125 167 215 257 310 374
#     4  10  23  45  61  88 135 161 213 270 297 385
#     4  10  21  39  61  92 135 160 210 260 318 376
#     4  10  21  40  65  91 125 174 203 253 330 365
#     4  12  25  39  66  94 122 171 217 260 313 374
#     4  11  23  36  66  95 127 170 204 265 323 376
#
# _framework density 21.741669999999999
#
# number of rings (size 3 to 8) (size 9 to 14) (size 15 to 20)
#    0.000    1.500    5.000    1.875    1.750    3.000 
#    0.000    9.375    0.000    0.000    0.000    0.000 
#    0.000    0.000    0.000    0.000    0.000    0.000 
#
# Total GULP energy -89321.667033 kJ/mol
# GULP energy per Si atom -5582.604190 kJ/mol
# Density = 2.169219 g / cm^3
# Si number density = 21.741670 Si / 1000 Ang^3
#
#
#
# Elastic Constant Matrix: (Units=GPa)
#
#
# Indices 1 2 3 4 5 6 
#
# 1 63.9485 27.4888 19.5294 -6.0843 -16.5069 20.8121
# 2 27.4888 90.5615 18.6432 -19.7705 -8.5788 21.2875
# 3 19.5294 18.6432 78.2947 -25.4007 -21.8025 4.2618
# 4 -6.0843 -19.7705 -25.4007 43.3683 9.6633 -3.6967
# 5 -16.5069 -8.5788 -21.8025 9.6633 33.4419 -4.3320
# 6 20.8121 21.2875 4.2618 -3.6967 -4.3320 33.5061
#
#
#
# Elastic Compliance Matrix: (Units=1/GPa)
#
#
# Indices 1 2 3 4 5 6 
#
# 1 0.023660 -0.003803 -0.003103 -0.002988 0.008097 -0.011168
# 2 -0.003803 0.015016 -0.000742 0.005529 -0.000961 -0.006598
# 3 -0.003103 -0.000742 0.018667 0.008493 0.008257 0.002029
# 4 -0.002988 0.005529 0.008493 0.030917 -0.003423 0.000231
# 5 0.008097 -0.000961 0.008257 -0.003423 0.039936 -0.000683
# 6 -0.011168 -0.006598 0.002029 0.000231 -0.000683 0.040653
#
#
# Mechanical properties :
#
#
# Convention : Reuss Voigt Hill
#
# Bulk Modulus (GPa) = 23.78191 40.45859 32.12025
# Shear Modulus (GPa) = 25.23198 33.20616 29.21907
#
# Velocity S-wave (km/s) = 3.41036 3.91231 3.66993
# Velocity P-wave (km/s) = 5.14486 6.24960 5.72394
#
# Compressibility (1/GPa) = 0.04204876
#
# Stress axis : x y z
#
# Youngs Moduli (GPa) = 42.26455 66.59452 53.57055
#
# Poissons Ratio (x) = 0.25326 0.16622
# Poissons Ratio (y) = 0.16073 0.03973
# Poissons Ratio (z) = 0.13114 0.04939
#
# Static dielectric constant tensor:
#      x y z
#    x 1.819370 -0.025990 0.008200 
#    y -0.025990 1.826090 0.007480 
#    z 0.008200 0.007480 1.799050 
# 
# From -- ./inp_files/433482.got.cif
#   From: 2010.05.17/outbox.cif.g08.bks.cpg/sg2_217_cif.got.tgz:433482.got - 2010.06.03 11:33:40.
