data_PCOD9007239
_publ_section_title
;
Structure prediction by ZEFSAII (Michael W. Deem and Ramdas Pophale) SiO2 
 PCOD9007239
Probable space group: P -1
;
_chemical_formula_sum "Si O2"
_cell_formula_units_Z 16
_cell_length_a 14.113947
_cell_length_b 9.199009
_cell_length_c 21.242354
_cell_angle_alpha 110.095598
_cell_angle_beta 21.345456
_cell_angle_gamma 119.919497
_cell_volume 803.571529
_symmetry_space_group_name_H-M "P -1"
_symmetry_group_IT_number 2
_symmetry_cell_setting 'triclinic'
loop_
_space_group_symop_operation_xyz
x,y,z
-x,-y,-z
loop_
_atom_site_type_symbol
_atom_site_label
_atom_site_fract_x
_atom_site_fract_y
_atom_site_fract_z
Si Si1 0.197536 0.095191 0.329415
Si Si2 0.873286 0.388762 0.716071
Si Si3 0.638396 0.864688 0.202767
Si Si4 0.753374 0.216375 0.441119
Si Si5 0.136415 0.867580 0.217913
Si Si6 0.792790 0.884089 0.315414
Si Si7 0.753614 0.537270 0.625090
Si Si8 0.616235 0.967109 0.097988
O O1 0.254546 0.294910 0.316032
O O2 0.060061 0.973612 0.333970
O O3 0.499421 0.088447 0.156890
O O4 0.000000 0.000000 0.500000
O O5 0.908139 0.311475 0.748415
O O6 0.557766 0.228224 0.858393
O O7 0.939427 0.590564 0.709334
O O8 0.128798 0.408915 0.511312
O O9 0.446697 0.851911 0.381189
O O10 0.554562 0.658218 0.212209
O O11 0.528206 0.926770 0.219274
O O12 0.000000 0.000000 0.000000
O O13 0.544056 0.241223 0.522898
O O14 0.810095 0.064418 0.357291
O O15 0.927440 0.824313 0.279830
O O16 0.500000 0.000000 0.000000
O O17 0.027447 0.938832 0.120679
O O18 0.000000 0.500000 0.500000
#
# Coordination Sequence:
#
# PCOD9007239 Si02
#       8
#     2   2   2   2   2   2   2   2
#     4  11  21  38  62  94 122 157 204 257 312 357
#     4  10  21  39  60  94 117 157 206 250 305 361
#     4  11  22  40  65  88 123 162 201 258 311 356
#     4  10  25  40  63  88 124 167 204 251 309 365
#     4  11  22  39  62  90 123 162 201 250 307 359
#     4  11  23  42  59  89 126 166 205 245 310 368
#     4  11  21  37  63  95 118 151 204 255 304 367
#     4  11  21  40  63  90 127 156 205 263 299 367
#
# _framework density 19.911109
#
# number of rings (size 3 to 8) (size 9 to 14) (size 15 to 20)
#    0.000    1.250    7.500    0.000    5.250    1.000 
#    2.250    0.625    2.750    0.000    0.000    0.000 
#    0.000    0.000    0.000    0.000    0.000    0.000 
#
# Total GULP energy -89283.852655 kJ/mol
# GULP energy per Si atom -5580.240791 kJ/mol
# Density = 1.986579 g / cm^3
# Si number density = 19.911109 Si / 1000 Ang^3
#
#
#
# Elastic Constant Matrix: (Units=GPa)
#
#
# Indices 1 2 3 4 5 6 
#
# 1 108.4429 -6.6955 4.0494 4.8245 7.9038 -18.8996
# 2 -6.6955 77.2185 17.4872 -7.9972 7.3551 0.3739
# 3 4.0494 17.4872 54.7533 -8.9590 0.7760 -9.0121
# 4 4.8245 -7.9972 -8.9590 26.4738 3.8695 5.3029
# 5 7.9038 7.3551 0.7760 3.8695 31.4388 1.2476
# 6 -18.8996 0.3739 -9.0121 5.3029 1.2476 25.9969
#
#
#
# Elastic Compliance Matrix: (Units=1/GPa)
#
#
# Indices 1 2 3 4 5 6 
#
# 1 0.011184 0.000916 -0.000134 -0.003144 -0.002987 0.008856
# 2 0.000916 0.014798 -0.004398 0.003725 -0.003977 -0.001640
# 3 -0.000134 -0.004398 0.021522 0.004727 -0.000307 0.006477
# 4 -0.003144 0.003725 0.004727 0.043708 -0.005205 -0.009367
# 5 -0.002987 -0.003977 -0.000307 -0.005205 0.034249 -0.002803
# 6 0.008856 -0.001640 0.006477 -0.009367 -0.002803 0.049218
#
#
# Mechanical properties :
#
#
# Convention : Reuss Voigt Hill
#
# Bulk Modulus (GPa) = 24.83116 30.01076 27.42096
# Shear Modulus (GPa) = 25.59687 31.82012 28.70850
#
# Velocity S-wave (km/s) = 3.58936 4.00197 3.80127
# Velocity P-wave (km/s) = 5.44757 6.03817 5.75046
#
# Compressibility (1/GPa) = 0.04027198
#
# Stress axis : x y z
#
# Youngs Moduli (GPa) = 89.41337 67.57541 46.46350
#
# Poissons Ratio (x) = -0.06191 0.00624
# Poissons Ratio (y) = -0.08192 0.20436
# Poissons Ratio (z) = 0.01200 0.29721
#
# Static dielectric constant tensor:
#      x y z
#    x 1.754740 0.004040 -0.006530 
#    y 0.004040 1.701180 0.002690 
#    z -0.006530 0.002690 1.704320 
# 
# From -- ./inp_files/399035.got.cif
#   From: 2010.05.17/outbox.cif.g08.bks.cpg/sg2_200_cif.got.tgz:399035.got - 2010.06.03 11:33:40.
