data_PCOD9007203
_publ_section_title
;
Structure prediction by ZEFSAII (Michael W. Deem and Ramdas Pophale) SiO2 
 PCOD9007203
Probable space group: P -1
;
_chemical_formula_sum "Si O2"
_cell_formula_units_Z 14
_cell_length_a 19.172398
_cell_length_b 7.849647
_cell_length_c 6.579295
_cell_angle_alpha 76.859852
_cell_angle_beta 93.514407
_cell_angle_gamma 135.098852
_cell_volume 673.439318
_symmetry_space_group_name_H-M "P -1"
_symmetry_group_IT_number 2
_symmetry_cell_setting 'triclinic'
loop_
_space_group_symop_operation_xyz
x,y,z
-x,-y,-z
loop_
_atom_site_type_symbol
_atom_site_label
_atom_site_fract_x
_atom_site_fract_y
_atom_site_fract_z
Si Si1 0.947498 0.670730 0.526137
Si Si2 0.562684 0.533635 0.814423
Si Si3 0.072324 0.750236 0.188953
Si Si4 0.937439 0.743137 0.939515
Si Si5 0.277596 0.234789 0.894293
Si Si6 0.379789 0.127127 0.646867
Si Si7 0.234162 0.541591 0.738272
O O1 0.918365 0.428703 0.680327
O O2 0.962708 0.807774 0.693206
O O3 0.854721 0.570149 0.403415
O O4 0.045640 0.812362 0.370742
O O5 0.484744 0.278055 0.740342
O O6 0.597722 0.741000 0.600990
O O7 0.500000 0.500000 0.000000
O O8 0.656761 0.625403 0.926470
O O9 0.976772 0.627928 0.065162
O O10 0.168282 0.982089 0.018763
O O11 0.822590 0.560130 0.026163
O O12 0.000000 0.000000 0.000000
O O13 0.322143 0.166118 0.769838
O O14 0.273348 0.416879 0.739309
O O15 0.315910 0.839298 0.678157
#
# Coordination Sequence:
#
# PCOD9007203 Si02
#       7
#     2   2   2   2   2   2   2
#     4  10  23  39  61  86 127 172 210 260 308 361
#     4   9  21  43  68  91 124 162 202 260 318 377
#     4  10  21  39  60  90 121 170 214 252 309 367
#     4  11  22  41  58  89 130 165 211 256 302 363
#     4  11  22  40  64  95 126 163 211 256 312 373
#     4  10  22  43  67  91 126 163 204 259 319 374
#     4  11  24  40  61  98 125 164 214 255 308 371
#
# _framework density 20.788806999999998
#
# number of rings (size 3 to 8) (size 9 to 14) (size 15 to 20)
#    0.000    1.714    1.429    2.143    0.000    8.571 
#    2.571    6.429    0.000    0.000    0.000    0.000 
#    0.000    0.000    0.000    0.000    0.000    0.000 
#
# Total GULP energy -78163.525552 kJ/mol
# GULP energy per Si atom -5583.108968 kJ/mol
# Density = 2.074149 g / cm^3
# Si number density = 20.788807 Si / 1000 Ang^3
#
#
#
# Elastic Constant Matrix: (Units=GPa)
#
#
# Indices 1 2 3 4 5 6 
#
# 1 51.4047 15.6685 1.2936 3.2440 16.2081 -15.8121
# 2 15.6685 90.6793 24.6952 -13.9027 -7.6075 -11.0681
# 3 1.2936 24.6952 119.4817 4.1237 -7.2607 -9.1358
# 4 3.2440 -13.9027 4.1237 34.6460 2.5941 1.2963
# 5 16.2081 -7.6075 -7.2607 2.5941 33.5329 -1.2859
# 6 -15.8121 -11.0681 -9.1358 1.2963 -1.2859 31.6266
#
#
#
# Elastic Compliance Matrix: (Units=1/GPa)
#
#
# Indices 1 2 3 4 5 6 
#
# 1 0.030176 -0.005912 0.001147 -0.004709 -0.014818 0.012940
# 2 -0.005912 0.014312 -0.002705 0.006192 0.005087 0.001224
# 3 0.001147 -0.002705 0.009257 -0.002470 0.001121 0.002447
# 4 -0.004709 0.006192 -0.002470 0.032122 0.000577 -0.002194
# 5 -0.014818 0.005087 0.001121 0.000577 0.038191 -0.003775
# 6 0.012940 0.001224 0.002447 -0.002194 -0.003775 0.039160
#
#
# Mechanical properties :
#
#
# Convention : Reuss Voigt Hill
#
# Bulk Modulus (GPa) = 25.77073 38.32003 32.04538
# Shear Modulus (GPa) = 26.16519 34.62167 30.39343
#
# Velocity S-wave (km/s) = 3.55155 4.08536 3.82777
# Velocity P-wave (km/s) = 5.40753 6.38174 5.91472
#
# Compressibility (1/GPa) = 0.03880371
#
# Stress axis : x y z
#
# Youngs Moduli (GPa) = 33.13846 69.87335 108.03020
#
# Poissons Ratio (x) = 0.41311 -0.12388
# Poissons Ratio (y) = 0.19592 0.29222
# Poissons Ratio (z) = -0.03800 0.18901
#
# Static dielectric constant tensor:
#      x y z
#    x 1.796400 -0.028400 0.002260 
#    y -0.028400 1.763520 0.013780 
#    z 0.002260 0.013780 1.771170 
# 
# From -- ./inp_files/91166.got.cif
#   From: 2010.05.17/outbox.cif.g08.bks.cpg/sg2_46_cif.got.tgz:91166.got - 2010.06.03 11:33:40.
