data_PCOD9007221
_publ_section_title
;
Structure prediction by ZEFSAII (Michael W. Deem and Ramdas Pophale) SiO2 
 PCOD9007221
Probable space group: P -1
;
_chemical_formula_sum "Si O2"
_cell_formula_units_Z 16
_cell_length_a 6.697223
_cell_length_b 11.617444
_cell_length_c 10.827360
_cell_angle_alpha 131.551846
_cell_angle_beta 100.471651
_cell_angle_gamma 93.130398
_cell_volume 602.111325
_symmetry_space_group_name_H-M "P -1"
_symmetry_group_IT_number 2
_symmetry_cell_setting 'triclinic'
loop_
_space_group_symop_operation_xyz
x,y,z
-x,-y,-z
loop_
_atom_site_type_symbol
_atom_site_label
_atom_site_fract_x
_atom_site_fract_y
_atom_site_fract_z
Si Si1 0.846316 0.664082 0.842188
Si Si2 0.026762 0.139989 0.774107
Si Si3 0.608608 0.325602 0.596639
Si Si4 0.585990 0.240758 0.814512
Si Si5 0.051197 0.222150 0.559159
Si Si6 0.205071 0.834340 0.863152
Si Si7 0.737202 0.444044 0.198038
Si Si8 0.492129 0.958608 0.764505
O O1 0.957578 0.769968 0.814016
O O2 0.034855 0.579929 0.837164
O O3 0.653967 0.512164 0.701918
O O4 0.837145 0.780758 0.037117
O O5 0.810162 0.195056 0.800241
O O6 0.113758 0.211149 0.702261
O O7 0.966420 0.950352 0.621737
O O8 0.552585 0.294016 0.711390
O O9 0.825437 0.265005 0.560823
O O10 0.467293 0.200042 0.400729
O O11 0.448672 0.075419 0.735279
O O12 0.596733 0.375970 0.015862
O O13 0.212948 0.374431 0.629667
O O14 0.302482 0.680468 0.782934
O O15 0.301295 0.916283 0.808950
O O16 0.309134 0.946576 0.067258
#
# Coordination Sequence:
#
# PCOD9007221 Si02
#       8
#     2   2   2   2   2   2   2   2
#     4   8  15  29  44  69  84 116 146 189 212 254
#     4   9  15  26  45  64  94 119 147 176 216 271
#     4  10  18  26  46  73  95 106 143 191 232 251
#     4   9  16  28  45  69  92 117 143 181 225 262
#     4   9  16  25  42  71  91 116 145 183 221 259
#     4   8  17  30  47  65  86 119 155 177 217 259
#     4   7  13  27  43  64  85 109 149 181 205 254
#     4  10  17  29  45  70  90 117 145 187 217 268
#
# _framework density 26.573160999999999
#
# number of rings (size 3 to 8) (size 9 to 14) (size 15 to 20)
#    0.750    2.500    1.250    1.125    0.000    3.500 
#    0.000    0.000    0.000    4.500    0.000   14.875 
#    0.000    0.000    0.000    0.000    0.000    0.000 
#
# Total GULP energy -89437.403767 kJ/mol
# GULP energy per Si atom -5589.837735 kJ/mol
# Density = 2.651268 g / cm^3
# Si number density = 26.573161 Si / 1000 Ang^3
#
#
#
# Elastic Constant Matrix: (Units=GPa)
#
#
# Indices 1 2 3 4 5 6 
#
# 1 71.2344 40.6882 16.4222 5.7030 -11.2679 1.3116
# 2 40.6882 117.7646 44.2918 33.1501 18.8950 34.7662
# 3 16.4222 44.2918 103.4704 44.7156 -11.8682 6.4329
# 4 5.7030 33.1501 44.7156 43.0187 -1.7927 3.2825
# 5 -11.2679 18.8950 -11.8682 -1.7927 29.6262 13.6828
# 6 1.3116 34.7662 6.4329 3.2825 13.6828 44.3374
#
#
#
# Elastic Compliance Matrix: (Units=1/GPa)
#
#
# Indices 1 2 3 4 5 6 
#
# 1 0.024837 -0.015658 0.000987 0.008089 0.017877 0.005284
# 2 -0.015658 0.026063 -0.004370 -0.013333 -0.019428 -0.012357
# 3 0.000987 -0.004370 0.020127 -0.017104 0.010945 -0.001634
# 4 0.008089 -0.013333 -0.017104 0.049811 0.004177 0.007720
# 5 0.017877 -0.019428 0.010945 0.004177 0.060254 -0.005787
# 6 0.005284 -0.012357 -0.001634 0.007720 -0.005787 0.033539
#
#
# Mechanical properties :
#
#
# Convention : Reuss Voigt Hill
#
# Bulk Modulus (GPa) = 30.35313 55.03041 42.69177
# Shear Modulus (GPa) = 18.96131 36.13426 27.54779
#
# Velocity S-wave (km/s) = 2.67414 3.69155 3.22324
# Velocity P-wave (km/s) = 4.58061 6.23891 5.47293
#
# Compressibility (1/GPa) = 0.03294553
#
# Stress axis : x y z
#
# Youngs Moduli (GPa) = 40.26241 38.36828 49.68438
#
# Poissons Ratio (x) = 0.60076 -0.04902
# Poissons Ratio (y) = 0.63042 0.21711
# Poissons Ratio (z) = -0.03972 0.16766
#
# Static dielectric constant tensor:
#      x y z
#    x 2.246010 0.041340 0.002850 
#    y 0.041340 2.057950 0.048880 
#    z 0.002850 0.048880 2.037190 
# 
# From -- ./inp_files/431939.got.cif
#   From: 2010.05.17/outbox.cif.g08.bks.cpg/sg2_216_cif.got.tgz:431939.got - 2010.06.03 11:33:40.
