data_PCOD9007550
_publ_section_title
;
Structure prediction by ZEFSAII (Michael W. Deem and Ramdas Pophale) SiO2 
 PCOD9007550
Probable space group: P -1
;
_chemical_formula_sum "Si O2"
_cell_formula_units_Z 16
_cell_length_a 15.008747
_cell_length_b 14.626003
_cell_length_c 13.962975
_cell_angle_alpha 136.103141
_cell_angle_beta 133.329517
_cell_angle_gamma 18.935406
_cell_volume 689.501044
_symmetry_space_group_name_H-M "P -1"
_symmetry_group_IT_number 2
_symmetry_cell_setting 'triclinic'
loop_
_space_group_symop_operation_xyz
x,y,z
-x,-y,-z
loop_
_atom_site_type_symbol
_atom_site_label
_atom_site_fract_x
_atom_site_fract_y
_atom_site_fract_z
Si Si1 0.628320 0.264372 0.852259
Si Si2 0.043431 0.686256 0.510976
Si Si3 0.138309 0.311775 0.224030
Si Si4 0.418818 0.869613 0.793697
Si Si5 0.351341 0.221779 0.916826
Si Si6 0.133130 0.755798 0.351205
Si Si7 0.579954 0.327323 0.642990
Si Si8 0.093371 0.627233 0.726153
O O1 0.635891 0.303085 0.777276
O O2 0.415303 0.346911 0.759367
O O3 0.923269 0.925896 0.844377
O O4 0.500000 0.500000 0.000000
O O5 0.029213 0.657029 0.590347
O O6 0.127959 0.478540 0.356494
O O7 0.264234 0.591677 0.597742
O O8 0.756590 0.025323 0.523278
O O9 0.013297 0.370433 0.272028
O O10 0.948462 0.460636 0.105206
O O11 0.438997 0.971249 0.162940
O O12 0.639864 0.559618 0.672298
O O13 0.371317 0.052445 0.841745
O O14 0.554735 0.776966 0.925819
O O15 0.127322 0.079171 0.748717
O O16 0.308550 0.661461 0.328720
O O17 0.000000 0.000000 0.500000
#
# Coordination Sequence:
#
# PCOD9007550 Si02
#       8
#     2   2   2   2   2   2   2   2
#     4  10  21  39  62  87 128 172 206 259 319 387
#     4  10  22  40  63  90 139 163 205 268 321 385
#     4  12  23  39  69  98 122 172 224 257 321 392
#     4  11  26  49  64  95 139 164 218 280 329 386
#     4  11  26  44  69  95 128 180 213 270 337 382
#     4  12  26  42  72  99 129 171 222 274 328 388
#     4  10  23  40  60  95 126 171 212 258 334 380
#     4  10  22  39  59  96 128 162 212 263 316 378
#
# _framework density 23.205183999999999
#
# number of rings (size 3 to 8) (size 9 to 14) (size 15 to 20)
#    0.000    1.250    0.000    4.875    5.250    5.000 
#    0.000    5.000    0.000    0.000    0.000    0.000 
#    0.000    0.000    0.000    0.000    0.000    0.000 
#
# Total GULP energy -89624.721158 kJ/mol
# GULP energy per Si atom -5601.545072 kJ/mol
# Density = 2.315237 g / cm^3
# Si number density = 23.205184 Si / 1000 Ang^3
#
#
#
# Elastic Constant Matrix: (Units=GPa)
#
#
# Indices 1 2 3 4 5 6 
#
# 1 142.3456 0.0211 29.8015 -12.5909 2.5364 -11.4376
# 2 0.0211 73.5971 14.4131 -2.6029 -6.2520 -10.6774
# 3 29.8015 14.4131 55.3027 -0.3140 3.5671 -5.1318
# 4 -12.5909 -2.6029 -0.3140 33.7391 -10.2796 -1.7046
# 5 2.5364 -6.2520 3.5671 -10.2796 9.4669 -3.6042
# 6 -11.4376 -10.6774 -5.1318 -1.7046 -3.6042 25.8035
#
#
#
# Elastic Compliance Matrix: (Units=1/GPa)
#
#
# Indices 1 2 3 4 5 6 
#
# 1 0.009377 0.003711 -0.006229 0.008343 0.013994 0.006958
# 2 0.003711 0.021369 -0.008589 0.015664 0.039183 0.015287
# 3 -0.006229 -0.008589 0.024878 -0.011731 -0.028443 -0.006115
# 4 0.008343 0.015664 -0.011731 0.062386 0.089592 0.024482
# 5 0.013994 0.039183 -0.028443 0.089592 0.258121 0.058732
# 6 0.006958 0.015287 -0.006115 0.024482 0.058732 0.056769
#
#
# Mechanical properties :
#
#
# Convention : Reuss Voigt Hill
#
# Bulk Modulus (GPa) = 29.93244 39.96852 34.95048
# Shear Modulus (GPa) = 10.72386 28.93587 19.82986
#
# Velocity S-wave (km/s) = 2.15206 3.53506 2.92643
# Velocity P-wave (km/s) = 4.37060 5.82439 5.14906
#
# Compressibility (1/GPa) = 0.03340857
#
# Stress axis : x y z
#
# Youngs Moduli (GPa) = 106.64956 46.79734 40.19597
#
# Poissons Ratio (x) = -0.17365 0.25040
# Poissons Ratio (y) = -0.39573 0.34523
# Poissons Ratio (z) = 0.66436 0.40192
#
# Static dielectric constant tensor:
#      x y z
#    x 1.854320 0.003610 -0.009120 
#    y 0.003610 1.823650 0.010560 
#    z -0.009120 0.010560 1.860220 
# 
# From -- ./inp_files/534247.got.cif
#   From: 2010.05.17/outbox.cif.g08.bks.cpg/sg2_268_cif.got.tgz:534247.got - 2010.06.03 11:33:40.
