data_PCOD9007450
_publ_section_title
;
Structure prediction by ZEFSAII (Michael W. Deem and Ramdas Pophale) SiO2 
 PCOD9007450
Probable space group: P -1
;
_chemical_formula_sum "Si O2"
_cell_formula_units_Z 16
_cell_length_a 20.715974
_cell_length_b 5.201373
_cell_length_c 8.078353
_cell_angle_alpha 121.910880
_cell_angle_beta 117.301923
_cell_angle_gamma 80.505595
_cell_volume 653.116189
_symmetry_space_group_name_H-M "P -1"
_symmetry_group_IT_number 2
_symmetry_cell_setting 'triclinic'
loop_
_space_group_symop_operation_xyz
x,y,z
-x,-y,-z
loop_
_atom_site_type_symbol
_atom_site_label
_atom_site_fract_x
_atom_site_fract_y
_atom_site_fract_z
Si Si1 0.856809 0.266070 0.105317
Si Si2 0.560278 0.108777 0.872217
Si Si3 0.472074 0.533982 0.713153
Si Si4 0.063631 0.788184 0.517533
Si Si5 0.922621 0.799594 0.834348
Si Si6 0.671780 0.834018 0.725223
Si Si7 0.180225 0.169165 0.596848
Si Si8 0.760183 0.272581 0.715888
O O1 0.927431 0.347025 0.333436
O O2 0.801746 0.476163 0.210101
O O3 0.838243 0.356792 0.926742
O O4 0.871993 0.917861 0.959417
O O5 0.534111 0.322359 0.769356
O O6 0.505070 0.800759 0.721072
O O7 0.640613 0.014312 0.902489
O O8 0.552888 0.294131 0.094491
O O9 0.401994 0.326844 0.497143
O O10 0.060130 0.546999 0.282119
O O11 0.139393 0.000789 0.646730
O O12 0.000000 0.000000 0.500000
O O13 0.876816 0.829869 0.621989
O O14 0.000000 0.000000 0.000000
O O15 0.720575 0.569075 0.738298
O O16 0.715364 0.062501 0.727993
O O17 0.235998 0.945178 0.513821
#
# Coordination Sequence:
#
# PCOD9007450 Si02
#       8
#     2   2   2   2   2   2   2   2
#     4  10  24  42  62  88 128 174 216 277 335 399
#     4  10  21  39  67 100 133 174 214 276 340 382
#     4  10  21  39  67  98 138 168 216 280 334 383
#     4  11  23  39  70  99 123 168 219 282 351 407
#     4  10  21  39  61  94 127 153 211 270 340 410
#     4  12  24  42  66  99 130 182 228 270 323 404
#     4  10  24  42  62  88 128 173 217 274 338 398
#     4  11  28  42  66  92 137 182 232 270 332 397
#
# _framework density 24.497938999999999
#
# number of rings (size 3 to 8) (size 9 to 14) (size 15 to 20)
#    0.000    1.500    0.000    3.750    7.000    7.000 
#    0.000    0.000    0.000    0.000    0.000    0.000 
#    0.000    0.000    0.000    0.000    0.000    0.000 
#
# Total GULP energy -89268.517438 kJ/mol
# GULP energy per Si atom -5579.282340 kJ/mol
# Density = 2.444218 g / cm^3
# Si number density = 24.497939 Si / 1000 Ang^3
#
#
#
# Elastic Constant Matrix: (Units=GPa)
#
#
# Indices 1 2 3 4 5 6 
#
# 1 98.1538 69.2119 31.8074 22.4427 -26.2418 -16.1614
# 2 69.2119 143.9668 37.9702 31.3747 -23.5531 -25.1728
# 3 31.8074 37.9702 120.7854 25.8464 -26.7530 -13.5853
# 4 22.4427 31.3747 25.8464 35.3683 -13.2593 -8.9533
# 5 -26.2418 -23.5531 -26.7530 -13.2593 39.5340 18.2540
# 6 -16.1614 -25.1728 -13.5853 -8.9533 18.2540 50.2584
#
#
#
# Elastic Compliance Matrix: (Units=1/GPa)
#
#
# Indices 1 2 3 4 5 6 
#
# 1 0.017280 -0.006702 -0.000557 -0.002304 0.006693 -0.000792
# 2 -0.006702 0.011890 -0.000709 -0.005406 -0.001057 0.003029
# 3 -0.000557 -0.000709 0.010809 -0.005144 0.004947 -0.000326
# 4 -0.002304 -0.005406 -0.005144 0.040314 0.005056 0.000506
# 5 0.006693 -0.001057 0.004947 0.005056 0.038891 -0.010264
# 6 -0.000792 0.003029 -0.000326 0.000506 -0.010264 0.024890
#
#
# Mechanical properties :
#
#
# Convention : Reuss Voigt Hill
#
# Bulk Modulus (GPa) = 41.59458 71.20942 56.40200
# Shear Modulus (GPa) = 29.75756 39.95991 34.85874
#
# Velocity S-wave (km/s) = 3.48903 4.04314 3.77626
# Velocity P-wave (km/s) = 5.76600 7.13628 6.48742
#
# Compressibility (1/GPa) = 0.02404159
#
# Stress axis : x y z
#
# Youngs Moduli (GPa) = 57.86935 84.10492 92.51818
#
# Poissons Ratio (x) = 0.56366 0.05156
# Poissons Ratio (y) = 0.38783 0.06564
# Poissons Ratio (z) = 0.03225 0.05967
#
# Static dielectric constant tensor:
#      x y z
#    x 2.004190 0.021380 0.003560 
#    y 0.021380 1.972650 0.038910 
#    z 0.003560 0.038910 1.979030 
# 
# From -- ./inp_files/350879.got.cif
#   From: 2010.05.17/outbox.cif.g08.bks.cpg/sg2_176_cif.got.tgz:350879.got - 2010.06.03 11:33:40.
