data_PCOD9007749
_publ_section_title
;
Structure prediction by ZEFSAII (Michael W. Deem and Ramdas Pophale) SiO2 
 PCOD9007749
Probable space group: P -1
;
_chemical_formula_sum "Si O2"
_cell_formula_units_Z 16
_cell_length_a 13.882053
_cell_length_b 9.230391
_cell_length_c 11.985431
_cell_angle_alpha 140.940530
_cell_angle_beta 57.604736
_cell_angle_gamma 103.066000
_cell_volume 763.286098
_symmetry_space_group_name_H-M "P -1"
_symmetry_group_IT_number 2
_symmetry_cell_setting 'triclinic'
loop_
_space_group_symop_operation_xyz
x,y,z
-x,-y,-z
loop_
_atom_site_type_symbol
_atom_site_label
_atom_site_fract_x
_atom_site_fract_y
_atom_site_fract_z
Si Si1 0.624813 0.262268 0.000505
Si Si2 0.038212 0.926283 0.557844
Si Si3 0.537024 0.827551 0.481381
Si Si4 0.184373 0.913604 0.040158
Si Si5 0.886084 0.592159 0.709100
Si Si6 0.301823 0.879408 0.375275
Si Si7 0.374855 0.646160 0.600488
Si Si8 0.361034 0.441956 0.249047
O O1 0.590623 0.542425 0.235989
O O2 0.494927 0.233198 0.040813
O O3 0.712968 0.082061 0.929097
O O4 0.686563 0.228640 0.821420
O O5 0.077711 0.627860 0.357195
O O6 0.158170 0.981782 0.551625
O O7 0.000000 0.000000 0.500000
O O8 0.930548 0.055904 0.791012
O O9 0.416183 0.863763 0.652816
O O10 0.500000 0.000000 0.500000
O O11 0.635215 0.917466 0.535905
O O12 0.136903 0.121377 0.097254
O O13 0.265169 0.688381 0.779721
O O14 0.757589 0.604886 0.745034
O O15 0.000000 0.500000 0.500000
O O16 0.364904 0.660012 0.293342
O O17 0.500000 0.500000 0.500000
O O18 0.345327 0.524447 0.436156
#
# Coordination Sequence:
#
# PCOD9007749 Si02
#       8
#     2   2   2   2   2   2   2   2
#     4  11  22  38  65  98 132 166 218 274 332 387
#     4  10  21  44  67  92 130 172 227 278 313 395
#     4  11  23  40  64  99 132 170 220 264 330 394
#     4  11  22  42  64  95 132 173 211 271 338 383
#     4   9  22  40  63  91 124 170 223 258 317 396
#     4  11  22  41  69  94 130 176 219 280 326 383
#     4  11  22  41  61  93 141 164 202 278 328 393
#     4  10  21  39  62  94 132 166 216 265 331 388
#
# _framework density 20.961995999999999
#
# number of rings (size 3 to 8) (size 9 to 14) (size 15 to 20)
#    0.000    1.500    6.250    0.375    1.750    2.500 
#    0.000    6.250    2.750    0.000    0.000    0.000 
#    0.000    0.000    0.000    0.000    0.000    0.000 
#
# Total GULP energy -89071.374355 kJ/mol
# GULP energy per Si atom -5566.960897 kJ/mol
# Density = 2.091429 g / cm^3
# Si number density = 20.961996 Si / 1000 Ang^3
#
#
#
# Elastic Constant Matrix: (Units=GPa)
#
#
# Indices 1 2 3 4 5 6 
#
# 1 45.2524 19.7884 12.9718 -11.7616 -25.9219 2.1455
# 2 19.7884 98.0719 27.6730 -13.3302 -5.0348 -20.7717
# 3 12.9718 27.6730 75.6598 -23.7944 -14.0083 -0.5826
# 4 -11.7616 -13.3302 -23.7944 35.6822 2.5642 -4.8339
# 5 -25.9219 -5.0348 -14.0083 2.5642 34.4797 -7.1399
# 6 2.1455 -20.7717 -0.5826 -4.8339 -7.1399 46.5566
#
#
#
# Elastic Compliance Matrix: (Units=1/GPa)
#
#
# Indices 1 2 3 4 5 6 
#
# 1 0.048583 -0.007126 0.005831 0.014827 0.037142 0.001891
# 2 -0.007126 0.014080 -0.004214 0.001203 -0.003841 0.006094
# 3 0.005831 -0.004214 0.019911 0.012982 0.011132 0.001155
# 4 0.014827 0.001203 0.012982 0.041850 0.014860 0.006640
# 5 0.037142 -0.003841 0.011132 0.014860 0.061371 0.007669
# 6 0.001891 0.006094 0.001155 0.006640 0.007669 0.025991
#
#
# Mechanical properties :
#
#
# Convention : Reuss Voigt Hill
#
# Bulk Modulus (GPa) = 13.97476 37.76118 25.86797
# Shear Modulus (GPa) = 20.27106 33.91376 27.09241
#
# Velocity S-wave (km/s) = 3.11310 4.02664 3.59897
# Velocity P-wave (km/s) = 4.42753 6.29854 5.44402
#
# Compressibility (1/GPa) = 0.07155761
#
# Stress axis : x y z
#
# Youngs Moduli (GPa) = 20.58328 71.02046 50.22257
#
# Poissons Ratio (x) = 0.50606 -0.29286
# Poissons Ratio (y) = 0.14667 0.21165
# Poissons Ratio (z) = -0.12003 0.29930
#
# Static dielectric constant tensor:
#      x y z
#    x 1.874080 0.052550 -0.046440 
#    y 0.052550 1.895010 -0.026380 
#    z -0.046440 -0.026380 1.889610 
# 
# From -- ./inp_files/304625.got.cif
#   From: 2010.05.17/outbox.cif.g08.bks.cpg/sg2_153_cif.got.tgz:304625.got - 2010.06.03 11:33:40.
