data_PCOD9007136
_publ_section_title
;
Structure prediction by ZEFSAII (Michael W. Deem and Ramdas Pophale) SiO2 
 PCOD9007136
Probable space group: P -1
;
_chemical_formula_sum "Si O2"
_cell_formula_units_Z 14
_cell_length_a 11.159621
_cell_length_b 12.124434
_cell_length_c 8.590424
_cell_angle_alpha 52.761551
_cell_angle_beta 76.272624
_cell_angle_gamma 37.383007
_cell_volume 485.297586
_symmetry_space_group_name_H-M "P -1"
_symmetry_group_IT_number 2
_symmetry_cell_setting 'triclinic'
loop_
_space_group_symop_operation_xyz
x,y,z
-x,-y,-z
loop_
_atom_site_type_symbol
_atom_site_label
_atom_site_fract_x
_atom_site_fract_y
_atom_site_fract_z
Si Si1 0.913096 0.703573 0.238896
Si Si2 0.449579 0.833530 0.221248
Si Si3 0.563840 0.565138 0.717255
Si Si4 0.195816 0.333175 0.206600
Si Si5 0.338772 0.958150 0.696661
Si Si6 0.218784 0.649019 0.660293
Si Si7 0.005064 0.912653 0.825065
O O1 0.000000 0.500000 0.500000
O O2 0.114933 0.516056 0.210440
O O3 0.821030 0.900219 0.225710
O O4 0.692735 0.899061 0.024980
O O5 0.544705 0.707568 0.472890
O O6 0.655863 0.597846 0.245444
O O7 0.236717 0.926407 0.196498
O O8 0.444417 0.726641 0.776646
O O9 0.414820 0.579106 0.686930
O O10 0.812728 0.274388 0.934454
O O11 0.442577 0.151804 0.231145
O O12 0.216982 0.164303 0.426300
O O13 0.000000 0.500000 0.000000
O O14 0.094965 0.751999 0.775826
O O15 0.046016 0.883885 0.392028
#
# Coordination Sequence:
#
# PCOD9007136 Si02
#       7
#     2   2   2   2   2   2   2
#     4  10  22  41  64  92 125 163 210 262 316 374
#     4  11  23  40  62  92 128 168 216 261 310 374
#     4  11  21  38  64  93 128 168 209 259 314 371
#     4  10  21  41  65  88 119 159 205 257 313 373
#     4  10  22  39  61  90 123 159 204 258 312 369
#     4  10  23  40  61  92 128 168 215 258 307 379
#     4  10  21  39  60  86 125 166 208 257 311 366
#
# _framework density 28.848277
#
# number of rings (size 3 to 8) (size 9 to 14) (size 15 to 20)
#    0.000    1.714    0.000    4.714    0.000    4.000 
#    0.000   14.286    0.000    0.000    0.000    0.000 
#    0.000    0.000    0.000    0.000    0.000    0.000 
#
# Total GULP energy -78499.217252 kJ/mol
# GULP energy per Si atom -5607.086947 kJ/mol
# Density = 2.878262 g / cm^3
# Si number density = 28.848277 Si / 1000 Ang^3
#
#
#
# Elastic Constant Matrix: (Units=GPa)
#
#
# Indices 1 2 3 4 5 6 
#
# 1 72.7318 20.2221 42.0396 4.0502 15.6102 0.4664
# 2 20.2221 190.3778 55.3382 -5.0281 -9.4297 8.0973
# 3 42.0396 55.3382 302.3719 -1.3650 17.7672 -10.5505
# 4 4.0502 -5.0281 -1.3650 48.9318 -1.5731 -2.6382
# 5 15.6102 -9.4297 17.7672 -1.5731 36.3829 -5.2284
# 6 0.4664 8.0973 -10.5505 -2.6382 -5.2284 39.6741
#
#
#
# Elastic Compliance Matrix: (Units=1/GPa)
#
#
# Indices 1 2 3 4 5 6 
#
# 1 0.016814 -0.001643 -0.001676 -0.001909 -0.007101 -0.001371
# 2 -0.001643 0.005926 -0.001045 0.000742 0.002629 -0.001072
# 3 -0.001676 -0.001045 0.003845 0.000157 -0.001264 0.001099
# 4 -0.001909 0.000742 0.000157 0.020826 0.002061 0.001569
# 5 -0.007101 0.002629 -0.001264 0.002061 0.032441 0.003623
# 6 -0.001371 -0.001072 0.001099 0.001569 0.003623 0.026314
#
#
# Mechanical properties :
#
#
# Convention : Reuss Voigt Hill
#
# Bulk Modulus (GPa) = 55.99803 88.96460 72.48132
# Shear Modulus (GPa) = 41.37496 54.85653 48.11575
#
# Velocity S-wave (km/s) = 3.79123 4.36541 4.08841
# Velocity P-wave (km/s) = 6.21433 7.50432 6.88958
#
# Compressibility (1/GPa) = 0.01785777
#
# Stress axis : x y z
#
# Youngs Moduli (GPa) = 59.47466 168.73919 260.09099
#
# Poissons Ratio (x) = 0.27716 0.43599
# Poissons Ratio (y) = 0.09769 0.27173
# Poissons Ratio (z) = 0.09970 0.17629
#
# Static dielectric constant tensor:
#      x y z
#    x 2.333010 -0.001780 -0.067390 
#    y -0.001780 2.140580 0.000320 
#    z -0.067390 0.000320 2.272500 
# 
# From -- ./inp_files/312696.got.cif
#   From: 2010.05.17/outbox.cif.g08.bks.cpg/sg2_157_cif.got.tgz:312696.got - 2010.06.03 11:33:40.
