data_PCOD9007806
_publ_section_title
;
Structure prediction by ZEFSAII (Michael W. Deem and Ramdas Pophale) SiO2 
 PCOD9007806
Probable space group: P -1
;
_chemical_formula_sum "Si O2"
_cell_formula_units_Z 16
_cell_length_a 17.483273
_cell_length_b 8.008099
_cell_length_c 8.294975
_cell_angle_alpha 111.829989
_cell_angle_beta 50.826716
_cell_angle_gamma 84.314200
_cell_volume 740.328062
_symmetry_space_group_name_H-M "P -1"
_symmetry_group_IT_number 2
_symmetry_cell_setting 'triclinic'
loop_
_space_group_symop_operation_xyz
x,y,z
-x,-y,-z
loop_
_atom_site_type_symbol
_atom_site_label
_atom_site_fract_x
_atom_site_fract_y
_atom_site_fract_z
Si Si1 0.612166 0.502067 0.410071
Si Si2 0.384760 0.135378 0.291270
Si Si3 0.155726 0.365224 0.231750
Si Si4 0.183124 0.090098 0.391351
Si Si5 0.834691 0.169367 0.947327
Si Si6 0.375923 0.163398 0.675659
Si Si7 0.011465 0.749376 0.719689
Si Si8 0.982242 0.302899 0.945893
O O1 0.500000 0.500000 0.500000
O O2 0.613281 0.648428 0.606084
O O3 0.712610 0.279998 0.228498
O O4 0.636211 0.614123 0.267308
O O5 0.291753 0.106734 0.306632
O O6 0.364667 0.086816 0.485041
O O7 0.500000 0.000000 0.000000
O O8 0.133454 0.268434 0.388423
O O9 0.072913 0.349872 0.206442
O O10 0.115663 0.598319 0.417211
O O11 0.279846 0.214422 0.952464
O O12 0.099900 0.131308 0.663962
O O13 0.189787 0.898090 0.216673
O O14 0.886172 0.324129 0.956528
O O15 0.932312 0.970080 0.830295
O O16 0.500000 0.000000 0.500000
O O17 0.046941 0.744966 0.854888
O O18 0.000000 0.500000 0.000000
#
# Coordination Sequence:
#
# PCOD9007806 Si02
#       8
#     2   2   2   2   2   2   2   2
#     4  10  24  42  66  98 131 169 222 277 336 388
#     4  10  21  40  70  95 123 173 226 272 331 389
#     4  10  21  39  63 101 130 179 219 276 326 400
#     4  11  22  39  67  96 134 176 223 276 331 397
#     4  11  25  42  65  97 138 177 216 280 339 400
#     4  10  23  39  69  96 130 173 226 270 334 395
#     4  10  23  39  67  95 141 174 222 269 335 395
#     4  12  23  41  64 100 133 176 227 270 336 395
#
# _framework density 21.612041999999999
#
# number of rings (size 3 to 8) (size 9 to 14) (size 15 to 20)
#    0.750    0.750    1.250    3.750    5.250    1.000 
#    0.000    0.000    0.000    3.750    0.000    0.000 
#    0.000    0.000    0.000    0.000    0.000    0.000 
#
# Total GULP energy -89104.419801 kJ/mol
# GULP energy per Si atom -5569.026238 kJ/mol
# Density = 2.156285 g / cm^3
# Si number density = 21.612042 Si / 1000 Ang^3
#
#
#
# Elastic Constant Matrix: (Units=GPa)
#
#
# Indices 1 2 3 4 5 6 
#
# 1 159.8457 21.5268 50.9030 14.2247 3.2007 33.1002
# 2 21.5268 48.8188 17.5128 10.0468 3.8729 5.1804
# 3 50.9030 17.5128 163.9393 22.3874 -4.7652 8.7051
# 4 14.2247 10.0468 22.3874 29.5358 3.1144 2.4313
# 5 3.2007 3.8729 -4.7652 3.1144 43.0727 4.2801
# 6 33.1002 5.1804 8.7051 2.4313 4.2801 34.2636
#
#
#
# Elastic Compliance Matrix: (Units=1/GPa)
#
#
# Indices 1 2 3 4 5 6 
#
# 1 0.008869 -0.002119 -0.001911 -0.001490 0.000191 -0.007680
# 2 -0.002119 0.023182 -0.001031 -0.005871 -0.001558 -0.000585
# 3 -0.001911 -0.001031 0.007449 -0.004540 0.001361 0.000261
# 4 -0.001490 -0.005871 -0.004540 0.040235 -0.002871 0.000985
# 5 0.000191 -0.001558 0.001361 -0.002871 0.024008 -0.003090
# 6 -0.007680 -0.000585 0.000261 0.000985 -0.003090 0.036943
#
#
# Mechanical properties :
#
#
# Convention : Reuss Voigt Hill
#
# Bulk Modulus (GPa) = 34.03787 61.38765 47.71276
# Shear Modulus (GPa) = 31.13328 40.21850 35.67589
#
# Velocity S-wave (km/s) = 3.79958 4.31853 4.06734
# Velocity P-wave (km/s) = 5.91885 7.30290 6.64699
#
# Compressibility (1/GPa) = 0.02937904
#
# Stress axis : x y z
#
# Youngs Moduli (GPa) = 112.75215 43.13679 134.24826
#
# Poissons Ratio (x) = 0.09140 0.25649
# Poissons Ratio (y) = 0.23891 0.13841
# Poissons Ratio (z) = 0.21542 0.04447
#
# Static dielectric constant tensor:
#      x y z
#    x 1.880530 0.010260 0.012700 
#    y 0.010260 1.898250 0.025950 
#    z 0.012700 0.025950 1.866640 
# 
# From -- ./inp_files/327774.got.cif
#   From: 2010.05.17/outbox.cif.g08.bks.cpg/sg2_164_cif.got.tgz:327774.got - 2010.06.03 11:33:40.
