data_PCOD9007037
_publ_section_title
;
Structure prediction by ZEFSAII (Michael W. Deem and Ramdas Pophale) SiO2 
 PCOD9007037
Probable space group: P -1
;
_chemical_formula_sum "Si O2"
_cell_formula_units_Z 16
_cell_length_a 9.689556
_cell_length_b 21.964369
_cell_length_c 8.523083
_cell_angle_alpha 31.653979
_cell_angle_beta 49.238708
_cell_angle_gamma 63.212390
_cell_volume 695.366590
_symmetry_space_group_name_H-M "P -1"
_symmetry_group_IT_number 2
_symmetry_cell_setting 'triclinic'
loop_
_space_group_symop_operation_xyz
x,y,z
-x,-y,-z
loop_
_atom_site_type_symbol
_atom_site_label
_atom_site_fract_x
_atom_site_fract_y
_atom_site_fract_z
Si Si1 0.125996 0.413765 0.661022
Si Si2 0.521476 0.573259 0.084796
Si Si3 0.437182 0.874595 0.226398
Si Si4 0.889891 0.592945 0.942343
Si Si5 0.948864 0.153171 0.907640
Si Si6 0.666032 0.999304 0.254233
Si Si7 0.234858 0.233419 0.765209
Si Si8 0.614340 0.218031 0.203677
O O1 0.353190 0.473161 0.352682
O O2 0.108902 0.291947 0.843203
O O3 0.000000 0.500000 0.500000
O O4 0.086708 0.395439 0.914296
O O5 0.675776 0.542286 0.149926
O O6 0.643456 0.659884 0.670804
O O7 0.409128 0.651458 0.095614
O O8 0.617055 0.831014 0.128581
O O9 0.347105 0.787152 0.627077
O O10 0.500000 0.000000 0.000000
O O11 0.322688 0.897773 0.110946
O O12 0.963410 0.727048 0.521251
O O13 0.000000 0.500000 0.000000
O O14 0.099916 0.139786 0.953364
O O15 0.777371 0.183730 0.062965
O O16 0.857236 0.035989 0.130276
O O17 0.585287 0.873957 0.498210
O O18 0.500000 0.000000 0.500000
#
# Coordination Sequence:
#
# PCOD9007037 Si02
#       8
#     2   2   2   2   2   2   2   2
#     4  12  24  39  62  92 122 162 207 251 306 370
#     4  10  21  40  61  84 121 160 199 254 306 362
#     4   9  19  38  60  86 117 157 204 248 300 363
#     4  11  24  40  59  88 124 162 203 250 307 367
#     4  10  21  39  59  87 123 155 198 256 301 359
#     4   9  19  35  59  86 116 155 196 242 299 356
#     4  10  22  38  59  88 122 160 201 249 305 363
#     4   9  18  37  63  87 116 157 203 252 307 360
#
# _framework density 23.009447000000002
#
# number of rings (size 3 to 8) (size 9 to 14) (size 15 to 20)
#    0.000    2.000    0.000    3.750    0.000    6.000 
#    0.000   15.625    0.000    0.000    0.000    0.000 
#    0.000    0.000    0.000    0.000    0.000    0.000 
#
# Total GULP energy -89361.296526 kJ/mol
# GULP energy per Si atom -5585.081033 kJ/mol
# Density = 2.295708 g / cm^3
# Si number density = 23.009447 Si / 1000 Ang^3
#
#
#
# Elastic Constant Matrix: (Units=GPa)
#
#
# Indices 1 2 3 4 5 6 
#
# 1 88.4262 3.8971 20.6610 9.4754 -6.3652 19.6985
# 2 3.8971 97.0113 -3.9238 20.8347 9.0404 -0.2840
# 3 20.6610 -3.9238 40.1318 5.3084 -6.0378 6.2833
# 4 9.4754 20.8347 5.3084 25.1647 1.4299 -0.1688
# 5 -6.3652 9.0404 -6.0378 1.4299 36.5169 -3.4909
# 6 19.6985 -0.2840 6.2833 -0.1688 -3.4909 32.7821
#
#
#
# Elastic Compliance Matrix: (Units=1/GPa)
#
#
# Indices 1 2 3 4 5 6 
#
# 1 0.014943 0.000023 -0.005704 -0.004557 0.001089 -0.007793
# 2 0.000023 0.013037 0.002485 -0.011193 -0.002441 -0.000695
# 3 -0.005704 0.002485 0.029752 -0.006390 0.003376 -0.001927
# 4 -0.004557 -0.011193 -0.006390 0.052138 -0.000734 0.004056
# 5 0.001089 -0.002441 0.003376 -0.000734 0.028933 0.001755
# 6 -0.007793 -0.000695 -0.001927 0.004056 0.001755 0.035758
#
#
# Mechanical properties :
#
#
# Convention : Reuss Voigt Hill
#
# Bulk Modulus (GPa) = 19.47788 29.64864 24.56326
# Shear Modulus (GPa) = 25.24389 32.55509 28.89949
#
# Velocity S-wave (km/s) = 3.31586 3.76554 3.54783
# Velocity P-wave (km/s) = 4.81076 5.64084 5.24226
#
# Compressibility (1/GPa) = 0.05134030
#
# Stress axis : x y z
#
# Youngs Moduli (GPa) = 66.91888 76.70570 33.61079
#
# Poissons Ratio (x) = -0.00179 0.19172
# Poissons Ratio (y) = -0.00156 -0.08351
# Poissons Ratio (z) = 0.38172 -0.19059
#
# Static dielectric constant tensor:
#      x y z
#    x 1.890800 -0.010080 -0.022180 
#    y -0.010080 1.876640 -0.012110 
#    z -0.022180 -0.012110 1.962030 
# 
# From -- ./inp_files/188938.got.cif
#   From: 2010.05.17/outbox.cif.g08.bks.cpg/sg2_95_cif.got.tgz:188938.got - 2010.06.03 11:33:40.
