data_PCOD9007690
_publ_section_title
;
Structure prediction by ZEFSAII (Michael W. Deem and Ramdas Pophale) SiO2 
 PCOD9007690
Probable space group: P -1
;
_chemical_formula_sum "Si O2"
_cell_formula_units_Z 14
_cell_length_a 8.639879
_cell_length_b 6.231240
_cell_length_c 19.505353
_cell_angle_alpha 115.944752
_cell_angle_beta 58.960698
_cell_angle_gamma 133.855930
_cell_volume 643.299541
_symmetry_space_group_name_H-M "P -1"
_symmetry_group_IT_number 2
_symmetry_cell_setting 'triclinic'
loop_
_space_group_symop_operation_xyz
x,y,z
-x,-y,-z
loop_
_atom_site_type_symbol
_atom_site_label
_atom_site_fract_x
_atom_site_fract_y
_atom_site_fract_z
Si Si1 0.346110 0.652669 0.466370
Si Si2 0.528940 0.736206 0.666760
Si Si3 0.088823 0.619744 0.385518
Si Si4 0.952816 0.325467 0.097419
Si Si5 0.118195 0.779081 0.749453
Si Si6 0.364853 0.478504 0.811310
Si Si7 0.647838 0.610685 0.049454
O O1 0.227039 0.612402 0.415173
O O2 0.144709 0.468646 0.541636
O O3 0.500000 0.000000 0.500000
O O4 0.487209 0.524611 0.406746
O O5 0.316193 0.737373 0.700625
O O6 0.527525 0.683431 0.740953
O O7 0.756561 0.050481 0.635622
O O8 0.029176 0.384969 0.306852
O O9 0.018843 0.360825 0.167711
O O10 0.828716 0.474083 0.134038
O O11 0.161920 0.436869 0.016142
O O12 0.774580 0.966126 0.077611
O O13 0.243557 0.133381 0.771029
O O14 0.468620 0.535143 0.871422
O O15 0.500000 0.500000 0.000000
#
# Coordination Sequence:
#
# PCOD9007690 Si02
#       7
#     2   2   2   2   2   2   2
#     4  11  25  43  64  91 126 163 204 255 310 369
#     4  11  23  41  63  90 125 161 205 257 310 365
#     4  11  24  41  64  93 122 162 208 253 308 371
#     4   9  21  39  61  89 124 161 203 255 307 360
#     4  10  23  42  63  89 124 164 207 256 306 364
#     4  10  21  41  64  89 126 166 202 255 312 361
#     4  10  21  39  62  92 125 161 206 253 304 364
#
# _framework density 21.762802000000001
#
# number of rings (size 3 to 8) (size 9 to 14) (size 15 to 20)
#    0.000    1.714    0.000    3.429    0.000   12.000 
#    0.000    7.143    0.000    0.000    0.000    0.000 
#    0.000    0.000    0.000    0.000    0.000    0.000 
#
# Total GULP energy -78336.816460 kJ/mol
# GULP energy per Si atom -5595.486890 kJ/mol
# Density = 2.171327 g / cm^3
# Si number density = 21.762802 Si / 1000 Ang^3
#
#
#
# Elastic Constant Matrix: (Units=GPa)
#
#
# Indices 1 2 3 4 5 6 
#
# 1 66.6903 28.3881 46.8663 17.8269 15.7871 -6.2799
# 2 28.3881 77.4322 67.3834 -0.3880 0.6544 -9.5413
# 3 46.8663 67.3834 134.6847 11.9967 21.5579 -5.2218
# 4 17.8269 -0.3880 11.9967 45.3020 -9.6301 -1.4057
# 5 15.7871 0.6544 21.5579 -9.6301 59.2240 14.4650
# 6 -6.2799 -9.5413 -5.2218 -1.4057 14.4650 26.7419
#
#
#
# Elastic Compliance Matrix: (Units=1/GPa)
#
#
# Indices 1 2 3 4 5 6 
#
# 1 0.025514 -0.005360 -0.003462 -0.010873 -0.009150 0.007781
# 2 -0.005360 0.026415 -0.012912 0.007190 0.006378 0.002573
# 3 -0.003462 -0.012912 0.016425 -0.004306 -0.005782 0.000688
# 4 -0.010873 0.007190 -0.004306 0.029613 0.010397 -0.004896
# 5 -0.009150 0.006378 -0.005782 0.010397 0.026686 -0.014890
# 6 0.007781 0.002573 0.000688 -0.004896 -0.014890 0.048071
#
#
# Mechanical properties :
#
#
# Convention : Reuss Voigt Hill
#
# Bulk Modulus (GPa) = 40.18175 62.67587 51.42881
# Shear Modulus (GPa) = 22.27297 35.33154 28.80226
#
# Velocity S-wave (km/s) = 3.20260 4.03362 3.64189
# Velocity P-wave (km/s) = 5.67266 7.11024 6.43174
#
# Compressibility (1/GPa) = 0.02488692
#
# Stress axis : x y z
#
# Youngs Moduli (GPa) = 39.19367 37.85713 60.88282
#
# Poissons Ratio (x) = 0.20290 0.21077
# Poissons Ratio (y) = 0.21007 0.78613
# Poissons Ratio (z) = 0.13569 0.48882
#
# Static dielectric constant tensor:
#      x y z
#    x 1.798610 -0.008730 0.004930 
#    y -0.008730 1.745220 -0.017580 
#    z 0.004930 -0.017580 1.808460 
# 
# From -- ./inp_files/585779.got.cif
#   From: 2010.05.17/outbox.cif.g08.bks.cpg/sg2_293_cif.got.tgz:585779.got - 2010.06.03 11:33:40.
