data_PCOD9007648
_publ_section_title
;
Structure prediction by ZEFSAII (Michael W. Deem and Ramdas Pophale) SiO2 
 PCOD9007648
Probable space group: P -1
;
_chemical_formula_sum "Si O2"
_cell_formula_units_Z 16
_cell_length_a 23.241324
_cell_length_b 13.669755
_cell_length_c 16.745925
_cell_angle_alpha 148.779287
_cell_angle_beta 158.051025
_cell_angle_gamma 21.007191
_cell_volume 710.610249
_symmetry_space_group_name_H-M "P -1"
_symmetry_group_IT_number 2
_symmetry_cell_setting 'triclinic'
loop_
_space_group_symop_operation_xyz
x,y,z
-x,-y,-z
loop_
_atom_site_type_symbol
_atom_site_label
_atom_site_fract_x
_atom_site_fract_y
_atom_site_fract_z
Si Si1 0.644428 0.740764 0.746993
Si Si2 0.875394 0.657335 0.271606
Si Si3 0.710381 0.669164 0.537738
Si Si4 0.868933 0.787630 0.955792
Si Si5 0.682635 0.253719 0.706776
Si Si6 0.140087 0.663891 0.857588
Si Si7 0.491490 0.230639 0.232797
Si Si8 0.592475 0.369819 0.941652
O O1 0.707582 0.884669 0.890398
O O2 0.481045 0.771398 0.500335
O O3 0.531304 0.830607 0.750491
O O4 0.879027 0.423781 0.838491
O O5 0.891023 0.514970 0.271234
O O6 0.115321 0.462980 0.403413
O O7 0.737194 0.966802 0.331374
O O8 0.703964 0.702233 0.022202
O O9 0.850509 0.615224 0.756861
O O10 0.599291 0.562763 0.310512
O O11 0.500000 0.000000 0.500000
O O12 0.783517 0.041002 0.972928
O O13 0.564684 0.502038 0.667925
O O14 0.751326 0.307534 0.911297
O O15 0.901546 0.971374 0.751934
O O16 0.297604 0.551912 0.906798
O O17 0.500000 0.500000 0.000000
#
# Coordination Sequence:
#
# PCOD9007648 Si02
#       8
#     2   2   2   2   2   2   2   2
#     4  11  21  37  63  91 121 167 213 259 310 384
#     4  10  22  40  66  92 123 171 208 262 316 381
#     4  10  22  41  67  89 126 172 215 254 320 383
#     4  10  23  39  62  89 130 166 215 256 318 383
#     4  10  22  37  66  93 122 164 215 264 313 372
#     4  10  23  40  64  93 127 161 219 258 316 381
#     4  10  21  39  62  90 133 157 209 263 326 363
#     4  11  25  41  62  91 133 163 207 269 321 367
#
# _framework density 22.515858999999999
#
# number of rings (size 3 to 8) (size 9 to 14) (size 15 to 20)
#    0.000    1.750    1.250    1.875   14.000    2.000 
#    0.000    1.250    0.000    5.250    0.000    0.000 
#    0.000    0.000    0.000    0.000    0.000    0.000 
#
# Total GULP energy -89403.626882 kJ/mol
# GULP energy per Si atom -5587.726680 kJ/mol
# Density = 2.246461 g / cm^3
# Si number density = 22.515859 Si / 1000 Ang^3
#
#
#
# Elastic Constant Matrix: (Units=GPa)
#
#
# Indices 1 2 3 4 5 6 
#
# 1 107.9014 33.5525 12.6717 -14.7499 22.3975 -9.2680
# 2 33.5525 91.3684 25.5229 -22.6465 9.8441 -4.0941
# 3 12.6717 25.5229 60.0686 -22.5724 11.7366 -8.3467
# 4 -14.7499 -22.6465 -22.5724 20.0911 -11.6449 7.9129
# 5 22.3975 9.8441 11.7366 -11.6449 34.5516 -4.2743
# 6 -9.2680 -4.0941 -8.3467 7.9129 -4.2743 27.1599
#
#
#
# Elastic Compliance Matrix: (Units=1/GPa)
#
#
# Indices 1 2 3 4 5 6 
#
# 1 0.011964 -0.003577 0.001067 0.001281 -0.006358 0.002497
# 2 -0.003577 0.016581 -0.000233 0.019518 0.003771 -0.003886
# 3 0.001067 -0.000233 0.028972 0.033747 0.000850 -0.000466
# 4 0.001281 0.019518 0.033747 0.133111 0.024386 -0.021193
# 5 -0.006358 0.003771 0.000850 0.024386 0.039647 -0.002205
# 6 0.002497 -0.003886 -0.000466 -0.021193 -0.002205 0.042770
#
#
# Mechanical properties :
#
#
# Convention : Reuss Voigt Hill
#
# Bulk Modulus (GPa) = 19.21927 44.75916 31.98921
# Shear Modulus (GPa) = 16.89910 28.86659 22.88285
#
# Velocity S-wave (km/s) = 2.74257 3.58447 3.19140
# Velocity P-wave (km/s) = 4.31084 6.08714 5.27431
#
# Compressibility (1/GPa) = 0.05203111
#
# Stress axis : x y z
#
# Youngs Moduli (GPa) = 83.58309 60.31137 34.51588
#
# Poissons Ratio (x) = 0.21573 -0.03682
# Poissons Ratio (y) = 0.29897 0.00803
# Poissons Ratio (z) = -0.08916 0.01403
#
# Static dielectric constant tensor:
#      x y z
#    x 1.861810 -0.015060 -0.017030 
#    y -0.015060 1.820620 0.016350 
#    z -0.017030 0.016350 1.873230 
# 
# From -- ./inp_files/575626.got.cif
#   From: 2010.05.17/outbox.cif.g08.bks.cpg/sg2_288_cif.got.tgz:575626.got - 2010.06.03 11:33:40.
