data_PCOD9007301
_publ_section_title
;
Structure prediction by ZEFSAII (Michael W. Deem and Ramdas Pophale) SiO2 
 PCOD9007301
Probable space group: P -1
;
_chemical_formula_sum "Si O2"
_cell_formula_units_Z 12
_cell_length_a 11.395899
_cell_length_b 13.056748
_cell_length_c 8.071574
_cell_angle_alpha 123.071182
_cell_angle_beta 144.523202
_cell_angle_gamma 42.705935
_cell_volume 468.485661
_symmetry_space_group_name_H-M "P -1"
_symmetry_group_IT_number 2
_symmetry_cell_setting 'triclinic'
loop_
_space_group_symop_operation_xyz
x,y,z
-x,-y,-z
loop_
_atom_site_type_symbol
_atom_site_label
_atom_site_fract_x
_atom_site_fract_y
_atom_site_fract_z
Si Si1 0.538579 0.790875 0.326960
Si Si2 0.723853 0.925848 0.926134
Si Si3 0.331992 0.444459 0.291669
Si Si4 0.219172 0.550494 0.753936
Si Si5 0.782243 0.234752 0.840338
Si Si6 0.137041 0.286039 0.811439
O O1 0.635318 0.850680 0.630915
O O2 0.738143 0.610397 0.357283
O O3 0.270202 0.829378 0.115096
O O4 0.473666 0.895036 0.181810
O O5 0.998759 0.872874 0.132568
O O6 0.740814 0.868791 0.082129
O O7 0.500000 0.500000 0.500000
O O8 0.501614 0.323225 0.522345
O O9 0.161730 0.644675 0.938428
O O10 0.303817 0.348354 0.041253
O O11 0.028020 0.671927 0.504289
O O12 0.500000 0.500000 0.000000
O O13 0.929504 0.408254 0.815397
#
# Coordination Sequence:
#
# PCOD9007301 Si02
#       6
#     2   2   2   2   2   2
#     4  10  21  40  56  91 121 156 194 245 298 353
#     4  11  22  36  66  86 117 158 204 238 291 357
#     4  11  20  34  61  89 116 149 211 243 282 347
#     4  10  21  39  61  86 127 151 195 251 303 342
#     4  11  21  38  61  91 116 155 200 248 292 349
#     4  11  20  38  60  88 116 161 198 243 290 358
#
# _framework density 25.614443000000001
#
# number of rings (size 3 to 8) (size 9 to 14) (size 15 to 20)
#    0.000    1.333    6.667    1.500    0.000    0.667 
#    0.000    3.333    0.000    4.000    0.000    0.000 
#    0.000    0.000    0.000    0.000    0.000    0.000 
#
# Total GULP energy -67034.659377 kJ/mol
# GULP energy per Si atom -5586.221615 kJ/mol
# Density = 2.555614 g / cm^3
# Si number density = 25.614443 Si / 1000 Ang^3
#
#
#
# Elastic Constant Matrix: (Units=GPa)
#
#
# Indices 1 2 3 4 5 6 
#
# 1 61.1491 29.2886 13.0365 -4.3943 10.0856 -14.7367
# 2 29.2886 140.5794 44.3053 -34.3681 10.0644 8.6477
# 3 13.0365 44.3053 111.9694 -8.8923 -14.6209 8.4459
# 4 -4.3943 -34.3681 -8.8923 37.5958 17.9483 -2.4706
# 5 10.0856 10.0644 -14.6209 17.9483 32.6975 2.9964
# 6 -14.7367 8.6477 8.4459 -2.4706 2.9964 42.6004
#
#
#
# Elastic Compliance Matrix: (Units=1/GPa)
#
#
# Indices 1 2 3 4 5 6 
#
# 1 0.023289 -0.001178 -0.004248 0.008082 -0.014128 0.010600
# 2 -0.001178 0.017153 -0.007596 0.024085 -0.021582 0.000531
# 3 -0.004248 -0.007596 0.014037 -0.012696 0.017322 -0.004665
# 4 0.008082 0.024085 -0.012696 0.074473 -0.057267 0.008771
# 5 -0.014128 -0.021582 0.017322 -0.057267 0.081958 -0.013026
# 6 0.010600 0.000531 -0.004665 0.008771 -0.013026 0.029383
#
#
# Mechanical properties :
#
#
# Convention : Reuss Voigt Hill
#
# Bulk Modulus (GPa) = 35.16759 54.10651 44.63705
# Shear Modulus (GPa) = 18.12808 37.71657 27.92233
#
# Velocity S-wave (km/s) = 2.66320 3.84144 3.30525
# Velocity P-wave (km/s) = 4.81833 6.39100 5.65956
#
# Compressibility (1/GPa) = 0.02843528
#
# Stress axis : x y z
#
# Youngs Moduli (GPa) = 42.93883 58.29788 71.24225
#
# Poissons Ratio (x) = 0.06868 0.30263
# Poissons Ratio (y) = 0.05059 0.54114
# Poissons Ratio (z) = 0.18240 0.44282
#
# Static dielectric constant tensor:
#      x y z
#    x 2.146660 0.120980 -0.100800 
#    y 0.120980 2.205380 -0.080850 
#    z -0.100800 -0.080850 2.225660 
# 
# From -- ./inp_files/463184.got.cif
#   From: 2010.05.17/outbox.cif.g08.bks.cpg/sg2_232_cif.got.tgz:463184.got - 2010.06.03 11:33:40.
