data_PCOD9007152
_publ_section_title
;
Structure prediction by ZEFSAII (Michael W. Deem and Ramdas Pophale) SiO2 
 PCOD9007152
Probable space group: P -1
;
_chemical_formula_sum "Si O2"
_cell_formula_units_Z 14
_cell_length_a 17.694149
_cell_length_b 8.024288
_cell_length_c 21.873154
_cell_angle_alpha 39.545296
_cell_angle_beta 15.872327
_cell_angle_gamma 44.633645
_cell_volume 532.638373
_symmetry_space_group_name_H-M "P -1"
_symmetry_group_IT_number 2
_symmetry_cell_setting 'triclinic'
loop_
_space_group_symop_operation_xyz
x,y,z
-x,-y,-z
loop_
_atom_site_type_symbol
_atom_site_label
_atom_site_fract_x
_atom_site_fract_y
_atom_site_fract_z
Si Si1 0.569161 0.123793 0.098075
Si Si2 0.312838 0.380228 0.361881
Si Si3 0.679700 0.932131 0.242409
Si Si4 0.659564 0.612006 0.121873
Si Si5 0.326045 0.532692 0.721901
Si Si6 0.642982 0.675625 0.919360
Si Si7 0.977091 0.080643 0.340017
O O1 0.419978 0.201476 0.130276
O O2 0.725277 0.883150 0.032340
O O3 0.755848 0.398338 0.897605
O O4 0.322304 0.995341 0.372855
O O5 0.383194 0.595515 0.299455
O O6 0.546152 0.193157 0.253480
O O7 0.374959 0.545368 0.204657
O O8 0.034406 0.174521 0.622745
O O9 0.477095 0.778027 0.495067
O O10 0.660036 0.723440 0.260351
O O11 0.000000 0.000000 0.000000
O O12 0.564071 0.418762 0.307351
O O13 0.923935 0.663239 0.853618
O O14 0.000000 0.500000 0.000000
O O15 0.818584 0.872146 0.774760
#
# Coordination Sequence:
#
# PCOD9007152 Si02
#       7
#     2   2   2   2   2   2   2
#     4  10  21  40  62  90 124 162 209 258 311 372
#     4  10  22  40  61  91 127 162 207 259 312 378
#     4  11  25  44  66  93 128 168 213 267 323 381
#     4  11  24  39  62  92 124 163 207 256 313 379
#     4  11  24  42  66  96 127 166 216 266 320 383
#     4   9  20  39  63  88 122 164 207 257 312 373
#     4  10  21  39  60  87 124 162 204 255 312 372
#
# _framework density 26.28425
#
# number of rings (size 3 to 8) (size 9 to 14) (size 15 to 20)
#    0.000    1.714    0.000    3.857    0.000   13.714 
#    0.000    7.143    0.000    0.000    0.000    0.000 
#    0.000    0.000    0.000    0.000    0.000    0.000 
#
# Total GULP energy -78007.790731 kJ/mol
# GULP energy per Si atom -5571.985052 kJ/mol
# Density = 2.622443 g / cm^3
# Si number density = 26.284250 Si / 1000 Ang^3
#
#
#
# Elastic Constant Matrix: (Units=GPa)
#
#
# Indices 1 2 3 4 5 6 
#
# 1 157.9092 20.1549 69.1515 -13.4868 26.3473 8.2223
# 2 20.1549 77.6418 23.7977 -13.4410 -2.0704 -9.1781
# 3 69.1515 23.7977 176.5353 -12.0024 30.9920 -7.6725
# 4 -13.4868 -13.4410 -12.0024 28.7147 12.7197 -5.5920
# 5 26.3473 -2.0704 30.9920 12.7197 66.8019 -8.3596
# 6 8.2223 -9.1781 -7.6725 -5.5920 -8.3596 34.6927
#
#
#
# Elastic Compliance Matrix: (Units=1/GPa)
#
#
# Indices 1 2 3 4 5 6 
#
# 1 0.008603 -0.001381 -0.002538 0.003147 -0.003264 -0.003245
# 2 -0.001381 0.015395 -0.000983 0.006834 0.000864 0.005492
# 3 -0.002538 -0.000983 0.007602 0.003181 -0.002933 0.001829
# 4 0.003147 0.006834 0.003181 0.046835 -0.010576 0.006766
# 5 -0.003264 0.000864 -0.002933 -0.010576 0.020095 0.003491
# 6 -0.003245 0.005492 0.001829 0.006766 0.003491 0.033383
#
#
# Mechanical properties :
#
#
# Convention : Reuss Voigt Hill
#
# Bulk Modulus (GPa) = 45.87933 70.92160 58.40046
# Shear Modulus (GPa) = 33.56166 45.97400 39.76783
#
# Velocity S-wave (km/s) = 3.57721 4.18677 3.89394
# Velocity P-wave (km/s) = 5.87834 7.10023 6.51798
#
# Compressibility (1/GPa) = 0.02179631
#
# Stress axis : x y z
#
# Youngs Moduli (GPa) = 116.24368 64.95774 131.54802
#
# Poissons Ratio (x) = 0.08971 0.33383
# Poissons Ratio (y) = 0.16054 0.12926
# Poissons Ratio (z) = 0.29499 0.06383
#
# Static dielectric constant tensor:
#      x y z
#    x 2.343570 0.053360 0.003900 
#    y 0.053360 2.313110 0.038500 
#    z 0.003900 0.038500 2.052950 
# 
# From -- ./inp_files/599360.got.cif
#   From: 2010.05.17/outbox.cif.g08.bks.cpg/sg2_300_cif.got.tgz:599360.got - 2010.06.03 11:33:40.
