data_PCOD9007379
_publ_section_title
;
Structure prediction by ZEFSAII (Michael W. Deem and Ramdas Pophale) SiO2 
 PCOD9007379
Probable space group: P -1
;
_chemical_formula_sum "Si O2"
_cell_formula_units_Z 12
_cell_length_a 9.113481
_cell_length_b 14.669054
_cell_length_c 9.696130
_cell_angle_alpha 119.091154
_cell_angle_beta 149.031864
_cell_angle_gamma 61.071112
_cell_volume 576.377486
_symmetry_space_group_name_H-M "P -1"
_symmetry_group_IT_number 2
_symmetry_cell_setting 'triclinic'
loop_
_space_group_symop_operation_xyz
x,y,z
-x,-y,-z
loop_
_atom_site_type_symbol
_atom_site_label
_atom_site_fract_x
_atom_site_fract_y
_atom_site_fract_z
Si Si1 0.697248 0.776290 0.086337
Si Si2 0.933005 0.902027 0.782869
Si Si3 0.664844 0.543073 0.288669
Si Si4 0.666625 0.544382 0.790195
Si Si5 0.480276 0.777369 0.229777
Si Si6 0.856535 0.098467 0.365680
O O1 0.593785 0.769023 0.156739
O O2 0.015461 0.804980 0.385805
O O3 0.665594 0.668606 0.905407
O O4 0.486106 0.869217 0.905885
O O5 0.032480 0.914706 0.713389
O O6 0.615812 0.870246 0.485806
O O7 0.139308 0.805433 0.952264
O O8 0.000000 0.000000 0.000000
O O9 0.509193 0.497218 0.256809
O O10 0.594925 0.669435 0.319469
O O11 0.000000 0.500000 0.500000
O O12 0.500000 0.500000 0.000000
O O13 0.500000 0.500000 0.500000
O O14 0.000000 0.500000 0.000000
O O15 0.000000 0.000000 0.500000
#
# Coordination Sequence:
#
# PCOD9007379 Si02
#       6
#     2   2   2   2   2   2
#     4  10  21  40  66  87 125 171 211 260 318 386
#     4  10  21  39  61  90 128 157 203 275 326 362
#     4  12  24  42  72  97 126 172 229 263 305 408
#     4  12  26  44  64  99 140 168 209 275 338 371
#     4  10  21  39  66  92 120 168 218 258 313 385
#     4  10  21  39  63  89 119 166 217 255 311 394
#
# _framework density 20.819687999999999
#
# number of rings (size 3 to 8) (size 9 to 14) (size 15 to 20)
#    0.000    1.333    1.667    4.000    4.667    0.000 
#    9.000    0.000    0.000    0.000    0.000    0.000 
#    0.000    0.000    0.000    0.000    0.000    0.000 
#
# Total GULP energy -66909.326870 kJ/mol
# GULP energy per Si atom -5575.777239 kJ/mol
# Density = 2.077230 g / cm^3
# Si number density = 20.819688 Si / 1000 Ang^3
#
#
#
# Elastic Constant Matrix: (Units=GPa)
#
#
# Indices 1 2 3 4 5 6 
#
# 1 76.7484 26.0258 53.6803 -8.0104 -6.4717 0.5694
# 2 26.0258 117.7798 43.5082 5.9194 -12.7801 1.0861
# 3 53.6803 43.5082 186.3809 12.1491 -6.5014 -12.9156
# 4 -8.0104 5.9194 12.1491 48.6433 -14.6116 -5.3483
# 5 -6.4717 -12.7801 -6.5014 -14.6116 37.2694 0.6671
# 6 0.5694 1.0861 -12.9156 -5.3483 0.6671 17.7125
#
#
#
# Elastic Compliance Matrix: (Units=1/GPa)
#
#
# Indices 1 2 3 4 5 6 
#
# 1 0.018225 -0.001941 -0.005208 0.005355 0.003740 -0.002788
# 2 -0.001941 0.009900 -0.001772 -0.000539 0.002575 -0.002097
# 3 -0.005208 -0.001772 0.007756 -0.002353 -0.001176 0.005265
# 4 0.005355 -0.000539 -0.002353 0.025814 0.010356 0.005549
# 5 0.003740 0.002575 -0.001176 0.010356 0.032205 0.000778
# 6 -0.002788 -0.002097 0.005265 0.005549 0.000778 0.062161
#
#
# Mechanical properties :
#
#
# Convention : Reuss Voigt Hill
#
# Bulk Modulus (GPa) = 55.43535 69.70421 62.56978
# Shear Modulus (GPa) = 27.79061 37.90470 32.84765
#
# Velocity S-wave (km/s) = 3.65749 4.27150 3.97636
# Velocity P-wave (km/s) = 6.67237 7.60791 7.15544
#
# Compressibility (1/GPa) = 0.01803903
#
# Stress axis : x y z
#
# Youngs Moduli (GPa) = 54.86876 101.01193 128.92799
#
# Poissons Ratio (x) = 0.19607 0.67144
# Poissons Ratio (y) = 0.10650 0.22850
# Poissons Ratio (z) = 0.28575 0.17902
#
# Static dielectric constant tensor:
#      x y z
#    x 1.691520 0.002250 0.014130 
#    y 0.002250 1.802940 0.002040 
#    z 0.014130 0.002040 1.703750 
# 
# From -- ./inp_files/31820.got.cif
#   From: 2010.05.17/outbox.cif.g08.bks.cpg/sg2_16_cif.got.tgz:31820.got - 2010.06.03 11:33:40.
