data_PCOD9007341
_publ_section_title
;
Structure prediction by ZEFSAII (Michael W. Deem and Ramdas Pophale) SiO2 
 PCOD9007341
Probable space group: P -1
;
_chemical_formula_sum "Si O2"
_cell_formula_units_Z 16
_cell_length_a 5.247551
_cell_length_b 9.155735
_cell_length_c 14.277895
_cell_angle_alpha 77.078630
_cell_angle_beta 82.732284
_cell_angle_gamma 103.369288
_cell_volume 638.903358
_symmetry_space_group_name_H-M "P -1"
_symmetry_group_IT_number 2
_symmetry_cell_setting 'triclinic'
loop_
_space_group_symop_operation_xyz
x,y,z
-x,-y,-z
loop_
_atom_site_type_symbol
_atom_site_label
_atom_site_fract_x
_atom_site_fract_y
_atom_site_fract_z
Si Si1 0.475560 0.468753 0.739093
Si Si2 0.748429 0.943121 0.891634
Si Si3 0.823419 0.777380 0.592135
Si Si4 0.098769 0.841922 0.744022
Si Si5 0.403094 0.955753 0.404474
Si Si6 0.587088 0.673105 0.430754
Si Si7 0.955692 0.495931 0.852865
Si Si8 0.157673 0.800870 0.999961
O O1 0.577264 0.641673 0.663621
O O2 0.367563 0.349174 0.677086
O O3 0.728893 0.451117 0.788761
O O4 0.231001 0.460720 0.818179
O O5 0.894749 0.928421 0.789350
O O6 0.803032 0.112412 0.912466
O O7 0.428399 0.877706 0.918137
O O8 0.895441 0.844404 0.966894
O O9 0.057591 0.763989 0.651862
O O10 0.811940 0.947253 0.600637
O O11 0.808625 0.757136 0.484543
O O12 0.037034 0.683030 0.830801
O O13 0.378385 0.967814 0.695673
O O14 0.500000 0.000000 0.500000
O O15 0.370576 0.772457 0.428195
O O16 0.500000 0.500000 0.500000
O O17 0.850435 0.378198 0.959113
#
# Coordination Sequence:
#
# PCOD9007341 Si02
#       8
#     2   2   2   2   2   2   2   2
#     4  10  21  40  60  97 125 173 210 266 310 382
#     4  10  24  42  68  93 133 162 220 254 333 386
#     4   9  20  41  59  86 132 162 216 264 317 369
#     4  11  24  39  65  97 123 175 210 269 316 392
#     4  10  21  39  61  88 129 168 213 267 317 373
#     4   9  20  39  60  89 126 171 221 263 316 372
#     4  11  23  40  68  93 135 161 219 264 323 378
#     4  10  23  45  64  98 127 171 201 279 319 389
#
# _framework density 25.042909999999999
#
# number of rings (size 3 to 8) (size 9 to 14) (size 15 to 20)
#    0.000    2.000    1.250    0.750    3.500    4.000 
#    4.500    2.500    0.000    0.000    0.000    0.000 
#    0.000    0.000    0.000    0.000    0.000    0.000 
#
# Total GULP energy -89194.352939 kJ/mol
# GULP energy per Si atom -5574.647059 kJ/mol
# Density = 2.498591 g / cm^3
# Si number density = 25.042910 Si / 1000 Ang^3
#
#
#
# Elastic Constant Matrix: (Units=GPa)
#
#
# Indices 1 2 3 4 5 6 
#
# 1 78.7311 15.1476 24.4940 -10.4679 -5.9929 -3.3676
# 2 15.1476 137.5365 34.4907 -2.6964 0.3365 -3.5915
# 3 24.4940 34.4907 88.6526 -0.0267 -2.7916 11.2090
# 4 -10.4679 -2.6964 -0.0267 34.5583 -1.7512 4.6583
# 5 -5.9929 0.3365 -2.7916 -1.7512 44.0041 3.2057
# 6 -3.3676 -3.5915 11.2090 4.6583 3.2057 24.4224
#
#
#
# Elastic Compliance Matrix: (Units=1/GPa)
#
#
# Indices 1 2 3 4 5 6 
#
# 1 0.014924 -0.000417 -0.004277 0.004176 0.001716 0.002938
# 2 -0.000417 0.008264 -0.003471 0.000111 -0.000540 0.002801
# 3 -0.004277 -0.003471 0.014848 -0.000434 0.000948 -0.007957
# 4 0.004176 0.000111 -0.000434 0.031050 0.002170 -0.005416
# 5 0.001716 -0.000540 0.000948 0.002170 0.023384 -0.003761
# 6 0.002938 0.002801 -0.007957 -0.005416 -0.003761 0.046941
#
#
# Mechanical properties :
#
#
# Convention : Reuss Voigt Hill
#
# Bulk Modulus (GPa) = 46.07123 50.35386 48.21255
# Shear Modulus (GPa) = 30.67943 35.98281 33.33112
#
# Velocity S-wave (km/s) = 3.50390 3.79469 3.65219
# Velocity P-wave (km/s) = 5.89972 6.27298 6.08921
#
# Compressibility (1/GPa) = 0.02170552
#
# Stress axis : x y z
#
# Youngs Moduli (GPa) = 67.00671 121.01051 67.34942
#
# Poissons Ratio (x) = 0.05041 0.28808
# Poissons Ratio (y) = 0.02791 0.23377
# Poissons Ratio (z) = 0.28662 0.42003
#
# Static dielectric constant tensor:
#      x y z
#    x 2.140250 -0.005970 0.149810 
#    y -0.005970 2.026150 -0.034690 
#    z 0.149810 -0.034690 2.112980 
# 
# From -- ./inp_files/118454.got.cif
#   From: 2010.05.17/outbox.cif.g08.bks.cpg/sg2_60_cif.got.tgz:118454.got - 2010.06.03 11:33:40.
