data_PCOD9007617
_publ_section_title
;
Structure prediction by ZEFSAII (Michael W. Deem and Ramdas Pophale) SiO2 
 PCOD9007617
Probable space group: P -1
;
_chemical_formula_sum "Si O2"
_cell_formula_units_Z 16
_cell_length_a 7.714347
_cell_length_b 12.547303
_cell_length_c 15.776468
_cell_angle_alpha 28.259759
_cell_angle_beta 89.012426
_cell_angle_gamma 98.005560
_cell_volume 683.357222
_symmetry_space_group_name_H-M "P -1"
_symmetry_group_IT_number 2
_symmetry_cell_setting 'triclinic'
loop_
_space_group_symop_operation_xyz
x,y,z
-x,-y,-z
loop_
_atom_site_type_symbol
_atom_site_label
_atom_site_fract_x
_atom_site_fract_y
_atom_site_fract_z
Si Si1 0.176636 0.118423 0.100050
Si Si2 0.651790 0.130428 0.288865
Si Si3 0.826297 0.350980 0.479289
Si Si4 0.443064 0.213474 0.886569
Si Si5 0.393482 0.292807 0.529839
Si Si6 0.142588 0.192745 0.767003
Si Si7 0.774079 0.069465 0.515501
Si Si8 0.840630 0.621800 0.910691
O O1 0.178150 0.291552 0.054924
O O2 0.138151 0.860551 0.322422
O O3 0.367817 0.193600 0.996104
O O4 0.003831 0.058379 0.080705
O O5 0.439104 0.023739 0.389764
O O6 0.699634 0.945634 0.355643
O O7 0.765779 0.140564 0.367942
O O8 0.673560 0.378802 0.067986
O O9 0.608657 0.313604 0.522205
O O10 0.937753 0.602314 0.343799
O O11 0.858491 0.294842 0.420094
O O12 0.592969 0.468092 0.688716
O O13 0.265837 0.184029 0.851558
O O14 0.500000 0.000000 0.000000
O O15 0.284339 0.278827 0.627200
O O16 0.846050 0.845904 0.693422
O O17 0.000000 0.500000 0.000000
#
# Coordination Sequence:
#
# PCOD9007617 Si02
#       8
#     2   2   2   2   2   2   2   2
#     4  11  23  38  61  92 124 164 204 253 319 371
#     4  10  21  40  66  88 125 159 220 262 308 371
#     4   9  19  37  62  86 119 157 204 253 308 372
#     4  11  23  40  61  94 125 156 206 260 311 370
#     4  10  21  39  62  90 118 163 206 255 312 368
#     4  11  21  38  62  88 126 160 201 251 316 379
#     4   9  21  39  64  95 113 167 212 265 311 368
#     4  11  24  41  61  91 134 168 209 259 319 381
#
# _framework density 23.413817000000002
#
# number of rings (size 3 to 8) (size 9 to 14) (size 15 to 20)
#    0.000    1.750    0.000    4.875    7.000    0.500 
#    4.500    0.000    0.000    0.000    0.000    0.000 
#    0.000    0.000    0.000    0.000    0.000    0.000 
#
# Total GULP energy -89347.320724 kJ/mol
# GULP energy per Si atom -5584.207545 kJ/mol
# Density = 2.336053 g / cm^3
# Si number density = 23.413817 Si / 1000 Ang^3
#
#
#
# Elastic Constant Matrix: (Units=GPa)
#
#
# Indices 1 2 3 4 5 6 
#
# 1 40.4713 17.0735 11.0581 0.4201 13.5891 -17.8467
# 2 17.0735 92.1627 18.1087 -19.6982 20.5359 -8.4283
# 3 11.0581 18.1087 58.2709 -19.4786 17.9584 -10.0097
# 4 0.4201 -19.6982 -19.4786 36.1266 -4.9800 4.3973
# 5 13.5891 20.5359 17.9584 -4.9800 29.7251 -8.3455
# 6 -17.8467 -8.4283 -10.0097 4.3973 -8.3455 30.8621
#
#
#
# Elastic Compliance Matrix: (Units=1/GPa)
#
#
# Indices 1 2 3 4 5 6 
#
# 1 0.038883 -0.004645 -0.002525 -0.007911 -0.009007 0.019089
# 2 -0.004645 0.014775 0.001043 0.007779 -0.007844 -0.001542
# 3 -0.002525 0.001043 0.025658 0.012476 -0.012412 0.002012
# 4 -0.007911 0.007779 0.012476 0.038776 -0.004222 -0.005071
# 5 -0.009007 -0.007844 -0.012412 -0.004222 0.050801 0.002963
# 6 0.019089 -0.001542 0.002012 -0.005071 0.002963 0.045196
#
#
# Mechanical properties :
#
#
# Convention : Reuss Voigt Hill
#
# Bulk Modulus (GPa) = 14.91195 31.48728 23.19962
# Shear Modulus (GPa) = 20.10477 28.98706 24.54592
#
# Velocity S-wave (km/s) = 2.93349 3.52239 3.24134
# Velocity P-wave (km/s) = 4.22569 5.47908 4.89269
#
# Compressibility (1/GPa) = 0.06706030
#
# Stress axis : x y z
#
# Youngs Moduli (GPa) = 25.71851 67.68003 38.97470
#
# Poissons Ratio (x) = 0.31440 0.09840
# Poissons Ratio (y) = 0.11947 -0.04063
# Poissons Ratio (z) = 0.06493 -0.07056
#
# Static dielectric constant tensor:
#      x y z
#    x 1.899910 0.079860 0.025330 
#    y 0.079860 1.943300 -0.099690 
#    z 0.025330 -0.099690 2.036400 
# 
# From -- ./inp_files/314648.got.cif
#   From: 2010.05.17/outbox.cif.g08.bks.cpg/sg2_158_cif.got.tgz:314648.got - 2010.06.03 11:33:40.
