data_PCOD9007537
_publ_section_title
;
Structure prediction by ZEFSAII (Michael W. Deem and Ramdas Pophale) SiO2 
 PCOD9007537
Probable space group: P -1
;
_chemical_formula_sum "Si O2"
_cell_formula_units_Z 16
_cell_length_a 7.208943
_cell_length_b 27.762956
_cell_length_c 30.057283
_cell_angle_alpha 170.874463
_cell_angle_beta 123.919136
_cell_angle_gamma 55.231889
_cell_volume 783.164351
_symmetry_space_group_name_H-M "P -1"
_symmetry_group_IT_number 2
_symmetry_cell_setting 'triclinic'
loop_
_space_group_symop_operation_xyz
x,y,z
-x,-y,-z
loop_
_atom_site_type_symbol
_atom_site_label
_atom_site_fract_x
_atom_site_fract_y
_atom_site_fract_z
Si Si1 0.378561 0.333567 0.709976
Si Si2 0.872856 0.215757 0.839328
Si Si3 0.370346 0.720285 0.720302
Si Si4 0.347799 0.857859 0.598956
Si Si5 0.383335 0.564103 0.822980
Si Si6 0.631178 0.519667 0.399033
Si Si7 0.886164 0.083114 0.962508
Si Si8 0.088091 0.639855 0.183916
O O1 0.325109 0.425767 0.735743
O O2 0.641494 0.371212 0.786192
O O3 0.305350 0.993355 0.395996
O O4 0.240634 0.574126 0.944448
O O5 0.085220 0.975773 0.665757
O O6 0.981403 0.446230 0.031213
O O7 0.500000 0.500000 0.500000
O O8 0.377711 0.567091 0.629950
O O9 0.126200 0.881105 0.818307
O O10 0.500000 0.000000 0.000000
O O11 0.454035 0.681514 0.408645
O O12 0.407147 0.618442 0.429540
O O13 0.476548 0.154118 0.892261
O O14 0.162788 0.674374 0.863234
O O15 0.735852 0.829949 0.697890
O O16 0.791442 0.260310 0.156101
O O17 0.000000 0.000000 0.500000
O O18 0.000000 0.500000 0.000000
#
# Coordination Sequence:
#
# PCOD9007537 Si02
#       8
#     2   2   2   2   2   2   2   2
#     4  12  26  43  72 103 134 176 222 275 333 393
#     4  12  26  43  72 103 134 176 222 275 333 393
#     4  12  24  36  56  86 128 166 208 276 324 372
#     4  10  21  40  67  93 129 169 215 273 332 386
#     4  10  21  40  67  93 129 169 215 273 332 386
#     4  10  21  39  62  87 119 170 217 259 316 393
#     4  10  21  39  62  87 119 170 217 259 316 393
#     4  12  28  48  72  98 140 179 218 275 324 394
#
# _framework density 20.429939000000001
#
# number of rings (size 3 to 8) (size 9 to 14) (size 15 to 20)
#    0.000    1.000    1.250    5.250    1.750    5.000 
#    0.000    0.000    0.000    0.000    0.000    0.000 
#    0.000    0.000    0.000    0.000    0.000    0.000 
#
# Total GULP energy -89338.227953 kJ/mol
# GULP energy per Si atom -5583.639247 kJ/mol
# Density = 2.038344 g / cm^3
# Si number density = 20.429939 Si / 1000 Ang^3
#
#
#
# Elastic Constant Matrix: (Units=GPa)
#
#
# Indices 1 2 3 4 5 6 
#
# 1 143.9270 101.3910 77.1995 11.5697 -21.4080 9.5751
# 2 101.3910 133.9516 56.6008 15.0320 -12.9589 13.5450
# 3 77.1995 56.6008 142.8179 -20.2165 -26.2520 1.5727
# 4 11.5697 15.0320 -20.2165 37.5393 0.5619 -10.7347
# 5 -21.4080 -12.9589 -26.2520 0.5619 45.9846 -20.1898
# 6 9.5751 13.5450 1.5727 -10.7347 -20.1898 1.9855
#
#
#
# Elastic Compliance Matrix: (Units=1/GPa)
#
#
# Indices 1 2 3 4 5 6 
#
# 1 0.018269 -0.010947 -0.005527 -0.003777 0.003067 0.001722
# 2 -0.010947 0.014321 0.001225 0.001613 0.004819 0.011842
# 3 -0.005527 0.001225 0.009284 0.001939 -0.003595 -0.015132
# 4 -0.003777 0.001613 0.001939 0.019574 -0.014004 -0.030904
# 5 0.003067 0.004819 -0.003595 -0.014004 0.008737 -0.031691
# 6 0.001722 0.011842 -0.015132 -0.030904 -0.031691 -0.062791
#
#
# Mechanical properties :
#
#
# Convention : Reuss Voigt Hill
#
# Bulk Modulus (GPa) = 87.88920 99.00879 93.44899
# Shear Modulus (GPa) = 119.95203 29.46888 74.71046
#
# Velocity S-wave (km/s) = 7.67081 3.80206 6.05380
# Velocity P-wave (km/s) = 11.02580 8.23663 9.73166
#
# Compressibility (1/GPa) = 0.01137796
#
# Stress axis : x y z
#
# Youngs Moduli (GPa) = 54.73700 69.82693 107.71024
#
# Poissons Ratio (x) = 0.76436 0.59529
# Poissons Ratio (y) = 0.59918 -0.13196
# Poissons Ratio (z) = 0.30252 -0.08555
#
# Static dielectric constant tensor:
#      x y z
#    x 1.710980 -0.003350 0.021310 
#    y -0.003350 1.496340 -0.078300 
#    z 0.021310 -0.078300 1.666890 
# 
# From -- ./inp_files/13574.got.cif
#   From: 2010.05.17/outbox.cif.g08.bks.cpg/sg2_7_cif.got.tgz:13574.got - 2010.06.03 11:33:40.
