data_PCOD9007122
_publ_section_title
;
Structure prediction by ZEFSAII (Michael W. Deem and Ramdas Pophale) SiO2 
 PCOD9007122
Probable space group: P -1
;
_chemical_formula_sum "Si O2"
_cell_formula_units_Z 16
_cell_length_a 29.986420
_cell_length_b 9.660771
_cell_length_c 14.493507
_cell_angle_alpha 50.986146
_cell_angle_beta 20.380283
_cell_angle_gamma 39.328446
_cell_volume 835.242115
_symmetry_space_group_name_H-M "P -1"
_symmetry_group_IT_number 2
_symmetry_cell_setting 'triclinic'
loop_
_space_group_symop_operation_xyz
x,y,z
-x,-y,-z
loop_
_atom_site_type_symbol
_atom_site_label
_atom_site_fract_x
_atom_site_fract_y
_atom_site_fract_z
Si Si1 0.694327 0.367329 0.256085
Si Si2 0.631801 0.578763 0.108843
Si Si3 0.333335 0.552224 0.260340
Si Si4 0.565177 0.936738 0.795248
Si Si5 0.498224 0.792453 0.604792
Si Si6 0.221312 0.655084 0.632073
Si Si7 0.204640 0.806517 0.206772
Si Si8 0.152697 0.030162 0.736195
O O1 0.751849 0.403162 0.034355
O O2 0.548105 0.349294 0.542276
O O3 0.597578 0.607183 0.404039
O O4 0.840425 0.128558 0.131059
O O5 0.580072 0.830142 0.084819
O O6 0.701926 0.428996 0.940959
O O7 0.389669 0.301241 0.226622
O O8 0.207424 0.661960 0.546651
O O9 0.248649 0.722116 0.263148
O O10 0.500000 0.500000 0.000000
O O11 0.732943 0.909001 0.484160
O O12 0.500000 0.000000 0.000000
O O13 0.610653 0.614238 0.548086
O O14 0.500000 0.000000 0.500000
O O15 0.305292 0.892779 0.947121
O O16 0.232445 0.845985 0.571801
O O17 0.049468 0.734830 0.979360
O O18 0.000000 0.000000 0.500000
#
# Coordination Sequence:
#
# PCOD9007122 Si02
#       8
#     2   2   2   2   2   2   2   2
#     4   8  17  33  59  81 110 153 198 244 301 353
#     4   9  18  36  56  84 113 153 201 249 301 360
#     4  12  24  40  64  89 122 168 208 255 319 370
#     4  11  21  37  62  87 124 161 211 252 304 376
#     4  10  21  39  60  85 123 160 197 250 312 368
#     4  10  21  39  63  89 126 158 206 257 319 369
#     4  11  24  41  61  90 127 161 205 258 312 371
#     4   9  20  39  61  90 120 159 205 263 306 368
#
# _framework density 19.156120999999999
#
# number of rings (size 3 to 8) (size 9 to 14) (size 15 to 20)
#    0.000    2.000    2.500    1.500    3.500    1.500 
#    0.000    0.000    0.000    1.500    0.000    0.000 
#    0.000    0.000    0.000    0.000    0.000    0.000 
#
# Total GULP energy -89174.811751 kJ/mol
# GULP energy per Si atom -5573.425734 kJ/mol
# Density = 1.911252 g / cm^3
# Si number density = 19.156121 Si / 1000 Ang^3
#
#
#
# Elastic Constant Matrix: (Units=GPa)
#
#
# Indices 1 2 3 4 5 6 
#
# 1 118.7717 39.4803 28.6030 -5.5287 11.9496 -6.3418
# 2 39.4803 108.6869 45.0946 -14.5478 -6.5505 13.5206
# 3 28.6030 45.0946 87.7454 0.7755 -14.8384 -0.9103
# 4 -5.5287 -14.5478 0.7755 18.2829 1.2291 -6.0341
# 5 11.9496 -6.5505 -14.8384 1.2291 31.8486 -0.0253
# 6 -6.3418 13.5206 -0.9103 -6.0341 -0.0253 29.1601
#
#
#
# Elastic Compliance Matrix: (Units=1/GPa)
#
#
# Indices 1 2 3 4 5 6 
#
# 1 0.011301 -0.003459 -0.002972 0.002717 -0.006437 0.004526
# 2 -0.003459 0.015321 -0.006732 0.009343 0.000947 -0.006132
# 3 -0.002972 -0.006732 0.017264 -0.007010 0.008045 0.001571
# 4 0.002717 0.009343 -0.007010 0.066837 -0.004935 0.009866
# 5 -0.006437 0.000947 0.008045 -0.004935 0.037945 -0.002576
# 6 0.004526 -0.006132 0.001571 0.009866 -0.002576 0.040209
#
#
# Mechanical properties :
#
#
# Convention : Reuss Voigt Hill
#
# Bulk Modulus (GPa) = 56.94952 60.17332 58.56142
# Shear Modulus (GPa) = 22.61856 29.32674 25.97265
#
# Velocity S-wave (km/s) = 3.43993 3.91696 3.68617
# Velocity P-wave (km/s) = 6.75064 7.20673 6.98241
#
# Compressibility (1/GPa) = 0.01755941
#
# Stress axis : x y z
#
# Youngs Moduli (GPa) = 88.48901 65.26975 57.92419
#
# Poissons Ratio (x) = 0.22579 0.17213
# Poissons Ratio (y) = 0.30611 0.38996
# Poissons Ratio (z) = 0.26296 0.43941
#
# Static dielectric constant tensor:
#      x y z
#    x 1.776040 -0.057930 -0.022510 
#    y -0.057930 1.669390 0.015200 
#    z -0.022510 0.015200 1.701990 
# 
# From -- ./inp_files/544875.got.cif
#   From: 2010.05.17/outbox.cif.g08.bks.cpg/sg2_273_cif.got.tgz:544875.got - 2010.06.03 11:33:40.
