data_PCOD9007350
_publ_section_title
;
Structure prediction by ZEFSAII (Michael W. Deem and Ramdas Pophale) SiO2 
 PCOD9007350
Probable space group: P -1
;
_chemical_formula_sum "Si O2"
_cell_formula_units_Z 15
_cell_length_a 12.143518
_cell_length_b 6.157417
_cell_length_c 10.061083
_cell_angle_alpha 101.492384
_cell_angle_beta 73.083280
_cell_angle_gamma 88.246094
_cell_volume 702.156532
_symmetry_space_group_name_H-M "P -1"
_symmetry_group_IT_number 2
_symmetry_cell_setting 'triclinic'
loop_
_space_group_symop_operation_xyz
x,y,z
-x,-y,-z
loop_
_atom_site_type_symbol
_atom_site_label
_atom_site_fract_x
_atom_site_fract_y
_atom_site_fract_z
Si Si1 0.908828 0.264328 0.120292
Si Si2 0.288093 0.805097 0.226012
Si Si3 0.538346 0.817936 0.781807
Si Si4 0.040078 0.923636 0.201244
Si Si5 0.308681 0.552728 0.459193
Si Si6 0.500000 0.500000 0.000000
Si Si7 0.312975 0.924672 0.720709
Si Si8 0.828645 0.712285 0.341674
O O1 0.800560 0.115322 0.158433
O O2 0.861636 0.511426 0.203753
O O3 0.957265 0.226347 0.951994
O O4 0.002104 0.168684 0.185757
O O5 0.164979 0.880735 0.215284
O O6 0.271684 0.711045 0.368266
O O7 0.366728 0.610173 0.098269
O O8 0.364233 0.013400 0.228313
O O9 0.582959 0.612393 0.645553
O O10 0.422646 0.945312 0.776550
O O11 0.513498 0.707119 0.916831
O O12 0.938360 0.854715 0.324276
O O13 0.334532 0.709511 0.592274
O O14 0.209896 0.401106 0.524398
O O15 0.278694 0.133890 0.663657
#
# Coordination Sequence:
#
# PCOD9007350 Si02
#       8
#     2   2   2   2   2   1   2   2
#     4   9  20  38  62  91 116 153 207 255 300 351
#     4  11  24  40  61  91 127 161 196 244 304 363
#     4  11  23  41  64  90 122 161 198 245 304 363
#     4  10  21  39  61  89 123 158 202 251 299 358
#     4  10  23  40  58  90 123 159 207 249 298 354
#     4  10  24  42  60  90 124 154 196 240 298 364
#     4  10  21  39  63  89 120 156 204 254 298 354
#     4  10  21  39  63  89 119 159 206 254 298 345
#
# _framework density 21.362759
#
# number of rings (size 3 to 8) (size 9 to 14) (size 15 to 20)
#    0.000    1.867    0.000    2.800    0.000   10.133 
#    0.000   14.667    0.000    0.000    0.000    0.000 
#    0.000    0.000    0.000    0.000    0.000    0.000 
#
# Total GULP energy -83567.018912 kJ/mol
# GULP energy per Si atom -5571.134594 kJ/mol
# Density = 2.131414 g / cm^3
# Si number density = 21.362759 Si / 1000 Ang^3
#
#
#
# Elastic Constant Matrix: (Units=GPa)
#
#
# Indices 1 2 3 4 5 6 
#
# 1 146.5550 63.1609 39.8761 -43.9361 16.5604 -20.2753
# 2 63.1609 91.2916 35.5337 -23.3096 1.4870 -14.1251
# 3 39.8761 35.5337 70.5799 -40.7655 -17.8361 7.6748
# 4 -43.9361 -23.3096 -40.7655 46.5127 3.2442 -11.8902
# 5 16.5604 1.4870 -17.8361 3.2442 16.7245 -7.7050
# 6 -20.2753 -14.1251 7.6748 -11.8902 -7.7050 23.7474
#
#
#
# Elastic Compliance Matrix: (Units=1/GPa)
#
#
# Indices 1 2 3 4 5 6 
#
# 1 0.021560 -0.003572 -0.007803 0.018617 -0.023522 0.020495
# 2 -0.003572 0.018789 -0.007933 0.002061 -0.001873 0.011114
# 3 -0.007803 -0.007933 0.067408 0.046204 0.078464 0.015427
# 4 0.018617 0.002061 0.046204 0.093712 0.041273 0.062502
# 5 -0.023522 -0.001873 0.078464 0.041273 0.172829 0.030186
# 6 0.020495 0.011114 0.015427 0.062502 0.030186 0.102322
#
#
# Mechanical properties :
#
#
# Convention : Reuss Voigt Hill
#
# Bulk Modulus (GPa) = 14.46282 65.06310 39.76296
# Shear Modulus (GPa) = 9.28880 28.72065 19.00472
#
# Velocity S-wave (km/s) = 2.08748 3.67062 2.98588
# Velocity P-wave (km/s) = 3.54893 6.96326 5.52639
#
# Compressibility (1/GPa) = 0.06914282
#
# Stress axis : x y z
#
# Youngs Moduli (GPa) = 46.38138 53.22134 14.83512
#
# Poissons Ratio (x) = 0.19010 0.11575
# Poissons Ratio (y) = 0.16567 0.11768
# Poissons Ratio (z) = 0.36189 0.42220
#
# Static dielectric constant tensor:
#      x y z
#    x 1.746480 0.015270 -0.012300 
#    y 0.015270 1.788300 0.010400 
#    z -0.012300 0.010400 1.789500 
# 
# From -- ./inp_files/39935.got.cif
#   From: 2010.05.17/outbox.cif.g08.bks.cpg/sg2_20_cif.got.tgz:39935.got - 2010.06.03 11:33:40.
