data_PCOD9007824
_publ_section_title
;
Structure prediction by ZEFSAII (Michael W. Deem and Ramdas Pophale) SiO2 
 PCOD9007824
Probable space group: P -1
;
_chemical_formula_sum "Si O2"
_cell_formula_units_Z 14
_cell_length_a 31.425106
_cell_length_b 15.518152
_cell_length_c 15.460531
_cell_angle_alpha 161.016589
_cell_angle_beta 160.369762
_cell_angle_gamma 18.861316
_cell_volume 709.099860
_symmetry_space_group_name_H-M "P -1"
_symmetry_group_IT_number 2
_symmetry_cell_setting 'triclinic'
loop_
_space_group_symop_operation_xyz
x,y,z
-x,-y,-z
loop_
_atom_site_type_symbol
_atom_site_label
_atom_site_fract_x
_atom_site_fract_y
_atom_site_fract_z
Si Si1 0.174687 0.816422 0.669295
Si Si2 0.275709 0.163512 0.313363
Si Si3 0.450916 0.314651 0.998661
Si Si4 0.416161 0.820511 0.695167
Si Si5 0.545919 0.527774 0.213160
Si Si6 0.093587 0.164098 0.322711
Si Si7 0.254670 0.014150 0.315911
O O1 0.230835 0.515410 0.552066
O O2 0.277232 0.652324 0.625955
O O3 0.000000 0.000000 0.500000
O O4 0.215372 0.055965 0.015994
O O5 0.205045 0.128379 0.232295
O O6 0.449693 0.896612 0.396536
O O7 0.569673 0.214662 0.207323
O O8 0.501576 0.374340 0.059299
O O9 0.320493 0.649935 0.097438
O O10 0.384727 0.090489 0.654174
O O11 0.500000 0.500000 0.500000
O O12 0.249525 0.990620 0.505579
O O13 0.500000 0.000000 0.000000
O O14 0.500000 0.500000 0.000000
O O15 0.133229 0.169119 0.303290
O O16 0.000000 0.500000 0.500000
O O17 0.000000 0.000000 0.000000
#
# Coordination Sequence:
#
# PCOD9007824 Si02
#       7
#     2   2   2   2   2   2   2
#     4  11  22  39  60  88 129 160 196 252 320 368
#     4  10  21  39  63  86 115 166 207 251 297 371
#     4  11  21  38  66  94 118 163 215 266 302 361
#     4  12  22  43  67  90 126 167 214 262 314 378
#     4   9  20  38  63  92 118 157 210 252 296 365
#     4  12  25  41  63  93 129 164 208 258 324 382
#     4  11  21  40  64  91 121 160 215 252 309 375
#
# _framework density 19.743341000000001
#
# number of rings (size 3 to 8) (size 9 to 14) (size 15 to 20)
#    0.000    1.143    2.857    5.143    0.000    3.429 
#    5.143    0.000    0.000    0.000    0.000    0.000 
#    0.000    0.000    0.000    0.000    0.000    0.000 
#
# Total GULP energy -78153.047153 kJ/mol
# GULP energy per Si atom -5582.360511 kJ/mol
# Density = 1.969840 g / cm^3
# Si number density = 19.743341 Si / 1000 Ang^3
#
#
#
# Elastic Constant Matrix: (Units=GPa)
#
#
# Indices 1 2 3 4 5 6 
#
# 1 136.7766 42.5180 15.8534 -4.5418 2.9363 -16.6150
# 2 42.5180 119.9965 41.7014 -8.5299 5.2548 -23.9159
# 3 15.8534 41.7014 95.5356 -1.1717 4.0765 -6.0003
# 4 -4.5418 -8.5299 -1.1717 33.2613 -6.5484 4.9360
# 5 2.9363 5.2548 4.0765 -6.5484 26.0005 0.2716
# 6 -16.6150 -23.9159 -6.0003 4.9360 0.2716 34.5073
#
#
#
# Elastic Compliance Matrix: (Units=1/GPa)
#
#
# Indices 1 2 3 4 5 6 
#
# 1 0.008377 -0.002423 -0.000167 0.000088 -0.000432 0.002316
# 2 -0.002423 0.012140 -0.004434 0.001462 -0.001182 0.006276
# 3 -0.000167 -0.004434 0.012419 -0.000837 -0.001234 -0.000865
# 4 0.000088 0.001462 -0.000837 0.032577 0.008070 -0.003813
# 5 -0.000432 -0.001182 -0.001234 0.008070 0.041003 -0.002719
# 6 0.002316 0.006276 -0.000865 -0.003813 -0.002719 0.034860
#
#
# Mechanical properties :
#
#
# Convention : Reuss Voigt Hill
#
# Bulk Modulus (GPa) = 52.95035 61.38378 57.16707
# Shear Modulus (GPa) = 30.91720 35.56954 33.24337
#
# Velocity S-wave (km/s) = 3.96151 4.24913 4.10784
# Velocity P-wave (km/s) = 6.91392 7.43181 7.17754
#
# Compressibility (1/GPa) = 0.01888562
#
# Stress axis : x y z
#
# Youngs Moduli (GPa) = 119.36804 82.37349 80.52359
#
# Poissons Ratio (x) = 0.19963 0.01348
# Poissons Ratio (y) = 0.28929 0.35707
# Poissons Ratio (z) = 0.01998 0.36527
#
# Static dielectric constant tensor:
#      x y z
#    x 1.717610 0.015950 -0.004210 
#    y 0.015950 1.691370 -0.010400 
#    z -0.004210 -0.010400 1.703700 
# 
# From -- ./inp_files/55733.got.cif
#   From: 2010.05.17/outbox.cif.g08.bks.cpg/sg2_28_cif.got.tgz:55733.got - 2010.06.03 11:33:40.
