data_PCOD9007767
_publ_section_title
;
Structure prediction by ZEFSAII (Michael W. Deem and Ramdas Pophale) SiO2 
 PCOD9007767
Probable space group: P -1
;
_chemical_formula_sum "Si O2"
_cell_formula_units_Z 14
_cell_length_a 24.057038
_cell_length_b 4.970382
_cell_length_c 12.772454
_cell_angle_alpha 53.273476
_cell_angle_beta 148.811561
_cell_angle_gamma 123.000967
_cell_volume 631.877147
_symmetry_space_group_name_H-M "P -1"
_symmetry_group_IT_number 2
_symmetry_cell_setting 'triclinic'
loop_
_space_group_symop_operation_xyz
x,y,z
-x,-y,-z
loop_
_atom_site_type_symbol
_atom_site_label
_atom_site_fract_x
_atom_site_fract_y
_atom_site_fract_z
Si Si1 0.818243 0.849187 0.771365
Si Si2 0.460157 0.825761 0.304216
Si Si3 0.353419 0.656204 0.554968
Si Si4 0.449598 0.024227 0.800336
Si Si5 0.972710 0.878882 0.843358
Si Si6 0.927217 0.764833 0.268502
Si Si7 0.780693 0.285571 0.994461
O O1 0.856683 0.915150 0.698645
O O2 0.750844 0.135827 0.648459
O O3 0.771780 0.483053 0.822919
O O4 0.936341 0.880409 0.008456
O O5 0.500000 0.500000 0.500000
O O6 0.468753 0.817530 0.193269
O O7 0.553314 0.121412 0.409666
O O8 0.338431 0.861512 0.132699
O O9 0.357076 0.285044 0.602365
O O10 0.399498 0.684590 0.742856
O O11 0.500000 0.000000 0.000000
O O12 0.993199 0.986981 0.732199
O O13 0.000000 0.500000 0.000000
O O14 0.832760 0.561943 0.095479
O O15 0.000000 0.500000 0.500000
O O16 0.863556 0.001152 0.185921
#
# Coordination Sequence:
#
# PCOD9007767 Si02
#       7
#     2   2   2   2   2   2   2
#     4  10  21  39  62  96 117 164 207 268 312 372
#     4  10  23  40  67  99 128 163 214 260 321 385
#     4  10  23  39  67  90 129 163 211 257 316 379
#     4  10  23  43  60  86 133 168 207 251 310 381
#     4  10  21  39  65  86 126 159 216 262 321 362
#     4  11  25  44  63  91 130 167 214 260 317 382
#     4  11  22  41  68  92 127 166 204 264 321 371
#
# _framework density 22.156207999999999
#
# number of rings (size 3 to 8) (size 9 to 14) (size 15 to 20)
#    0.857    0.857    2.857    0.857    4.000    2.857 
#    5.143    0.000    0.000    0.000    0.000    0.000 
#    0.000    0.000    0.000    0.000    0.000    0.000 
#
# Total GULP energy -78073.055739 kJ/mol
# GULP energy per Si atom -5576.646838 kJ/mol
# Density = 2.210578 g / cm^3
# Si number density = 22.156208 Si / 1000 Ang^3
#
#
#
# Elastic Constant Matrix: (Units=GPa)
#
#
# Indices 1 2 3 4 5 6 
#
# 1 121.7853 35.6047 40.8420 -3.2056 31.8178 31.7016
# 2 35.6047 61.3903 2.1155 0.1896 22.5952 12.5165
# 3 40.8420 2.1155 88.2295 -8.6281 18.7826 33.0351
# 4 -3.2056 0.1896 -8.6281 34.6511 4.3279 12.4377
# 5 31.8178 22.5952 18.7826 4.3279 53.3526 4.3947
# 6 31.7016 12.5165 33.0351 12.4377 4.3947 42.9936
#
#
#
# Elastic Compliance Matrix: (Units=1/GPa)
#
#
# Indices 1 2 3 4 5 6 
#
# 1 0.013720 -0.004051 -0.001294 0.004822 -0.005681 -0.008757
# 2 -0.004051 0.024701 0.008754 0.007298 -0.010735 -0.011944
# 3 -0.001294 0.008754 0.024575 0.015916 -0.010904 -0.023966
# 4 0.004822 0.007298 0.015916 0.045513 -0.012810 -0.029766
# 5 -0.005681 -0.010735 -0.010904 -0.012810 0.030212 0.016310
# 6 -0.008757 -0.011944 -0.023966 -0.029766 0.016310 0.058553
#
#
# Mechanical properties :
#
#
# Convention : Reuss Voigt Hill
#
# Bulk Modulus (GPa) = 14.32399 47.61438 30.96919
# Shear Modulus (GPa) = 23.39434 39.05565 31.22500
#
# Velocity S-wave (km/s) = 3.25296 4.20306 3.75815
# Velocity P-wave (km/s) = 4.53740 6.71500 5.73059
#
# Compressibility (1/GPa) = 0.06981294
#
# Stress axis : x y z
#
# Youngs Moduli (GPa) = 72.88472 40.48406 40.69248
#
# Poissons Ratio (x) = 0.16402 0.05267
# Poissons Ratio (y) = 0.29529 -0.35624
# Poissons Ratio (z) = 0.09434 -0.35441
#
# Static dielectric constant tensor:
#      x y z
#    x 1.885530 -0.051550 -0.048020 
#    y -0.051550 1.879580 0.067870 
#    z -0.048020 0.067870 1.883860 
# 
# From -- ./inp_files/541998.got.cif
#   From: 2010.05.17/outbox.cif.g08.bks.cpg/sg2_271_cif.got.tgz:541998.got - 2010.06.03 11:33:40.
