data_PCOD9007141
_publ_section_title
;
Structure prediction by ZEFSAII (Michael W. Deem and Ramdas Pophale) SiO2 
 PCOD9007141
Probable space group: P -1
;
_chemical_formula_sum "Si O2"
_cell_formula_units_Z 16
_cell_length_a 23.260724
_cell_length_b 9.290018
_cell_length_c 13.858971
_cell_angle_alpha 52.040386
_cell_angle_beta 33.524241
_cell_angle_gamma 30.514641
_cell_volume 781.036031
_symmetry_space_group_name_H-M "P -1"
_symmetry_group_IT_number 2
_symmetry_cell_setting 'triclinic'
loop_
_space_group_symop_operation_xyz
x,y,z
-x,-y,-z
loop_
_atom_site_type_symbol
_atom_site_label
_atom_site_fract_x
_atom_site_fract_y
_atom_site_fract_z
Si Si1 0.373836 0.058317 0.085531
Si Si2 0.087651 0.839696 0.755427
Si Si3 0.961667 0.376170 0.377558
Si Si4 0.684313 0.770482 0.217004
Si Si5 0.066658 0.618400 0.157793
Si Si6 0.237074 0.865154 0.362553
Si Si7 0.112731 0.193470 0.027067
Si Si8 0.597755 0.699908 0.728577
O O1 0.201627 0.406607 0.145826
O O2 0.314164 0.948236 0.258019
O O3 0.500000 0.000000 0.000000
O O4 0.476795 0.863599 0.923851
O O5 0.249119 0.477946 0.701397
O O6 0.139164 0.889375 0.571636
O O7 0.919100 0.949630 0.925382
O O8 0.039841 0.047618 0.820348
O O9 0.942744 0.616073 0.330756
O O10 0.035740 0.263647 0.211862
O O11 0.784717 0.514129 0.572293
O O12 0.102373 0.102750 0.368059
O O13 0.493481 0.036347 0.329547
O O14 0.818642 0.557511 0.027107
O O15 0.711985 0.937262 0.150233
O O16 0.378266 0.532098 0.255767
O O17 0.000000 0.500000 0.000000
#
# Coordination Sequence:
#
# PCOD9007141 Si02
#       8
#     2   2   2   2   2   2   2   2
#     4  10  24  39  59  87 120 151 191 240 299 341
#     4  11  21  36  64  88 115 150 205 237 279 351
#     4  10  21  39  60  87 119 154 193 233 294 348
#     4   9  21  41  59  85 118 155 194 240 293 334
#     4   9  21  38  62  83 116 159 193 236 287 347
#     4  11  24  38  60  91 114 158 191 237 295 350
#     4   9  19  38  60  87 112 153 198 233 279 343
#     4  11  22  40  62  82 122 155 190 244 293 339
#
# _framework density 20.485610000000001
#
# number of rings (size 3 to 8) (size 9 to 14) (size 15 to 20)
#    0.000    2.000    1.250    1.875    3.500    2.500 
#    0.000    0.625    2.750    0.000    0.000    0.000 
#    0.000    0.000    0.000    0.000    0.000    0.000 
#
# Total GULP energy -89302.964234 kJ/mol
# GULP energy per Si atom -5581.435265 kJ/mol
# Density = 2.043898 g / cm^3
# Si number density = 20.485610 Si / 1000 Ang^3
#
#
#
# Elastic Constant Matrix: (Units=GPa)
#
#
# Indices 1 2 3 4 5 6 
#
# 1 70.8329 33.4496 6.3845 -11.5012 -15.3984 -2.1062
# 2 33.4496 90.0788 27.2646 -17.4270 -8.4692 6.2616
# 3 6.3845 27.2646 31.5739 -16.0703 -3.9859 -5.9869
# 4 -11.5012 -17.4270 -16.0703 30.0936 -0.7173 1.6424
# 5 -15.3984 -8.4692 -3.9859 -0.7173 34.0784 -4.3301
# 6 -2.1062 6.2616 -5.9869 1.6424 -4.3301 27.5953
#
#
#
# Elastic Compliance Matrix: (Units=1/GPa)
#
#
# Indices 1 2 3 4 5 6 
#
# 1 0.020955 -0.008814 0.009967 0.008083 0.009474 0.006767
# 2 -0.008814 0.020134 -0.018187 -0.000958 -0.002333 -0.009496
# 3 0.009967 -0.018187 0.063736 0.026536 0.010381 0.018765
# 4 0.008083 -0.000958 0.026536 0.049862 0.008191 0.004909
# 5 0.009474 -0.002333 0.010381 0.008191 0.035523 0.008591
# 6 0.006767 -0.009496 0.018765 0.004909 0.008591 0.044036
#
#
# Mechanical properties :
#
#
# Convention : Reuss Voigt Hill
#
# Bulk Modulus (GPa) = 14.13275 36.29811 25.21543
# Shear Modulus (GPa) = 17.12916 26.71259 21.92087
#
# Velocity S-wave (km/s) = 2.89477 3.61497 3.27473
# Velocity P-wave (km/s) = 4.25286 5.93138 5.16082
#
# Compressibility (1/GPa) = 0.07075766
#
# Stress axis : x y z
#
# Youngs Moduli (GPa) = 47.72164 49.66614 15.68981
#
# Poissons Ratio (x) = 0.43775 -0.15638
# Poissons Ratio (y) = 0.42062 0.28535
# Poissons Ratio (z) = -0.47565 0.90327
#
# Static dielectric constant tensor:
#      x y z
#    x 1.756070 -0.001680 0.005720 
#    y -0.001680 1.730650 -0.016370 
#    z 0.005720 -0.016370 1.720510 
# 
# From -- ./inp_files/182522.got.cif
#   From: 2010.05.17/outbox.cif.g08.bks.cpg/sg2_92_cif.got.tgz:182522.got - 2010.06.03 11:33:40.
