data_PCOD9007727
_publ_section_title
;
Structure prediction by ZEFSAII (Michael W. Deem and Ramdas Pophale) SiO2 
 PCOD9007727
Probable space group: P -1
;
_chemical_formula_sum "Si O2"
_cell_formula_units_Z 14
_cell_length_a 7.843698
_cell_length_b 11.711725
_cell_length_c 12.207988
_cell_angle_alpha 46.335765
_cell_angle_beta 63.445818
_cell_angle_gamma 54.089801
_cell_volume 655.376547
_symmetry_space_group_name_H-M "P -1"
_symmetry_group_IT_number 2
_symmetry_cell_setting 'triclinic'
loop_
_space_group_symop_operation_xyz
x,y,z
-x,-y,-z
loop_
_atom_site_type_symbol
_atom_site_label
_atom_site_fract_x
_atom_site_fract_y
_atom_site_fract_z
Si Si1 0.057725 0.304470 0.437068
Si Si2 0.498959 0.893030 0.431057
Si Si3 0.474942 0.516109 0.181159
Si Si4 0.913550 0.052161 0.342875
Si Si5 0.350760 0.453371 0.492131
Si Si6 0.579988 0.223509 0.159818
Si Si7 0.036959 0.627059 0.820116
O O1 0.288512 0.200256 0.492886
O O2 0.886664 0.459378 0.452978
O O3 0.056525 0.376785 0.268508
O O4 0.969186 0.155716 0.549739
O O5 0.291656 0.906950 0.546470
O O6 0.549884 0.756213 0.409054
O O7 0.484079 0.082403 0.280880
O O8 0.345168 0.522598 0.322915
O O9 0.479289 0.379579 0.175436
O O10 0.711075 0.446229 0.206389
O O11 0.423629 0.691839 0.012243
O O12 0.816306 0.116782 0.208477
O O13 0.032043 0.170203 0.261930
O O14 0.500000 0.500000 0.500000
O O15 0.000000 0.500000 0.000000
#
# Coordination Sequence:
#
# PCOD9007727 Si02
#       7
#     2   2   2   2   2   2   2
#     4  11  23  39  63  96 124 163 213 255 310 378
#     4  11  22  40  67  93 122 165 218 257 307 370
#     4  10  21  39  62  93 128 167 197 265 318 360
#     4  10  21  40  62  92 124 164 211 263 306 362
#     4  12  23  43  61  90 138 170 202 248 322 385
#     4   9  19  37  66  94 115 159 218 257 306 353
#     4  11  23  37  61  94 127 161 213 260 312 362
#
# _framework density 21.361764999999998
#
# number of rings (size 3 to 8) (size 9 to 14) (size 15 to 20)
#    0.000    1.429    4.286    2.571    4.000    1.143 
#    0.000    5.000    0.000    0.000    0.000    0.000 
#    0.000    0.000    0.000    0.000    0.000    0.000 
#
# Total GULP energy -78203.040298 kJ/mol
# GULP energy per Si atom -5585.931450 kJ/mol
# Density = 2.131314 g / cm^3
# Si number density = 21.361765 Si / 1000 Ang^3
#
#
#
# Elastic Constant Matrix: (Units=GPa)
#
#
# Indices 1 2 3 4 5 6 
#
# 1 95.9009 26.0365 33.0257 -0.1329 1.3921 8.9454
# 2 26.0365 106.5881 36.6911 -3.4755 -7.5199 14.5779
# 3 33.0257 36.6911 147.4956 -15.6860 9.1735 15.9454
# 4 -0.1329 -3.4755 -15.6860 28.3810 4.7040 -1.3649
# 5 1.3921 -7.5199 9.1735 4.7040 36.7066 -4.0757
# 6 8.9454 14.5779 15.9454 -1.3649 -4.0757 31.4264
#
#
#
# Elastic Compliance Matrix: (Units=1/GPa)
#
#
# Indices 1 2 3 4 5 6 
#
# 1 0.011847 -0.002034 -0.002116 -0.001380 -0.000322 -0.001457
# 2 -0.002034 0.011247 -0.002208 -0.000443 0.002635 -0.003196
# 3 -0.002116 -0.002208 0.008907 0.005088 -0.003599 -0.003139
# 4 -0.001380 -0.000443 0.005088 0.038998 -0.006432 -0.001124
# 5 -0.000322 0.002635 -0.003599 -0.006432 0.029997 0.004306
# 6 -0.001457 -0.003196 -0.003139 -0.001124 0.004306 0.035820
#
#
# Mechanical properties :
#
#
# Convention : Reuss Voigt Hill
#
# Bulk Modulus (GPa) = 51.85194 60.16571 56.00883
# Shear Modulus (GPa) = 32.05937 36.25154 34.15546
#
# Velocity S-wave (km/s) = 3.87820 4.12397 4.00297
# Velocity P-wave (km/s) = 6.66182 7.13460 6.90226
#
# Compressibility (1/GPa) = 0.01928568
#
# Stress axis : x y z
#
# Youngs Moduli (GPa) = 84.40995 88.90990 112.26956
#
# Poissons Ratio (x) = 0.18084 0.23755
# Poissons Ratio (y) = 0.17169 0.24789
# Poissons Ratio (z) = 0.17860 0.19631
#
# Static dielectric constant tensor:
#      x y z
#    x 1.875590 0.018550 -0.016600 
#    y 0.018550 1.802430 -0.022460 
#    z -0.016600 -0.022460 1.780080 
# 
# From -- ./inp_files/391985.got.cif
#   From: 2010.05.17/outbox.cif.g08.bks.cpg/sg2_196_cif.got.tgz:391985.got - 2010.06.03 11:33:40.
