data_PCOD9007462
_publ_section_title
;
Structure prediction by ZEFSAII (Michael W. Deem and Ramdas Pophale) SiO2 
 PCOD9007462
Probable space group: P -1
;
_chemical_formula_sum "Si O2"
_cell_formula_units_Z 16
_cell_length_a 16.715475
_cell_length_b 27.021619
_cell_length_c 22.210703
_cell_angle_alpha 11.460901
_cell_angle_beta 158.793574
_cell_angle_gamma 159.120806
_cell_volume 690.690979
_symmetry_space_group_name_H-M "P -1"
_symmetry_group_IT_number 2
_symmetry_cell_setting 'triclinic'
loop_
_space_group_symop_operation_xyz
x,y,z
-x,-y,-z
loop_
_atom_site_type_symbol
_atom_site_label
_atom_site_fract_x
_atom_site_fract_y
_atom_site_fract_z
Si Si1 0.316132 0.796784 0.896060
Si Si2 0.601868 0.717487 0.761411
Si Si3 0.758581 0.481144 0.707045
Si Si4 0.147423 0.438684 0.730148
Si Si5 0.120270 0.282087 0.719035
Si Si6 0.155157 0.113221 0.813141
Si Si7 0.913209 0.758562 0.824419
Si Si8 0.387670 0.696738 0.927340
O O1 0.321278 0.689961 0.959609
O O2 0.167266 0.001138 0.544399
O O3 0.206143 0.571350 0.135717
O O4 0.585463 0.925969 0.953493
O O5 0.408037 0.607593 0.705001
O O6 0.835605 0.734406 0.868802
O O7 0.590719 0.002593 0.433001
O O8 0.500000 0.500000 0.000000
O O9 0.500000 0.500000 0.500000
O O10 0.878700 0.741451 0.444207
O O11 0.824991 0.247790 0.996359
O O12 0.000000 0.500000 0.500000
O O13 0.042200 0.540901 0.592269
O O14 0.069322 0.132264 0.045798
O O15 0.154798 0.272738 0.683531
O O16 0.366084 0.361628 0.829469
O O17 0.000000 0.000000 0.000000
O O18 0.778211 0.507986 0.988681
#
# Coordination Sequence:
#
# PCOD9007462 Si02
#       8
#     2   2   2   2   2   2   2   2
#     4   9  20  44  64  90 124 157 210 271 313 367
#     4  11  26  39  56  95 141 165 199 261 310 372
#     4  10  23  43  66  91 122 159 208 274 327 363
#     4  12  21  37  62  88 125 173 213 243 298 378
#     4  11  19  34  60  87 124 166 204 252 294 358
#     4  10  22  37  61  93 124 162 210 256 306 372
#     4  11  23  40  69  89 122 172 209 250 317 390
#     4  10  21  39  61  95 123 160 218 249 303 384
#
# _framework density 23.165208
#
# number of rings (size 3 to 8) (size 9 to 14) (size 15 to 20)
#    0.000    1.500    2.500    3.375    3.500    1.000 
#    0.000    1.250    0.000   10.500    0.000    0.000 
#    0.000    0.000    0.000    0.000    0.000    0.000 
#
# Total GULP energy -89309.175089 kJ/mol
# GULP energy per Si atom -5581.823443 kJ/mol
# Density = 2.311248 g / cm^3
# Si number density = 23.165208 Si / 1000 Ang^3
#
#
#
# Elastic Constant Matrix: (Units=GPa)
#
#
# Indices 1 2 3 4 5 6 
#
# 1 82.4912 -4.6960 50.8535 4.5303 -9.3795 11.9166
# 2 -4.6960 55.5145 8.8261 13.8135 10.4832 -0.0977
# 3 50.8535 8.8261 99.4081 15.6522 -18.4265 -3.1339
# 4 4.5303 13.8135 15.6522 31.7858 15.5941 15.2658
# 5 -9.3795 10.4832 -18.4265 15.5941 54.3886 3.7092
# 6 11.9166 -0.0977 -3.1339 15.2658 3.7092 25.0163
#
#
#
# Elastic Compliance Matrix: (Units=1/GPa)
#
#
# Indices 1 2 3 4 5 6 
#
# 1 0.025288 0.001099 -0.018133 0.020152 -0.006018 -0.025718
# 2 0.001099 0.021401 -0.000590 -0.011910 -0.001193 0.006931
# 3 -0.018133 -0.000590 0.027765 -0.031519 0.013428 0.029356
# 4 0.020152 -0.011910 -0.031519 0.095344 -0.027629 -0.067680
# 5 -0.006018 -0.001193 0.013428 -0.027629 0.028882 0.017122
# 6 -0.025718 0.006931 0.029356 -0.067680 0.017122 0.094691
#
#
# Mechanical properties :
#
#
# Convention : Reuss Voigt Hill
#
# Bulk Modulus (GPa) = 25.50583 38.59789 32.05186
# Shear Modulus (GPa) = 14.63322 34.40015 24.51669
#
# Velocity S-wave (km/s) = 2.51607 3.85774 3.25674
# Velocity P-wave (km/s) = 4.41306 6.04492 5.29227
#
# Compressibility (1/GPa) = 0.03920672
#
# Stress axis : x y z
#
# Youngs Moduli (GPa) = 39.54456 46.72657 36.01596
#
# Poissons Ratio (x) = -0.05135 0.65309
# Poissons Ratio (y) = -0.04346 0.02124
# Poissons Ratio (z) = 0.71707 0.02755
#
# Static dielectric constant tensor:
#      x y z
#    x 1.905880 0.042440 -0.028240 
#    y 0.042440 1.869980 0.159870 
#    z -0.028240 0.159870 1.749760 
# 
# From -- ./inp_files/312980.got.cif
#   From: 2010.05.17/outbox.cif.g08.bks.cpg/sg2_157_cif.got.tgz:312980.got - 2010.06.03 11:33:40.
