data_PCOD9007941
_publ_section_title
;
Structure prediction by ZEFSAII (Michael W. Deem and Ramdas Pophale) SiO2 
 PCOD9007941
Probable space group: P -1
;
_chemical_formula_sum "Si O2"
_cell_formula_units_Z 16
_cell_length_a 5.181995
_cell_length_b 12.664003
_cell_length_c 14.694184
_cell_angle_alpha 49.120899
_cell_angle_beta 88.878961
_cell_angle_gamma 71.135447
_cell_volume 664.620324
_symmetry_space_group_name_H-M "P -1"
_symmetry_group_IT_number 2
_symmetry_cell_setting 'triclinic'
loop_
_space_group_symop_operation_xyz
x,y,z
-x,-y,-z
loop_
_atom_site_type_symbol
_atom_site_label
_atom_site_fract_x
_atom_site_fract_y
_atom_site_fract_z
Si Si1 0.857618 0.289526 0.490833
Si Si2 0.116186 0.239239 0.019479
Si Si3 0.461615 0.666689 0.713141
Si Si4 0.455686 0.075770 0.858889
Si Si5 0.255571 0.988456 0.570635
Si Si6 0.980171 0.459794 0.735268
Si Si7 0.469950 0.402861 0.971848
Si Si8 0.803582 0.266163 0.713967
O O1 0.652070 0.281340 0.417065
O O2 0.757986 0.298768 0.589090
O O3 0.899290 0.443076 0.381194
O O4 0.136245 0.129286 0.562402
O O5 0.245615 0.331316 0.029783
O O6 0.141388 0.308167 0.880647
O O7 0.786168 0.278610 0.014618
O O8 0.323299 0.062129 0.125828
O O9 0.371216 0.810497 0.700203
O O10 0.793639 0.580413 0.744753
O O11 0.373675 0.531865 0.820754
O O12 0.573699 0.206320 0.782369
O O13 0.128968 0.139785 0.795490
O O14 0.500000 0.000000 0.000000
O O15 0.500000 0.000000 0.500000
O O16 0.000000 0.000000 0.500000
O O17 0.796939 0.405236 0.697935
O O18 0.500000 0.500000 0.000000
#
# Coordination Sequence:
#
# PCOD9007941 Si02
#       8
#     2   2   2   2   2   2   2   2
#     4  11  24  45  66 105 143 177 235 284 358 418
#     4  11  24  44  74  98 138 185 232 285 352 414
#     4  10  23  40  69  94 141 180 223 285 349 417
#     4  12  27  49  70  99 141 187 240 286 347 410
#     4  10  21  39  63  91 128 180 223 268 339 416
#     4  11  23  42  71 101 141 182 232 280 356 419
#     4  11  24  43  69 107 135 180 235 288 349 412
#     4  12  29  42  74 106 138 189 234 295 346 420
#
# _framework density 24.073898
#
# number of rings (size 3 to 8) (size 9 to 14) (size 15 to 20)
#    0.000    1.000    3.750    1.875    7.000    2.500 
#    0.000    1.250    0.000    0.000    0.000    0.000 
#    0.000    0.000    0.000    0.000    0.000    0.000 
#
# Total GULP energy -89422.755716 kJ/mol
# GULP energy per Si atom -5588.922232 kJ/mol
# Density = 2.401910 g / cm^3
# Si number density = 24.073898 Si / 1000 Ang^3
#
#
#
# Elastic Constant Matrix: (Units=GPa)
#
#
# Indices 1 2 3 4 5 6 
#
# 1 74.3442 -6.8064 6.3512 0.3353 -3.6143 2.7469
# 2 -6.8064 91.5184 12.8094 -14.9864 6.4958 -3.2695
# 3 6.3512 12.8094 52.9189 2.4088 6.6493 -4.4132
# 4 0.3353 -14.9864 2.4088 46.9120 -1.3622 10.2147
# 5 -3.6143 6.4958 6.6493 -1.3622 36.3998 -8.3334
# 6 2.7469 -3.2695 -4.4132 10.2147 -8.3334 38.6153
#
#
#
# Elastic Compliance Matrix: (Units=1/GPa)
#
#
# Indices 1 2 3 4 5 6 
#
# 1 0.013868 0.001333 -0.002274 0.000707 0.001345 -0.001030
# 2 0.001333 0.012239 -0.003196 0.004208 -0.001508 -0.000863
# 3 -0.002274 -0.003196 0.020633 -0.002653 -0.002996 0.002304
# 4 0.000707 0.004208 -0.002653 0.024200 -0.000795 -0.006570
# 5 0.001345 -0.001508 -0.002996 -0.000795 0.029783 0.006072
# 6 -0.001030 -0.000863 0.002304 -0.006570 0.006072 0.029208
#
#
# Mechanical properties :
#
#
# Convention : Reuss Voigt Hill
#
# Bulk Modulus (GPa) = 25.99828 27.05446 26.52637
# Shear Modulus (GPa) = 33.10678 38.14723 35.62701
#
# Velocity S-wave (km/s) = 3.71241 3.98501 3.85112
# Velocity P-wave (km/s) = 5.40359 5.69528 5.55135
#
# Compressibility (1/GPa) = 0.03846409
#
# Stress axis : x y z
#
# Youngs Moduli (GPa) = 72.11082 81.70837 48.46623
#
# Poissons Ratio (x) = -0.10893 0.11022
# Poissons Ratio (y) = -0.09613 0.15492
# Poissons Ratio (z) = 0.16399 0.26118
#
# Static dielectric constant tensor:
#      x y z
#    x 1.916620 -0.019110 0.051270 
#    y -0.019110 1.980220 -0.061690 
#    z 0.051270 -0.061690 2.004170 
# 
# From -- ./inp_files/99647.got.cif
#   From: 2010.05.17/outbox.cif.g08.bks.cpg/sg2_50_cif.got.tgz:99647.got - 2010.06.03 11:33:40.
