data_PCOD9007999
_publ_section_title
;
Structure prediction by ZEFSAII (Michael W. Deem and Ramdas Pophale) SiO2 
 PCOD9007999
Probable space group: P -1
;
_chemical_formula_sum "Si O2"
_cell_formula_units_Z 12
_cell_length_a 7.910755
_cell_length_b 11.779270
_cell_length_c 9.802181
_cell_angle_alpha 82.186577
_cell_angle_beta 74.136824
_cell_angle_gamma 38.383193
_cell_volume 540.834981
_symmetry_space_group_name_H-M "P -1"
_symmetry_group_IT_number 2
_symmetry_cell_setting 'triclinic'
loop_
_space_group_symop_operation_xyz
x,y,z
-x,-y,-z
loop_
_atom_site_type_symbol
_atom_site_label
_atom_site_fract_x
_atom_site_fract_y
_atom_site_fract_z
Si Si1 0.214485 0.835437 0.172809
Si Si2 0.803704 0.602972 0.395670
Si Si3 0.255006 0.956394 0.545464
Si Si4 0.843809 0.899638 0.012208
Si Si5 0.521464 0.974465 0.303255
Si Si6 0.871826 0.462132 0.124938
O O1 0.032360 0.928926 0.336909
O O2 0.244335 0.048720 0.403883
O O3 0.049333 0.841783 0.097761
O O4 0.224457 0.957480 0.089232
O O5 0.479298 0.743607 0.490583
O O6 0.759503 0.754221 0.318338
O O7 0.923305 0.463880 0.271992
O O8 0.000000 0.500000 0.500000
O O9 0.422427 0.947022 0.623558
O O10 0.570698 0.990242 0.137468
O O11 0.000713 0.720298 0.926644
O O12 0.533108 0.633278 0.156292
O O13 0.000000 0.500000 0.000000
#
# Coordination Sequence:
#
# PCOD9007999 Si02
#       6
#     2   2   2   2   2   2
#     4  10  23  41  67  94 137 166 215 275 328 385
#     4  10  21  39  63  93 129 168 217 263 319 384
#     4   8  17  39  61  88 122 169 214 252 322 379
#     4  10  21  44  66 100 126 173 212 271 334 382
#     4   8  16  38  64  89 118 169 218 248 320 385
#     4  12  24  42  65 102 131 170 223 270 324 393
#
# _framework density 22.187913999999999
#
# number of rings (size 3 to 8) (size 9 to 14) (size 15 to 20)
#    1.000    1.333    1.667    0.500    0.000    5.333 
#   12.000    0.833    0.000    0.000    0.000    0.000 
#    0.000    0.000    0.000    0.000    0.000    0.000 
#
# Total GULP energy -67025.169524 kJ/mol
# GULP energy per Si atom -5585.430794 kJ/mol
# Density = 2.213741 g / cm^3
# Si number density = 22.187914 Si / 1000 Ang^3
#
#
#
# Elastic Constant Matrix: (Units=GPa)
#
#
# Indices 1 2 3 4 5 6 
#
# 1 88.5966 42.1566 67.9045 2.7855 -8.8055 -9.4044
# 2 42.1566 91.2307 68.2125 15.0154 -7.6423 7.1332
# 3 67.9045 68.2125 185.0600 21.2360 -23.4742 2.7587
# 4 2.7855 15.0154 21.2360 40.7797 1.3707 4.3405
# 5 -8.8055 -7.6423 -23.4742 1.3707 47.6573 8.9485
# 6 -9.4044 7.1332 2.7587 4.3405 8.9485 35.0903
#
#
#
# Elastic Compliance Matrix: (Units=1/GPa)
#
#
# Indices 1 2 3 4 5 6 
#
# 1 0.018537 -0.005709 -0.005315 0.002955 -0.001422 0.006544
# 2 -0.005709 0.017413 -0.003731 -0.003624 0.000858 -0.004547
# 3 -0.005315 -0.003731 0.009577 -0.003164 0.003593 -0.001944
# 4 0.002955 -0.003624 -0.003164 0.027489 -0.002184 -0.001066
# 5 -0.001422 0.000858 0.003593 -0.002184 0.023944 -0.006674
# 6 0.006544 -0.004547 -0.001944 -0.001066 -0.006674 0.033162
#
#
# Mechanical properties :
#
#
# Convention : Reuss Voigt Hill
#
# Bulk Modulus (GPa) = 62.43245 80.15936 71.29590
# Shear Modulus (GPa) = 30.30836 37.14638 33.72737
#
# Velocity S-wave (km/s) = 3.69993 4.09610 3.90305
# Velocity P-wave (km/s) = 6.81556 7.65354 7.24667
#
# Compressibility (1/GPa) = 0.01601731
#
# Stress axis : x y z
#
# Youngs Moduli (GPa) = 53.94480 57.42883 104.41953
#
# Poissons Ratio (x) = 0.32788 0.55494
# Poissons Ratio (y) = 0.30799 0.38959
# Poissons Ratio (z) = 0.28669 0.21427
#
# Static dielectric constant tensor:
#      x y z
#    x 1.849480 -0.004560 0.007940 
#    y -0.004560 1.773530 0.001040 
#    z 0.007940 0.001040 1.857210 
# 
# From -- ./inp_files/179010.got.cif
#   From: 2010.05.17/outbox.cif.g08.bks.cpg/sg2_90_cif.got.tgz:179010.got - 2010.06.03 11:33:40.
