data_PCOD9007238
_publ_section_title
;
Structure prediction by ZEFSAII (Michael W. Deem and Ramdas Pophale) SiO2 
 PCOD9007238
Probable space group: P -1
;
_chemical_formula_sum "Si O2"
_cell_formula_units_Z 16
_cell_length_a 9.168498
_cell_length_b 12.184691
_cell_length_c 11.522989
_cell_angle_alpha 133.490567
_cell_angle_beta 103.961681
_cell_angle_gamma 60.084716
_cell_volume 798.772333
_symmetry_space_group_name_H-M "P -1"
_symmetry_group_IT_number 2
_symmetry_cell_setting 'triclinic'
loop_
_space_group_symop_operation_xyz
x,y,z
-x,-y,-z
loop_
_atom_site_type_symbol
_atom_site_label
_atom_site_fract_x
_atom_site_fract_y
_atom_site_fract_z
Si Si1 0.616452 0.561704 0.993811
Si Si2 0.252026 0.306750 0.486273
Si Si3 0.130669 0.573034 0.451613
Si Si4 0.161873 0.874894 0.590835
Si Si5 0.837468 0.195784 0.725936
Si Si6 0.548058 0.066760 0.221093
Si Si7 0.387569 0.285780 0.130294
Si Si8 0.516090 0.814596 0.346769
O O1 0.792837 0.387163 0.892542
O O2 0.558203 0.625829 0.897894
O O3 0.500000 0.500000 0.000000
O O4 0.613987 0.717633 0.178756
O O5 0.194790 0.466567 0.505078
O O6 0.368297 0.138582 0.307696
O O7 0.373382 0.301908 0.610006
O O8 0.075127 0.326013 0.515982
O O9 0.194009 0.713838 0.557397
O O10 0.215953 0.433539 0.263540
O O11 0.128073 0.824951 0.419971
O O12 0.320543 0.911651 0.654093
O O13 0.994058 0.048995 0.716884
O O14 0.670369 0.170191 0.687969
O O15 0.512086 0.193233 0.195564
O O16 0.621953 0.874648 0.048150
O O17 0.500000 0.000000 0.500000
#
# Coordination Sequence:
#
# PCOD9007238 Si02
#       8
#     2   2   2   2   2   2   2   2
#     4  10  22  38  59  86 126 160 195 255 303 360
#     4  10  21  39  60  94 115 162 206 247 305 364
#     4  10  22  39  65  85 127 153 204 262 298 362
#     4  11  21  38  61  88 118 162 197 252 303 357
#     4  10  22  38  55  88 126 151 204 244 301 364
#     4  10  22  39  68  88 123 157 207 255 305 370
#     4  10  21  41  61  94 120 159 204 258 307 357
#     4  11  21  37  63  87 120 163 202 244 300 373
#
# _framework density 20.030739000000001
#
# number of rings (size 3 to 8) (size 9 to 14) (size 15 to 20)
#    0.000    1.750    2.500    1.500    0.000    6.000 
#    0.000    1.250    0.000   15.750    0.000    0.000 
#    0.000    0.000    0.000    0.000    0.000    0.000 
#
# Total GULP energy -89213.594468 kJ/mol
# GULP energy per Si atom -5575.849654 kJ/mol
# Density = 1.998515 g / cm^3
# Si number density = 20.030739 Si / 1000 Ang^3
#
#
#
# Elastic Constant Matrix: (Units=GPa)
#
#
# Indices 1 2 3 4 5 6 
#
# 1 67.6423 29.0349 25.4410 10.8087 -9.6604 -7.5364
# 2 29.0349 68.1188 41.2669 10.1327 -14.4520 0.5629
# 3 25.4410 41.2669 103.5783 17.8860 -15.4608 -7.7161
# 4 10.8087 10.1327 17.8860 39.5308 4.3445 -6.0728
# 5 -9.6604 -14.4520 -15.4608 4.3445 21.0544 0.2600
# 6 -7.5364 0.5629 -7.7161 -6.0728 0.2600 28.7806
#
#
#
# Elastic Compliance Matrix: (Units=1/GPa)
#
#
# Indices 1 2 3 4 5 6 
#
# 1 0.019464 -0.006494 -0.000625 -0.003217 0.004625 0.004336
# 2 -0.006494 0.023758 -0.006241 -0.003239 0.009471 -0.004607
# 3 -0.000625 -0.006241 0.014431 -0.005122 0.007050 0.002683
# 4 -0.003217 -0.003239 -0.005122 0.031579 -0.014034 0.004638
# 5 0.004625 0.009471 0.007050 -0.014034 0.064200 -0.000625
# 6 0.004336 -0.004607 0.002683 0.004638 -0.000625 0.037675
#
#
# Mechanical properties :
#
#
# Convention : Reuss Voigt Hill
#
# Bulk Modulus (GPa) = 32.32664 47.86944 40.09804
# Shear Modulus (GPa) = 21.91676 27.44625 24.68150
#
# Velocity S-wave (km/s) = 3.31139 3.70565 3.51405
# Velocity P-wave (km/s) = 5.54923 6.50069 6.04371
#
# Compressibility (1/GPa) = 0.03093423
#
# Stress axis : x y z
#
# Youngs Moduli (GPa) = 51.37798 42.09087 69.29518
#
# Poissons Ratio (x) = 0.27334 0.04328
# Poissons Ratio (y) = 0.33365 0.43245
# Poissons Ratio (z) = 0.03209 0.26268
#
# Static dielectric constant tensor:
#      x y z
#    x 1.730280 0.029120 -0.040860 
#    y 0.029120 1.745050 0.003540 
#    z -0.040860 0.003540 1.728510 
# 
# From -- ./inp_files/393128.got.cif
#   From: 2010.05.17/outbox.cif.g08.bks.cpg/sg2_197_cif.got.tgz:393128.got - 2010.06.03 11:33:40.
