data_PCOD9007079
_publ_section_title
;
Structure prediction by ZEFSAII (Michael W. Deem and Ramdas Pophale) SiO2 
 PCOD9007079
Probable space group: P -1
;
_chemical_formula_sum "Si O2"
_cell_formula_units_Z 15
_cell_length_a 11.561016
_cell_length_b 19.878789
_cell_length_c 7.286476
_cell_angle_alpha 90.231565
_cell_angle_beta 83.849119
_cell_angle_gamma 156.962643
_cell_volume 632.004138
_symmetry_space_group_name_H-M "P -1"
_symmetry_group_IT_number 2
_symmetry_cell_setting 'triclinic'
loop_
_space_group_symop_operation_xyz
x,y,z
-x,-y,-z
loop_
_atom_site_type_symbol
_atom_site_label
_atom_site_fract_x
_atom_site_fract_y
_atom_site_fract_z
Si Si1 0.118695 0.139194 0.501977
Si Si2 0.267803 0.962583 0.965451
Si Si3 0.927281 0.656333 0.173784
Si Si4 0.309259 0.837234 0.442617
Si Si5 0.609345 0.360990 0.141811
Si Si6 0.500000 0.500000 0.000000
Si Si7 0.635553 0.701258 0.136110
Si Si8 0.530419 0.168373 0.285309
O O1 0.363249 0.271755 0.301593
O O2 0.286356 0.241423 0.668137
O O3 0.000000 0.000000 0.500000
O O4 0.802620 0.010885 0.556474
O O5 0.528222 0.924014 0.247427
O O6 0.167404 0.832289 0.025153
O O7 0.945904 0.831490 0.001290
O O8 0.443779 0.085709 0.111014
O O9 0.904270 0.566082 0.116118
O O10 0.019902 0.706947 0.371955
O O11 0.622041 0.533736 0.173945
O O12 0.246126 0.750129 0.612975
O O13 0.500000 0.000000 0.500000
O O14 0.630987 0.298039 0.218513
O O15 0.471786 0.290972 0.959431
O O16 0.603784 0.485106 0.875985
#
# Coordination Sequence:
#
# PCOD9007079 Si02
#       8
#     2   2   2   2   2   1   2   2
#     4   9  19  35  60  90 126 162 202 246 305 370
#     4  10  21  41  64  86 121 162 216 253 294 374
#     4  10  21  41  63  90 123 162 204 255 312 363
#     4  12  24  40  65  89 118 166 215 256 305 365
#     4  10  21  39  59  93 131 157 201 256 312 369
#     4   8  18  38  58  84 122 152 200 242 304 368
#     4   9  18  36  59  88 121 162 199 250 307 361
#     4  10  22  38  62  93 121 164 209 248 307 369
#
# _framework density 23.734020000000001
#
# number of rings (size 3 to 8) (size 9 to 14) (size 15 to 20)
#    0.000    2.133    1.333    1.200    0.000    7.467 
#    7.200    7.333    0.000    0.000    0.000    0.000 
#    0.000    0.000    0.000    0.000    0.000    0.000 
#
# Total GULP energy -83501.422982 kJ/mol
# GULP energy per Si atom -5566.761532 kJ/mol
# Density = 2.368000 g / cm^3
# Si number density = 23.734020 Si / 1000 Ang^3
#
#
#
# Elastic Constant Matrix: (Units=GPa)
#
#
# Indices 1 2 3 4 5 6 
#
# 1 80.5233 38.2381 40.8623 7.1944 35.5561 -13.4101
# 2 38.2381 79.9139 29.6472 9.0063 18.8143 -16.9258
# 3 40.8623 29.6472 98.9582 33.1801 33.5007 -7.6083
# 4 7.1944 9.0063 33.1801 44.3058 8.0962 1.5650
# 5 35.5561 18.8143 33.5007 8.0962 65.8432 0.1679
# 6 -13.4101 -16.9258 -7.6083 1.5650 0.1679 32.1655
#
#
#
# Elastic Compliance Matrix: (Units=1/GPa)
#
#
# Indices 1 2 3 4 5 6 
#
# 1 0.021884 -0.006053 -0.005163 0.002809 -0.007818 0.004621
# 2 -0.006053 0.017727 -0.001487 -0.001580 -0.000862 0.006534
# 3 -0.005163 -0.001487 0.018403 -0.011854 -0.004698 0.002019
# 4 0.002809 -0.001580 -0.011854 0.031247 0.001134 -0.003991
# 5 -0.007818 -0.000862 -0.004698 0.001134 0.021920 -0.004994
# 6 0.004621 0.006534 0.002019 -0.003991 -0.004994 0.037152
#
#
# Mechanical properties :
#
#
# Convention : Reuss Voigt Hill
#
# Bulk Modulus (GPa) = 30.66784 52.98783 41.82783
# Shear Modulus (GPa) = 27.08465 38.50609 32.79537
#
# Velocity S-wave (km/s) = 3.38179 4.03227 3.72127
# Velocity P-wave (km/s) = 5.31020 6.63725 6.01046
#
# Compressibility (1/GPa) = 0.03260745
#
# Stress axis : x y z
#
# Youngs Moduli (GPa) = 45.69546 56.41269 54.33950
#
# Poissons Ratio (x) = 0.34147 0.28053
# Poissons Ratio (y) = 0.27660 0.08082
# Poissons Ratio (z) = 0.23591 0.08390
#
# Static dielectric constant tensor:
#      x y z
#    x 1.918160 0.048220 -0.006920 
#    y 0.048220 2.296980 0.018630 
#    z -0.006920 0.018630 1.852460 
# 
# From -- ./inp_files/280503.got.cif
#   From: 2010.05.17/outbox.cif.g08.bks.cpg/sg2_141_cif.got.tgz:280503.got - 2010.06.03 11:33:40.
