data_PCOD9007901
_publ_section_title
;
Structure prediction by ZEFSAII (Michael W. Deem and Ramdas Pophale) SiO2 
 PCOD9007901
Probable space group: P -1
;
_chemical_formula_sum "Si O2"
_cell_formula_units_Z 14
_cell_length_a 11.025413
_cell_length_b 11.643991
_cell_length_c 5.628909
_cell_angle_alpha 77.357390
_cell_angle_beta 66.373077
_cell_angle_gamma 53.340295
_cell_volume 530.898872
_symmetry_space_group_name_H-M "P -1"
_symmetry_group_IT_number 2
_symmetry_cell_setting 'triclinic'
loop_
_space_group_symop_operation_xyz
x,y,z
-x,-y,-z
loop_
_atom_site_type_symbol
_atom_site_label
_atom_site_fract_x
_atom_site_fract_y
_atom_site_fract_z
Si Si1 0.534521 0.084705 0.123968
Si Si2 0.588895 0.283013 0.712094
Si Si3 0.669609 0.658488 0.494783
Si Si4 0.844631 0.915101 0.222529
Si Si5 0.705694 0.447652 0.938470
Si Si6 0.976539 0.613689 0.276318
Si Si7 0.144430 0.821447 0.776082
O O1 0.384357 0.225152 0.304097
O O2 0.662747 0.978791 0.267109
O O3 0.621336 0.151062 0.898859
O O4 0.500000 0.000000 0.000000
O O5 0.483108 0.287312 0.573754
O O6 0.749261 0.260841 0.497940
O O7 0.466614 0.434185 0.867546
O O8 0.709727 0.513835 0.654858
O O9 0.818367 0.646696 0.251115
O O10 0.923286 0.765524 0.363391
O O11 0.856308 0.036833 0.274657
O O12 0.963230 0.867402 0.921699
O O13 0.854438 0.441857 0.954724
O O14 0.756769 0.288276 0.030723
O O15 0.000000 0.500000 0.500000
#
# Coordination Sequence:
#
# PCOD9007901 Si02
#       7
#     2   2   2   2   2   2   2
#     4  11  24  39  61  96 127 159 210 257 307 373
#     4  11  22  38  63  91 123 168 208 249 312 365
#     4  10  21  39  63  90 126 165 204 259 310 360
#     4  10  21  40  64  91 126 163 206 258 306 369
#     4   9  21  40  59  92 124 161 215 253 299 372
#     4   9  19  38  65  88 119 162 205 254 312 361
#     4  10  21  40  64  89 127 167 206 251 309 369
#
# _framework density 26.370367000000002
#
# number of rings (size 3 to 8) (size 9 to 14) (size 15 to 20)
#    0.000    2.000    1.429    1.286    2.000    2.857 
#    2.571    7.143    0.000    0.000    0.000    0.000 
#    0.000    0.000    0.000    0.000    0.000    0.000 
#
# Total GULP energy -78276.477527 kJ/mol
# GULP energy per Si atom -5591.176966 kJ/mol
# Density = 2.631035 g / cm^3
# Si number density = 26.370367 Si / 1000 Ang^3
#
#
#
# Elastic Constant Matrix: (Units=GPa)
#
#
# Indices 1 2 3 4 5 6 
#
# 1 75.8583 31.7885 21.2653 21.9013 -26.5640 17.6385
# 2 31.7885 193.0582 21.0635 -18.9351 1.2509 25.2678
# 3 21.2653 21.0635 49.1558 -1.4514 -21.9777 9.7929
# 4 21.9013 -18.9351 -1.4514 41.0961 1.5121 -4.3668
# 5 -26.5640 1.2509 -21.9777 1.5121 45.9786 11.5364
# 6 17.6385 25.2678 9.7929 -4.3668 11.5364 46.6462
#
#
#
# Elastic Compliance Matrix: (Units=1/GPa)
#
#
# Indices 1 2 3 4 5 6 
#
# 1 0.038442 -0.006691 0.003276 -0.026863 0.030260 -0.021598
# 2 -0.006691 0.007155 -0.002965 0.007135 -0.006076 0.001448
# 3 0.003276 -0.002965 0.031291 -0.003964 0.019948 -0.011506
# 4 -0.026863 0.007135 -0.003964 0.044469 -0.023352 0.017063
# 5 0.030260 -0.006076 0.019948 -0.023352 0.056874 -0.028591
# 6 -0.021598 0.001448 -0.011506 0.017063 -0.028591 0.039905
#
#
# Mechanical properties :
#
#
# Convention : Reuss Voigt Hill
#
# Bulk Modulus (GPa) = 15.59421 51.81188 33.70304
# Shear Modulus (GPa) = 19.81986 43.00785 31.41385
#
# Velocity S-wave (km/s) = 2.74450 4.04284 3.45520
# Velocity P-wave (km/s) = 3.99617 6.44074 5.35969
#
# Compressibility (1/GPa) = 0.06412638
#
# Stress axis : x y z
#
# Youngs Moduli (GPa) = 26.01314 139.76644 31.95818
#
# Poissons Ratio (x) = 0.93520 -0.10469
# Poissons Ratio (y) = 0.17406 0.09477
# Poissons Ratio (z) = -0.08522 0.41447
#
# Static dielectric constant tensor:
#      x y z
#    x 2.110630 -0.001310 0.020710 
#    y -0.001310 2.075280 0.024970 
#    z 0.020710 0.024970 2.089770 
# 
# From -- ./inp_files/69675.got.cif
#   From: 2010.05.17/outbox.cif.g08.bks.cpg/sg2_35_cif.got.tgz:69675.got - 2010.06.03 11:33:40.
