data_PCOD9007820
_publ_section_title
;
Structure prediction by ZEFSAII (Michael W. Deem and Ramdas Pophale) SiO2 
 PCOD9007820
Probable space group: P -1
;
_chemical_formula_sum "Si O2"
_cell_formula_units_Z 16
_cell_length_a 8.983796
_cell_length_b 16.214501
_cell_length_c 14.812142
_cell_angle_alpha 34.637507
_cell_angle_beta 37.768603
_cell_angle_gamma 53.198981
_cell_volume 742.904114
_symmetry_space_group_name_H-M "P -1"
_symmetry_group_IT_number 2
_symmetry_cell_setting 'triclinic'
loop_
_space_group_symop_operation_xyz
x,y,z
-x,-y,-z
loop_
_atom_site_type_symbol
_atom_site_label
_atom_site_fract_x
_atom_site_fract_y
_atom_site_fract_z
Si Si1 0.654290 0.824904 0.624518
Si Si2 0.253054 0.052432 0.994313
Si Si3 0.504783 0.792959 0.420670
Si Si4 0.387322 0.743066 0.259070
Si Si5 0.723476 0.027026 0.249585
Si Si6 0.709429 0.501673 0.623698
Si Si7 0.062037 0.652675 0.666547
Si Si8 0.590650 0.449717 0.098750
O O1 0.748355 0.971135 0.391374
O O2 0.506911 0.720730 0.713598
O O3 0.872892 0.758149 0.626772
O O4 0.455584 0.853186 0.768257
O O5 0.462691 0.098943 0.778181
O O6 0.343827 0.170535 0.921963
O O7 0.246721 0.882680 0.177255
O O8 0.002581 0.078323 0.043789
O O9 0.602570 0.898621 0.359105
O O10 0.659554 0.657056 0.465831
O O11 0.223776 0.715482 0.617798
O O12 0.383811 0.631599 0.278801
O O13 0.249779 0.652687 0.491433
O O14 0.555731 0.492808 0.799271
O O15 0.000000 0.500000 0.500000
O O16 0.881378 0.504384 0.911702
O O17 0.500000 0.500000 0.000000
#
# Coordination Sequence:
#
# PCOD9007820 Si02
#       8
#     2   2   2   2   2   2   2   2
#     4  10  21  39  63  85 124 171 207 254 321 379
#     4  10  22  41  66  93 131 166 214 264 319 380
#     4  11  25  40  65 100 127 165 216 272 314 381
#     4  10  22  42  67  94 129 176 207 263 325 378
#     4  11  21  39  62  91 121 169 213 255 317 378
#     4  12  24  42  67  96 132 168 217 267 319 383
#     4  10  22  43  65  92 135 163 211 267 324 378
#     4  10  22  41  65  92 124 174 209 261 323 379
#
# _framework density 21.537099000000001
#
# number of rings (size 3 to 8) (size 9 to 14) (size 15 to 20)
#    0.000    1.500    2.500    2.625    0.000    9.000 
#    4.500    0.000    0.000    0.000    0.000    0.000 
#    0.000    0.000    0.000    0.000    0.000    0.000 
#
# Total GULP energy -89186.135262 kJ/mol
# GULP energy per Si atom -5574.133454 kJ/mol
# Density = 2.148808 g / cm^3
# Si number density = 21.537099 Si / 1000 Ang^3
#
#
#
# Elastic Constant Matrix: (Units=GPa)
#
#
# Indices 1 2 3 4 5 6 
#
# 1 81.0143 45.5973 44.8579 -28.7051 -36.5976 3.7567
# 2 45.5973 128.1067 35.0896 -15.0938 -28.4858 30.4595
# 3 44.8579 35.0896 35.5263 51.4618 -7.0302 31.7043
# 4 -28.7051 -15.0938 51.4618 -34.5590 -3.0521 -26.7715
# 5 -36.5976 -28.4858 -7.0302 -3.0521 47.9569 -5.0010
# 6 3.7567 30.4595 31.7043 -26.7715 -5.0010 22.3579
#
#
#
# Elastic Compliance Matrix: (Units=1/GPa)
#
#
# Indices 1 2 3 4 5 6 
#
# 1 0.015654 -0.003223 0.000595 -0.007155 0.009077 -0.005621
# 2 -0.003223 0.013326 -0.001820 0.002437 0.004179 -0.011179
# 3 0.000595 -0.001820 0.009546 0.011760 0.001870 0.003343
# 4 -0.007155 0.002437 0.011760 0.004627 -0.003457 -0.014028
# 5 0.009077 0.004179 0.001870 -0.003457 0.029544 -0.007400
# 6 -0.005621 -0.011179 0.003343 -0.014028 -0.007400 0.037709
#
#
# Mechanical properties :
#
#
# Convention : Reuss Voigt Hill
#
# Bulk Modulus (GPa) = 33.74946 55.08189 44.41568
# Shear Modulus (GPa) = 38.70679 15.09132 26.89906
#
# Velocity S-wave (km/s) = 4.24396 2.64997 3.53790
# Velocity P-wave (km/s) = 6.30232 5.91557 6.11201
#
# Compressibility (1/GPa) = 0.02963010
#
# Stress axis : x y z
#
# Youngs Moduli (GPa) = 63.88229 75.04125 104.75958
#
# Poissons Ratio (x) = 0.24184 -0.06236
# Poissons Ratio (y) = 0.20588 0.19068
# Poissons Ratio (z) = -0.03803 0.13659
#
# Static dielectric constant tensor:
#      x y z
#    x 1.814120 -0.009380 0.020500 
#    y -0.009380 1.797770 0.008300 
#    z 0.020500 0.008300 1.875820 
# 
# From -- ./inp_files/503752.got.cif
#   From: 2010.05.17/outbox.cif.g08.bks.cpg/sg2_252_cif.got.tgz:503752.got - 2010.06.03 11:33:40.
