data_PCOD9007710
_publ_section_title
;
Structure prediction by ZEFSAII (Michael W. Deem and Ramdas Pophale) SiO2 
 PCOD9007710
Probable space group: P -1
;
_chemical_formula_sum "Si O2"
_cell_formula_units_Z 14
_cell_length_a 20.211128
_cell_length_b 8.467899
_cell_length_c 9.107046
_cell_angle_alpha 44.276769
_cell_angle_beta 43.135898
_cell_angle_gamma 42.018909
_cell_volume 659.882895
_symmetry_space_group_name_H-M "P -1"
_symmetry_group_IT_number 2
_symmetry_cell_setting 'triclinic'
loop_
_space_group_symop_operation_xyz
x,y,z
-x,-y,-z
loop_
_atom_site_type_symbol
_atom_site_label
_atom_site_fract_x
_atom_site_fract_y
_atom_site_fract_z
Si Si1 0.311864 0.281437 0.731894
Si Si2 0.893197 0.262021 0.113902
Si Si3 0.885888 0.816350 0.281100
Si Si4 0.387982 0.044888 0.078576
Si Si5 0.188627 0.506914 0.231653
Si Si6 0.464065 0.485074 0.234804
Si Si7 0.295590 0.851695 0.865255
O O1 0.198367 0.535740 0.768671
O O2 0.392183 0.337308 0.461014
O O3 0.290977 0.053432 0.858242
O O4 0.369421 0.192011 0.855997
O O5 0.893397 0.990114 0.285783
O O6 0.860841 0.369944 0.927422
O O7 0.014757 0.225916 0.960121
O O8 0.892720 0.553532 0.500055
O O9 0.771755 0.982515 0.273936
O O10 0.396158 0.769203 0.218275
O O11 0.288476 0.231444 0.216071
O O12 0.500000 0.000000 0.000000
O O13 0.237134 0.678302 0.114180
O O14 0.576769 0.335377 0.241931
O O15 0.500000 0.500000 0.000000
#
# Coordination Sequence:
#
# PCOD9007710 Si02
#       7
#     2   2   2   2   2   2   2
#     4  11  25  41  61  88 126 159 201 252 296 364
#     4   9  21  43  61  93 117 158 204 245 307 349
#     4  10  21  39  68  86 122 157 200 256 293 355
#     4  11  23  38  60  89 122 156 200 246 297 358
#     4  10  21  39  62  93 120 157 201 247 297 362
#     4  12  25  41  62  87 124 166 198 245 305 362
#     4  11  24  37  61  91 121 159 204 239 307 355
#
# _framework density 21.215886999999999
#
# number of rings (size 3 to 8) (size 9 to 14) (size 15 to 20)
#    0.000    1.429    2.857    1.714    4.000    1.143 
#    0.000    0.714    0.000    0.000    0.000    0.000 
#    0.000    0.000    0.000    0.000    0.000    0.000 
#
# Total GULP energy -78247.116868 kJ/mol
# GULP energy per Si atom -5589.079776 kJ/mol
# Density = 2.116760 g / cm^3
# Si number density = 21.215887 Si / 1000 Ang^3
#
#
#
# Elastic Constant Matrix: (Units=GPa)
#
#
# Indices 1 2 3 4 5 6 
#
# 1 65.0720 26.9317 41.5829 -2.6740 -12.0600 1.7961
# 2 26.9317 99.2538 25.8409 -5.3064 -15.7911 -0.5333
# 3 41.5829 25.8409 106.9636 -6.0404 -22.6586 11.2204
# 4 -2.6740 -5.3064 -6.0404 22.5335 5.4279 -8.2868
# 5 -12.0600 -15.7911 -22.6586 5.4279 23.0636 -8.5450
# 6 1.7961 -0.5333 11.2204 -8.2868 -8.5450 36.5406
#
#
#
# Elastic Compliance Matrix: (Units=1/GPa)
#
#
# Indices 1 2 3 4 5 6 
#
# 1 0.021960 -0.003668 -0.007318 -0.000204 0.002437 0.001638
# 2 -0.003668 0.012317 -0.000280 0.001648 0.006739 0.002396
# 3 -0.007318 -0.000280 0.014471 -0.000035 0.009514 -0.001871
# 4 -0.000204 0.001648 -0.000035 0.050036 -0.007191 0.009711
# 5 0.002437 0.006739 0.009514 -0.007191 0.064149 0.010428
# 6 0.001638 0.002396 -0.001871 0.009711 0.010428 0.032537
#
#
# Mechanical properties :
#
#
# Convention : Reuss Voigt Hill
#
# Bulk Modulus (GPa) = 38.14533 51.11117 44.62825
# Shear Modulus (GPa) = 22.05161 28.22313 25.13737
#
# Velocity S-wave (km/s) = 3.22746 3.65126 3.44588
# Velocity P-wave (km/s) = 5.64865 6.47448 6.07561
#
# Compressibility (1/GPa) = 0.02621553
#
# Stress axis : x y z
#
# Youngs Moduli (GPa) = 45.53691 81.19143 69.10230
#
# Poissons Ratio (x) = 0.29780 0.50571
# Poissons Ratio (y) = 0.16702 0.01936
# Poissons Ratio (z) = 0.33325 0.02275
#
# Static dielectric constant tensor:
#      x y z
#    x 1.769910 -0.014710 -0.000560 
#    y -0.014710 1.777790 -0.008680 
#    z -0.000560 -0.008680 1.792530 
# 
# From -- ./inp_files/27536.got.cif
#   From: 2010.05.17/outbox.cif.g08.bks.cpg/sg2_14_cif.got.tgz:27536.got - 2010.06.03 11:33:40.
