data_PCOD9007764
_publ_section_title
;
Structure prediction by ZEFSAII (Michael W. Deem and Ramdas Pophale) SiO2 
 PCOD9007764
Probable space group: P -1
;
_chemical_formula_sum "Si O2"
_cell_formula_units_Z 16
_cell_length_a 7.507104
_cell_length_b 9.262589
_cell_length_c 22.836763
_cell_angle_alpha 40.633800
_cell_angle_beta 50.275671
_cell_angle_gamma 67.146820
_cell_volume 780.424628
_symmetry_space_group_name_H-M "P -1"
_symmetry_group_IT_number 2
_symmetry_cell_setting 'triclinic'
loop_
_space_group_symop_operation_xyz
x,y,z
-x,-y,-z
loop_
_atom_site_type_symbol
_atom_site_label
_atom_site_fract_x
_atom_site_fract_y
_atom_site_fract_z
Si Si1 0.351520 0.227834 0.294169
Si Si2 0.341294 0.631132 0.257391
Si Si3 0.498291 0.841879 0.457378
Si Si4 0.058770 0.101561 0.723289
Si Si5 0.690877 0.496273 0.307211
Si Si6 0.068379 0.865869 0.677074
Si Si7 0.220319 0.034540 0.900397
Si Si8 0.819590 0.263751 0.105989
O O1 0.339261 0.464220 0.254945
O O2 0.118123 0.139314 0.333012
O O3 0.579615 0.264225 0.192591
O O4 0.380197 0.037771 0.394443
O O5 0.431864 0.498705 0.333871
O O6 0.546125 0.857764 0.144708
O O7 0.099172 0.713745 0.291525
O O8 0.329616 0.636389 0.586952
O O9 0.673397 0.786524 0.386720
O O10 0.686559 0.954077 0.432923
O O11 0.966829 0.940543 0.736153
O O12 0.064386 0.926754 0.827789
O O13 0.801205 0.759140 0.202833
O O14 0.841932 0.371054 0.269871
O O15 0.234640 0.820019 0.923415
O O16 0.000000 0.000000 0.000000
O O17 0.000000 0.500000 0.000000
#
# Coordination Sequence:
#
# PCOD9007764 Si02
#       8
#     2   2   2   2   2   2   2   2
#     4  11  22  40  68  95 134 173 219 259 320 390
#     4  10  21  39  62  95 134 164 214 266 321 375
#     4   9  20  42  62  93 134 175 212 265 314 386
#     4   9  22  40  63  94 132 164 217 264 315 386
#     4  10  21  40  66  91 134 169 214 269 320 379
#     4  10  21  39  66  92 130 175 216 253 327 375
#     4  10  23  41  66  91 125 165 211 269 326 375
#     4  11  23  44  67  93 128 174 215 271 325 384
#
# _framework density 20.501660000000001
#
# number of rings (size 3 to 8) (size 9 to 14) (size 15 to 20)
#    1.500    0.500    1.250    1.875    3.500    1.000 
#    2.250    5.000    0.000    0.000    0.000    0.000 
#    0.000    0.000    0.000    0.000    0.000    0.000 
#
# Total GULP energy -89141.369481 kJ/mol
# GULP energy per Si atom -5571.335593 kJ/mol
# Density = 2.045500 g / cm^3
# Si number density = 20.501660 Si / 1000 Ang^3
#
#
#
# Elastic Constant Matrix: (Units=GPa)
#
#
# Indices 1 2 3 4 5 6 
#
# 1 105.9163 50.4166 28.6821 -6.5566 3.6408 0.5648
# 2 50.4166 151.2900 28.9365 -5.9657 5.7554 -3.4947
# 3 28.6821 28.9365 75.6943 -0.8667 -2.4118 9.7826
# 4 -6.5566 -5.9657 -0.8667 16.5005 2.8537 -1.1839
# 5 3.6408 5.7554 -2.4118 2.8537 12.2177 -4.4111
# 6 0.5648 -3.4947 9.7826 -1.1839 -4.4111 39.7554
#
#
#
# Elastic Compliance Matrix: (Units=1/GPa)
#
#
# Indices 1 2 3 4 5 6 
#
# 1 0.012271 -0.003092 -0.003559 0.004246 -0.003848 0.000129
# 2 -0.003092 0.008320 -0.002226 0.002362 -0.003631 0.000990
# 3 -0.003559 -0.002226 0.015998 -0.002421 0.004514 -0.003653
# 4 0.004246 0.002362 -0.002421 0.066192 -0.018060 0.000710
# 5 -0.003848 -0.003631 0.004514 -0.018060 0.092843 0.008389
# 6 0.000129 0.000990 -0.003653 0.000710 0.008389 0.027090
#
#
# Mechanical properties :
#
#
# Convention : Reuss Voigt Hill
#
# Bulk Modulus (GPa) = 53.08535 60.99679 57.04107
# Shear Modulus (GPa) = 20.26369 28.68576 24.47472
#
# Velocity S-wave (km/s) = 3.14728 3.74464 3.45888
# Velocity P-wave (km/s) = 6.25752 6.96513 6.62079
#
# Compressibility (1/GPa) = 0.01883759
#
# Stress axis : x y z
#
# Youngs Moduli (GPa) = 81.49120 120.19203 62.50596
#
# Poissons Ratio (x) = 0.37162 0.22243
# Poissons Ratio (y) = 0.25196 0.13912
# Poissons Ratio (z) = 0.28999 0.26750
#
# Static dielectric constant tensor:
#      x y z
#    x 1.774940 0.044800 -0.009320 
#    y 0.044800 1.766030 0.006620 
#    z -0.009320 0.006620 1.710760 
# 
# From -- ./inp_files/606326.got.cif
#   From: 2010.05.17/outbox.cif.g08.bks.cpg/sg2_304_cif.got.tgz:606326.got - 2010.06.03 11:33:40.
