data_PCOD9007662
_publ_section_title
;
Structure prediction by ZEFSAII (Michael W. Deem and Ramdas Pophale) SiO2 
 PCOD9007662
Probable space group: P -1
;
_chemical_formula_sum "Si O2"
_cell_formula_units_Z 16
_cell_length_a 25.498996
_cell_length_b 10.147588
_cell_length_c 7.016694
_cell_angle_alpha 132.614642
_cell_angle_beta 42.168759
_cell_angle_gamma 134.581291
_cell_volume 820.104247
_symmetry_space_group_name_H-M "P -1"
_symmetry_group_IT_number 2
_symmetry_cell_setting 'triclinic'
loop_
_space_group_symop_operation_xyz
x,y,z
-x,-y,-z
loop_
_atom_site_type_symbol
_atom_site_label
_atom_site_fract_x
_atom_site_fract_y
_atom_site_fract_z
Si Si1 0.359722 0.509497 0.300597
Si Si2 0.466840 0.163870 0.722170
Si Si3 0.054266 0.664111 0.362778
Si Si4 0.578411 0.681127 0.373414
Si Si5 0.175156 0.455400 0.711812
Si Si6 0.864161 0.910785 0.252245
Si Si7 0.939548 0.795301 0.560740
Si Si8 0.326288 0.181344 0.366948
O O1 0.458867 0.655675 0.195381
O O2 0.278742 0.563960 0.543559
O O3 0.344314 0.390928 0.424788
O O4 0.361286 0.383614 0.988019
O O5 0.458725 0.211124 0.570743
O O6 0.500000 0.000000 0.500000
O O7 0.376301 0.101234 0.007753
O O8 0.000000 0.500000 0.500000
O O9 0.995646 0.676863 0.359067
O O10 0.081845 0.878699 0.593867
O O11 0.130172 0.600904 0.031618
O O12 0.500000 0.500000 0.500000
O O13 0.632773 0.803449 0.522447
O O14 0.150577 0.270454 0.742605
O O15 0.135044 0.346599 0.515354
O O16 0.774465 0.922800 0.459434
O O17 0.902254 0.859748 0.909793
O O18 0.000000 0.000000 0.500000
#
# Coordination Sequence:
#
# PCOD9007662 Si02
#       8
#     2   2   2   2   2   2   2   2
#     4  10  21  39  62  91 124 164 209 250 311 367
#     4  11  23  37  60  92 128 163 201 256 310 361
#     4  12  24  44  70  93 129 169 213 262 329 386
#     4  11  18  39  64  85 115 169 216 240 299 377
#     4  11  24  42  66  98 132 167 212 271 312 381
#     4  11  24  43  65 100 131 165 213 268 321 375
#     4  12  23  44  70  93 129 169 214 262 326 387
#     4  10  21  40  65  87 124 167 207 252 305 374
#
# _framework density 19.509713999999999
#
# number of rings (size 3 to 8) (size 9 to 14) (size 15 to 20)
#    0.000    1.000    5.000    3.000    1.750    0.500 
#    0.000    1.250    0.000    0.000    0.000    0.000 
#    0.000    0.000    0.000    0.000    0.000    0.000 
#
# Total GULP energy -89251.768862 kJ/mol
# GULP energy per Si atom -5578.235554 kJ/mol
# Density = 1.946531 g / cm^3
# Si number density = 19.509714 Si / 1000 Ang^3
#
#
#
# Elastic Constant Matrix: (Units=GPa)
#
#
# Indices 1 2 3 4 5 6 
#
# 1 138.4431 22.3734 63.8168 -6.1935 -7.6595 -23.5909
# 2 22.3734 33.4999 25.8535 -3.2580 -1.2638 -15.7533
# 3 63.8168 25.8535 98.5787 1.2063 -13.8303 -13.0871
# 4 -6.1935 -3.2580 1.2063 22.6506 0.3641 -2.6880
# 5 -7.6595 -1.2638 -13.8303 0.3641 46.8785 2.1555
# 6 -23.5909 -15.7533 -13.0871 -2.6880 2.1555 30.7246
#
#
#
# Elastic Compliance Matrix: (Units=1/GPa)
#
#
# Indices 1 2 3 4 5 6 
#
# 1 0.011658 0.001492 -0.007122 0.004635 -0.000520 0.007124
# 2 0.001492 0.049292 -0.011422 0.010848 -0.002925 0.022708
# 3 -0.007122 -0.011422 0.017782 -0.005134 0.004021 -0.004482
# 4 0.004635 0.010848 -0.005134 0.048611 -0.001361 0.011283
# 5 -0.000520 -0.002925 0.004021 -0.001361 0.022451 -0.001881
# 6 0.007124 0.022708 -0.004482 0.011283 -0.001881 0.048871
#
#
# Mechanical properties :
#
#
# Convention : Reuss Voigt Hill
#
# Bulk Modulus (GPa) = 22.40716 54.95656 38.68186
# Shear Modulus (GPa) = 20.19020 30.61593 25.40306
#
# Velocity S-wave (km/s) = 3.22044 3.96569 3.61234
# Velocity P-wave (km/s) = 5.03373 7.01420 6.10481
#
# Compressibility (1/GPa) = 0.04462859
#
# Stress axis : x y z
#
# Youngs Moduli (GPa) = 85.78095 20.28709 56.23612
#
# Poissons Ratio (x) = -0.03027 0.40051
# Poissons Ratio (y) = -0.12799 0.64233
# Poissons Ratio (z) = 0.61092 0.23172
#
# Static dielectric constant tensor:
#      x y z
#    x 1.626690 -0.044470 -0.021390 
#    y -0.044470 1.627300 -0.004100 
#    z -0.021390 -0.004100 1.674290 
# 
# From -- ./inp_files/56463.got.cif
#   From: 2010.05.17/outbox.cif.g08.bks.cpg/sg2_29_cif.got.tgz:56463.got - 2010.06.03 11:33:40.
