data_PCOD9007556
_publ_section_title
;
Structure prediction by ZEFSAII (Michael W. Deem and Ramdas Pophale) SiO2 
 PCOD9007556
Probable space group: P -1
;
_chemical_formula_sum "Si O2"
_cell_formula_units_Z 15
_cell_length_a 10.587088
_cell_length_b 25.177680
_cell_length_c 13.542171
_cell_angle_alpha 20.924756
_cell_angle_beta 136.659079
_cell_angle_gamma 147.378865
_cell_volume 661.052188
_symmetry_space_group_name_H-M "P -1"
_symmetry_group_IT_number 2
_symmetry_cell_setting 'triclinic'
loop_
_space_group_symop_operation_xyz
x,y,z
-x,-y,-z
loop_
_atom_site_type_symbol
_atom_site_label
_atom_site_fract_x
_atom_site_fract_y
_atom_site_fract_z
Si Si1 0.630733 0.057636 0.639334
Si Si2 0.655218 0.816633 0.940634
Si Si3 0.120357 0.198791 0.445945
Si Si4 0.000000 0.000000 0.000000
Si Si5 0.638833 0.405439 0.014249
Si Si6 0.686203 0.068336 0.133231
Si Si7 0.792456 0.705520 0.901156
Si Si8 0.412006 0.723332 0.422852
O O1 0.529614 0.896892 0.774398
O O2 0.697090 0.262670 0.296744
O O3 0.422920 0.952514 0.787163
O O4 0.863218 0.088501 0.757438
O O5 0.858140 0.986114 0.683828
O O6 0.473193 0.619891 0.113663
O O7 0.812391 0.837879 0.084450
O O8 0.191877 0.261630 0.263906
O O9 0.330355 0.202199 0.604415
O O10 0.146778 0.367165 0.227427
O O11 0.425326 0.324525 0.115239
O O12 0.943790 0.123190 0.197378
O O13 0.492941 0.864195 0.318011
O O14 0.715991 0.234927 0.798298
O O15 0.738999 0.502212 0.241631
#
# Coordination Sequence:
#
# PCOD9007556 Si02
#       8
#     2   2   2   1   2   2   2   2
#     4  10  21  39  62  88 120 157 205 248 289 357
#     4  10  22  41  62  86 122 158 205 247 292 352
#     4  11  22  39  63  90 123 159 197 250 301 355
#     4   8  22  40  62  82 118 154 202 254 280 342
#     4  11  22  39  63  90 124 159 196 248 303 356
#     4  11  21  38  65  86 121 167 194 239 315 347
#     4  11  23  38  60  96 126 150 201 249 297 364
#     4  10  22  38  60  92 123 156 201 246 296 367
#
# _framework density 22.691098
#
# number of rings (size 3 to 8) (size 9 to 14) (size 15 to 20)
#    0.800    0.800    0.000    6.400    0.000    3.200 
#    0.000    4.667    0.000    0.000    0.000    0.000 
#    0.000    0.000    0.000    0.000    0.000    0.000 
#
# Total GULP energy -83593.933251 kJ/mol
# GULP energy per Si atom -5572.928883 kJ/mol
# Density = 2.263945 g / cm^3
# Si number density = 22.691098 Si / 1000 Ang^3
#
#
#
# Elastic Constant Matrix: (Units=GPa)
#
#
# Indices 1 2 3 4 5 6 
#
# 1 75.6662 3.7712 19.8636 2.0304 16.6983 -3.2982
# 2 3.7712 80.7809 29.7491 12.1002 10.0389 -7.6328
# 3 19.8636 29.7491 62.1067 6.1481 18.0236 -6.4963
# 4 2.0304 12.1002 6.1481 35.0931 2.1792 9.1643
# 5 16.6983 10.0389 18.0236 2.1792 25.2867 -1.3056
# 6 -3.2982 -7.6328 -6.4963 9.1643 -1.3056 32.1554
#
#
#
# Elastic Compliance Matrix: (Units=1/GPa)
#
#
# Indices 1 2 3 4 5 6 
#
# 1 0.015994 0.001759 -0.003177 -0.000757 -0.008865 0.001272
# 2 0.001759 0.016263 -0.006764 -0.005477 -0.002111 0.004149
# 3 -0.003177 -0.006764 0.024423 -0.001784 -0.012315 0.003011
# 4 -0.000757 -0.005477 -0.001784 0.033667 0.000460 -0.011314
# 5 -0.008865 -0.002111 -0.012315 0.000460 0.054883 -0.001801
# 6 0.001272 0.004149 0.003011 -0.011314 -0.001801 0.035974
#
#
# Mechanical properties :
#
#
# Convention : Reuss Voigt Hill
#
# Bulk Modulus (GPa) = 24.80454 36.14684 30.47569
# Shear Modulus (GPa) = 23.69588 29.51837 26.60712
#
# Velocity S-wave (km/s) = 3.23504 3.61068 3.42801
# Velocity P-wave (km/s) = 4.99090 5.77471 5.39705
#
# Compressibility (1/GPa) = 0.04031519
#
# Stress axis : x y z
#
# Youngs Moduli (GPa) = 62.52173 61.49084 40.94529
#
# Poissons Ratio (x) = -0.10814 0.13010
# Poissons Ratio (y) = -0.10995 0.27694
# Poissons Ratio (z) = 0.19866 0.41590
#
# Static dielectric constant tensor:
#      x y z
#    x 1.844510 -0.012490 -0.009830 
#    y -0.012490 1.853150 0.000590 
#    z -0.009830 0.000590 1.855440 
# 
# From -- ./inp_files/524521.got.cif
#   From: 2010.05.17/outbox.cif.g08.bks.cpg/sg2_263_cif.got.tgz:524521.got - 2010.06.03 11:33:40.
