data_PCOD9007333
_publ_section_title
;
Structure prediction by ZEFSAII (Michael W. Deem and Ramdas Pophale) SiO2 
 PCOD9007333
Probable space group: P -1
;
_chemical_formula_sum "Si O2"
_cell_formula_units_Z 16
_cell_length_a 12.922255
_cell_length_b 11.970458
_cell_length_c 8.702585
_cell_angle_alpha 118.783319
_cell_angle_beta 86.254266
_cell_angle_gamma 51.065168
_cell_volume 772.635566
_symmetry_space_group_name_H-M "P -1"
_symmetry_group_IT_number 2
_symmetry_cell_setting 'triclinic'
loop_
_space_group_symop_operation_xyz
x,y,z
-x,-y,-z
loop_
_atom_site_type_symbol
_atom_site_label
_atom_site_fract_x
_atom_site_fract_y
_atom_site_fract_z
Si Si1 0.887691 0.691097 0.033298
Si Si2 0.997076 0.034895 0.844612
Si Si3 0.721219 0.096299 0.406641
Si Si4 0.731030 0.236445 0.803969
Si Si5 0.430802 0.417326 0.449962
Si Si6 0.552326 0.622502 0.932692
Si Si7 0.163825 0.563318 0.788628
Si Si8 0.606235 0.806829 0.255078
O O1 0.998407 0.635100 0.842560
O O2 0.722538 0.768719 0.095448
O O3 0.000000 0.500000 0.000000
O O4 0.829361 0.871613 0.246435
O O5 0.898877 0.046208 0.737481
O O6 0.895720 0.258416 0.995721
O O7 0.173982 0.893619 0.681130
O O8 0.000000 0.000000 0.000000
O O9 0.693313 0.175906 0.629196
O O10 0.562583 0.222977 0.410788
O O11 0.697336 0.406603 0.846993
O O12 0.597720 0.333232 0.007955
O O13 0.500000 0.500000 0.500000
O O14 0.425931 0.376017 0.247999
O O15 0.262833 0.533428 0.619172
O O16 0.524197 0.775005 0.137121
O O17 0.282851 0.369452 0.749881
O O18 0.500000 0.000000 0.500000
#
# Coordination Sequence:
#
# PCOD9007333 Si02
#       8
#     2   2   2   2   2   2   2   2
#     4   9  21  40  62  88 121 167 226 258 304 363
#     4  11  22  37  58  92 132 163 198 254 330 381
#     4  11  22  38  63  92 123 168 211 259 314 384
#     4  11  21  38  59  94 128 159 208 264 319 386
#     4  12  22  38  63  96 131 167 204 260 332 382
#     4  11  23  36  63  95 126 160 213 263 316 380
#     4  10  21  39  61  88 123 168 210 259 314 375
#     4  11  21  41  68  91 119 170 222 263 309 368
#
# _framework density 20.70834
#
# number of rings (size 3 to 8) (size 9 to 14) (size 15 to 20)
#    0.000    1.250    2.500    4.875    0.000    0.000 
#    0.000    3.125    0.000    3.000    0.000    0.000 
#    0.000    0.000    0.000    0.000    0.000    0.000 
#
# Total GULP energy -89097.249238 kJ/mol
# GULP energy per Si atom -5568.578077 kJ/mol
# Density = 2.066121 g / cm^3
# Si number density = 20.708340 Si / 1000 Ang^3
#
#
#
# Elastic Constant Matrix: (Units=GPa)
#
#
# Indices 1 2 3 4 5 6 
#
# 1 97.9526 27.3944 48.3501 -16.8321 -23.9468 2.0155
# 2 27.3944 70.8079 33.1751 4.0971 6.2730 -6.4450
# 3 48.3501 33.1751 106.7086 -7.5884 -13.3065 1.8579
# 4 -16.8321 4.0971 -7.5884 38.4871 9.9355 2.4289
# 5 -23.9468 6.2730 -13.3065 9.9355 46.2666 0.4276
# 6 2.0155 -6.4450 1.8579 2.4289 0.4276 29.7034
#
#
#
# Elastic Compliance Matrix: (Units=1/GPa)
#
#
# Indices 1 2 3 4 5 6 
#
# 1 0.016649 -0.005462 -0.004558 0.005339 0.006924 -0.002566
# 2 -0.005462 0.019762 -0.004816 -0.004224 -0.006034 0.005392
# 3 -0.004558 -0.004816 0.013260 0.000730 0.001966 -0.001653
# 4 0.005339 -0.004224 0.000730 0.029879 -0.002836 -0.003727
# 5 0.006924 -0.006034 0.001966 -0.002836 0.027209 -0.002062
# 6 -0.002566 0.005392 -0.001653 -0.003727 -0.002062 0.035448
#
#
# Mechanical properties :
#
#
# Convention : Reuss Voigt Hill
#
# Bulk Modulus (GPa) = 50.00095 54.81201 52.40648
# Shear Modulus (GPa) = 28.00420 33.99473 30.99947
#
# Velocity S-wave (km/s) = 3.68137 4.05606 3.87325
# Velocity P-wave (km/s) = 6.50137 6.96143 6.73533
#
# Compressibility (1/GPa) = 0.01999962
#
# Stress axis : x y z
#
# Youngs Moduli (GPa) = 60.06223 50.60253 75.41651
#
# Poissons Ratio (x) = 0.27637 0.34376
# Poissons Ratio (y) = 0.32804 0.36320
# Poissons Ratio (z) = 0.27377 0.24370
#
# Static dielectric constant tensor:
#      x y z
#    x 1.903530 0.008790 -0.022190 
#    y 0.008790 1.772980 0.003610 
#    z -0.022190 0.003610 1.736140 
# 
# From -- ./inp_files/238494.got.cif
#   From: 2010.05.17/outbox.cif.g08.bks.cpg/sg2_120_cif.got.tgz:238494.got - 2010.06.03 11:33:40.
