data_PCOD9007097
_publ_section_title
;
Structure prediction by ZEFSAII (Michael W. Deem and Ramdas Pophale) SiO2 
 PCOD9007097
Probable space group: P -1
;
_chemical_formula_sum "Si O2"
_cell_formula_units_Z 14
_cell_length_a 13.560620
_cell_length_b 7.781390
_cell_length_c 11.559132
_cell_angle_alpha 56.164343
_cell_angle_beta 30.909573
_cell_angle_gamma 57.013550
_cell_volume 514.040136
_symmetry_space_group_name_H-M "P -1"
_symmetry_group_IT_number 2
_symmetry_cell_setting 'triclinic'
loop_
_space_group_symop_operation_xyz
x,y,z
-x,-y,-z
loop_
_atom_site_type_symbol
_atom_site_label
_atom_site_fract_x
_atom_site_fract_y
_atom_site_fract_z
Si Si1 0.363187 0.222542 0.783253
Si Si2 0.281654 0.608353 0.958760
Si Si3 0.086115 0.933468 0.225629
Si Si4 0.761080 0.804391 0.711853
Si Si5 0.266937 0.756902 0.476145
Si Si6 0.628105 0.833822 0.570416
Si Si7 0.916217 0.630772 0.190017
O O1 0.525512 0.330326 0.643368
O O2 0.190468 0.342967 0.835235
O O3 0.499072 0.060522 0.623584
O O4 0.253519 0.071644 0.030681
O O5 0.167442 0.773656 0.104016
O O6 0.291605 0.377662 0.088331
O O7 0.144691 0.619961 0.980159
O O8 0.489093 0.679109 0.718698
O O9 0.994520 0.801648 0.465118
O O10 0.892872 0.105042 0.329252
O O11 0.686496 0.770010 0.668241
O O12 0.690913 0.049900 0.718732
O O13 0.150110 0.581187 0.614801
O O14 0.809964 0.815704 0.309275
#
# Coordination Sequence:
#
# PCOD9007097 Si02
#       7
#     2   2   2   2   2   2   2
#     4  10  21  39  60  79 111 150 190 223 271 334
#     4  11  21  37  61  85 109 145 187 234 272 325
#     4   9  20  37  61  83 102 152 187 226 273 323
#     4   9  19  42  58  81 111 145 193 223 271 330
#     4   9  22  38  56  82 113 149 186 222 276 332
#     4  10  22  37  59  86 108 147 186 231 276 321
#     4  12  23  36  55  88 118 143 178 233 284 323
#
# _framework density 27.235226000000001
#
# number of rings (size 3 to 8) (size 9 to 14) (size 15 to 20)
#    0.857    1.143    1.429    1.714    0.000    5.714 
#    0.000    0.714    0.000    0.000    0.000    0.000 
#    0.000    0.000    0.000    0.000    0.000    0.000 
#
# Total GULP energy -78285.470408 kJ/mol
# GULP energy per Si atom -5591.819315 kJ/mol
# Density = 2.717324 g / cm^3
# Si number density = 27.235226 Si / 1000 Ang^3
#
#
#
# Elastic Constant Matrix: (Units=GPa)
#
#
# Indices 1 2 3 4 5 6 
#
# 1 112.2336 39.8143 15.4884 -9.8608 -14.5092 -7.9320
# 2 39.8143 75.7964 11.2865 15.6615 -2.2763 -0.8437
# 3 15.4884 11.2865 100.0753 -4.6666 -26.4220 -6.5690
# 4 -9.8608 15.6615 -4.6666 42.5546 6.1181 0.4062
# 5 -14.5092 -2.2763 -26.4220 6.1181 43.6980 -9.3544
# 6 -7.9320 -0.8437 -6.5690 0.4062 -9.3544 31.1621
#
#
#
# Elastic Compliance Matrix: (Units=1/GPa)
#
#
# Indices 1 2 3 4 5 6 
#
# 1 0.012948 -0.007790 0.000597 0.005246 0.004480 0.004487
# 2 -0.007790 0.019330 -0.002111 -0.008820 -0.002142 -0.002432
# 3 0.000597 -0.002111 0.012900 0.000995 0.008922 0.005479
# 4 0.005246 -0.008820 0.000995 0.028356 -0.002015 0.000332
# 5 0.004480 -0.002142 0.008922 -0.002015 0.032677 0.012798
# 6 0.004487 -0.002432 0.005479 0.000332 0.012798 0.038159
#
#
# Mechanical properties :
#
#
# Convention : Reuss Voigt Hill
#
# Bulk Modulus (GPa) = 37.63588 46.80932 42.22260
# Shear Modulus (GPa) = 29.09767 38.25068 33.67417
#
# Velocity S-wave (km/s) = 3.27216 3.75167 3.52009
# Velocity P-wave (km/s) = 5.30329 5.99926 5.66198
#
# Compressibility (1/GPa) = 0.02657039
#
# Stress axis : x y z
#
# Youngs Moduli (GPa) = 77.23076 51.73239 77.52103
#
# Poissons Ratio (x) = 0.40298 -0.04625
# Poissons Ratio (y) = 0.60160 0.16364
# Poissons Ratio (z) = -0.04608 0.10920
#
# Static dielectric constant tensor:
#      x y z
#    x 2.173200 -0.014930 0.035370 
#    y -0.014930 2.163610 -0.023260 
#    z 0.035370 -0.023260 2.106140 
# 
# From -- ./inp_files/353271.got.cif
#   From: 2010.05.17/outbox.cif.g08.bks.cpg/sg2_177_cif.got.tgz:353271.got - 2010.06.03 11:33:40.
