data_PCOD9007703
_publ_section_title
;
Structure prediction by ZEFSAII (Michael W. Deem and Ramdas Pophale) SiO2 
 PCOD9007703
Probable space group: P -1
;
_chemical_formula_sum "Si O2"
_cell_formula_units_Z 13
_cell_length_a 16.828762
_cell_length_b 20.134580
_cell_length_c 9.977239
_cell_angle_alpha 47.956839
_cell_angle_beta 124.332147
_cell_angle_gamma 166.720834
_cell_volume 494.437514
_symmetry_space_group_name_H-M "P -1"
_symmetry_group_IT_number 2
_symmetry_cell_setting 'triclinic'
loop_
_space_group_symop_operation_xyz
x,y,z
-x,-y,-z
loop_
_atom_site_type_symbol
_atom_site_label
_atom_site_fract_x
_atom_site_fract_y
_atom_site_fract_z
Si Si1 0.113773 0.442731 0.168266
Si Si2 0.325905 0.650270 0.805109
Si Si3 0.080339 0.673256 0.577491
Si Si4 0.021711 0.848667 0.891288
Si Si5 0.011781 0.147339 0.434584
Si Si6 0.000000 0.500000 0.500000
Si Si7 0.960616 0.973336 0.158943
O O1 0.929287 0.176186 0.352789
O O2 0.988505 0.389077 0.247130
O O3 0.588529 0.850378 0.090372
O O4 0.100233 0.471541 0.969822
O O5 0.092411 0.490082 0.681288
O O6 0.782062 0.101478 0.630768
O O7 0.293861 0.514904 0.948953
O O8 0.796426 0.363016 0.628754
O O9 0.500000 0.000000 0.500000
O O10 0.166583 0.027073 0.649058
O O11 0.866314 0.780724 0.939722
O O12 0.483566 0.556516 0.299759
O O13 0.907767 0.990587 0.670943
O O14 0.000000 0.000000 0.000000
#
# Coordination Sequence:
#
# PCOD9007703 Si02
#       7
#     2   2   2   2   2   1   2
#     4  10  22  41  64  88 125 168 207 257 311 370
#     4  10  22  42  62  89 123 159 208 260 311 370
#     4  10  23  42  62  90 123 159 207 260 312 372
#     4  10  21  40  65  91 125 168 209 254 313 371
#     4   9  21  39  60  91 126 162 208 254 304 369
#     4  10  22  38  62  88 118 156 202 256 312 370
#     4  10  21  39  62  92 128 163 204 257 308 363
#
# _framework density 26.292503
#
# number of rings (size 3 to 8) (size 9 to 14) (size 15 to 20)
#    0.000    2.154    0.000    1.385    0.000   12.923 
#    0.000   14.615    0.000    0.000    0.000    0.000 
#    0.000    0.000    0.000    0.000    0.000    0.000 
#
# Total GULP energy -72452.801458 kJ/mol
# GULP energy per Si atom -5573.292420 kJ/mol
# Density = 2.623266 g / cm^3
# Si number density = 26.292503 Si / 1000 Ang^3
#
#
#
# Elastic Constant Matrix: (Units=GPa)
#
#
# Indices 1 2 3 4 5 6 
#
# 1 169.6666 24.5717 62.9551 17.1289 -42.9749 -28.0657
# 2 24.5717 24.0226 34.7285 20.0912 -2.1503 -1.6324
# 3 62.9551 34.7285 168.1205 50.3734 -26.3381 -14.3442
# 4 17.1289 20.0912 50.3734 54.4396 -9.1516 -2.8113
# 5 -42.9749 -2.1503 -26.3381 -9.1516 54.6775 8.0627
# 6 -28.0657 -1.6324 -14.3442 -2.8113 8.0627 48.4631
#
#
#
# Elastic Compliance Matrix: (Units=1/GPa)
#
#
# Indices 1 2 3 4 5 6 
#
# 1 0.009834 -0.010096 -0.001091 0.002979 0.006702 0.004090
# 2 -0.010096 0.080779 -0.009036 -0.020518 -0.011804 -0.005027
# 3 -0.001091 -0.009036 0.010380 -0.005405 0.002680 0.001377
# 4 0.002979 -0.020518 -0.005405 0.030704 0.003988 0.000552
# 5 0.006702 -0.011804 0.002680 0.003988 0.025000 0.000349
# 6 0.004090 -0.005027 0.001377 0.000552 0.000349 0.023215
#
#
# Mechanical properties :
#
#
# Convention : Reuss Voigt Hill
#
# Bulk Modulus (GPa) = 16.51582 67.36893 41.94238
# Shear Modulus (GPa) = 20.78655 47.48633 34.13644
#
# Velocity S-wave (km/s) = 2.81479 4.25441 3.60715
# Velocity P-wave (km/s) = 4.10600 7.05775 5.77369
#
# Compressibility (1/GPa) = 0.06054801
#
# Stress axis : x y z
#
# Youngs Moduli (GPa) = 101.68629 12.37942 96.33993
#
# Poissons Ratio (x) = 0.12498 0.10507
# Poissons Ratio (y) = 1.02659 0.87057
# Poissons Ratio (z) = 0.11090 0.11187
#
# Static dielectric constant tensor:
#      x y z
#    x 2.050830 -0.028220 0.002180 
#    y -0.028220 2.161730 -0.055000 
#    z 0.002180 -0.055000 2.016090 
# 
# From -- ./inp_files/7109.got.cif
#   From: 2010.05.17/outbox.cif.g08.bks.cpg/sg2_4_cif.got.tgz:7109.got - 2010.06.03 11:33:40.
