data_PCOD9007358
_publ_section_title
;
Structure prediction by ZEFSAII (Michael W. Deem and Ramdas Pophale) SiO2 
 PCOD9007358
Probable space group: P -1
;
_chemical_formula_sum "Si O2"
_cell_formula_units_Z 16
_cell_length_a 15.895416
_cell_length_b 9.163843
_cell_length_c 9.258135
_cell_angle_alpha 62.698567
_cell_angle_beta 140.519546
_cell_angle_gamma 114.729166
_cell_volume 756.974654
_symmetry_space_group_name_H-M "P -1"
_symmetry_group_IT_number 2
_symmetry_cell_setting 'triclinic'
loop_
_space_group_symop_operation_xyz
x,y,z
-x,-y,-z
loop_
_atom_site_type_symbol
_atom_site_label
_atom_site_fract_x
_atom_site_fract_y
_atom_site_fract_z
Si Si1 0.096883 0.501706 0.762448
Si Si2 0.356859 0.932763 0.271632
Si Si3 0.626936 0.072914 0.044939
Si Si4 0.932194 0.000787 0.065297
Si Si5 0.925007 0.123621 0.442575
Si Si6 0.617829 0.460263 0.860560
Si Si7 0.923661 0.646803 0.884770
Si Si8 0.343538 0.539079 0.429533
O O1 0.093155 0.693494 0.726064
O O2 0.000000 0.500000 0.500000
O O3 0.243885 0.474614 0.912186
O O4 0.076203 0.381317 0.927807
O O5 0.324142 0.732186 0.332578
O O6 0.500000 0.000000 0.500000
O O7 0.369619 0.972248 0.099685
O O8 0.227844 0.005692 0.135810
O O9 0.773220 0.046617 0.309449
O O10 0.611357 0.265420 0.947565
O O11 0.500000 0.000000 0.000000
O O12 0.998583 0.178663 0.131678
O O13 0.987603 0.864780 0.301769
O O14 0.000000 0.000000 0.000000
O O15 0.000000 0.000000 0.500000
O O16 0.480240 0.518005 0.701617
O O17 0.635752 0.496964 0.696901
O O18 0.779620 0.598961 0.640965
O O19 0.000000 0.500000 0.000000
#
# Coordination Sequence:
#
# PCOD9007358 Si02
#       8
#     2   2   2   2   2   2   2   2
#     4  10  21  39  61  89 124 164 203 260 320 370
#     4  11  24  42  62  91 134 166 204 268 325 374
#     4  10  22  40  62  90 121 164 211 252 313 381
#     4  12  26  40  64 104 132 165 216 269 326 377
#     4  11  22  42  65  88 129 169 212 260 314 383
#     4   8  18  35  60  85 116 154 205 250 300 372
#     4  11  21  39  67  90 121 164 219 262 304 379
#     4   9  18  37  62  87 115 162 211 251 305 371
#
# _framework density 21.136771
#
# number of rings (size 3 to 8) (size 9 to 14) (size 15 to 20)
#    0.000    1.750    2.500    2.250    3.500    4.000 
#    0.000    0.000    0.000    1.500    0.000    0.000 
#    0.000    0.000    0.000    0.000    0.000    0.000 
#
# Total GULP energy -89166.397715 kJ/mol
# GULP energy per Si atom -5572.899857 kJ/mol
# Density = 2.108866 g / cm^3
# Si number density = 21.136771 Si / 1000 Ang^3
#
#
#
# Elastic Constant Matrix: (Units=GPa)
#
#
# Indices 1 2 3 4 5 6 
#
# 1 98.5861 9.4173 46.0897 2.0178 24.9723 2.1442
# 2 9.4173 46.9528 9.0361 3.7584 9.9228 8.7130
# 3 46.0897 9.0361 146.3775 11.5361 34.5623 3.6813
# 4 2.0178 3.7584 11.5361 34.1179 0.4377 4.8493
# 5 24.9723 9.9228 34.5623 0.4377 42.4154 3.2943
# 6 2.1442 8.7130 3.6813 4.8493 3.2943 29.4888
#
#
#
# Elastic Compliance Matrix: (Units=1/GPa)
#
#
# Indices 1 2 3 4 5 6 
#
# 1 0.012822 -0.001036 -0.002818 0.000340 -0.005032 0.000232
# 2 -0.001036 0.023720 0.000248 -0.001699 -0.004644 -0.006166
# 3 -0.002818 0.000248 0.009350 -0.002962 -0.005997 0.000122
# 4 0.000340 -0.001699 -0.002962 0.031093 0.002645 -0.004561
# 5 -0.005032 -0.004644 -0.005997 0.002645 0.032608 -0.001591
# 6 0.000232 -0.006166 0.000122 -0.004561 -0.001591 0.036629
#
#
# Mechanical properties :
#
#
# Convention : Reuss Voigt Hill
#
# Bulk Modulus (GPa) = 25.85359 46.77807 36.31583
# Shear Modulus (GPa) = 30.06098 36.36264 33.21181
#
# Velocity S-wave (km/s) = 3.77531 4.15221 3.96824
# Velocity P-wave (km/s) = 5.59125 6.72064 6.18179
#
# Compressibility (1/GPa) = 0.03867935
#
# Stress axis : x y z
#
# Youngs Moduli (GPa) = 77.98810 42.15873 106.95269
#
# Poissons Ratio (x) = 0.04369 0.30138
# Poissons Ratio (y) = 0.08081 -0.02649
# Poissons Ratio (z) = 0.21976 -0.01044
#
# Static dielectric constant tensor:
#      x y z
#    x 1.238500 0.118100 0.391720 
#    y 0.118100 1.639830 -0.133950 
#    z 0.391720 -0.133950 1.476710 
# 
# From -- ./inp_files/298062.got.cif
#   From: 2010.05.17/outbox.cif.g08.bks.cpg/sg2_150_cif.got.tgz:298062.got - 2010.06.03 11:33:40.
