data_PCOD9007585
_publ_section_title
;
Structure prediction by ZEFSAII (Michael W. Deem and Ramdas Pophale) SiO2 
 PCOD9007585
Probable space group: P -1
;
_chemical_formula_sum "Si O2"
_cell_formula_units_Z 16
_cell_length_a 11.060425
_cell_length_b 25.769339
_cell_length_c 8.056842
_cell_angle_alpha 61.851911
_cell_angle_beta 119.224690
_cell_angle_gamma 158.900851
_cell_volume 720.462008
_symmetry_space_group_name_H-M "P -1"
_symmetry_group_IT_number 2
_symmetry_cell_setting 'triclinic'
loop_
_space_group_symop_operation_xyz
x,y,z
-x,-y,-z
loop_
_atom_site_type_symbol
_atom_site_label
_atom_site_fract_x
_atom_site_fract_y
_atom_site_fract_z
Si Si1 0.344466 0.671753 0.145312
Si Si2 0.364489 0.014090 0.404601
Si Si3 0.701180 0.502344 0.415631
Si Si4 0.593685 0.585549 0.115093
Si Si5 0.149829 0.116646 0.516704
Si Si6 0.230466 0.270080 0.702952
Si Si7 0.106844 0.680548 0.753784
Si Si8 0.366887 0.606242 0.738213
O O1 0.596340 0.789590 0.290253
O O2 0.453146 0.650557 0.178725
O O3 0.957793 0.513805 0.183706
O O4 0.331900 0.715581 0.927644
O O5 0.161245 0.962169 0.506379
O O6 0.064702 0.891826 0.255395
O O7 0.500000 0.000000 0.500000
O O8 0.660573 0.172448 0.319502
O O9 0.705308 0.561312 0.210293
O O10 0.334515 0.345171 0.491275
O O11 0.785919 0.476693 0.412279
O O12 0.952375 0.610308 0.573928
O O13 0.823125 0.701832 0.239305
O O14 0.216189 0.435962 0.166324
O O15 0.587233 0.634856 0.902473
O O16 0.385439 0.243595 0.353438
O O17 0.000000 0.000000 0.500000
#
# Coordination Sequence:
#
# PCOD9007585 Si02
#       8
#     2   2   2   2   2   2   2   2
#     4  10  23  43  61  95 124 165 215 261 320 372
#     4  11  22  41  65  92 126 172 217 259 318 379
#     4  11  20  39  62  94 124 163 210 261 316 374
#     4  10  22  38  63  97 121 163 212 263 317 374
#     4  11  26  42  66  95 133 171 210 264 327 384
#     4  10  21  39  62  88 128 164 212 263 310 375
#     4  10  23  36  66  95 121 165 218 267 306 382
#     4  11  23  41  65  90 131 167 202 266 320 382
#
# _framework density 22.207971000000001
#
# number of rings (size 3 to 8) (size 9 to 14) (size 15 to 20)
#    0.000    1.500    2.500    3.750    1.750    9.500 
#    0.000    0.000    0.000    2.250    0.000    0.000 
#    0.000    0.000    0.000    0.000    0.000    0.000 
#
# Total GULP energy -89225.896270 kJ/mol
# GULP energy per Si atom -5576.618517 kJ/mol
# Density = 2.215742 g / cm^3
# Si number density = 22.207971 Si / 1000 Ang^3
#
#
#
# Elastic Constant Matrix: (Units=GPa)
#
#
# Indices 1 2 3 4 5 6 
#
# 1 106.6437 40.8836 15.2502 -5.6372 18.1826 -21.9990
# 2 40.8836 143.7497 36.4088 -21.7924 4.8133 -35.3184
# 3 15.2502 36.4088 92.7788 -7.5479 33.0915 -5.1282
# 4 -5.6372 -21.7924 -7.5479 23.3023 -5.5305 10.8055
# 5 18.1826 4.8133 33.0915 -5.5305 32.7364 -6.2803
# 6 -21.9990 -35.3184 -5.1282 10.8055 -6.2803 33.2416
#
#
#
# Elastic Compliance Matrix: (Units=1/GPa)
#
#
# Indices 1 2 3 4 5 6 
#
# 1 0.012506 -0.003160 0.002128 -0.003433 -0.008292 0.004796
# 2 -0.003160 0.012775 -0.006950 0.006589 0.009963 0.010150
# 3 0.002128 -0.006950 0.020744 -0.001614 -0.022654 -0.006531
# 4 -0.003433 0.006589 -0.001614 0.055456 0.009690 -0.011715
# 5 -0.008292 0.009963 -0.022654 0.009690 0.060107 0.009808
# 6 0.004796 0.010150 -0.006531 -0.011715 0.009808 0.048694
#
#
# Mechanical properties :
#
#
# Convention : Reuss Voigt Hill
#
# Bulk Modulus (GPa) = 33.26669 58.69526 45.98098
# Shear Modulus (GPa) = 21.16260 34.56470 27.86365
#
# Velocity S-wave (km/s) = 3.09030 3.94942 3.54597
# Velocity P-wave (km/s) = 5.26739 6.87636 6.12494
#
# Compressibility (1/GPa) = 0.03006010
#
# Stress axis : x y z
#
# Youngs Moduli (GPa) = 79.96187 78.28028 48.20719
#
# Poissons Ratio (x) = 0.24737 -0.10258
# Poissons Ratio (y) = 0.25269 0.33504
# Poissons Ratio (z) = -0.17015 0.54405
#
# Static dielectric constant tensor:
#      x y z
#    x 1.890160 0.059890 0.010040 
#    y 0.059890 1.953830 0.082660 
#    z 0.010040 0.082660 1.926420 
# 
# From -- ./inp_files/285819.got.cif
#   From: 2010.05.17/outbox.cif.g08.bks.cpg/sg2_143_cif.got.tgz:285819.got - 2010.06.03 11:33:40.
