data_PCOD9007522
_publ_section_title
;
Structure prediction by ZEFSAII (Michael W. Deem and Ramdas Pophale) SiO2 
 PCOD9007522
Probable space group: P -1
;
_chemical_formula_sum "Si O2"
_cell_formula_units_Z 14
_cell_length_a 5.599862
_cell_length_b 8.043485
_cell_length_c 17.018719
_cell_angle_alpha 58.464963
_cell_angle_beta 120.523905
_cell_angle_gamma 89.878383
_cell_volume 524.050582
_symmetry_space_group_name_H-M "P -1"
_symmetry_group_IT_number 2
_symmetry_cell_setting 'triclinic'
loop_
_space_group_symop_operation_xyz
x,y,z
-x,-y,-z
loop_
_atom_site_type_symbol
_atom_site_label
_atom_site_fract_x
_atom_site_fract_y
_atom_site_fract_z
Si Si1 0.982420 0.830694 0.153083
Si Si2 0.129181 0.464171 0.421536
Si Si3 0.594895 0.269947 0.895462
Si Si4 0.955755 0.860003 0.810873
Si Si5 0.501473 0.285304 0.163088
Si Si6 0.597898 0.039015 0.392973
Si Si7 0.637730 0.377509 0.427494
O O1 0.724023 0.754811 0.158468
O O2 0.209188 0.717492 0.150228
O O3 0.140391 0.905347 0.231846
O O4 0.795948 0.060547 0.026335
O O5 0.288857 0.481048 0.363381
O O6 0.210014 0.599426 0.469734
O O7 0.786467 0.494673 0.365043
O O8 0.281880 0.211180 0.524896
O O9 0.534220 0.482333 0.879648
O O10 0.299450 0.779417 0.865024
O O11 0.818358 0.740265 0.879402
O O12 0.761606 0.867935 0.698217
O O13 0.673339 0.128614 0.301520
O O14 0.310987 0.847272 0.547353
#
# Coordination Sequence:
#
# PCOD9007522 Si02
#       7
#     2   2   2   2   2   2   2
#     4  10  21  39  62  86 117 159 203 250 298 350
#     4  10  22  39  61  87 114 152 199 242 293 354
#     4  10  21  39  62  86 117 159 203 250 298 350
#     4  10  23  38  56  89 120 156 199 238 308 356
#     4  10  23  38  56  89 120 156 199 238 308 356
#     4  10  24  38  61  86 122 156 192 244 305 352
#     4  10  22  39  61  87 114 152 199 242 293 354
#
# _framework density 26.714974999999999
#
# number of rings (size 3 to 8) (size 9 to 14) (size 15 to 20)
#    0.857    1.143    0.000    2.571    4.000    2.286 
#    0.000    0.000    0.000    0.000    0.000    0.000 
#    0.000    0.000    0.000    0.000    0.000    0.000 
#
# Total GULP energy -78297.690308 kJ/mol
# GULP energy per Si atom -5592.692165 kJ/mol
# Density = 2.665417 g / cm^3
# Si number density = 26.714975 Si / 1000 Ang^3
#
#
#
# Elastic Constant Matrix: (Units=GPa)
#
#
# Indices 1 2 3 4 5 6 
#
# 1 225.8837 26.3001 33.9364 1.8801 -26.0618 -8.6062
# 2 26.3001 137.8497 6.4034 6.2367 -9.4718 -0.9378
# 3 33.9364 6.4034 63.3873 -5.2075 -10.1361 5.6513
# 4 1.8801 6.2367 -5.2075 27.7994 2.7017 4.0674
# 5 -26.0618 -9.4718 -10.1361 2.7017 33.7847 4.1483
# 6 -8.6062 -0.9378 5.6513 4.0674 4.1483 52.1144
#
#
#
# Elastic Compliance Matrix: (Units=1/GPa)
#
#
# Indices 1 2 3 4 5 6 
#
# 1 0.005273 -0.000620 -0.002437 -0.001119 0.003134 0.000962
# 2 -0.000620 0.007591 -0.000327 -0.001899 0.001693 0.000083
# 3 -0.002437 -0.000327 0.018257 0.003745 0.003570 -0.002965
# 4 -0.001119 -0.001899 0.003745 0.037948 -0.002895 -0.003356
# 5 0.003134 0.001693 0.003570 -0.002895 0.034080 -0.002326
# 6 0.000962 0.000083 -0.002965 -0.003356 -0.002326 0.020117
#
#
# Mechanical properties :
#
#
# Convention : Reuss Voigt Hill
#
# Bulk Modulus (GPa) = 41.06608 62.26673 51.66640
# Shear Modulus (GPa) = 36.19221 46.77176 41.48198
#
# Velocity S-wave (km/s) = 3.68469 4.18876 3.94478
# Velocity P-wave (km/s) = 5.78860 6.83759 6.33485
#
# Compressibility (1/GPa) = 0.02435100
#
# Stress axis : x y z
#
# Youngs Moduli (GPa) = 189.64724 131.74117 54.77444
#
# Poissons Ratio (x) = 0.08172 0.13348
# Poissons Ratio (y) = 0.11764 0.01793
# Poissons Ratio (z) = 0.46216 0.04313
#
# Static dielectric constant tensor:
#      x y z
#    x 2.107180 0.056270 -0.010210 
#    y 0.056270 2.063090 0.013250 
#    z -0.010210 0.013250 2.208940 
# 
# From -- ./inp_files/581341.got.cif
#   From: 2010.05.17/outbox.cif.g08.bks.cpg/sg2_291_cif.got.tgz:581341.got - 2010.06.03 11:33:40.
