data_PCOD9007799
_publ_section_title
;
Structure prediction by ZEFSAII (Michael W. Deem and Ramdas Pophale) SiO2 
 PCOD9007799
Probable space group: P -1
;
_chemical_formula_sum "Si O2"
_cell_formula_units_Z 11
_cell_length_a 7.315707
_cell_length_b 8.461249
_cell_length_c 12.060097
_cell_angle_alpha 87.778562
_cell_angle_beta 117.879283
_cell_angle_gamma 51.735691
_cell_volume 456.458091
_symmetry_space_group_name_H-M "P -1"
_symmetry_group_IT_number 2
_symmetry_cell_setting 'triclinic'
loop_
_space_group_symop_operation_xyz
x,y,z
-x,-y,-z
loop_
_atom_site_type_symbol
_atom_site_label
_atom_site_fract_x
_atom_site_fract_y
_atom_site_fract_z
Si Si1 0.674629 0.343941 0.313040
Si Si2 0.797496 0.711365 0.268989
Si Si3 0.261561 0.236316 0.491844
Si Si4 0.500000 0.500000 0.500000
Si Si5 0.635442 0.308129 0.951790
Si Si6 0.966445 0.950536 0.230479
O O1 0.630672 0.339314 0.428556
O O2 0.374562 0.576151 0.162536
O O3 0.943193 0.323145 0.386038
O O4 0.798700 0.136575 0.276743
O O5 0.674548 0.797591 0.357507
O O6 0.596924 0.702604 0.142880
O O7 0.821473 0.857468 0.201911
O O8 0.148363 0.468478 0.401521
O O9 0.500000 0.000000 0.500000
O O10 0.691500 0.267390 0.638567
O O11 0.500000 0.500000 0.000000
O O12 0.914137 0.074187 0.098273
#
# Coordination Sequence:
#
# PCOD9007799 Si02
#       6
#     2   2   2   1   2   2
#     4  10  23  42  64  96 130 177 213 264 327 386
#     4  10  21  39  63 100 125 170 217 266 331 378
#     4  10  22  39  64  95 135 167 213 269 327 388
#     4  12  24  38  66  98 134 168 218 262 322 390
#     4   9  21  44  66  89 133 174 218 267 325 390
#     4  11  23  39  66  97 133 167 218 271 321 388
#
# _framework density 24.098597000000002
#
# number of rings (size 3 to 8) (size 9 to 14) (size 15 to 20)
#    0.000    1.818    1.818    1.091    2.545    0.727 
#    0.000    7.273    0.000   10.909    0.000    0.000 
#    0.000    0.000    0.000    0.000    0.000    0.000 
#
# Total GULP energy -61266.764401 kJ/mol
# GULP energy per Si atom -5569.705855 kJ/mol
# Density = 2.404375 g / cm^3
# Si number density = 24.098597 Si / 1000 Ang^3
#
#
#
# Elastic Constant Matrix: (Units=GPa)
#
#
# Indices 1 2 3 4 5 6 
#
# 1 30.6916 0.1881 17.9819 -2.2846 -9.7951 -8.8041
# 2 0.1881 125.2669 56.2400 -2.7192 -4.7674 -11.0843
# 3 17.9819 56.2400 171.1589 -17.1528 -18.7667 -4.6350
# 4 -2.2846 -2.7192 -17.1528 54.3209 1.8210 -4.6674
# 5 -9.7951 -4.7674 -18.7667 1.8210 44.7074 5.1159
# 6 -8.8041 -11.0843 -4.6350 -4.6674 5.1159 39.2818
#
#
#
# Elastic Compliance Matrix: (Units=1/GPa)
#
#
# Indices 1 2 3 4 5 6 
#
# 1 0.039416 0.002758 -0.004031 0.001040 0.006229 0.008449
# 2 0.002758 0.009785 -0.003463 -0.000229 -0.000135 0.002961
# 3 -0.004031 -0.003463 0.007799 0.001966 0.002055 -0.000994
# 4 0.001040 -0.000229 0.001966 0.019296 -0.000067 0.002702
# 5 0.006229 -0.000135 0.002055 -0.000067 0.024770 -0.001634
# 6 0.008449 0.002961 -0.000994 0.002702 -0.001634 0.028603
#
#
# Mechanical properties :
#
#
# Convention : Reuss Voigt Hill
#
# Bulk Modulus (GPa) = 21.03992 52.88191 36.96092
# Shear Modulus (GPa) = 32.26125 44.50919 38.38522
#
# Velocity S-wave (km/s) = 3.66282 4.30229 3.99537
# Velocity P-wave (km/s) = 5.16121 6.83163 6.05431
#
# Compressibility (1/GPa) = 0.04752869
#
# Stress axis : x y z
#
# Youngs Moduli (GPa) = 25.37037 102.19413 128.21868
#
# Poissons Ratio (x) = -0.28185 0.51689
# Poissons Ratio (y) = -0.06997 0.44397
# Poissons Ratio (z) = 0.10228 0.35386
#
# Static dielectric constant tensor:
#      x y z
#    x 1.981540 0.144790 0.039680 
#    y 0.144790 1.987400 -0.045480 
#    z 0.039680 -0.045480 1.911400 
# 
# From -- ./inp_files/20821.got.cif
#   From: 2010.05.17/outbox.cif.g08.bks.cpg/sg2_11_cif.got.tgz:20821.got - 2010.06.03 11:33:40.
