data_PCOD9007549
_publ_section_title
;
Structure prediction by ZEFSAII (Michael W. Deem and Ramdas Pophale) SiO2 
 PCOD9007549
Probable space group: P -1
;
_chemical_formula_sum "Si O2"
_cell_formula_units_Z 16
_cell_length_a 13.953941
_cell_length_b 13.462577
_cell_length_c 14.697442
_cell_angle_alpha 29.179568
_cell_angle_beta 141.239188
_cell_angle_gamma 146.087501
_cell_volume 735.414788
_symmetry_space_group_name_H-M "P -1"
_symmetry_group_IT_number 2
_symmetry_cell_setting 'triclinic'
loop_
_space_group_symop_operation_xyz
x,y,z
-x,-y,-z
loop_
_atom_site_type_symbol
_atom_site_label
_atom_site_fract_x
_atom_site_fract_y
_atom_site_fract_z
Si Si1 0.670881 0.490353 0.602875
Si Si2 0.794922 0.289505 0.223236
Si Si3 0.513476 0.587435 0.729600
Si Si4 0.165453 0.257521 0.025958
Si Si5 0.978846 0.950987 0.415286
Si Si6 0.203561 0.460257 0.143628
Si Si7 0.808155 0.852087 0.071280
Si Si8 0.587395 0.098281 0.707951
O O1 0.500000 0.500000 0.500000
O O2 0.767217 0.488202 0.769363
O O3 0.630376 0.268731 0.689655
O O4 0.789356 0.727041 0.444493
O O5 0.870116 0.535578 0.132671
O O6 0.885108 0.138621 0.437525
O O7 0.590106 0.140124 0.212277
O O8 0.816873 0.352566 0.081858
O O9 0.627187 0.549553 0.764815
O O10 0.455078 0.772254 0.507198
O O11 0.651813 0.684850 0.837235
O O12 0.338570 0.349971 0.814629
O O13 0.180667 0.256481 0.929568
O O14 0.002629 0.005821 0.132725
O O15 0.040069 0.200375 0.216310
O O16 0.000000 0.000000 0.500000
O O17 0.738770 0.034927 0.852784
#
# Coordination Sequence:
#
# PCOD9007549 Si02
#       8
#     2   2   2   2   2   2   2   2
#     4  11  22  39  60  93 129 170 212 266 312 380
#     4  11  22  42  64  93 126 172 211 265 324 385
#     4  11  22  43  67  98 130 173 211 273 325 388
#     4  10  24  46  69  92 139 165 217 270 330 387
#     4  10  21  39  62  87 128 165 214 268 313 376
#     4  10  21  41  62  90 126 170 215 258 324 373
#     4  11  24  47  66 101 126 172 217 273 323 393
#     4  12  23  39  68  95 134 169 221 265 327 383
#
# _framework density 21.756430000000002
#
# number of rings (size 3 to 8) (size 9 to 14) (size 15 to 20)
#    0.000    1.250    5.000    1.875    0.000    5.000 
#    2.250    1.250    0.000    0.000    0.000    0.000 
#    0.000    0.000    0.000    0.000    0.000    0.000 
#
# Total GULP energy -89472.223301 kJ/mol
# GULP energy per Si atom -5592.013956 kJ/mol
# Density = 2.170691 g / cm^3
# Si number density = 21.756430 Si / 1000 Ang^3
#
#
#
# Elastic Constant Matrix: (Units=GPa)
#
#
# Indices 1 2 3 4 5 6 
#
# 1 55.5602 27.9711 -6.1234 -0.8749 -0.0147 -1.5593
# 2 27.9711 118.1921 11.3982 -19.9457 -14.9007 0.6450
# 3 -6.1234 11.3982 68.3382 -11.8985 2.5625 1.8774
# 4 -0.8749 -19.9457 -11.8985 24.1712 9.0945 -10.2606
# 5 -0.0147 -14.9007 2.5625 9.0945 25.1324 -3.6161
# 6 -1.5593 0.6450 1.8774 -10.2606 -3.6161 46.1803
#
#
#
# Elastic Compliance Matrix: (Units=1/GPa)
#
#
# Indices 1 2 3 4 5 6 
#
# 1 0.021286 -0.005972 0.002753 -0.001545 -0.003237 0.000093
# 2 -0.005972 0.011922 -0.001350 0.008015 0.004565 0.001825
# 3 0.002753 -0.001350 0.017070 0.010176 -0.006048 0.001205
# 4 -0.001545 0.008015 0.010176 0.065004 -0.018017 0.012454
# 5 -0.003237 0.004565 -0.006048 -0.018017 0.049624 -0.000045
# 6 0.000093 0.001825 0.001205 0.012454 -0.000045 0.024347
#
#
# Mechanical properties :
#
#
# Convention : Reuss Voigt Hill
#
# Bulk Modulus (GPa) = 24.30628 34.28692 29.29660
# Shear Modulus (GPa) = 23.57321 33.01976 28.29648
#
# Velocity S-wave (km/s) = 3.29524 3.89999 3.61030
# Velocity P-wave (km/s) = 5.06699 6.00613 5.55644
#
# Compressibility (1/GPa) = 0.04114163
#
# Stress axis : x y z
#
# Youngs Moduli (GPa) = 46.97909 83.87538 58.58104
#
# Poissons Ratio (x) = 0.50093 -0.16129
# Poissons Ratio (y) = 0.28057 0.07906
# Poissons Ratio (z) = -0.12935 0.11320
#
# Static dielectric constant tensor:
#      x y z
#    x 1.781730 0.016910 -0.017190 
#    y 0.016910 1.810730 0.020940 
#    z -0.017190 0.020940 1.802380 
# 
# From -- ./inp_files/533620.got.cif
#   From: 2010.05.17/outbox.cif.g08.bks.cpg/sg2_267_cif.got.tgz:533620.got - 2010.06.03 11:33:40.
