data_PCOD9007716
_publ_section_title
;
Structure prediction by ZEFSAII (Michael W. Deem and Ramdas Pophale) SiO2 
 PCOD9007716
Probable space group: P -1
;
_chemical_formula_sum "Si O2"
_cell_formula_units_Z 14
_cell_length_a 15.008442
_cell_length_b 9.234956
_cell_length_c 8.920221
_cell_angle_alpha 47.709808
_cell_angle_beta 126.637614
_cell_angle_gamma 137.721851
_cell_volume 603.005316
_symmetry_space_group_name_H-M "P -1"
_symmetry_group_IT_number 2
_symmetry_cell_setting 'triclinic'
loop_
_space_group_symop_operation_xyz
x,y,z
-x,-y,-z
loop_
_atom_site_type_symbol
_atom_site_label
_atom_site_fract_x
_atom_site_fract_y
_atom_site_fract_z
Si Si1 0.789086 0.583396 0.674348
Si Si2 0.936576 0.141041 0.786246
Si Si3 0.587901 0.605686 0.254166
Si Si4 0.654405 0.335377 0.285421
Si Si5 0.714201 0.670217 0.836334
Si Si6 0.435524 0.972940 0.119301
Si Si7 0.068789 0.452201 0.412602
O O1 0.708074 0.664439 0.442015
O O2 0.807218 0.689182 0.781965
O O3 0.915899 0.640079 0.665439
O O4 0.685811 0.297361 0.787306
O O5 0.975378 0.367387 0.766667
O O6 0.979872 0.248515 0.587263
O O7 0.777591 0.933764 0.775470
O O8 0.000000 0.000000 0.000000
O O9 0.583698 0.435344 0.241109
O O10 0.439688 0.460763 0.280618
O O11 0.610545 0.847184 0.048815
O O12 0.549104 0.074335 0.293436
O O13 0.780663 0.391331 0.470818
O O14 0.710923 0.505497 0.077794
O O15 0.500000 0.000000 0.000000
#
# Coordination Sequence:
#
# PCOD9007716 Si02
#       7
#     2   2   2   2   2   2   2
#     4  11  24  39  61  96 127 157 197 250 305 369
#     4  11  24  44  68  84 118 161 209 262 294 351
#     4  10  23  38  59  95 129 158 201 240 301 374
#     4  10  21  39  62  93 123 159 204 241 302 372
#     4  11  21  39  64  88 127 164 194 248 311 346
#     4  11  21  34  58  90 131 160 190 239 301 361
#     4  10  25  42  64  93 113 157 219 246 301 361
#
# _framework density 23.217043
#
# number of rings (size 3 to 8) (size 9 to 14) (size 15 to 20)
#    0.000    1.429    4.286    2.143    6.000    1.714 
#    0.000    0.714    0.000    0.000    0.000    0.000 
#    0.000    0.000    0.000    0.000    0.000    0.000 
#
# Total GULP energy -78294.880342 kJ/mol
# GULP energy per Si atom -5592.491453 kJ/mol
# Density = 2.316420 g / cm^3
# Si number density = 23.217043 Si / 1000 Ang^3
#
#
#
# Elastic Constant Matrix: (Units=GPa)
#
#
# Indices 1 2 3 4 5 6 
#
# 1 80.0726 -16.3906 20.4265 8.5799 2.8788 -23.3752
# 2 -16.3906 56.5945 5.0947 -8.8280 11.1709 -4.5986
# 3 20.4265 5.0947 71.2189 -7.1663 15.5138 -12.1737
# 4 8.5799 -8.8280 -7.1663 31.1166 -14.9926 -11.1269
# 5 2.8788 11.1709 15.5138 -14.9926 29.0059 6.1465
# 6 -23.3752 -4.5986 -12.1737 -11.1269 6.1465 31.1272
#
#
#
# Elastic Compliance Matrix: (Units=1/GPa)
#
#
# Indices 1 2 3 4 5 6 
#
# 1 0.020218 0.008898 -0.001750 -0.001709 -0.008978 0.016974
# 2 0.008898 0.024314 0.001197 0.004265 -0.011775 0.014591
# 3 -0.001750 0.001197 0.018722 0.003459 -0.010526 0.009500
# 4 -0.001709 0.004265 0.003459 0.048876 0.018880 0.014443
# 5 -0.008978 -0.011775 -0.010526 0.018880 0.058998 -0.017499
# 6 0.016974 0.014591 0.009500 0.014443 -0.017499 0.059363
#
#
# Mechanical properties :
#
#
# Convention : Reuss Voigt Hill
#
# Bulk Modulus (GPa) = 12.50895 25.12745 18.81820
# Shear Modulus (GPa) = 20.79440 31.50031 26.14735
#
# Velocity S-wave (km/s) = 2.99599 3.68744 3.35955
# Velocity P-wave (km/s) = 4.16743 5.38293 4.81370
#
# Compressibility (1/GPa) = 0.07994276
#
# Stress axis : x y z
#
# Youngs Moduli (GPa) = 49.46198 41.12912 53.41194
#
# Poissons Ratio (x) = -0.36595 0.09347
# Poissons Ratio (y) = -0.44009 -0.06393
# Poissons Ratio (z) = 0.08656 -0.04923
#
# Static dielectric constant tensor:
#      x y z
#    x 1.914850 0.008950 0.014360 
#    y 0.008950 1.863950 0.036720 
#    z 0.014360 0.036720 1.874650 
# 
# From -- ./inp_files/186331.got.cif
#   From: 2010.05.17/outbox.cif.g08.bks.cpg/sg2_94_cif.got.tgz:186331.got - 2010.06.03 11:33:40.
