data_PCOD9007269
_publ_section_title
;
Structure prediction by ZEFSAII (Michael W. Deem and Ramdas Pophale) SiO2 
 PCOD9007269
Probable space group: P -1
;
_chemical_formula_sum "Si O2"
_cell_formula_units_Z 16
_cell_length_a 16.838336
_cell_length_b 16.221425
_cell_length_c 16.730161
_cell_angle_alpha 136.983648
_cell_angle_beta 153.791007
_cell_angle_gamma 25.094173
_cell_volume 770.997603
_symmetry_space_group_name_H-M "P -1"
_symmetry_group_IT_number 2
_symmetry_cell_setting 'triclinic'
loop_
_space_group_symop_operation_xyz
x,y,z
-x,-y,-z
loop_
_atom_site_type_symbol
_atom_site_label
_atom_site_fract_x
_atom_site_fract_y
_atom_site_fract_z
Si Si1 0.975033 0.507674 0.750648
Si Si2 0.297456 0.101189 0.808368
Si Si3 0.435541 0.456879 0.147741
Si Si4 0.313848 0.333724 0.222274
Si Si5 0.292773 0.433995 0.722929
Si Si6 0.600463 0.242093 0.701032
Si Si7 0.200647 0.766406 0.835662
Si Si8 0.268176 0.745997 0.559213
O O1 0.787500 0.611271 0.738836
O O2 0.735544 0.608850 0.536002
O O3 0.251649 0.252329 0.828726
O O4 0.135231 0.547117 0.911846
O O5 0.943640 0.255708 0.626067
O O6 0.465190 0.905377 0.767864
O O7 0.500000 0.000000 0.000000
O O8 0.358257 0.640549 0.200673
O O9 0.733274 0.263129 0.220296
O O10 0.517198 0.371821 0.250923
O O11 0.512599 0.341407 0.379700
O O12 0.000000 0.500000 0.000000
O O13 0.551584 0.256542 0.761939
O O14 0.183212 0.632889 0.745410
O O15 0.000000 0.500000 0.500000
O O16 0.495529 0.339034 0.920222
O O17 0.883968 0.006960 0.752250
O O18 0.000000 0.000000 0.500000
#
# Coordination Sequence:
#
# PCOD9007269 Si02
#       8
#     2   2   2   2   2   2   2   2
#     4  12  24  40  60  90 126 169 215 267 318 375
#     4  11  22  40  59  85 120 166 219 273 324 371
#     4  11  23  43  59  91 134 164 214 266 318 372
#     4  11  22  39  59  86 118 163 227 271 315 377
#     4  10  22  45  72  98 131 163 204 252 319 388
#     4  11  25  41  66  98 131 164 213 258 316 387
#     4  10  24  42  68  99 129 168 203 258 316 383
#     4  10  21  39  61  83 126 171 214 277 316 366
#
# _framework density 20.752334000000001
#
# number of rings (size 3 to 8) (size 9 to 14) (size 15 to 20)
#    0.000    1.250    3.750    1.875    3.500    3.000 
#    2.250    0.000    0.000    0.000    0.000    0.000 
#    0.000    0.000    0.000    0.000    0.000    0.000 
#
# Total GULP energy -89413.792578 kJ/mol
# GULP energy per Si atom -5588.362036 kJ/mol
# Density = 2.070510 g / cm^3
# Si number density = 20.752334 Si / 1000 Ang^3
#
#
#
# Elastic Constant Matrix: (Units=GPa)
#
#
# Indices 1 2 3 4 5 6 
#
# 1 60.0614 19.8058 -7.1024 1.3525 0.3440 -16.8658
# 2 19.8058 104.5694 11.2432 4.4101 13.4672 -22.2010
# 3 -7.1024 11.2432 93.3318 18.7562 18.8756 21.2352
# 4 1.3525 4.4101 18.7562 26.9273 2.9083 4.7385
# 5 0.3440 13.4672 18.8756 2.9083 35.0432 4.6327
# 6 -16.8658 -22.2010 21.2352 4.7385 4.6327 25.3661
#
#
#
# Elastic Compliance Matrix: (Units=1/GPa)
#
#
# Indices 1 2 3 4 5 6 
#
# 1 0.021006 -0.000336 -0.000997 -0.002852 -0.001323 0.015281
# 2 -0.000336 0.014572 -0.004274 -0.001876 -0.005447 0.017453
# 3 -0.000997 -0.004274 0.017563 -0.008010 -0.004934 -0.016708
# 4 -0.002852 -0.001876 -0.008010 0.043890 0.002138 -0.005422
# 5 -0.001323 -0.005447 -0.004934 0.002138 0.034202 -0.008162
# 6 0.015281 0.017453 -0.016708 -0.005422 -0.008162 0.081350
#
#
# Mechanical properties :
#
#
# Convention : Reuss Voigt Hill
#
# Bulk Modulus (GPa) = 23.85124 33.98397 28.91760
# Shear Modulus (GPa) = 21.02862 33.06838 27.04850
#
# Velocity S-wave (km/s) = 3.18671 3.99617 3.61417
# Velocity P-wave (km/s) = 5.00584 6.14036 5.60189
#
# Compressibility (1/GPa) = 0.04192654
#
# Stress axis : x y z
#
# Youngs Moduli (GPa) = 47.60645 68.62360 56.93932
#
# Poissons Ratio (x) = 0.02307 0.05678
# Poissons Ratio (y) = 0.01601 0.24333
# Poissons Ratio (z) = 0.04747 0.29326
#
# Static dielectric constant tensor:
#      x y z
#    x 1.673990 -0.054140 0.025970 
#    y -0.054140 1.689450 0.042340 
#    z 0.025970 0.042340 1.751220 
# 
# From -- ./inp_files/337594.got.cif
#   From: 2010.05.17/outbox.cif.g08.bks.cpg/sg2_169_cif.got.tgz:337594.got - 2010.06.03 11:33:40.
