data_PCOD9007487
_publ_section_title
;
Structure prediction by ZEFSAII (Michael W. Deem and Ramdas Pophale) SiO2 
 PCOD9007487
Probable space group: P -1
;
_chemical_formula_sum "Si O2"
_cell_formula_units_Z 12
_cell_length_a 10.107587
_cell_length_b 11.642064
_cell_length_c 14.591278
_cell_angle_alpha 40.836017
_cell_angle_beta 137.427094
_cell_angle_gamma 155.521889
_cell_volume 457.895121
_symmetry_space_group_name_H-M "P -1"
_symmetry_group_IT_number 2
_symmetry_cell_setting 'triclinic'
loop_
_space_group_symop_operation_xyz
x,y,z
-x,-y,-z
loop_
_atom_site_type_symbol
_atom_site_label
_atom_site_fract_x
_atom_site_fract_y
_atom_site_fract_z
Si Si1 0.507851 0.181388 0.334157
Si Si2 0.195521 0.258474 0.788373
Si Si3 0.456560 0.653564 0.936932
Si Si4 0.340852 0.106826 0.662361
Si Si5 0.607094 0.581950 0.630356
Si Si6 0.828782 0.302849 0.937510
O O1 0.773633 0.517847 0.294821
O O2 0.532924 0.188684 0.231026
O O3 0.500000 0.000000 0.500000
O O4 0.153677 0.012753 0.270146
O O5 0.480418 0.449779 0.744993
O O6 0.255227 0.154818 0.958073
O O7 0.134915 0.433187 0.965888
O O8 0.500000 0.500000 0.000000
O O9 0.344425 0.293625 0.607777
O O10 0.397685 0.217460 0.521936
O O11 0.637380 0.228159 0.790117
O O12 0.975473 0.775015 0.687806
O O13 0.000000 0.500000 0.000000
O O14 0.500000 0.000000 0.000000
#
# Coordination Sequence:
#
# PCOD9007487 Si02
#       6
#     2   2   2   2   2   2
#     4  11  25  43  65 100 134 178 237 291 343 410
#     4  11  22  42  68  93 132 179 232 279 354 408
#     4  10  25  47  73 103 143 193 234 291 355 429
#     4  10  21  39  61  97 133 174 228 278 342 412
#     4  10  21  39  66  93 134 177 223 281 350 413
#     4  12  26  44  71 105 143 181 240 292 351 416
#
# _framework density 26.206875
#
# number of rings (size 3 to 8) (size 9 to 14) (size 15 to 20)
#    0.000    1.333    0.000    5.000    2.333    6.667 
#    3.000    0.000    0.000    0.000    0.000    0.000 
#    0.000    0.000    0.000    0.000    0.000    0.000 
#
# Total GULP energy -66907.089453 kJ/mol
# GULP energy per Si atom -5575.590788 kJ/mol
# Density = 2.614723 g / cm^3
# Si number density = 26.206875 Si / 1000 Ang^3
#
#
#
# Elastic Constant Matrix: (Units=GPa)
#
#
# Indices 1 2 3 4 5 6 
#
# 1 73.7284 41.8096 33.1952 -9.3471 -15.1000 27.8732
# 2 41.8096 166.3708 24.5532 19.0374 -7.7817 13.2506
# 3 33.1952 24.5532 183.9977 10.2628 -14.6503 15.6048
# 4 -9.3471 19.0374 10.2628 45.2294 12.8338 -6.8051
# 5 -15.1000 -7.7817 -14.6503 12.8338 30.7117 -0.0129
# 6 27.8732 13.2506 15.6048 -6.8051 -0.0129 45.2550
#
#
#
# Elastic Compliance Matrix: (Units=1/GPa)
#
#
# Indices 1 2 3 4 5 6 
#
# 1 0.023860 -0.004709 -0.002191 0.003294 0.008111 -0.012064
# 2 -0.004709 0.007816 0.000239 -0.004861 0.001810 -0.000201
# 3 -0.002191 0.000239 0.006357 -0.003149 0.003331 -0.001385
# 4 0.003294 -0.004861 -0.003149 0.030203 -0.013734 0.005018
# 5 0.008111 0.001810 0.003331 -0.013734 0.044332 -0.008727
# 6 -0.012064 -0.000201 -0.001385 0.005018 -0.008727 0.030816
#
#
# Mechanical properties :
#
#
# Convention : Reuss Voigt Hill
#
# Bulk Modulus (GPa) = 40.47030 69.24589 54.85810
# Shear Modulus (GPa) = 30.31378 45.87515 38.09447
#
# Velocity S-wave (km/s) = 3.40473 4.18844 3.81675
# Velocity P-wave (km/s) = 5.56169 7.06193 6.35623
#
# Compressibility (1/GPa) = 0.02470948
#
# Stress axis : x y z
#
# Youngs Moduli (GPa) = 41.91149 127.94646 157.31762
#
# Poissons Ratio (x) = 0.60255 0.34466
# Poissons Ratio (y) = 0.19738 -0.03759
# Poissons Ratio (z) = 0.09182 -0.03057
#
# Static dielectric constant tensor:
#      x y z
#    x 2.110560 -0.052790 -0.053170 
#    y -0.052790 1.973270 -0.129810 
#    z -0.053170 -0.129810 2.361630 
# 
# From -- ./inp_files/454451.got.cif
#   From: 2010.05.17/outbox.cif.g08.bks.cpg/sg2_228_cif.got.tgz:454451.got - 2010.06.03 11:33:40.
