data_PCOD9007508
_publ_section_title
;
Structure prediction by ZEFSAII (Michael W. Deem and Ramdas Pophale) SiO2 
 PCOD9007508
Probable space group: P -1
;
_chemical_formula_sum "Si O2"
_cell_formula_units_Z 14
_cell_length_a 11.369298
_cell_length_b 12.438906
_cell_length_c 12.230931
_cell_angle_alpha 116.045402
_cell_angle_beta 86.557390
_cell_angle_gamma 37.347235
_cell_volume 622.928716
_symmetry_space_group_name_H-M "P -1"
_symmetry_group_IT_number 2
_symmetry_cell_setting 'triclinic'
loop_
_space_group_symop_operation_xyz
x,y,z
-x,-y,-z
loop_
_atom_site_type_symbol
_atom_site_label
_atom_site_fract_x
_atom_site_fract_y
_atom_site_fract_z
Si Si1 0.224534 0.346842 0.508693
Si Si2 0.259345 0.958905 0.637790
Si Si3 0.516245 0.126706 0.073999
Si Si4 0.891330 0.790126 0.471688
Si Si5 0.814970 0.945186 0.787191
Si Si6 0.045188 0.126001 0.946606
Si Si7 0.715784 0.344267 0.263051
O O1 0.530915 0.127331 0.369810
O O2 0.268961 0.189840 0.510956
O O3 0.000000 0.500000 0.500000
O O4 0.031948 0.639108 0.685564
O O5 0.014922 0.166512 0.836725
O O6 0.452950 0.658211 0.476356
O O7 0.166840 0.082118 0.576915
O O8 0.802165 0.898604 0.024230
O O9 0.233737 0.436891 0.292593
O O10 0.500000 0.000000 0.000000
O O11 0.530729 0.180932 0.979971
O O12 0.802166 0.939494 0.655729
O O13 0.985318 0.904745 0.796699
O O14 0.288571 0.794211 0.803238
O O15 0.776907 0.338972 0.135247
#
# Coordination Sequence:
#
# PCOD9007508 Si02
#       7
#     2   2   2   2   2   2   2
#     4   9  17  34  55  77 111 154 188 222 269 336
#     4  11  22  35  58  88 119 146 184 243 293 332
#     4  11  21  36  61  83 109 154 200 229 277 343
#     4  11  22  35  53  89 123 147 182 237 296 336
#     4   9  19  36  61  80 110 153 196 230 275 343
#     4  10  21  39  62  83 110 148 200 239 273 343
#     4   9  20  40  62  82 107 152 198 236 280 336
#
# _framework density 22.474481999999998
#
# number of rings (size 3 to 8) (size 9 to 14) (size 15 to 20)
#    0.000    2.000    1.429    3.429    2.000    1.143 
#    0.000    3.571    0.000    5.143    0.000    0.000 
#    0.000    0.000    0.000    0.000    0.000    0.000 
#
# Total GULP energy -78034.669924 kJ/mol
# GULP energy per Si atom -5573.904995 kJ/mol
# Density = 2.242333 g / cm^3
# Si number density = 22.474482 Si / 1000 Ang^3
#
#
#
# Elastic Constant Matrix: (Units=GPa)
#
#
# Indices 1 2 3 4 5 6 
#
# 1 68.7041 3.3713 0.2471 -7.0578 13.2997 5.2199
# 2 3.3713 83.3280 27.2017 -41.3550 0.1886 2.6035
# 3 0.2471 27.2017 91.5792 -50.1311 -5.5187 -4.3791
# 4 -7.0578 -41.3550 -50.1311 41.8651 5.1161 -0.5461
# 5 13.2997 0.1886 -5.5187 5.1161 22.9163 -4.3825
# 6 5.2199 2.6035 -4.3791 -0.5461 -4.3825 17.2681
#
#
#
# Elastic Compliance Matrix: (Units=1/GPa)
#
#
# Indices 1 2 3 4 5 6 
#
# 1 0.021329 0.010882 0.012221 0.031079 -0.018108 -0.008602
# 2 0.010882 0.045182 0.034630 0.090228 -0.019126 -0.003320
# 3 0.012221 0.034630 0.060612 0.110932 -0.016439 0.005792
# 4 0.031079 0.090228 0.110932 0.257127 -0.049326 0.000747
# 5 -0.018108 -0.019126 -0.016439 -0.049326 0.065015 0.019129
# 6 -0.008602 -0.003320 0.005792 0.000747 0.019129 0.067358
#
#
# Mechanical properties :
#
#
# Convention : Reuss Voigt Hill
#
# Bulk Modulus (GPa) = 4.12221 33.91685 19.01953
# Shear Modulus (GPa) = 10.37300 30.59598 20.48449
#
# Velocity S-wave (km/s) = 2.15069 3.69367 3.02231
# Velocity P-wave (km/s) = 2.82939 5.77191 4.54535
#
# Compressibility (1/GPa) = 0.24258860
#
# Stress axis : x y z
#
# Youngs Moduli (GPa) = 46.88484 22.13257 16.49846
#
# Poissons Ratio (x) = -0.24084 -0.20162
# Poissons Ratio (y) = -0.51019 -0.57135
# Poissons Ratio (z) = -0.57296 -0.76646
#
# Static dielectric constant tensor:
#      x y z
#    x 1.935510 0.030040 -0.001900 
#    y 0.030040 1.896520 -0.025680 
#    z -0.001900 -0.025680 1.897540 
# 
# From -- ./inp_files/284897.got.cif
#   From: 2010.05.17/outbox.cif.g08.bks.cpg/sg2_143_cif.got.tgz:284897.got - 2010.06.03 11:33:40.
