data_PCOD9007325
_publ_section_title
;
Structure prediction by ZEFSAII (Michael W. Deem and Ramdas Pophale) SiO2 
 PCOD9007325
Probable space group: P -1
;
_chemical_formula_sum "Si O2"
_cell_formula_units_Z 16
_cell_length_a 8.250596
_cell_length_b 12.199126
_cell_length_c 8.877949
_cell_angle_alpha 90.252963
_cell_angle_beta 87.212060
_cell_angle_gamma 136.401986
_cell_volume 614.852849
_symmetry_space_group_name_H-M "P -1"
_symmetry_group_IT_number 2
_symmetry_cell_setting 'triclinic'
loop_
_space_group_symop_operation_xyz
x,y,z
-x,-y,-z
loop_
_atom_site_type_symbol
_atom_site_label
_atom_site_fract_x
_atom_site_fract_y
_atom_site_fract_z
Si Si1 0.214121 0.186645 0.954807
Si Si2 0.983232 0.195761 0.739554
Si Si3 0.813761 0.464450 0.622540
Si Si4 0.730632 0.039534 0.459120
Si Si5 0.494564 0.158618 0.123758
Si Si6 0.127893 0.650690 0.102426
Si Si7 0.437777 0.265497 0.404414
Si Si8 0.902508 0.738366 0.764700
O O1 0.428956 0.224189 0.010469
O O2 0.171785 0.271085 0.063156
O O3 0.185213 0.212062 0.786016
O O4 0.000000 0.000000 0.000000
O O5 0.931076 0.180977 0.566152
O O6 0.033016 0.336643 0.811959
O O7 0.735094 0.022531 0.815013
O O8 0.755384 0.346862 0.753876
O O9 0.606691 0.399620 0.519804
O O10 0.886410 0.605961 0.714690
O O11 0.000000 0.500000 0.500000
O O12 0.830379 0.096719 0.287548
O O13 0.500000 0.000000 0.500000
O O14 0.698063 0.898024 0.504106
O O15 0.577051 0.262469 0.270814
O O16 0.696648 0.200353 0.019823
O O17 0.000000 0.500000 0.000000
O O18 0.267464 0.264508 0.325012
#
# Coordination Sequence:
#
# PCOD9007325 Si02
#       8
#     2   2   2   2   2   2   2   2
#     4   9  20  39  63  90 119 154 198 252 303 356
#     4  10  21  39  61  88 118 155 199 250 303 357
#     4  12  25  42  61  89 127 165 204 250 304 367
#     4  11  23  39  63  94 123 158 204 254 304 360
#     4   9  21  40  62  86 118 153 200 253 302 355
#     4  12  24  38  58  88 121 161 202 246 302 362
#     4  10  22  41  63  90 120 158 204 254 304 360
#     4  11  23  42  64  89 124 164 203 251 307 363
#
# _framework density 26.022489
#
# number of rings (size 3 to 8) (size 9 to 14) (size 15 to 20)
#    0.000    1.500    0.000    5.625    0.000    8.000 
#    0.000    6.875    0.000    0.000    0.000    0.000 
#    0.000    0.000    0.000    0.000    0.000    0.000 
#
# Total GULP energy -89531.915245 kJ/mol
# GULP energy per Si atom -5595.744703 kJ/mol
# Density = 2.596326 g / cm^3
# Si number density = 26.022489 Si / 1000 Ang^3
#
#
#
# Elastic Constant Matrix: (Units=GPa)
#
#
# Indices 1 2 3 4 5 6 
#
# 1 62.8494 -3.2504 32.3553 4.7652 5.6778 -13.9482
# 2 -3.2504 51.8057 12.1750 13.4082 -7.7392 -15.6641
# 3 32.3553 12.1750 115.0318 1.1497 0.7944 4.6235
# 4 4.7652 13.4082 1.1497 43.4191 -5.0138 -3.9688
# 5 5.6778 -7.7392 0.7944 -5.0138 57.0784 2.3095
# 6 -13.9482 -15.6641 4.6235 -3.9688 2.3095 34.5070
#
#
#
# Elastic Compliance Matrix: (Units=1/GPa)
#
#
# Indices 1 2 3 4 5 6 
#
# 1 0.024337 0.008595 -0.008284 -0.004018 -0.002081 0.014526
# 2 0.008595 0.028445 -0.006011 -0.007890 0.001738 0.016168
# 3 -0.008284 -0.006011 0.011941 0.001800 0.000304 -0.007491
# 4 -0.004018 -0.007890 0.001800 0.025818 0.001678 -0.002590
# 5 -0.002081 0.001738 0.000304 0.001678 0.018151 -0.001115
# 6 0.014526 0.016168 -0.007491 -0.002590 -0.001115 0.042971
#
#
# Mechanical properties :
#
#
# Convention : Reuss Voigt Hill
#
# Bulk Modulus (GPa) = 18.75407 34.69409 26.72408
# Shear Modulus (GPa) = 27.64917 39.56135 33.60526
#
# Velocity S-wave (km/s) = 3.26315 3.90330 3.59749
# Velocity P-wave (km/s) = 4.62818 5.80307 5.24861
#
# Compressibility (1/GPa) = 0.05332175
#
# Stress axis : x y z
#
# Youngs Moduli (GPa) = 41.09006 35.15531 83.74781
#
# Poissons Ratio (x) = -0.30216 0.69379
# Poissons Ratio (y) = -0.35317 0.50343
# Poissons Ratio (z) = 0.34040 0.21133
#
# Static dielectric constant tensor:
#      x y z
#    x 2.071980 0.074220 -0.010560 
#    y 0.074220 2.129310 -0.021640 
#    z -0.010560 -0.021640 2.037050 
# 
# From -- ./inp_files/158720.got.cif
#   From: 2010.05.17/outbox.cif.g08.bks.cpg/sg2_80_cif.got.tgz:158720.got - 2010.06.03 11:33:40.
