data_PCOD9007734
_publ_section_title
;
Structure prediction by ZEFSAII (Michael W. Deem and Ramdas Pophale) SiO2 
 PCOD9007734
Probable space group: P -1
;
_chemical_formula_sum "Si O2"
_cell_formula_units_Z 14
_cell_length_a 16.830923
_cell_length_b 13.359156
_cell_length_c 8.483763
_cell_angle_alpha 87.751497
_cell_angle_beta 73.830177
_cell_angle_gamma 23.663924
_cell_volume 609.281911
_symmetry_space_group_name_H-M "P -1"
_symmetry_group_IT_number 2
_symmetry_cell_setting 'triclinic'
loop_
_space_group_symop_operation_xyz
x,y,z
-x,-y,-z
loop_
_atom_site_type_symbol
_atom_site_label
_atom_site_fract_x
_atom_site_fract_y
_atom_site_fract_z
Si Si1 0.355513 0.387894 0.778239
Si Si2 0.144249 0.544002 0.314644
Si Si3 0.461275 0.384561 0.150031
Si Si4 0.330507 0.831541 0.603270
Si Si5 0.943155 0.126898 0.867631
Si Si6 0.945666 0.755935 0.766921
Si Si7 0.772245 0.768640 0.733364
O O1 0.201924 0.614142 0.988529
O O2 0.170628 0.536716 0.761585
O O3 0.476298 0.341703 0.615303
O O4 0.557861 0.080628 0.754596
O O5 0.022819 0.680971 0.547609
O O6 0.289345 0.277318 0.206069
O O7 0.907554 0.823154 0.311497
O O8 0.324990 0.432478 0.231601
O O9 0.252773 0.691915 0.162166
O O10 0.703991 0.095643 0.925761
O O11 0.553420 0.304436 0.278767
O O12 0.191276 0.883255 0.658218
O O13 0.000000 0.000000 0.000000
O O14 0.874590 0.719578 0.823081
O O15 0.000000 0.500000 0.500000
#
# Coordination Sequence:
#
# PCOD9007734 Si02
#       7
#     2   2   2   2   2   2   2
#     4  12  22  42  67  90 132 168 206 256 314 370
#     4  10  22  39  62  90 131 169 212 248 300 370
#     4  11  22  41  66  91 126 163 211 261 307 370
#     4  11  22  41  67  95 122 164 208 261 312 372
#     4  11  26  46  68  93 120 161 212 265 320 377
#     4  11  21  38  62  91 128 173 199 252 312 358
#     4  10  21  39  62  93 131 173 211 247 301 366
#
# _framework density 22.977872000000001
#
# number of rings (size 3 to 8) (size 9 to 14) (size 15 to 20)
#    0.000    1.143    7.143    0.000    0.000    5.143 
#    0.000    2.143    0.000    0.000    0.000    0.000 
#    0.000    0.000    0.000    0.000    0.000    0.000 
#
# Total GULP energy -78182.317292 kJ/mol
# GULP energy per Si atom -5584.451235 kJ/mol
# Density = 2.292557 g / cm^3
# Si number density = 22.977872 Si / 1000 Ang^3
#
#
#
# Elastic Constant Matrix: (Units=GPa)
#
#
# Indices 1 2 3 4 5 6 
#
# 1 42.9342 32.9033 10.3920 9.9655 -8.5138 -14.7377
# 2 32.9033 122.2769 16.6844 -4.6877 3.1314 -29.0945
# 3 10.3920 16.6844 100.4233 2.8213 -4.5314 -12.3529
# 4 9.9655 -4.6877 2.8213 29.9530 -8.0694 -4.5421
# 5 -8.5138 3.1314 -4.5314 -8.0694 28.2111 -2.9122
# 6 -14.7377 -29.0945 -12.3529 -4.5421 -2.9122 37.7938
#
#
#
# Elastic Compliance Matrix: (Units=1/GPa)
#
#
# Indices 1 2 3 4 5 6 
#
# 1 0.036832 -0.008789 -0.000778 -0.009850 0.009863 0.006919
# 2 -0.008789 0.012410 -0.000599 0.005379 -0.001924 0.006429
# 3 -0.000778 -0.000599 0.010569 0.000100 0.001851 0.002844
# 4 -0.009850 0.005379 0.000100 0.040736 0.008707 0.005899
# 5 0.009863 -0.001924 0.001851 0.008707 0.042175 0.007266
# 6 0.006919 0.006429 0.002844 0.005899 0.007266 0.036305
#
#
# Mechanical properties :
#
#
# Convention : Reuss Voigt Hill
#
# Bulk Modulus (GPa) = 25.33101 42.84375 34.08738
# Shear Modulus (GPa) = 23.52728 32.90189 28.21459
#
# Velocity S-wave (km/s) = 3.20333 3.78814 3.50795
# Velocity P-wave (km/s) = 4.97291 6.14976 5.59237
#
# Compressibility (1/GPa) = 0.03947731
#
# Stress axis : x y z
#
# Youngs Moduli (GPa) = 27.14994 80.57968 94.62022
#
# Poissons Ratio (x) = 0.70821 0.07366
# Poissons Ratio (y) = 0.23862 0.05672
# Poissons Ratio (z) = 0.02113 0.04831
#
# Static dielectric constant tensor:
#      x y z
#    x 1.915770 0.040160 -0.089610 
#    y 0.040160 1.915190 -0.031010 
#    z -0.089610 -0.031010 1.911180 
# 
# From -- ./inp_files/313919.got.cif
#   From: 2010.05.17/outbox.cif.g08.bks.cpg/sg2_157_cif.got.tgz:313919.got - 2010.06.03 11:33:40.
