data_PCOD9007100
_publ_section_title
;
Structure prediction by ZEFSAII (Michael W. Deem and Ramdas Pophale) SiO2 
 PCOD9007100
Probable space group: P -1
;
_chemical_formula_sum "Si O2"
_cell_formula_units_Z 16
_cell_length_a 11.569419
_cell_length_b 13.882510
_cell_length_c 8.187025
_cell_angle_alpha 38.596382
_cell_angle_beta 87.758665
_cell_angle_gamma 65.170603
_cell_volume 640.112030
_symmetry_space_group_name_H-M "P -1"
_symmetry_group_IT_number 2
_symmetry_cell_setting 'triclinic'
loop_
_space_group_symop_operation_xyz
x,y,z
-x,-y,-z
loop_
_atom_site_type_symbol
_atom_site_label
_atom_site_fract_x
_atom_site_fract_y
_atom_site_fract_z
Si Si1 0.421117 0.449238 0.197576
Si Si2 0.853753 0.917519 0.188010
Si Si3 0.306538 0.207555 0.526066
Si Si4 0.571174 0.844929 0.853935
Si Si5 0.946195 0.192070 0.361791
Si Si6 0.831678 0.785404 0.818500
Si Si7 0.744402 0.131898 0.591263
Si Si8 0.407212 0.685196 0.143846
O O1 0.330036 0.368858 0.286494
O O2 0.582269 0.253879 0.516324
O O3 0.338544 0.624288 0.100563
O O4 0.500000 0.500000 0.000000
O O5 0.863812 0.982970 0.920748
O O6 0.718706 0.118264 0.017866
O O7 0.799360 0.784883 0.345473
O O8 0.978969 0.836645 0.425652
O O9 0.472598 0.996649 0.804755
O O10 0.500000 0.000000 0.500000
O O11 0.226152 0.210994 0.362148
O O12 0.747810 0.722424 0.011271
O O13 0.519937 0.711822 0.018398
O O14 0.000444 0.295844 0.114565
O O15 0.787907 0.263066 0.341732
O O16 0.000000 0.000000 0.500000
O O17 0.754563 0.000520 0.617302
O O18 0.500000 0.500000 0.500000
#
# Coordination Sequence:
#
# PCOD9007100 Si02
#       8
#     2   2   2   2   2   2   2   2
#     4  12  24  34  56  88 125 152 190 234 300 356
#     4  10  21  39  60  82 119 151 191 237 290 349
#     4   9  19  34  56  81 113 153 190 234 280 344
#     4   9  16  31  57  77 113 153 195 228 277 342
#     4   9  20  35  60  86 108 143 203 253 274 322
#     4   9  17  33  56  82 107 143 194 241 275 321
#     4  11  21  34  56  92 111 149 194 243 287 334
#     4  11  23  37  54  91 128 155 180 239 312 354
#
# _framework density 24.995625
#
# number of rings (size 3 to 8) (size 9 to 14) (size 15 to 20)
#    0.000    2.000    2.500    2.625    7.000    1.500 
#    0.000    0.000    0.000    6.750    0.000    6.125 
#    0.000    0.000    0.000    0.000    0.000    0.000 
#
# Total GULP energy -89070.800917 kJ/mol
# GULP energy per Si atom -5566.925057 kJ/mol
# Density = 2.493873 g / cm^3
# Si number density = 24.995625 Si / 1000 Ang^3
#
#
#
# Elastic Constant Matrix: (Units=GPa)
#
#
# Indices 1 2 3 4 5 6 
#
# 1 187.3290 47.8670 22.2798 0.0736 -21.7126 3.3325
# 2 47.8670 66.4590 13.2669 2.7610 -12.9746 23.2564
# 3 22.2798 13.2669 62.4884 9.8201 -19.4446 22.2096
# 4 0.0736 2.7610 9.8201 23.1644 3.8650 3.0648
# 5 -21.7126 -12.9746 -19.4446 3.8650 37.8469 -7.4481
# 6 3.3325 23.2564 22.2096 3.0648 -7.4481 39.9853
#
#
#
# Elastic Compliance Matrix: (Units=1/GPa)
#
#
# Indices 1 2 3 4 5 6 
#
# 1 0.007301 -0.006078 -0.002601 0.000933 0.001577 0.004594
# 2 -0.006078 0.024958 0.004285 -0.003526 0.004628 -0.015258
# 3 -0.002601 0.004285 0.026613 -0.011974 0.012141 -0.013878
# 4 0.000933 -0.003526 -0.011974 0.050221 -0.011434 0.002645
# 5 0.001577 0.004628 0.012141 -0.011434 0.035926 -0.001999
# 6 0.004594 -0.015258 -0.013878 0.002645 -0.001999 0.040634
#
#
# Mechanical properties :
#
#
# Convention : Reuss Voigt Hill
#
# Bulk Modulus (GPa) = 19.96617 53.67820 36.82219
# Shear Modulus (GPa) = 23.68142 35.72351 29.70246
#
# Velocity S-wave (km/s) = 3.08136 3.78457 3.45092
# Velocity P-wave (km/s) = 4.54587 6.37330 5.53551
#
# Compressibility (1/GPa) = 0.05008471
#
# Stress axis : x y z
#
# Youngs Moduli (GPa) = 136.96081 40.06708 37.57565
#
# Poissons Ratio (x) = 0.24352 0.09775
# Poissons Ratio (y) = 0.83242 -0.16102
# Poissons Ratio (z) = 0.35628 -0.17170
#
# Static dielectric constant tensor:
#      x y z
#    x 2.065870 -0.053580 0.042700 
#    y -0.053580 1.994180 0.010350 
#    z 0.042700 0.010350 2.100650 
# 
# From -- ./inp_files/266784.got.cif
#   From: 2010.05.17/outbox.cif.g08.bks.cpg/sg2_134_cif.got.tgz:266784.got - 2010.06.03 11:33:40.
