data_PCOD9007250
_publ_section_title
;
Structure prediction by ZEFSAII (Michael W. Deem and Ramdas Pophale) SiO2 
 PCOD9007250
Probable space group: P -1
;
_chemical_formula_sum "Si O2"
_cell_formula_units_Z 16
_cell_length_a 14.805287
_cell_length_b 11.767184
_cell_length_c 9.398028
_cell_angle_alpha 60.025786
_cell_angle_beta 63.416776
_cell_angle_gamma 113.875489
_cell_volume 741.910838
_symmetry_space_group_name_H-M "P -1"
_symmetry_group_IT_number 2
_symmetry_cell_setting 'triclinic'
loop_
_space_group_symop_operation_xyz
x,y,z
-x,-y,-z
loop_
_atom_site_type_symbol
_atom_site_label
_atom_site_fract_x
_atom_site_fract_y
_atom_site_fract_z
Si Si1 0.623841 0.093383 0.724170
Si Si2 0.460439 0.823742 0.722341
Si Si3 0.852555 0.386234 0.824629
Si Si4 0.188390 0.856108 0.208539
Si Si5 0.050867 0.443170 0.887392
Si Si6 0.918578 0.027877 0.350214
Si Si7 0.438815 0.368494 0.273757
Si Si8 0.762934 0.825131 0.903759
O O1 0.758619 0.138730 0.676753
O O2 0.744229 0.336405 0.426693
O O3 0.536379 0.924689 0.763130
O O4 0.500000 0.000000 0.000000
O O5 0.526830 0.752936 0.669266
O O6 0.500000 0.000000 0.500000
O O7 0.254551 0.618906 0.010200
O O8 0.737184 0.167213 0.945196
O O9 0.984584 0.610834 0.497504
O O10 0.948327 0.383212 0.858467
O O11 0.238953 0.059214 0.052441
O O12 0.000000 0.500000 0.000000
O O13 0.981654 0.235356 0.125234
O O14 0.089276 0.118755 0.182888
O O15 0.767592 0.826125 0.471130
O O16 0.833842 0.941604 0.622702
O O17 0.500000 0.500000 0.000000
O O18 0.569558 0.567078 0.173876
#
# Coordination Sequence:
#
# PCOD9007250 Si02
#       8
#     2   2   2   2   2   2   2   2
#     4  11  22  40  64  97 137 174 216 280 352 412
#     4  12  24  38  66 101 132 167 226 294 339 395
#     4  10  22  37  64  92 125 169 213 273 334 404
#     4  10  21  42  60  91 129 171 220 259 335 415
#     4  11  22  39  65  96 134 171 221 288 342 399
#     4  10  21  39  60  97 129 172 227 276 337 400
#     4  10  22  39  60 100 134 174 225 285 341 407
#     4  10  22  37  67  91 131 181 224 275 337 415
#
# _framework density 21.565933999999999
#
# number of rings (size 3 to 8) (size 9 to 14) (size 15 to 20)
#    0.000    1.500    1.250    5.250    8.750    0.000 
#    0.000    0.625    0.000    6.750    0.000    0.000 
#    0.000    0.000    0.000    0.000    0.000    0.000 
#
# Total GULP energy -89187.871979 kJ/mol
# GULP energy per Si atom -5574.241999 kJ/mol
# Density = 2.151685 g / cm^3
# Si number density = 21.565934 Si / 1000 Ang^3
#
#
#
# Elastic Constant Matrix: (Units=GPa)
#
#
# Indices 1 2 3 4 5 6 
#
# 1 94.5658 38.0387 21.9650 -20.0896 3.7377 3.4119
# 2 38.0387 117.2181 21.6271 -25.2454 -1.6005 1.1650
# 3 21.9650 21.6271 81.5218 -21.3406 -2.5787 6.2118
# 4 -20.0896 -25.2454 -21.3406 31.4797 2.5818 3.3307
# 5 3.7377 -1.6005 -2.5787 2.5818 29.3202 -3.6721
# 6 3.4119 1.1650 6.2118 3.3307 -3.6721 9.7614
#
#
#
# Elastic Compliance Matrix: (Units=1/GPa)
#
#
# Indices 1 2 3 4 5 6 
#
# 1 0.013812 -0.002763 -0.000566 0.007359 -0.003612 -0.008007
# 2 -0.002763 0.011053 -0.000038 0.007383 -0.000057 -0.002870
# 3 -0.000566 -0.000038 0.016929 0.012851 -0.001517 -0.015526
# 4 0.007359 0.007383 0.012851 0.055360 -0.008503 -0.033719
# 5 -0.003612 -0.000057 -0.001517 -0.008503 0.037593 0.019278
# 6 -0.008007 -0.002870 -0.015526 -0.033719 0.019278 0.134223
#
#
# Mechanical properties :
#
#
# Convention : Reuss Voigt Hill
#
# Bulk Modulus (GPa) = 28.52344 50.72971 39.62658
# Shear Modulus (GPa) = 17.39790 28.22394 22.81092
#
# Velocity S-wave (km/s) = 2.84338 3.62156 3.25580
# Velocity P-wave (km/s) = 4.90251 6.40794 5.70510
#
# Compressibility (1/GPa) = 0.03505888
#
# Stress axis : x y z
#
# Youngs Moduli (GPa) = 72.39840 90.47726 59.07161
#
# Poissons Ratio (x) = 0.24996 0.03346
# Poissons Ratio (y) = 0.20001 0.00226
# Poissons Ratio (z) = 0.04101 0.00346
#
# Static dielectric constant tensor:
#      x y z
#    x 1.859760 -0.000640 -0.107970 
#    y -0.000640 2.175460 0.337860 
#    z -0.107970 0.337860 2.318740 
# 
# From -- ./inp_files/282134.got.cif
#   From: 2010.05.17/outbox.cif.g08.bks.cpg/sg2_142_cif.got.tgz:282134.got - 2010.06.03 11:33:40.
