data_PCOD9007280
_publ_section_title
;
Structure prediction by ZEFSAII (Michael W. Deem and Ramdas Pophale) SiO2 
 PCOD9007280
Probable space group: P -1
;
_chemical_formula_sum "Si O2"
_cell_formula_units_Z 16
_cell_length_a 15.529384
_cell_length_b 7.628213
_cell_length_c 10.256730
_cell_angle_alpha 139.784625
_cell_angle_beta 68.832256
_cell_angle_gamma 90.874643
_cell_volume 659.562345
_symmetry_space_group_name_H-M "P -1"
_symmetry_group_IT_number 2
_symmetry_cell_setting 'triclinic'
loop_
_space_group_symop_operation_xyz
x,y,z
-x,-y,-z
loop_
_atom_site_type_symbol
_atom_site_label
_atom_site_fract_x
_atom_site_fract_y
_atom_site_fract_z
Si Si1 0.238051 0.779793 0.345637
Si Si2 0.142792 0.283989 0.491886
Si Si3 0.055634 0.165901 0.142339
Si Si4 0.817433 0.387492 0.093896
Si Si5 0.619455 0.932199 0.181889
Si Si6 0.203991 0.092392 0.785975
Si Si7 0.430849 0.846498 0.209449
Si Si8 0.332089 0.890237 0.016399
O O1 0.304040 0.427910 0.080461
O O2 0.322804 0.915963 0.373236
O O3 0.160464 0.976738 0.386676
O O4 0.187848 0.866633 0.564720
O O5 0.230251 0.189067 0.280530
O O6 0.030810 0.493539 0.618313
O O7 0.172090 0.470801 0.692930
O O8 0.099813 0.959223 0.128272
O O9 0.148210 0.137379 0.980541
O O10 0.000000 0.000000 0.000000
O O11 0.710602 0.364891 0.113209
O O12 0.835072 0.590892 0.089674
O O13 0.623211 0.082422 0.129067
O O14 0.675924 0.035607 0.318448
O O15 0.502189 0.997912 0.305847
O O16 0.407935 0.866068 0.078765
O O17 0.500000 0.500000 0.000000
#
# Coordination Sequence:
#
# PCOD9007280 Si02
#       8
#     2   2   2   2   2   2   2   2
#     4   9  21  38  62  86 117 161 196 244 297 355
#     4   9  21  39  58  84 118 157 200 242 298 343
#     4  10  22  39  60  91 120 154 203 251 291 353
#     4  10  21  39  61  85 121 159 195 250 290 348
#     4  11  22  37  62  90 120 157 198 246 296 355
#     4  11  22  41  62  88 122 160 200 240 304 349
#     4   9  19  39  60  87 118 155 199 241 298 352
#     4  11  21  38  61  88 122 156 197 246 296 352
#
# _framework density 24.258510999999999
#
# number of rings (size 3 to 8) (size 9 to 14) (size 15 to 20)
#    0.000    2.000    1.250    2.625    3.500    5.500 
#    0.000    5.000    0.000   11.250    0.000    0.000 
#    0.000    0.000    0.000    0.000    0.000    0.000 
#
# Total GULP energy -89332.727405 kJ/mol
# GULP energy per Si atom -5583.295463 kJ/mol
# Density = 2.420330 g / cm^3
# Si number density = 24.258511 Si / 1000 Ang^3
#
#
#
# Elastic Constant Matrix: (Units=GPa)
#
#
# Indices 1 2 3 4 5 6 
#
# 1 88.4896 9.9090 -17.5129 0.9237 -2.0052 -22.1334
# 2 9.9090 80.9338 -3.2586 -1.0582 -1.5915 -19.7643
# 3 -17.5129 -3.2586 49.1511 8.8484 3.6663 -9.9590
# 4 0.9237 -1.0582 8.8484 30.9264 -10.4454 3.5050
# 5 -2.0052 -1.5915 3.6663 -10.4454 26.6736 8.7760
# 6 -22.1334 -19.7643 -9.9590 3.5050 8.7760 40.7338
#
#
#
# Elastic Compliance Matrix: (Units=1/GPa)
#
#
# Indices 1 2 3 4 5 6 
#
# 1 0.017212 0.001920 0.011624 -0.008492 -0.008690 0.015729
# 2 0.001920 0.014795 0.004852 -0.003716 -0.004623 0.010724
# 3 0.011624 0.004852 0.034095 -0.018653 -0.018244 0.022542
# 4 -0.008492 -0.003716 -0.018653 0.049741 0.028202 -0.021334
# 5 -0.008690 -0.004623 -0.018244 0.028202 0.058841 -0.026530
# 6 0.015729 0.010724 0.022542 -0.021334 -0.026530 0.051362
#
#
# Mechanical properties :
#
#
# Convention : Reuss Voigt Hill
#
# Bulk Modulus (GPa) = 9.71874 21.87217 15.79545
# Shear Modulus (GPa) = 22.36589 34.96254 28.66421
#
# Velocity S-wave (km/s) = 3.03971 3.80050 3.44119
# Velocity P-wave (km/s) = 4.04163 5.31923 4.72382
#
# Compressibility (1/GPa) = 0.10289401
#
# Stress axis : x y z
#
# Youngs Moduli (GPa) = 58.09829 67.58849 29.32966
#
# Poissons Ratio (x) = -0.12976 -0.34093
# Poissons Ratio (y) = -0.11154 -0.14230
# Poissons Ratio (z) = -0.67534 -0.32792
#
# Static dielectric constant tensor:
#      x y z
#    x 2.022510 -0.005540 0.054600 
#    y -0.005540 1.956610 -0.017670 
#    z 0.054600 -0.017670 2.031380 
# 
# From -- ./inp_files/273069.got.cif
#   From: 2010.05.17/outbox.cif.g08.bks.cpg/sg2_137_cif.got.tgz:273069.got - 2010.06.03 11:33:40.
