data_PCOD9007761
_publ_section_title
;
Structure prediction by ZEFSAII (Michael W. Deem and Ramdas Pophale) SiO2 
 PCOD9007761
Probable space group: P -1
;
_chemical_formula_sum "Si O2"
_cell_formula_units_Z 14
_cell_length_a 14.363676
_cell_length_b 13.736122
_cell_length_c 9.188492
_cell_angle_alpha 101.610651
_cell_angle_beta 132.631496
_cell_angle_gamma 40.108939
_cell_volume 639.260716
_symmetry_space_group_name_H-M "P -1"
_symmetry_group_IT_number 2
_symmetry_cell_setting 'triclinic'
loop_
_space_group_symop_operation_xyz
x,y,z
-x,-y,-z
loop_
_atom_site_type_symbol
_atom_site_label
_atom_site_fract_x
_atom_site_fract_y
_atom_site_fract_z
Si Si1 0.466612 0.138005 0.882882
Si Si2 0.149109 0.624377 0.317799
Si Si3 0.256345 0.254325 0.984665
Si Si4 0.534975 0.240659 0.435389
Si Si5 0.256265 0.883753 0.688226
Si Si6 0.728129 0.066180 0.896959
Si Si7 0.480670 0.405091 0.885938
O O1 0.483052 0.183446 0.759260
O O2 0.529546 0.980772 0.866071
O O3 0.237618 0.297938 0.807112
O O4 0.707067 0.026912 0.193040
O O5 0.374946 0.443045 0.389638
O O6 0.261007 0.562675 0.579153
O O7 0.981859 0.638554 0.163124
O O8 0.973630 0.834427 0.137159
O O9 0.348187 0.284020 0.184839
O O10 0.709964 0.148582 0.456442
O O11 0.688190 0.093024 0.691499
O O12 0.506660 0.667371 0.973340
O O13 0.000000 0.000000 0.500000
O O14 0.708633 0.192483 0.972833
O O15 0.500000 0.500000 0.000000
#
# Coordination Sequence:
#
# PCOD9007761 Si02
#       7
#     2   2   2   2   2   2   2
#     4   8  17  34  59  91 119 160 211 247 301 368
#     4  10  21  39  62  95 130 161 204 257 320 369
#     4   9  17  34  63  91 127 163 201 257 303 371
#     4  10  21  41  61  97 127 161 211 250 314 384
#     4  10  22  42  66  87 122 167 213 264 309 363
#     4   9  20  40  63  90 131 162 199 258 317 364
#     4  10  23  40  65  88 117 163 217 258 297 373
#
# _framework density 21.900296000000001
#
# number of rings (size 3 to 8) (size 9 to 14) (size 15 to 20)
#    0.000    2.571    0.000    0.429    6.000    2.286 
#    2.571   23.571    0.000    0.000    0.000    0.000 
#    0.000    0.000    0.000    0.000    0.000    0.000 
#
# Total GULP energy -77949.332651 kJ/mol
# GULP energy per Si atom -5567.809475 kJ/mol
# Density = 2.185045 g / cm^3
# Si number density = 21.900296 Si / 1000 Ang^3
#
#
#
# Elastic Constant Matrix: (Units=GPa)
#
#
# Indices 1 2 3 4 5 6 
#
# 1 109.0124 53.0644 47.6315 8.1258 -23.6539 -21.3250
# 2 53.0644 96.0593 43.3796 4.0450 -18.0104 9.6031
# 3 47.6315 43.3796 87.7209 -1.2347 -36.7363 -0.5515
# 4 8.1258 4.0450 -1.2347 32.4237 2.0383 -7.9565
# 5 -23.6539 -18.0104 -36.7363 2.0383 47.4191 11.8119
# 6 -21.3250 9.6031 -0.5515 -7.9565 11.8119 42.2100
#
#
#
# Elastic Compliance Matrix: (Units=1/GPa)
#
#
# Indices 1 2 3 4 5 6 
#
# 1 0.017905 -0.008526 -0.006256 -0.000767 -0.001936 0.011301
# 2 -0.008526 0.018238 -0.003408 -0.002825 0.002586 -0.009758
# 3 -0.006256 -0.003408 0.022540 0.000446 0.014541 -0.006076
# 4 -0.000767 -0.002825 0.000446 0.033616 -0.004513 0.007861
# 5 -0.001936 0.002586 0.014541 -0.004513 0.035601 -0.012190
# 6 0.011301 -0.009758 -0.006076 0.007861 -0.012190 0.036434
#
#
# Mechanical properties :
#
#
# Convention : Reuss Voigt Hill
#
# Bulk Modulus (GPa) = 44.83709 64.54931 54.69320
# Shear Modulus (GPa) = 24.02133 34.32503 29.17318
#
# Velocity S-wave (km/s) = 3.31546 3.96325 3.65374
# Velocity P-wave (km/s) = 5.93078 7.10502 6.54429
#
# Compressibility (1/GPa) = 0.02230297
#
# Stress axis : x y z
#
# Youngs Moduli (GPa) = 55.85043 54.82947 44.36584
#
# Poissons Ratio (x) = 0.46748 0.27757
# Poissons Ratio (y) = 0.47618 0.15119
# Poissons Ratio (z) = 0.34942 0.18684
#
# Static dielectric constant tensor:
#      x y z
#    x 1.910410 0.039560 0.010230 
#    y 0.039560 1.845670 -0.014230 
#    z 0.010230 -0.014230 1.835850 
# 
# From -- ./inp_files/315491.got.cif
#   From: 2010.05.17/outbox.cif.g08.bks.cpg/sg2_158_cif.got.tgz:315491.got - 2010.06.03 11:33:40.
