data_PCOD9007655
_publ_section_title
;
Structure prediction by ZEFSAII (Michael W. Deem and Ramdas Pophale) SiO2 
 PCOD9007655
Probable space group: P -1
;
_chemical_formula_sum "Si O2"
_cell_formula_units_Z 14
_cell_length_a 7.396875
_cell_length_b 17.445881
_cell_length_c 9.348588
_cell_angle_alpha 144.902685
_cell_angle_beta 129.089738
_cell_angle_gamma 62.672266
_cell_volume 533.989900
_symmetry_space_group_name_H-M "P -1"
_symmetry_group_IT_number 2
_symmetry_cell_setting 'triclinic'
loop_
_space_group_symop_operation_xyz
x,y,z
-x,-y,-z
loop_
_atom_site_type_symbol
_atom_site_label
_atom_site_fract_x
_atom_site_fract_y
_atom_site_fract_z
Si Si1 0.049893 0.183355 0.203068
Si Si2 0.728986 0.501114 0.925777
Si Si3 0.774643 0.812280 0.399698
Si Si4 0.605268 0.631078 0.665645
Si Si5 0.036042 0.500098 0.685234
Si Si6 0.846454 0.006514 0.288171
Si Si7 0.524215 0.094204 0.854114
O O1 0.991293 0.336962 0.430651
O O2 0.797142 0.098937 0.971664
O O3 0.216932 0.167557 0.395845
O O4 0.138659 0.123818 0.007394
O O5 0.690604 0.653579 0.102518
O O6 0.748303 0.467699 0.051564
O O7 0.517137 0.402531 0.600049
O O8 0.000000 0.500000 0.000000
O O9 0.609864 0.894115 0.346484
O O10 0.035237 0.865355 0.547990
O O11 0.500000 0.500000 0.500000
O O12 0.875460 0.619357 0.815628
O O13 0.522520 0.764288 0.884255
O O14 0.000000 0.500000 0.500000
O O15 0.593946 0.006764 0.236873
O O16 0.000000 0.000000 0.500000
#
# Coordination Sequence:
#
# PCOD9007655 Si02
#       7
#     2   2   2   2   2   2   2
#     4  11  22  41  64  88 122 166 206 249 313 365
#     4  11  20  36  63  91 119 163 202 242 307 370
#     4  10  21  39  62  91 123 160 206 253 302 366
#     4  12  19  37  64  91 123 161 201 244 303 366
#     4  11  23  37  59  92 127 159 202 255 302 362
#     4  10  24  42  63  91 122 160 209 260 302 362
#     4  11  22  41  65  92 127 163 204 251 307 363
#
# _framework density 26.217722999999999
#
# number of rings (size 3 to 8) (size 9 to 14) (size 15 to 20)
#    0.000    1.143    4.286    2.143    0.000    4.571 
#    0.000    4.286    0.000    0.000    0.000    0.000 
#    0.000    0.000    0.000    0.000    0.000    0.000 
#
# Total GULP energy -78112.052592 kJ/mol
# GULP energy per Si atom -5579.432328 kJ/mol
# Density = 2.615805 g / cm^3
# Si number density = 26.217723 Si / 1000 Ang^3
#
#
#
# Elastic Constant Matrix: (Units=GPa)
#
#
# Indices 1 2 3 4 5 6 
#
# 1 92.5578 26.5643 18.7384 -20.3909 -15.6696 -16.5481
# 2 26.5643 88.7501 66.8999 5.8469 -18.7605 1.1441
# 3 18.7384 66.8999 167.5494 -37.6031 -17.3865 -7.4290
# 4 -20.3909 5.8469 -37.6031 51.2476 12.6746 -13.7672
# 5 -15.6696 -18.7605 -17.3865 12.6746 28.8727 -3.7129
# 6 -16.5481 1.1441 -7.4290 -13.7672 -3.7129 34.7041
#
#
#
# Elastic Compliance Matrix: (Units=1/GPa)
#
#
# Indices 1 2 3 4 5 6 
#
# 1 0.024249 -0.018483 0.011926 0.027491 -0.000446 0.025583
# 2 -0.018483 0.040704 -0.022931 -0.040894 0.016768 -0.029493
# 3 0.011926 -0.022931 0.020912 0.030225 -0.006242 0.022242
# 4 0.027491 -0.040894 0.030225 0.075384 -0.020286 0.048662
# 5 -0.000446 0.016768 -0.006242 -0.020286 0.049814 -0.004820
# 6 0.025583 -0.029493 0.022242 0.048662 -0.004820 0.065536
#
#
# Mechanical properties :
#
#
# Convention : Reuss Voigt Hill
#
# Bulk Modulus (GPa) = 37.18974 63.69584 50.44279
# Shear Modulus (GPa) = 14.51216 38.74184 26.62700
#
# Velocity S-wave (km/s) = 2.35526 3.84825 3.19032
# Velocity P-wave (km/s) = 4.64888 6.64026 5.73172
#
# Compressibility (1/GPa) = 0.02688914
#
# Stress axis : x y z
#
# Youngs Moduli (GPa) = 41.23874 24.56765 47.81877
#
# Poissons Ratio (x) = 0.45408 -0.57028
# Poissons Ratio (y) = 0.76222 1.09652
# Poissons Ratio (z) = -0.49181 0.56336
#
# Static dielectric constant tensor:
#      x y z
#    x 2.064530 0.016110 -0.053560 
#    y 0.016110 2.050160 0.030370 
#    z -0.053560 0.030370 2.145590 
# 
# From -- ./inp_files/199226.got.cif
#   From: 2010.05.17/outbox.cif.g08.bks.cpg/sg2_100_cif.got.tgz:199226.got - 2010.06.03 11:33:40.
