data_PCOD9007331
_publ_section_title
;
Structure prediction by ZEFSAII (Michael W. Deem and Ramdas Pophale) SiO2 
 PCOD9007331
Probable space group: P -1
;
_chemical_formula_sum "Si O2"
_cell_formula_units_Z 16
_cell_length_a 9.927203
_cell_length_b 8.274329
_cell_length_c 18.007009
_cell_angle_alpha 128.075296
_cell_angle_beta 55.700625
_cell_angle_gamma 146.970100
_cell_volume 630.929151
_symmetry_space_group_name_H-M "P -1"
_symmetry_group_IT_number 2
_symmetry_cell_setting 'triclinic'
loop_
_space_group_symop_operation_xyz
x,y,z
-x,-y,-z
loop_
_atom_site_type_symbol
_atom_site_label
_atom_site_fract_x
_atom_site_fract_y
_atom_site_fract_z
Si Si1 0.740641 0.340800 0.197863
Si Si2 0.833604 0.259259 0.916144
Si Si3 0.580303 0.375993 0.533048
Si Si4 0.543216 0.702621 0.108660
Si Si5 0.811557 0.445341 0.717708
Si Si6 0.664837 0.879591 0.623734
Si Si7 0.684131 0.025002 0.365769
Si Si8 0.573906 0.367196 0.097308
O O1 0.574745 0.280819 0.297492
O O2 0.654185 0.368056 0.154784
O O3 0.034814 0.637446 0.173975
O O4 0.690173 0.048139 0.139384
O O5 0.721808 0.938208 0.886983
O O6 0.636388 0.258184 0.982859
O O7 0.000000 0.500000 0.000000
O O8 0.751260 0.739509 0.585021
O O9 0.429100 0.235332 0.463672
O O10 0.710496 0.278194 0.465725
O O11 0.388246 0.198346 0.610166
O O12 0.279866 0.526784 0.173055
O O13 0.658137 0.667186 0.128234
O O14 0.500000 0.500000 0.000000
O O15 0.055389 0.765526 0.695135
O O16 0.857139 0.248951 0.666730
O O17 0.561433 0.206183 0.676125
#
# Coordination Sequence:
#
# PCOD9007331 Si02
#       8
#     2   2   2   2   2   2   2   2
#     4  10  22  41  62  91 131 168 221 277 328 402
#     4   9  18  37  61  85 121 162 217 270 324 390
#     4   9  20  39  70  97 129 175 217 277 346 405
#     4  11  23  43  63  97 133 174 228 276 336 399
#     4  10  24  45  66 100 136 177 225 280 334 408
#     4   9  20  41  62  97 133 166 221 274 345 402
#     4  10  22  44  71  97 136 174 225 279 337 412
#     4  10  21  39  61  88 121 175 215 271 336 393
#
# _framework density 25.359423
#
# number of rings (size 3 to 8) (size 9 to 14) (size 15 to 20)
#    0.000    2.250    0.000    2.250    1.750    6.500 
#   24.750    2.500    0.000    0.000    0.000    0.000 
#    0.000    0.000    0.000    0.000    0.000    0.000 
#
# Total GULP energy -89322.891712 kJ/mol
# GULP energy per Si atom -5582.680732 kJ/mol
# Density = 2.530170 g / cm^3
# Si number density = 25.359423 Si / 1000 Ang^3
#
#
#
# Elastic Constant Matrix: (Units=GPa)
#
#
# Indices 1 2 3 4 5 6 
#
# 1 78.8375 31.2405 17.4575 4.4411 12.4908 -28.8865
# 2 31.2405 81.4831 45.9028 -25.6736 7.0516 -13.6423
# 3 17.4575 45.9028 83.1989 -3.9965 10.6136 -4.8189
# 4 4.4411 -25.6736 -3.9965 39.9527 -14.0073 -12.1562
# 5 12.4908 7.0516 10.6136 -14.0073 27.7422 -1.8629
# 6 -28.8865 -13.6423 -4.8189 -12.1562 -1.8629 43.2831
#
#
#
# Elastic Compliance Matrix: (Units=1/GPa)
#
#
# Indices 1 2 3 4 5 6 
#
# 1 0.022371 -0.012222 0.003686 -0.012785 -0.014343 0.007280
# 2 -0.012222 0.040430 -0.020040 0.037545 0.022782 0.013880
# 3 0.003686 -0.020040 0.022934 -0.018479 -0.015150 -0.007145
# 4 -0.012785 0.037545 -0.018479 0.069571 0.039921 0.022501
# 5 -0.014343 0.022782 -0.015150 0.039921 0.063328 0.009859
# 6 0.007280 0.013880 -0.007145 0.022501 0.009859 0.038286
#
#
# Mechanical properties :
#
#
# Convention : Reuss Voigt Hill
#
# Bulk Modulus (GPa) = 34.98612 48.08012 41.53312
# Shear Modulus (GPa) = 15.45119 32.12351 23.78735
#
# Velocity S-wave (km/s) = 2.47105 3.56297 3.06601
# Velocity P-wave (km/s) = 4.68695 5.99391 5.38027
#
# Compressibility (1/GPa) = 0.02858276
#
# Stress axis : x y z
#
# Youngs Moduli (GPa) = 44.69977 24.73423 43.60368
#
# Poissons Ratio (x) = 0.30230 -0.16073
# Poissons Ratio (y) = 0.54632 0.87384
# Poissons Ratio (z) = -0.16477 0.49568
#
# Static dielectric constant tensor:
#      x y z
#    x 2.231790 0.075020 -0.042940 
#    y 0.075020 2.038760 -0.008430 
#    z -0.042940 -0.008430 2.026870 
# 
# From -- ./inp_files/594192.got.cif
#   From: 2010.05.17/outbox.cif.g08.bks.cpg/sg2_298_cif.got.tgz:594192.got - 2010.06.03 11:33:40.
