data_PCOD9007989
_publ_section_title
;
Structure prediction by ZEFSAII (Michael W. Deem and Ramdas Pophale) SiO2 
 PCOD9007989
Probable space group: P -1
;
_chemical_formula_sum "Si O2"
_cell_formula_units_Z 16
_cell_length_a 8.716152
_cell_length_b 14.841587
_cell_length_c 12.396317
_cell_angle_alpha 62.414922
_cell_angle_beta 78.663892
_cell_angle_gamma 129.582362
_cell_volume 760.539310
_symmetry_space_group_name_H-M "P -1"
_symmetry_group_IT_number 2
_symmetry_cell_setting 'triclinic'
loop_
_space_group_symop_operation_xyz
x,y,z
-x,-y,-z
loop_
_atom_site_type_symbol
_atom_site_label
_atom_site_fract_x
_atom_site_fract_y
_atom_site_fract_z
Si Si1 0.283161 0.467808 0.086825
Si Si2 0.640057 0.632098 0.239877
Si Si3 0.733914 0.138069 0.484579
Si Si4 0.480381 0.249072 0.933586
Si Si5 0.581952 0.991652 0.810435
Si Si6 0.868752 0.432946 0.365427
Si Si7 0.876679 0.626172 0.398466
Si Si8 0.917265 0.616507 0.072327
O O1 0.452070 0.647556 0.026408
O O2 0.042352 0.296803 0.297586
O O3 0.500000 0.500000 0.000000
O O4 0.121391 0.419500 0.029033
O O5 0.698610 0.776755 0.107378
O O6 0.812129 0.679257 0.290704
O O7 0.312684 0.453391 0.426385
O O8 0.706839 0.590122 0.158242
O O9 0.716592 0.242278 0.480738
O O10 0.500000 0.000000 0.500000
O O11 0.680396 0.033797 0.649371
O O12 0.793821 0.401912 0.753686
O O13 0.367695 0.080876 0.084437
O O14 0.212500 0.811186 0.275975
O O15 0.241698 0.825093 0.943892
O O16 0.775831 0.465288 0.448573
O O17 0.850401 0.479965 0.226603
#
# Coordination Sequence:
#
# PCOD9007989 Si02
#       8
#     2   2   2   2   2   2   2   2
#     4  11  21  39  65  87 127 168 198 252 321 375
#     4  10  21  41  64  91 125 166 209 248 315 367
#     4  11  23  40  64  95 124 156 209 264 302 361
#     4  10  22  37  62  95 123 167 206 250 313 377
#     4  11  24  40  63  93 128 160 213 257 304 358
#     4   9  22  39  65  91 120 169 209 246 312 371
#     4  10  22  43  66  91 124 165 210 262 298 367
#     4  10  21  39  63  93 124 165 207 248 314 378
#
# _framework density 21.037701999999999
#
# number of rings (size 3 to 8) (size 9 to 14) (size 15 to 20)
#    0.000    1.750    2.500    1.500    1.750    8.500 
#    0.000    8.125    0.000    0.000    0.000    0.000 
#    0.000    0.000    0.000    0.000    0.000    0.000 
#
# Total GULP energy -89336.443393 kJ/mol
# GULP energy per Si atom -5583.527712 kJ/mol
# Density = 2.098982 g / cm^3
# Si number density = 21.037702 Si / 1000 Ang^3
#
#
#
# Elastic Constant Matrix: (Units=GPa)
#
#
# Indices 1 2 3 4 5 6 
#
# 1 96.0290 28.0250 29.5869 8.4358 14.4421 -3.7041
# 2 28.0250 89.2305 34.3445 -8.3829 -7.5362 1.8582
# 3 29.5869 34.3445 80.6126 13.3284 13.0592 -3.0885
# 4 8.4358 -8.3829 13.3284 28.0614 2.6342 1.2587
# 5 14.4421 -7.5362 13.0592 2.6342 34.3746 12.6994
# 6 -3.7041 1.8582 -3.0885 1.2587 12.6994 23.9651
#
#
#
# Elastic Compliance Matrix: (Units=1/GPa)
#
#
# Indices 1 2 3 4 5 6 
#
# 1 0.014543 -0.006272 0.000289 -0.005799 -0.010304 0.008536
# 2 -0.006272 0.020235 -0.011305 0.012451 0.015082 -0.012642
# 3 0.000289 -0.011305 0.022097 -0.013146 -0.014468 0.012126
# 4 -0.005799 0.012451 -0.013146 0.046846 0.010933 -0.011810
# 5 -0.010304 0.015082 -0.014468 0.010933 0.053849 -0.033736
# 6 0.008536 -0.012642 0.012126 -0.011810 -0.033736 0.064087
#
#
# Mechanical properties :
#
#
# Convention : Reuss Voigt Hill
#
# Bulk Modulus (GPa) = 44.84367 49.97609 47.40988
# Shear Modulus (GPa) = 18.96336 28.87460 23.91898
#
# Velocity S-wave (km/s) = 3.00559 3.70877 3.37554
# Velocity P-wave (km/s) = 5.77987 6.49207 6.14629
#
# Compressibility (1/GPa) = 0.02229969
#
# Stress axis : x y z
#
# Youngs Moduli (GPa) = 68.76136 49.41937 45.25457
#
# Poissons Ratio (x) = 0.30995 -0.01310
# Poissons Ratio (y) = 0.43126 0.51162
# Poissons Ratio (z) = -0.01990 0.55871
#
# Static dielectric constant tensor:
#      x y z
#    x 1.785410 0.015760 0.021390 
#    y 0.015760 1.746620 0.010160 
#    z 0.021390 0.010160 1.768830 
# 
# From -- ./inp_files/506218.got.cif
#   From: 2010.05.17/outbox.cif.g08.bks.cpg/sg2_254_cif.got.tgz:506218.got - 2010.06.03 11:33:40.
