data_PCOD9007833
_publ_section_title
;
Structure prediction by ZEFSAII (Michael W. Deem and Ramdas Pophale) SiO2 
 PCOD9007833
Probable space group: P -1
;
_chemical_formula_sum "Si O2"
_cell_formula_units_Z 16
_cell_length_a 5.489769
_cell_length_b 15.513879
_cell_length_c 14.645873
_cell_angle_alpha 36.275277
_cell_angle_beta 90.000000
_cell_angle_gamma 79.808954
_cell_volume 704.245251
_symmetry_space_group_name_H-M "P -1"
_symmetry_group_IT_number 2
_symmetry_cell_setting 'triclinic'
loop_
_space_group_symop_operation_xyz
x,y,z
-x,-y,-z
loop_
_atom_site_type_symbol
_atom_site_label
_atom_site_fract_x
_atom_site_fract_y
_atom_site_fract_z
Si Si1 0.158697 0.645062 0.846703
Si Si2 0.588698 0.261660 0.405053
Si Si3 0.269943 0.961528 0.087014
Si Si4 0.149642 0.261660 0.905053
Si Si5 0.139081 0.519396 0.131013
Si Si6 0.658477 0.480604 0.368987
Si Si7 0.196241 0.645062 0.346703
Si Si8 0.768529 0.961528 0.587014
O O1 0.319184 0.712480 0.718964
O O2 0.082352 0.519431 0.893204
O O3 0.898752 0.781428 0.756337
O O4 0.284415 0.579259 0.998926
O O5 0.292618 0.360986 0.314924
O O6 0.696582 0.350609 0.404961
O O7 0.685870 0.079768 0.570434
O O8 0.319820 0.781428 0.256337
O O9 0.234362 0.079768 0.070434
O O10 0.500000 0.000000 0.000000
O O11 0.000000 0.000000 0.000000
O O12 0.346396 0.360986 0.814924
O O13 0.952808 0.350609 0.904961
O O14 0.031663 0.287520 0.781036
O O15 0.398217 0.519431 0.393204
O O16 0.863675 0.420741 0.501074
O O17 0.500000 0.000000 0.500000
O O18 0.000000 0.000000 0.500000
#
# Coordination Sequence:
#
# PCOD9007833 Si02
#       8
#     2   2   2   2   2   2   2   2
#     4  10  22  38  58  88 119 162 206 257 310 376
#     4  11  21  38  62  86 125 162 207 262 315 377
#     4  10  21  39  63  87 124 166 204 255 317 373
#     4  11  21  38  62  86 125 162 207 262 315 377
#     4  11  21  36  61  89 119 157 212 254 314 372
#     4  11  21  36  61  89 119 157 212 254 314 372
#     4  10  22  38  58  88 119 162 206 257 310 376
#     4  10  21  39  63  87 124 166 204 255 317 373
#
# _framework density 22.719353999999999
#
# number of rings (size 3 to 8) (size 9 to 14) (size 15 to 20)
#    0.000    1.500    5.000    0.750    0.000    1.000 
#    0.000    0.000    0.000    3.000    0.000    0.000 
#    0.000    0.000    0.000    0.000    0.000    0.000 
#
# Total GULP energy -89109.596051 kJ/mol
# GULP energy per Si atom -5569.349753 kJ/mol
# Density = 2.266764 g / cm^3
# Si number density = 22.719354 Si / 1000 Ang^3
#
#
#
# Elastic Constant Matrix: (Units=GPa)
#
#
# Indices 1 2 3 4 5 6 
#
# 1 70.8464 22.5454 11.2026 -2.1231 0.2681 -0.3215
# 2 22.5454 159.2359 43.8152 -37.8769 0.6746 -1.6667
# 3 11.2026 43.8152 73.2428 -15.5957 0.1514 -0.4603
# 4 -2.1231 -37.8769 -15.5957 50.0101 -0.3425 0.7522
# 5 0.2681 0.6746 0.1514 -0.3425 32.3427 -6.2738
# 6 -0.3215 -1.6667 -0.4603 0.7522 -6.2738 27.2116
#
#
#
# Elastic Compliance Matrix: (Units=1/GPa)
#
#
# Indices 1 2 3 4 5 6 
#
# 1 0.014945 -0.002069 -0.001335 -0.001350 -0.000080 0.000046
# 2 -0.002069 0.008942 -0.003865 0.005475 -0.000035 0.000298
# 3 -0.001335 -0.003865 0.016639 0.002205 0.000032 -0.000025
# 4 -0.001350 0.005475 0.002205 0.024778 0.000089 -0.000308
# 5 -0.000080 -0.000035 0.000032 0.000089 0.032368 0.007458
# 6 0.000046 0.000298 -0.000025 -0.000308 0.007458 0.038495
#
#
# Mechanical properties :
#
#
# Convention : Reuss Voigt Hill
#
# Bulk Modulus (GPa) = 38.48051 50.93903 44.70977
# Shear Modulus (GPa) = 31.37408 36.96369 34.16889
#
# Velocity S-wave (km/s) = 3.72013 4.03795 3.88229
# Velocity P-wave (km/s) = 5.95203 6.64904 6.31016
#
# Compressibility (1/GPa) = 0.02598718
#
# Stress axis : x y z
#
# Youngs Moduli (GPa) = 66.91384 111.83267 60.09975
#
# Poissons Ratio (x) = 0.23137 0.08024
# Poissons Ratio (y) = 0.13844 0.23229
# Poissons Ratio (z) = 0.08934 0.43225
#
# Static dielectric constant tensor:
#      x y z
#    x 1.976520 0.000210 0.001700 
#    y 0.000210 1.874140 -0.064010 
#    z 0.001700 -0.064010 2.030020 
# 
# From -- ./inp_files/97938.got.cif
#   From: 2010.05.17/outbox.cif.g08.bks.cpg/sg2_49_cif.got.tgz:97938.got - 2010.06.03 11:33:40.
