data_PCOD9007746
_publ_section_title
;
Structure prediction by ZEFSAII (Michael W. Deem and Ramdas Pophale) SiO2 
 PCOD9007746
Probable space group: P -1
;
_chemical_formula_sum "Si O2"
_cell_formula_units_Z 13
_cell_length_a 6.829501
_cell_length_b 11.298988
_cell_length_c 6.697725
_cell_angle_alpha 77.275963
_cell_angle_beta 67.742214
_cell_angle_gamma 83.819148
_cell_volume 466.414508
_symmetry_space_group_name_H-M "P -1"
_symmetry_group_IT_number 2
_symmetry_cell_setting 'triclinic'
loop_
_space_group_symop_operation_xyz
x,y,z
-x,-y,-z
loop_
_atom_site_type_symbol
_atom_site_label
_atom_site_fract_x
_atom_site_fract_y
_atom_site_fract_z
Si Si1 0.728561 0.464154 0.835354
Si Si2 0.456854 0.084303 0.176715
Si Si3 0.245882 0.867103 0.446722
Si Si4 0.500000 0.500000 0.500000
Si Si5 0.294040 0.256543 0.680248
Si Si6 0.141887 0.282833 0.273214
Si Si7 0.137168 0.809205 0.048950
O O1 0.682822 0.463540 0.615987
O O2 0.875014 0.573957 0.806750
O O3 0.806929 0.333995 0.931039
O O4 0.500000 0.500000 0.000000
O O5 0.346746 0.214067 0.123160
O O6 0.286533 0.010864 0.399182
O O7 0.687720 0.113635 0.163139
O O8 0.500000 0.000000 0.000000
O O9 0.479567 0.809613 0.402566
O O10 0.179854 0.847556 0.247878
O O11 0.069008 0.791351 0.657091
O O12 0.350721 0.390255 0.680158
O O13 0.203006 0.274272 0.486238
O O14 0.113607 0.181093 0.886979
#
# Coordination Sequence:
#
# PCOD9007746 Si02
#       7
#     2   2   2   1   2   2   2
#     4  11  21  40  69  94 139 166 212 276 322 392
#     4  10  21  40  63  86 125 168 218 265 324 384
#     4  10  21  39  64  86 127 170 215 263 315 396
#     4  10  22  38  64  94 134 172 214 252 334 392
#     4  10  22  37  61  94 127 168 216 259 323 392
#     4  10  22  38  62  96 119 168 218 265 327 378
#     4  10  21  39  62  94 128 171 207 266 330 375
#
# _framework density 27.872198999999998
#
# number of rings (size 3 to 8) (size 9 to 14) (size 15 to 20)
#    0.000    1.846    3.077    0.462    2.154    3.077 
#    0.000    5.385    0.000    0.000    0.000    0.000 
#    0.000    0.000    0.000    0.000    0.000    0.000 
#
# Total GULP energy -72540.316134 kJ/mol
# GULP energy per Si atom -5580.024318 kJ/mol
# Density = 2.780876 g / cm^3
# Si number density = 27.872199 Si / 1000 Ang^3
#
#
#
# Elastic Constant Matrix: (Units=GPa)
#
#
# Indices 1 2 3 4 5 6 
#
# 1 161.8279 51.6525 30.9050 -13.8294 -37.8870 46.6442
# 2 51.6525 147.6582 35.4077 -29.0431 -31.1648 35.9139
# 3 30.9050 35.4077 88.0656 -5.2218 -20.2859 11.8175
# 4 -13.8294 -29.0431 -5.2218 38.0853 4.0868 -12.3463
# 5 -37.8870 -31.1648 -20.2859 4.0868 60.4811 -14.6420
# 6 46.6442 35.9139 11.8175 -12.3463 -14.6420 55.5919
#
#
#
# Elastic Compliance Matrix: (Units=1/GPa)
#
#
# Indices 1 2 3 4 5 6 
#
# 1 0.009235 -0.000622 -0.001346 0.000354 0.003524 -0.006054
# 2 -0.000622 0.010137 -0.002404 0.005739 0.002791 -0.003506
# 3 -0.001346 -0.002404 0.013283 -0.000648 0.002508 0.000375
# 4 0.000354 0.005739 -0.000648 0.031662 0.001696 0.003612
# 5 0.003524 0.002791 0.002508 0.001696 0.021059 0.000631
# 6 -0.006054 -0.003506 0.000375 0.003612 0.000631 0.026222
#
#
# Mechanical properties :
#
#
# Convention : Reuss Voigt Hill
#
# Bulk Modulus (GPa) = 41.82000 70.38691 56.10346
# Shear Modulus (GPa) = 38.96788 49.47076 44.21932
#
# Velocity S-wave (km/s) = 3.74316 4.21754 3.98741
# Velocity P-wave (km/s) = 5.80676 7.00180 6.43209
#
# Compressibility (1/GPa) = 0.02391200
#
# Stress axis : x y z
#
# Youngs Moduli (GPa) = 108.28186 98.64832 75.28485
#
# Poissons Ratio (x) = 0.06136 0.10131
# Poissons Ratio (y) = 0.06736 0.18096
# Poissons Ratio (z) = 0.14572 0.23712
#
# Static dielectric constant tensor:
#      x y z
#    x 2.105980 0.011080 0.044540 
#    y 0.011080 2.169690 -0.008920 
#    z 0.044540 -0.008920 2.368050 
# 
# From -- ./inp_files/34975.got.cif
#   From: 2010.05.17/outbox.cif.g08.bks.cpg/sg2_18_cif.got.tgz:34975.got - 2010.06.03 11:33:40.
