data_PCOD9007629
_publ_section_title
;
Structure prediction by ZEFSAII (Michael W. Deem and Ramdas Pophale) SiO2 
 PCOD9007629
Probable space group: P -1
;
_chemical_formula_sum "Si O2"
_cell_formula_units_Z 16
_cell_length_a 5.376145
_cell_length_b 19.827232
_cell_length_c 20.851680
_cell_angle_alpha 164.884512
_cell_angle_beta 90.585381
_cell_angle_gamma 87.537497
_cell_volume 574.875032
_symmetry_space_group_name_H-M "P -1"
_symmetry_group_IT_number 2
_symmetry_cell_setting 'triclinic'
loop_
_space_group_symop_operation_xyz
x,y,z
-x,-y,-z
loop_
_atom_site_type_symbol
_atom_site_label
_atom_site_fract_x
_atom_site_fract_y
_atom_site_fract_z
Si Si1 0.205284 0.209329 0.129155
Si Si2 0.101639 0.760419 0.965324
Si Si3 0.837419 0.499053 0.830112
Si Si4 0.506596 0.395357 0.563409
Si Si5 0.403698 0.964605 0.254220
Si Si6 0.350333 0.772999 0.316550
Si Si7 0.793133 0.288502 0.871655
Si Si8 0.355510 0.263666 0.308690
O O1 0.262779 0.494642 0.368623
O O2 0.455880 0.003886 0.939453
O O3 0.139768 0.234988 0.228454
O O4 0.045436 0.124562 0.991761
O O5 0.359900 0.633481 0.819490
O O6 0.163774 0.956220 0.200109
O O7 0.982842 0.533361 0.795770
O O8 0.582052 0.692786 0.998568
O O9 0.771518 0.232370 0.617873
O O10 0.996716 0.619667 0.997609
O O11 0.327224 0.322891 0.438230
O O12 0.554254 0.174475 0.414175
O O13 0.304143 0.963237 0.325155
O O14 0.557356 0.516872 0.081409
O O15 0.500000 0.000000 0.500000
O O16 0.147237 0.753547 0.241405
O O17 0.500000 0.500000 0.500000
#
# Coordination Sequence:
#
# PCOD9007629 Si02
#       8
#     2   2   2   2   2   2   2   2
#     4  10  22  41  63  88 122 158 202 252 300 357
#     4  11  23  38  60  90 121 157 201 250 301 358
#     4  10  21  41  62  85 124 162 198 247 302 359
#     4  11  22  39  62  89 122 157 201 251 302 358
#     4  10  23  41  60  86 122 159 201 249 300 359
#     4  10  21  39  62  90 122 154 199 252 298 352
#     4   9  21  39  60  88 119 157 200 244 298 360
#     4   9  20  40  63  88 120 161 201 247 302 359
#
# _framework density 27.832135999999998
#
# number of rings (size 3 to 8) (size 9 to 14) (size 15 to 20)
#    0.000    2.000    0.000    2.625    0.000    9.000 
#    0.000   15.000    0.000    0.000    0.000    0.000 
#    0.000    0.000    0.000    0.000    0.000    0.000 
#
# Total GULP energy -89508.418378 kJ/mol
# GULP energy per Si atom -5594.276149 kJ/mol
# Density = 2.776879 g / cm^3
# Si number density = 27.832136 Si / 1000 Ang^3
#
#
#
# Elastic Constant Matrix: (Units=GPa)
#
#
# Indices 1 2 3 4 5 6 
#
# 1 59.7863 42.0490 7.5689 0.3406 7.1704 -12.9545
# 2 42.0490 214.0684 41.7693 23.1916 0.8136 -11.6904
# 3 7.5689 41.7693 78.8774 28.8458 14.8188 5.8015
# 4 0.3406 23.1916 28.8458 55.2062 5.7052 14.7992
# 5 7.1704 0.8136 14.8188 5.7052 32.9998 -2.4097
# 6 -12.9545 -11.6904 5.8015 14.7992 -2.4097 56.2774
#
#
#
# Elastic Compliance Matrix: (Units=1/GPa)
#
#
# Indices 1 2 3 4 5 6 
#
# 1 0.020819 -0.004061 0.000418 0.000893 -0.004512 0.003478
# 2 -0.004061 0.006264 -0.002847 -0.001689 0.002386 0.001206
# 3 0.000418 -0.002847 0.018219 -0.007412 -0.006973 -0.000723
# 4 0.000893 -0.001689 -0.007412 0.024415 -0.001473 -0.005865
# 5 -0.004512 0.002386 -0.006973 -0.001473 0.034761 0.002052
# 6 0.003478 0.001206 -0.000723 -0.005865 0.002052 0.020525
#
#
# Mechanical properties :
#
#
# Convention : Reuss Voigt Hill
#
# Bulk Modulus (GPa) = 30.93800 59.50071 45.21935
# Shear Modulus (GPa) = 33.61186 46.31968 39.96577
#
# Velocity S-wave (km/s) = 3.47892 4.08395 3.79351
# Velocity P-wave (km/s) = 5.22276 6.60780 5.95568
#
# Compressibility (1/GPa) = 0.03232271
#
# Stress axis : x y z
#
# Youngs Moduli (GPa) = 48.03345 159.63420 54.88697
#
# Poissons Ratio (x) = 0.64821 -0.02293
# Poissons Ratio (y) = 0.19504 0.15626
# Poissons Ratio (z) = -0.02007 0.45448
#
# Static dielectric constant tensor:
#      x y z
#    x 2.218670 -0.017690 0.096130 
#    y -0.017690 2.169830 -0.016640 
#    z 0.096130 -0.016640 2.225570 
# 
# From -- ./inp_files/584089.got.cif
#   From: 2010.05.17/outbox.cif.g08.bks.cpg/sg2_293_cif.got.tgz:584089.got - 2010.06.03 11:33:40.
