data_PCOD9007983
_publ_section_title
;
Structure prediction by ZEFSAII (Michael W. Deem and Ramdas Pophale) SiO2 
 PCOD9007983
Probable space group: P -1
;
_chemical_formula_sum "Si O2"
_cell_formula_units_Z 16
_cell_length_a 16.216527
_cell_length_b 25.665332
_cell_length_c 25.744267
_cell_angle_alpha 10.846437
_cell_angle_beta 23.399393
_cell_angle_gamma 25.028929
_cell_volume 799.138856
_symmetry_space_group_name_H-M "P -1"
_symmetry_group_IT_number 2
_symmetry_cell_setting 'triclinic'
loop_
_space_group_symop_operation_xyz
x,y,z
-x,-y,-z
loop_
_atom_site_type_symbol
_atom_site_label
_atom_site_fract_x
_atom_site_fract_y
_atom_site_fract_z
Si Si1 0.169127 0.447151 0.080274
Si Si2 0.102712 0.996628 0.308390
Si Si3 0.227715 0.803104 0.862866
Si Si4 0.583099 0.979539 0.806620
Si Si5 0.360128 0.246480 0.273443
Si Si6 0.774436 0.720544 0.220929
Si Si7 0.685407 0.176931 0.742971
Si Si8 0.758349 0.438796 0.187387
O O1 0.299989 0.301878 0.193935
O O2 0.029797 0.196060 0.390385
O O3 0.021799 0.719634 0.914650
O O4 0.274930 0.550327 0.865915
O O5 0.301809 0.055615 0.169707
O O6 0.168368 0.803668 0.410538
O O7 0.401749 0.864302 0.745380
O O8 0.222859 0.052975 0.578613
O O9 0.322670 0.549496 0.022271
O O10 0.020774 0.687427 0.121637
O O11 0.367879 0.152522 0.774671
O O12 0.709652 0.155046 0.521012
O O13 0.598128 0.672051 0.076516
O O14 0.668927 0.468325 0.498423
O O15 0.781320 0.965517 0.935826
O O16 0.500000 0.000000 0.000000
O O17 0.000000 0.500000 0.000000
#
# Coordination Sequence:
#
# PCOD9007983 Si02
#       8
#     2   2   2   2   2   2   2   2
#     4  12  23  36  61  83 116 150 199 255 297 339
#     4  12  22  35  55  83 117 155 191 237 296 354
#     4  10  21  40  64  88 122 151 193 239 303 367
#     4  12  24  38  56  81 116 161 202 238 289 350
#     4  10  21  39  63  93 115 151 195 249 298 357
#     4  12  24  39  58  83 123 164 192 237 299 357
#     4  12  24  35  54  85 122 158 192 230 284 364
#     4  12  23  40  57  80 114 160 205 252 291 336
#
# _framework density 20.021550999999999
#
# number of rings (size 3 to 8) (size 9 to 14) (size 15 to 20)
#    0.000    0.500    3.750    6.750    1.750    0.000 
#    0.000    0.000    0.000    1.500    0.000    0.000 
#    0.000    0.000    0.000    0.000    0.000    0.000 
#
# Total GULP energy -89187.496136 kJ/mol
# GULP energy per Si atom -5574.218509 kJ/mol
# Density = 1.997598 g / cm^3
# Si number density = 20.021551 Si / 1000 Ang^3
#
#
#
# Elastic Constant Matrix: (Units=GPa)
#
#
# Indices 1 2 3 4 5 6 
#
# 1 80.5749 32.4202 9.4208 7.9570 17.1134 -1.3054
# 2 32.4202 76.2609 5.6466 4.7274 -1.3231 10.6889
# 3 9.4208 5.6466 91.6587 -9.2897 10.5152 -0.9161
# 4 7.9570 4.7274 -9.2897 36.4439 -0.2140 -6.6653
# 5 17.1134 -1.3231 10.5152 -0.2140 44.6167 12.9912
# 6 -1.3054 10.6889 -0.9161 -6.6653 12.9912 35.7002
#
#
#
# Elastic Compliance Matrix: (Units=1/GPa)
#
#
# Indices 1 2 3 4 5 6 
#
# 1 0.018062 -0.008533 -0.000446 -0.001892 -0.008853 0.006072
# 2 -0.008533 0.018325 -0.001347 -0.002411 0.006657 -0.008706
# 3 -0.000446 -0.001347 0.011836 0.003750 -0.003406 0.002630
# 4 -0.001892 -0.002411 0.003750 0.030430 -0.002188 0.007226
# 5 -0.008853 0.006657 -0.003406 -0.002188 0.030891 -0.014054
# 6 0.006072 -0.008706 0.002630 0.007226 -0.014054 0.037370
#
#
# Mechanical properties :
#
#
# Convention : Reuss Voigt Hill
#
# Bulk Modulus (GPa) = 36.26982 38.16331 37.21657
# Shear Modulus (GPa) = 28.28756 36.75263 32.52009
#
# Velocity S-wave (km/s) = 3.76287 4.28910 4.03458
# Velocity P-wave (km/s) = 6.08553 6.60538 6.35078
#
# Compressibility (1/GPa) = 0.02757113
#
# Stress axis : x y z
#
# Youngs Moduli (GPa) = 55.36574 54.56952 84.48776
#
# Poissons Ratio (x) = 0.46563 0.03770
# Poissons Ratio (y) = 0.47242 0.11380
# Poissons Ratio (z) = 0.02470 0.07350
#
# Static dielectric constant tensor:
#      x y z
#    x 1.752440 -0.069460 -0.027030 
#    y -0.069460 1.754670 0.027350 
#    z -0.027030 0.027350 1.716410 
# 
# From -- ./inp_files/538864.got.cif
#   From: 2010.05.17/outbox.cif.g08.bks.cpg/sg2_270_cif.got.tgz:538864.got - 2010.06.03 11:33:40.
