data_PCOD9007523
_publ_section_title
;
Structure prediction by ZEFSAII (Michael W. Deem and Ramdas Pophale) SiO2 
 PCOD9007523
Probable space group: P -1
;
_chemical_formula_sum "Si O2"
_cell_formula_units_Z 14
_cell_length_a 23.129344
_cell_length_b 9.638708
_cell_length_c 17.036641
_cell_angle_alpha 149.059532
_cell_angle_beta 20.264544
_cell_angle_gamma 149.346417
_cell_volume 642.478494
_symmetry_space_group_name_H-M "P -1"
_symmetry_group_IT_number 2
_symmetry_cell_setting 'triclinic'
loop_
_space_group_symop_operation_xyz
x,y,z
-x,-y,-z
loop_
_atom_site_type_symbol
_atom_site_label
_atom_site_fract_x
_atom_site_fract_y
_atom_site_fract_z
Si Si1 0.579949 0.108229 0.865250
Si Si2 0.126290 0.455315 0.640959
Si Si3 0.137114 0.034118 0.974907
Si Si4 0.544920 0.709994 0.217342
Si Si5 0.048974 0.961687 0.622738
Si Si6 0.524423 0.188930 0.810033
Si Si7 0.933007 0.452643 0.405297
O O1 0.623070 0.448799 0.977315
O O2 0.753861 0.017920 0.593956
O O3 0.469497 0.027073 0.884586
O O4 0.500000 0.000000 0.000000
O O5 0.338952 0.553421 0.417075
O O6 0.060070 0.369566 0.596117
O O7 0.054686 0.207216 0.673229
O O8 0.078506 0.737240 0.861195
O O9 0.056864 0.005191 0.150252
O O10 0.068425 0.274840 0.141343
O O11 0.346161 0.129123 0.769352
O O12 0.561325 0.901124 0.210128
O O13 0.972665 0.661438 0.529933
O O14 0.733332 0.242918 0.562466
O O15 0.500000 0.500000 0.000000
#
# Coordination Sequence:
#
# PCOD9007523 Si02
#       7
#     2   2   2   2   2   2   2
#     4  11  19  35  61  90 121 155 203 257 298 349
#     4  11  25  41  60  92 129 161 194 253 311 360
#     4  12  23  41  64  90 125 162 203 246 306 366
#     4  10  21  39  62  86 118 163 207 241 295 367
#     4  12  22  39  64  93 121 157 205 254 305 350
#     4   9  19  35  58  90 117 152 201 255 293 346
#     4  11  22  40  65  90 118 160 212 248 293 360
#
# _framework density 21.790613
#
# number of rings (size 3 to 8) (size 9 to 14) (size 15 to 20)
#    0.000    1.143    4.286    3.857    0.000    0.000 
#    2.571    0.000    0.000    0.857    0.000    0.000 
#    0.000    0.000    0.000    0.000    0.000    0.000 
#
# Total GULP energy -78197.934504 kJ/mol
# GULP energy per Si atom -5585.566750 kJ/mol
# Density = 2.174102 g / cm^3
# Si number density = 21.790613 Si / 1000 Ang^3
#
#
#
# Elastic Constant Matrix: (Units=GPa)
#
#
# Indices 1 2 3 4 5 6 
#
# 1 132.6660 17.8329 1.8857 -16.9795 -8.8144 -20.5884
# 2 17.8329 24.4100 1.5678 3.9952 -0.6519 -4.2096
# 3 1.8857 1.5678 69.0239 -7.8454 -11.2882 -0.1294
# 4 -16.9795 3.9952 -7.8454 21.1267 5.3982 7.6926
# 5 -8.8144 -0.6519 -11.2882 5.3982 24.9655 -3.7228
# 6 -20.5884 -4.2096 -0.1294 7.6926 -3.7228 32.1324
#
#
#
# Elastic Compliance Matrix: (Units=1/GPa)
#
#
# Indices 1 2 3 4 5 6 
#
# 1 0.010523 -0.008375 0.001331 0.008346 0.002889 0.003988
# 2 -0.008375 0.051874 -0.002869 -0.020691 0.002569 0.006670
# 3 0.001331 -0.002869 0.016254 0.006073 0.006406 -0.000169
# 4 0.008346 -0.020691 0.006073 0.068808 -0.011993 -0.015201
# 5 0.002889 0.002569 0.006406 -0.011993 0.048223 0.010672
# 6 0.003988 0.006670 -0.000169 -0.015201 0.010672 0.039425
#
#
# Mechanical properties :
#
#
# Convention : Reuss Voigt Hill
#
# Bulk Modulus (GPa) = 16.99863 29.85251 23.42557
# Shear Modulus (GPa) = 18.21219 29.29916 23.75567
#
# Velocity S-wave (km/s) = 2.89412 3.67083 3.30537
# Velocity P-wave (km/s) = 4.35727 5.62993 5.03398
#
# Compressibility (1/GPa) = 0.05882828
#
# Stress axis : x y z
#
# Youngs Moduli (GPa) = 95.02638 19.27734 61.52284
#
# Poissons Ratio (x) = 0.16144 -0.08190
# Poissons Ratio (y) = 0.79580 0.17648
# Poissons Ratio (z) = -0.12650 0.05530
#
# Static dielectric constant tensor:
#      x y z
#    x 1.842710 0.013840 0.020960 
#    y 0.013840 1.781450 -0.027350 
#    z 0.020960 -0.027350 1.811400 
# 
# From -- ./inp_files/579191.got.cif
#   From: 2010.05.17/outbox.cif.g08.bks.cpg/sg2_290_cif.got.tgz:579191.got - 2010.06.03 11:33:40.
