data_PCOD9007168
_publ_section_title
;
Structure prediction by ZEFSAII (Michael W. Deem and Ramdas Pophale) SiO2 
 PCOD9007168
Probable space group: P -1
;
_chemical_formula_sum "Si O2"
_cell_formula_units_Z 16
_cell_length_a 14.138918
_cell_length_b 12.875289
_cell_length_c 8.300845
_cell_angle_alpha 95.875431
_cell_angle_beta 43.028614
_cell_angle_gamma 120.270732
_cell_volume 794.561763
_symmetry_space_group_name_H-M "P -1"
_symmetry_group_IT_number 2
_symmetry_cell_setting 'triclinic'
loop_
_space_group_symop_operation_xyz
x,y,z
-x,-y,-z
loop_
_atom_site_type_symbol
_atom_site_label
_atom_site_fract_x
_atom_site_fract_y
_atom_site_fract_z
Si Si1 0.359808 0.015002 0.598953
Si Si2 0.915622 0.285901 0.165608
Si Si3 0.086436 0.655387 0.439933
Si Si4 0.313919 0.469766 0.763352
Si Si5 0.396440 0.706465 0.542647
Si Si6 0.487443 0.877617 0.923466
Si Si7 0.758440 0.615548 0.800008
Si Si8 0.512569 0.681482 0.054873
O O1 0.415345 0.143063 0.649943
O O2 0.410779 0.068186 0.361979
O O3 0.500000 0.000000 0.500000
O O4 0.171599 0.866731 0.797693
O O5 0.897230 0.307066 0.383508
O O6 0.780546 0.305609 0.255196
O O7 0.127780 0.382901 0.878222
O O8 0.000000 0.500000 0.500000
O O9 0.957800 0.677782 0.519083
O O10 0.279420 0.753727 0.137910
O O11 0.500000 0.500000 0.500000
O O12 0.367960 0.616668 0.714079
O O13 0.253394 0.392992 0.994289
O O14 0.424703 0.655135 0.335759
O O15 0.546426 0.810647 0.955147
O O16 0.500000 0.000000 0.000000
O O17 0.628930 0.459292 0.883715
O O18 0.687607 0.692419 0.842031
#
# Coordination Sequence:
#
# PCOD9007168 Si02
#       8
#     2   2   2   2   2   2   2   2
#     4  10  22  40  59  91 123 158 199 255 302 360
#     4  10  21  39  60  88 124 156 203 256 297 358
#     4  11  20  37  64  94 118 157 207 255 297 362
#     4  11  22  38  61  91 120 161 197 249 307 365
#     4  11  20  38  61  91 121 157 210 244 308 358
#     4  12  21  39  65  89 121 162 205 249 307 360
#     4  10  22  39  60  88 131 155 201 250 312 357
#     4  11  21  39  62  90 124 162 200 257 304 363
#
# _framework density 20.136884999999999
#
# number of rings (size 3 to 8) (size 9 to 14) (size 15 to 20)
#    0.000    1.250    5.000    1.875    1.750    0.000 
#    4.500    1.250    0.000    0.000    0.000    0.000 
#    0.000    0.000    0.000    0.000    0.000    0.000 
#
# Total GULP energy -89158.928001 kJ/mol
# GULP energy per Si atom -5572.433000 kJ/mol
# Density = 2.009105 g / cm^3
# Si number density = 20.136885 Si / 1000 Ang^3
#
#
#
# Elastic Constant Matrix: (Units=GPa)
#
#
# Indices 1 2 3 4 5 6 
#
# 1 79.1075 43.2309 11.0705 9.6779 -18.6237 -21.5744
# 2 43.2309 105.0137 22.1406 -18.0042 -28.4742 -11.9201
# 3 11.0705 22.1406 51.1253 -0.7533 -25.5510 -4.8985
# 4 9.6779 -18.0042 -0.7533 22.5782 -1.7257 -2.7905
# 5 -18.6237 -28.4742 -25.5510 -1.7257 32.1177 -2.7322
# 6 -21.5744 -11.9201 -4.8985 -2.7905 -2.7322 34.7764
#
#
#
# Elastic Compliance Matrix: (Units=1/GPa)
#
#
# Indices 1 2 3 4 5 6 
#
# 1 0.025115 -0.010282 0.004510 -0.016620 0.009170 0.012078
# 2 -0.010282 0.023004 0.002036 0.024822 0.017827 0.005186
# 3 0.004510 0.002036 0.036076 0.004965 0.034380 0.011676
# 4 -0.016620 0.024822 0.004965 0.073763 0.020832 0.006453
# 5 0.009170 0.017827 0.034380 0.020832 0.082839 0.024822
# 6 0.012078 0.005186 0.011676 0.006453 0.024822 0.042138
#
#
# Mechanical properties :
#
#
# Convention : Reuss Voigt Hill
#
# Bulk Modulus (GPa) = 13.03400 43.12562 28.07981
# Shear Modulus (GPa) = 15.82371 28.48142 22.15256
#
# Velocity S-wave (km/s) = 2.80627 3.76492 3.32037
# Velocity P-wave (km/s) = 4.12152 6.35313 5.35486
#
# Compressibility (1/GPa) = 0.07672239
#
# Stress axis : x y z
#
# Youngs Moduli (GPa) = 39.81713 43.47050 27.71954
#
# Poissons Ratio (x) = 0.44696 -0.12500
# Poissons Ratio (y) = 0.40939 -0.05644
# Poissons Ratio (z) = -0.17956 -0.08852
#
# Static dielectric constant tensor:
#      x y z
#    x 1.770710 0.001280 -0.024070 
#    y 0.001280 1.702960 -0.026130 
#    z -0.024070 -0.026130 1.679310 
# 
# From -- ./inp_files/239208.got.cif
#   From: 2010.05.17/outbox.cif.g08.bks.cpg/sg2_120_cif.got.tgz:239208.got - 2010.06.03 11:33:40.
