data_PCOD9007631
_publ_section_title
;
Structure prediction by ZEFSAII (Michael W. Deem and Ramdas Pophale) SiO2 
 PCOD9007631
Probable space group: P -1
;
_chemical_formula_sum "Si O2"
_cell_formula_units_Z 16
_cell_length_a 25.141748
_cell_length_b 7.928355
_cell_length_c 25.175710
_cell_angle_alpha 136.896139
_cell_angle_beta 11.730193
_cell_angle_gamma 136.648601
_cell_volume 694.424199
_symmetry_space_group_name_H-M "P -1"
_symmetry_group_IT_number 2
_symmetry_cell_setting 'triclinic'
loop_
_space_group_symop_operation_xyz
x,y,z
-x,-y,-z
loop_
_atom_site_type_symbol
_atom_site_label
_atom_site_fract_x
_atom_site_fract_y
_atom_site_fract_z
Si Si1 0.860902 0.899796 0.058882
Si Si2 0.690732 0.085731 0.450469
Si Si3 0.485151 0.742053 0.923795
Si Si4 0.501783 0.339098 0.908603
Si Si5 0.035615 0.886659 0.648287
Si Si6 0.006275 0.418499 0.850355
Si Si7 0.515867 0.383409 0.399271
Si Si8 0.935092 0.520782 0.379696
O O1 0.556930 0.926064 0.350209
O O2 0.896747 0.608870 0.960445
O O3 0.052223 0.011197 0.850636
O O4 0.000000 0.000000 0.000000
O O5 0.789477 0.357015 0.437896
O O6 0.585930 0.905002 0.558901
O O7 0.493908 0.531461 0.911911
O O8 0.742482 0.721082 0.632465
O O9 0.225149 0.661201 0.124756
O O10 0.500000 0.000000 0.000000
O O11 0.740401 0.176062 0.625970
O O12 0.500000 0.500000 0.000000
O O13 0.238799 0.161845 0.123718
O O14 0.043649 0.687750 0.642832
O O15 0.043148 0.158035 0.727520
O O16 0.296333 0.508920 0.608780
O O17 0.794872 0.401802 0.101408
O O18 0.500000 0.500000 0.500000
#
# Coordination Sequence:
#
# PCOD9007631 Si02
#       8
#     2   2   2   2   2   2   2   2
#     4  12  26  45  64  94 141 179 209 275 350 391
#     4  12  24  43  68  96 131 173 227 268 330 398
#     4  10  21  39  62  91 124 162 203 261 322 382
#     4  10  21  39  62  90 123 162 205 254 321 385
#     4  10  21  39  65  89 124 165 208 267 319 372
#     4  12  24  43  66  96 135 170 223 270 335 391
#     4  12  24  41  70  99 124 170 231 276 311 397
#     4  10  21  39  65  90 124 164 212 267 320 372
#
# _framework density 23.040671
#
# number of rings (size 3 to 8) (size 9 to 14) (size 15 to 20)
#    0.000    1.000    1.250    6.000    3.500    0.000 
#    6.750    0.000    0.000    0.000    0.000    0.000 
#    0.000    0.000    0.000    0.000    0.000    0.000 
#
# Total GULP energy -89486.444619 kJ/mol
# GULP energy per Si atom -5592.902789 kJ/mol
# Density = 2.298823 g / cm^3
# Si number density = 23.040671 Si / 1000 Ang^3
#
#
#
# Elastic Constant Matrix: (Units=GPa)
#
#
# Indices 1 2 3 4 5 6 
#
# 1 64.2590 18.5257 53.0755 -7.5062 -9.1379 30.6129
# 2 18.5257 99.1452 47.0873 12.3673 -10.1560 26.6817
# 3 53.0755 47.0873 198.6147 3.2724 -12.1582 37.4337
# 4 -7.5062 12.3673 3.2724 21.3276 14.3152 1.5441
# 5 -9.1379 -10.1560 -12.1582 14.3152 41.6818 -9.6252
# 6 30.6129 26.6817 37.4337 1.5441 -9.6252 55.3313
#
#
#
# Elastic Compliance Matrix: (Units=1/GPa)
#
#
# Indices 1 2 3 4 5 6 
#
# 1 0.027013 -0.001671 -0.005073 0.014580 -0.003687 -0.011756
# 2 -0.001671 0.014318 -0.001727 -0.012490 0.006124 -0.003398
# 3 -0.005073 -0.001727 0.007082 -0.002641 0.001241 -0.000862
# 4 0.014580 -0.012490 -0.002641 0.080361 -0.029999 -0.007718
# 5 -0.003687 0.006124 0.001241 -0.029999 0.036599 0.005451
# 6 -0.011756 -0.003398 -0.000862 -0.007718 0.005451 0.027963
#
#
# Mechanical properties :
#
#
# Convention : Reuss Voigt Hill
#
# Bulk Modulus (GPa) = 31.77435 66.59955 49.18695
# Shear Modulus (GPa) = 22.64825 39.89018 31.26921
#
# Velocity S-wave (km/s) = 3.13863 4.16540 3.68792
# Velocity P-wave (km/s) = 5.19184 7.21817 6.28718
#
# Compressibility (1/GPa) = 0.03147193
#
# Stress axis : x y z
#
# Youngs Moduli (GPa) = 37.01922 69.84019 141.20603
#
# Poissons Ratio (x) = 0.11670 0.71630
# Poissons Ratio (y) = 0.06186 0.24386
# Poissons Ratio (z) = 0.18779 0.12061
#
# Static dielectric constant tensor:
#      x y z
#    x 1.886480 -0.023350 -0.007350 
#    y -0.023350 1.877600 -0.024370 
#    z -0.007350 -0.024370 1.831050 
# 
# From -- ./inp_files/358009.got.cif
#   From: 2010.05.17/outbox.cif.g08.bks.cpg/sg2_180_cif.got.tgz:358009.got - 2010.06.03 11:33:40.
