data_PCOD9007480
_publ_section_title
;
Structure prediction by ZEFSAII (Michael W. Deem and Ramdas Pophale) SiO2 
 PCOD9007480
Probable space group: P -1
;
_chemical_formula_sum "Si O2"
_cell_formula_units_Z 16
_cell_length_a 9.780952
_cell_length_b 7.903789
_cell_length_c 11.506564
_cell_angle_alpha 108.546413
_cell_angle_beta 52.780540
_cell_angle_gamma 113.492073
_cell_volume 646.028105
_symmetry_space_group_name_H-M "P -1"
_symmetry_group_IT_number 2
_symmetry_cell_setting 'triclinic'
loop_
_space_group_symop_operation_xyz
x,y,z
-x,-y,-z
loop_
_atom_site_type_symbol
_atom_site_label
_atom_site_fract_x
_atom_site_fract_y
_atom_site_fract_z
Si Si1 0.576089 0.135287 0.354312
Si Si2 0.119733 0.755212 0.106195
Si Si3 0.703993 0.886072 0.056519
Si Si4 0.233114 0.863183 0.530234
Si Si5 0.545050 0.568971 0.624360
Si Si6 0.219957 0.389267 0.885109
Si Si7 0.123678 0.364091 0.375440
Si Si8 0.690723 0.314216 0.787100
O O1 0.662640 0.989276 0.217032
O O2 0.715855 0.235424 0.402929
O O3 0.536147 0.256163 0.296792
O O4 0.382010 0.060053 0.499817
O O5 0.178156 0.750914 0.207554
O O6 0.910689 0.697623 0.172044
O O7 0.206959 0.952068 0.043372
O O8 0.184815 0.583218 0.981931
O O9 0.816419 0.752437 0.019324
O O10 0.511984 0.761561 0.082749
O O11 0.293442 0.782668 0.364592
O O12 0.021527 0.828304 0.622822
O O13 0.500000 0.500000 0.500000
O O14 0.422839 0.425781 0.745949
O O15 0.744293 0.635027 0.585605
O O16 0.241589 0.467435 0.229483
O O17 0.000000 0.500000 0.500000
#
# Coordination Sequence:
#
# PCOD9007480 Si02
#       8
#     2   2   2   2   2   2   2   2
#     4  10  22  41  68  96 136 173 220 280 332 400
#     4  11  25  45  70  96 135 175 231 277 321 402
#     4  11  22  46  68  96 132 176 226 277 336 384
#     4   9  21  38  63  97 132 174 213 267 344 392
#     4  12  24  40  69  98 136 176 223 278 336 400
#     4  11  26  44  67 103 128 178 230 273 334 391
#     4  10  21  39  61  96 133 171 217 270 332 397
#     4  10  21  39  67  94 133 172 215 276 329 391
#
# _framework density 24.766726999999999
#
# number of rings (size 3 to 8) (size 9 to 14) (size 15 to 20)
#    0.000    1.500    2.500    2.250    8.750    1.000 
#    0.000    2.500    0.000    0.000    0.000    0.000 
#    0.000    0.000    0.000    0.000    0.000    0.000 
#
# Total GULP energy -89400.402497 kJ/mol
# GULP energy per Si atom -5587.525156 kJ/mol
# Density = 2.471036 g / cm^3
# Si number density = 24.766727 Si / 1000 Ang^3
#
#
#
# Elastic Constant Matrix: (Units=GPa)
#
#
# Indices 1 2 3 4 5 6 
#
# 1 194.4240 35.6364 37.3568 -3.8754 20.0916 15.6453
# 2 35.6364 64.9666 21.1567 -22.8694 -5.0112 0.4193
# 3 37.3568 21.1567 56.3649 -3.0367 7.0053 6.1546
# 4 -3.8754 -22.8694 -3.0367 27.6658 -2.8421 3.4760
# 5 20.0916 -5.0112 7.0053 -2.8421 34.1030 -8.3528
# 6 15.6453 0.4193 6.1546 3.4760 -8.3528 42.6369
#
#
#
# Elastic Compliance Matrix: (Units=1/GPa)
#
#
# Indices 1 2 3 4 5 6 
#
# 1 0.007199 -0.004893 -0.002088 -0.003449 -0.005579 -0.003104
# 2 -0.004893 0.030339 -0.008654 0.024277 0.011901 0.003099
# 3 -0.002088 -0.008654 0.023205 -0.005109 -0.006033 -0.003264
# 4 -0.003449 0.024277 -0.005109 0.056400 0.011192 -0.000641
# 5 -0.005579 0.011901 -0.006033 0.011192 0.038858 0.009501
# 6 -0.003104 0.003099 -0.003264 -0.000641 0.009501 0.026947
#
#
# Mechanical properties :
#
#
# Convention : Reuss Voigt Hill
#
# Bulk Modulus (GPa) = 33.93099 56.00616 44.96858
# Shear Modulus (GPa) = 22.31722 35.65485 28.98604
#
# Velocity S-wave (km/s) = 3.00508 3.79836 3.42477
# Velocity P-wave (km/s) = 5.07648 6.47296 5.81678
#
# Compressibility (1/GPa) = 0.02947158
#
# Stress axis : x y z
#
# Youngs Moduli (GPa) = 138.90685 32.96111 43.09466
#
# Poissons Ratio (x) = 0.16129 0.08998
# Poissons Ratio (y) = 0.67972 0.37295
# Poissons Ratio (z) = 0.29005 0.28525
#
# Static dielectric constant tensor:
#      x y z
#    x 2.010510 0.015680 0.030160 
#    y 0.015680 2.163620 -0.026980 
#    z 0.030160 -0.026980 1.987020 
# 
# From -- ./inp_files/382246.got.cif
#   From: 2010.05.17/outbox.cif.g08.bks.cpg/sg2_192_cif.got.tgz:382246.got - 2010.06.03 11:33:40.
