data_PCOD9007256
_publ_section_title
;
Structure prediction by ZEFSAII (Michael W. Deem and Ramdas Pophale) SiO2 
 PCOD9007256
Probable space group: P -1
;
_chemical_formula_sum "Si O2"
_cell_formula_units_Z 16
_cell_length_a 9.347220
_cell_length_b 11.946898
_cell_length_c 28.078129
_cell_angle_alpha 30.277088
_cell_angle_beta 151.620236
_cell_angle_gamma 139.979699
_cell_volume 751.167781
_symmetry_space_group_name_H-M "P -1"
_symmetry_group_IT_number 2
_symmetry_cell_setting 'triclinic'
loop_
_space_group_symop_operation_xyz
x,y,z
-x,-y,-z
loop_
_atom_site_type_symbol
_atom_site_label
_atom_site_fract_x
_atom_site_fract_y
_atom_site_fract_z
Si Si1 0.384484 0.063795 0.392074
Si Si2 0.520559 0.451904 0.785141
Si Si3 0.723495 0.406090 0.139923
Si Si4 0.911022 0.480068 0.539296
Si Si5 0.643462 0.826996 0.473846
Si Si6 0.672375 0.294727 0.272430
Si Si7 0.797601 0.908843 0.309416
Si Si8 0.805262 0.210506 0.879502
O O1 0.337889 0.321299 0.278531
O O2 0.500000 0.000000 0.500000
O O3 0.641500 0.982088 0.463015
O O4 0.070584 0.929486 0.343216
O O5 0.473335 0.533698 0.795482
O O6 0.720747 0.255183 0.894151
O O7 0.197525 0.421650 0.676189
O O8 0.611518 0.388435 0.167811
O O9 0.012220 0.571252 0.164478
O O10 0.782099 0.156234 0.233335
O O11 0.500000 0.500000 0.000000
O O12 0.617692 0.353659 0.522382
O O13 0.854297 0.743387 0.430196
O O14 0.000000 0.500000 0.500000
O O15 0.969246 0.720066 0.604665
O O16 0.569079 0.030350 0.341172
O O17 0.500268 0.825810 0.225985
O O18 0.000000 0.000000 0.000000
#
# Coordination Sequence:
#
# PCOD9007256 Si02
#       8
#     2   2   2   2   2   2   2   2
#     4  11  18  33  64 101 139 182 221 277 349 433
#     4  11  23  40  65 103 146 181 228 299 365 428
#     4  12  26  49  72  95 135 193 257 303 344 426
#     4  12  21  36  66 113 143 184 231 289 363 439
#     4  10  21  39  61 101 155 180 222 282 366 451
#     4  10  25  43  66 100 145 197 225 291 382 425
#     4  12  23  38  72 105 139 181 240 292 353 409
#     4  12  25  45  72 101 132 185 257 301 343 419
#
# _framework density 21.300169
#
# number of rings (size 3 to 8) (size 9 to 14) (size 15 to 20)
#    0.000    0.750    6.250    1.500    3.500    0.500 
#    2.250    1.250    0.000    0.000    0.000    0.000 
#    0.000    0.000    0.000    0.000    0.000    0.000 
#
# Total GULP energy -89121.135917 kJ/mol
# GULP energy per Si atom -5570.070995 kJ/mol
# Density = 2.125169 g / cm^3
# Si number density = 21.300169 Si / 1000 Ang^3
#
#
#
# Elastic Constant Matrix: (Units=GPa)
#
#
# Indices 1 2 3 4 5 6 
#
# 1 142.8565 38.1556 51.2411 -13.2155 -1.0325 -8.9378
# 2 38.1556 135.0783 20.1546 -5.1740 -1.4356 29.1716
# 3 51.2411 20.1546 64.7344 -7.1650 1.3421 0.3437
# 4 -13.2155 -5.1740 -7.1650 34.6551 -7.7791 5.9463
# 5 -1.0325 -1.4356 1.3421 -7.7791 35.9373 -3.4041
# 6 -8.9378 29.1716 0.3437 5.9463 -3.4041 38.5726
#
#
#
# Elastic Compliance Matrix: (Units=1/GPa)
#
#
# Indices 1 2 3 4 5 6 
#
# 1 0.010968 -0.002883 -0.007652 0.001661 0.001286 0.004647
# 2 -0.002883 0.010264 -0.000670 0.001768 -0.000090 -0.008705
# 3 -0.007652 -0.000670 0.021921 0.001623 -0.000884 -0.001790
# 4 0.001661 0.001768 0.001623 0.032492 0.006580 -0.005395
# 5 0.001286 -0.000090 -0.000884 0.006580 0.029503 0.001963
# 6 0.004647 -0.008705 -0.001790 -0.005395 0.001963 0.034606
#
#
# Mechanical properties :
#
#
# Convention : Reuss Voigt Hill
#
# Bulk Modulus (GPa) = 48.20745 62.41910 55.31328
# Shear Modulus (GPa) = 29.57209 37.37419 33.47314
#
# Velocity S-wave (km/s) = 3.73010 4.19339 3.96851
# Velocity P-wave (km/s) = 6.42130 7.26733 6.85738
#
# Compressibility (1/GPa) = 0.02074368
#
# Stress axis : x y z
#
# Youngs Moduli (GPa) = 91.17023 97.42689 45.61868
#
# Poissons Ratio (x) = 0.28087 0.34908
# Poissons Ratio (y) = 0.26283 0.03056
# Poissons Ratio (z) = 0.69764 0.06527
#
# Static dielectric constant tensor:
#      x y z
#    x 1.903880 -0.019900 0.077990 
#    y -0.019900 1.867380 -0.037410 
#    z 0.077990 -0.037410 1.808880 
# 
# From -- ./inp_files/617049.got.cif
#   From: 2010.05.17/outbox.cif.g08.bks.cpg/sg2_309_cif.got.tgz:617049.got - 2010.06.03 11:33:40.
