data_PCOD9007494
_publ_section_title
;
Structure prediction by ZEFSAII (Michael W. Deem and Ramdas Pophale) SiO2 
 PCOD9007494
Probable space group: P -1
;
_chemical_formula_sum "Si O2"
_cell_formula_units_Z 16
_cell_length_a 11.108209
_cell_length_b 13.615828
_cell_length_c 12.974692
_cell_angle_alpha 95.765874
_cell_angle_beta 119.057686
_cell_angle_gamma 32.710686
_cell_volume 702.506288
_symmetry_space_group_name_H-M "P -1"
_symmetry_group_IT_number 2
_symmetry_cell_setting 'triclinic'
loop_
_space_group_symop_operation_xyz
x,y,z
-x,-y,-z
loop_
_atom_site_type_symbol
_atom_site_label
_atom_site_fract_x
_atom_site_fract_y
_atom_site_fract_z
Si Si1 0.308438 0.210442 0.882370
Si Si2 0.886048 0.498926 0.041297
Si Si3 0.232300 0.569956 0.668111
Si Si4 0.349614 0.472612 0.342228
Si Si5 0.765979 0.225826 0.692890
Si Si6 0.262063 0.248774 0.625297
Si Si7 0.784732 0.827309 0.686174
Si Si8 0.322727 0.743122 0.747886
O O1 0.371317 0.271367 0.971730
O O2 0.343063 0.195319 0.773384
O O3 0.921757 0.435036 0.761677
O O4 0.500000 0.000000 0.000000
O O5 0.178096 0.273460 0.215596
O O6 0.694118 0.528786 0.921307
O O7 0.000000 0.500000 0.000000
O O8 0.583026 0.313391 0.732424
O O9 0.231269 0.687988 0.698153
O O10 0.936413 0.722593 0.486083
O O11 0.127699 0.599554 0.740899
O O12 0.487340 0.394870 0.505685
O O13 0.189726 0.684103 0.269604
O O14 0.634121 0.258661 0.355448
O O15 0.068675 0.967416 0.740230
O O16 0.000000 0.500000 0.500000
O O17 0.620338 0.028708 0.694856
O O18 0.500000 0.000000 0.500000
#
# Coordination Sequence:
#
# PCOD9007494 Si02
#       8
#     2   2   2   2   2   2   2   2
#     4  12  23  40  69 101 141 183 232 292 352 417
#     4  12  25  46  69 104 144 185 234 289 360 419
#     4  10  23  44  71  99 136 180 237 286 343 420
#     4  10  21  39  61  99 141 180 232 286 349 418
#     4  10  21  40  64  99 141 181 235 286 348 416
#     4  11  24  44  72 104 135 180 237 289 351 422
#     4  10  24  46  71 101 140 185 232 290 348 421
#     4  11  24  42  68 101 139 187 232 289 356 414
#
# _framework density 22.775596
#
# number of rings (size 3 to 8) (size 9 to 14) (size 15 to 20)
#    0.000    1.250    2.500    3.375    1.750    2.500 
#    6.750    0.625    0.000    0.000    0.000    0.000 
#    0.000    0.000    0.000    0.000    0.000    0.000 
#
# Total GULP energy -89158.178988 kJ/mol
# GULP energy per Si atom -5572.386187 kJ/mol
# Density = 2.272376 g / cm^3
# Si number density = 22.775596 Si / 1000 Ang^3
#
#
#
# Elastic Constant Matrix: (Units=GPa)
#
#
# Indices 1 2 3 4 5 6 
#
# 1 74.2744 43.1392 42.4366 13.7103 -5.1024 -16.5927
# 2 43.1392 168.9611 28.7740 18.3999 -14.5451 -24.8487
# 3 42.4366 28.7740 77.8524 17.7151 -12.5657 9.1165
# 4 13.7103 18.3999 17.7151 38.5177 5.5717 -4.0208
# 5 -5.1024 -14.5451 -12.5657 5.5717 46.0601 15.3524
# 6 -16.5927 -24.8487 9.1165 -4.0208 15.3524 45.8670
#
#
#
# Elastic Compliance Matrix: (Units=1/GPa)
#
#
# Indices 1 2 3 4 5 6 
#
# 1 0.027275 -0.002780 -0.017289 0.002205 -0.007695 0.014566
# 2 -0.002780 0.007501 -0.000909 -0.002068 0.001175 0.002664
# 3 -0.017289 -0.000909 0.029194 -0.010577 0.012982 -0.017822
# 4 0.002205 -0.002068 -0.010577 0.033317 -0.010008 0.008050
# 5 -0.007695 0.001175 0.012982 -0.010008 0.031347 -0.016097
# 6 0.014566 0.002664 -0.017822 0.008050 -0.016097 0.038151
#
#
# Mechanical properties :
#
#
# Convention : Reuss Voigt Hill
#
# Bulk Modulus (GPa) = 45.42597 61.08752 53.25675
# Shear Modulus (GPa) = 23.13970 39.87150 31.50560
#
# Velocity S-wave (km/s) = 3.19091 4.18858 3.72332
# Velocity P-wave (km/s) = 5.79346 7.09028 6.47442
#
# Compressibility (1/GPa) = 0.02201384
#
# Stress axis : x y z
#
# Youngs Moduli (GPa) = 36.66409 133.31154 34.25369
#
# Poissons Ratio (x) = 0.37057 0.59222
# Poissons Ratio (y) = 0.10192 0.03114
# Poissons Ratio (z) = 0.63389 0.12120
#
# Static dielectric constant tensor:
#      x y z
#    x 1.896620 -0.043150 -0.009540 
#    y -0.043150 1.984610 0.033150 
#    z -0.009540 0.033150 1.885190 
# 
# From -- ./inp_files/434144.got.cif
#   From: 2010.05.17/outbox.cif.g08.bks.cpg/sg2_218_cif.got.tgz:434144.got - 2010.06.03 11:33:40.
