data_PCOD9007782
_publ_section_title
;
Structure prediction by ZEFSAII (Michael W. Deem and Ramdas Pophale) SiO2 
 PCOD9007782
Probable space group: P -1
;
_chemical_formula_sum "Si O2"
_cell_formula_units_Z 14
_cell_length_a 21.548076
_cell_length_b 10.295116
_cell_length_c 8.025927
_cell_angle_alpha 42.634748
_cell_angle_beta 132.807373
_cell_angle_gamma 147.857087
_cell_volume 633.639424
_symmetry_space_group_name_H-M "P -1"
_symmetry_group_IT_number 2
_symmetry_cell_setting 'triclinic'
loop_
_space_group_symop_operation_xyz
x,y,z
-x,-y,-z
loop_
_atom_site_type_symbol
_atom_site_label
_atom_site_fract_x
_atom_site_fract_y
_atom_site_fract_z
Si Si1 0.654663 0.733135 0.838252
Si Si2 0.883115 0.704845 0.119242
Si Si3 0.784715 0.782988 0.575618
Si Si4 0.782056 0.617399 0.376939
Si Si5 0.603985 0.012776 0.697850
Si Si6 0.585563 0.756905 0.247049
Si Si7 0.805556 0.160764 0.459476
O O1 0.554421 0.495170 0.754224
O O2 0.599836 0.830006 0.736014
O O3 0.777473 0.994600 0.730740
O O4 0.684815 0.617241 0.135570
O O5 0.790589 0.643103 0.871294
O O6 0.859004 0.711760 0.262241
O O7 0.878197 0.467770 0.315493
O O8 0.000000 0.000000 0.000000
O O9 0.830740 0.774489 0.492933
O O10 0.653133 0.661583 0.427359
O O11 0.850195 0.080336 0.478798
O O12 0.722294 0.320489 0.590083
O O13 0.500000 0.000000 0.500000
O O14 0.601608 0.915061 0.966280
O O15 0.668464 0.987216 0.319832
#
# Coordination Sequence:
#
# PCOD9007782 Si02
#       7
#     2   2   2   2   2   2   2
#     4  12  20  40  63 100 141 187 212 257 335 404
#     4  12  27  49  71  95 128 174 235 295 342 384
#     4  10  24  43  68  98 137 169 223 282 329 403
#     4  12  23  43  70 100 139 179 222 274 330 403
#     4  12  22  35  63  99 140 178 223 253 319 402
#     4  10  21  39  62  96 142 178 212 257 326 405
#     4  10  23  42  65  95 133 172 227 276 327 397
#
# _framework density 22.094584999999999
#
# number of rings (size 3 to 8) (size 9 to 14) (size 15 to 20)
#    0.857    0.000    5.714    2.571    0.000    1.143 
#    0.000    2.857    0.000    0.000    0.000    0.000 
#    0.000    0.000    0.000    0.000    0.000    0.000 
#
# Total GULP energy -78099.495481 kJ/mol
# GULP energy per Si atom -5578.535391 kJ/mol
# Density = 2.204430 g / cm^3
# Si number density = 22.094585 Si / 1000 Ang^3
#
#
#
# Elastic Constant Matrix: (Units=GPa)
#
#
# Indices 1 2 3 4 5 6 
#
# 1 103.7830 26.4853 29.2723 -16.5057 -17.6729 -23.2565
# 2 26.4853 81.6323 35.8937 -31.5594 -1.5825 -7.7368
# 3 29.2723 35.8937 119.6546 -18.0292 -11.6465 -4.5398
# 4 -16.5057 -31.5594 -18.0292 42.3048 0.8586 0.0091
# 5 -17.6729 -1.5825 -11.6465 0.8586 37.3684 -4.3510
# 6 -23.2565 -7.7368 -4.5398 0.0091 -4.3510 23.9579
#
#
#
# Elastic Compliance Matrix: (Units=1/GPa)
#
#
# Indices 1 2 3 4 5 6 
#
# 1 0.016452 -0.001041 -0.001447 0.004836 0.009156 0.017021
# 2 -0.001041 0.019433 -0.003562 0.012583 -0.000546 0.004486
# 3 -0.001447 -0.003562 0.010153 0.001059 0.002280 -0.000217
# 4 0.004836 0.012583 0.001059 0.035291 0.003454 0.009572
# 5 0.009156 -0.000546 0.002280 0.003454 0.033471 0.015221
# 6 0.017021 0.004486 -0.000217 0.009572 0.015221 0.062431
#
#
# Mechanical properties :
#
#
# Convention : Reuss Voigt Hill
#
# Bulk Modulus (GPa) = 29.46514 54.26362 41.86438
# Shear Modulus (GPa) = 24.91984 34.95413 29.93698
#
# Velocity S-wave (km/s) = 3.36202 3.98178 3.68495
# Velocity P-wave (km/s) = 5.33252 6.76405 6.09049
#
# Compressibility (1/GPa) = 0.03393840
#
# Stress axis : x y z
#
# Youngs Moduli (GPa) = 60.78387 51.45806 98.49287
#
# Poissons Ratio (x) = 0.05359 0.14249
# Poissons Ratio (y) = 0.06330 0.35081
# Poissons Ratio (z) = 0.08794 0.18328
#
# Static dielectric constant tensor:
#      x y z
#    x 1.847220 0.023960 -0.005950 
#    y 0.023960 1.865820 0.056090 
#    z -0.005950 0.056090 1.821050 
# 
# From -- ./inp_files/352890.got.cif
#   From: 2010.05.17/outbox.cif.g08.bks.cpg/sg2_177_cif.got.tgz:352890.got - 2010.06.03 11:33:40.
