data_PCOD9007679
_publ_section_title
;
Structure prediction by ZEFSAII (Michael W. Deem and Ramdas Pophale) SiO2 
 PCOD9007679
Probable space group: P -1
;
_chemical_formula_sum "Si O2"
_cell_formula_units_Z 16
_cell_length_a 11.255714
_cell_length_b 13.105952
_cell_length_c 5.962354
_cell_angle_alpha 75.259176
_cell_angle_beta 98.112673
_cell_angle_gamma 57.451832
_cell_volume 674.017912
_symmetry_space_group_name_H-M "P -1"
_symmetry_group_IT_number 2
_symmetry_cell_setting 'triclinic'
loop_
_space_group_symop_operation_xyz
x,y,z
-x,-y,-z
loop_
_atom_site_type_symbol
_atom_site_label
_atom_site_fract_x
_atom_site_fract_y
_atom_site_fract_z
Si Si1 0.811917 0.772385 0.939436
Si Si2 0.879577 0.055958 0.137188
Si Si3 0.167845 0.428038 0.691180
Si Si4 0.615909 0.892313 0.411107
Si Si5 0.903261 0.211207 0.454322
Si Si6 0.871308 0.411131 0.018787
Si Si7 0.327172 0.550748 0.434212
Si Si8 0.643890 0.047847 0.937090
O O1 0.751090 0.780861 0.666682
O O2 0.989853 0.668823 0.064357
O O3 0.759218 0.725926 0.158686
O O4 0.759151 0.919500 0.887196
O O5 0.869891 0.148736 0.274919
O O6 0.715999 0.121296 0.964713
O O7 0.942227 0.915552 0.341974
O O8 0.000000 0.000000 0.000000
O O9 0.154305 0.467123 0.929895
O O10 0.270575 0.466879 0.581539
O O11 0.000000 0.500000 0.500000
O O12 0.632138 0.981151 0.192421
O O13 0.500000 0.000000 0.500000
O O14 0.511745 0.860515 0.282492
O O15 0.926552 0.310047 0.292522
O O16 0.773989 0.305152 0.549397
O O17 0.729199 0.438012 0.841222
O O18 0.500000 0.500000 0.500000
#
# Coordination Sequence:
#
# PCOD9007679 Si02
#       8
#     2   2   2   2   2   2   2   2
#     4  11  21  37  68  96 127 167 222 284 342 399
#     4  11  22  40  67  98 131 175 232 285 337 411
#     4  11  25  41  68 106 129 170 242 288 335 421
#     4   9  21  39  58  90 128 171 208 266 347 395
#     4  10  23  40  65 100 126 178 237 280 338 416
#     4  11  23  43  70  91 131 173 227 287 348 402
#     4  11  25  47  68  95 146 187 225 286 357 412
#     4  10  21  39  62  91 136 168 216 273 347 410
#
# _framework density 23.738240999999999
#
# number of rings (size 3 to 8) (size 9 to 14) (size 15 to 20)
#    0.000    1.500    1.250    3.375    3.500    5.000 
#    0.000   16.250    0.000    0.000    0.000    0.000 
#    0.000    0.000    0.000    0.000    0.000    0.000 
#
# Total GULP energy -89159.418836 kJ/mol
# GULP energy per Si atom -5572.463677 kJ/mol
# Density = 2.368421 g / cm^3
# Si number density = 23.738241 Si / 1000 Ang^3
#
#
#
# Elastic Constant Matrix: (Units=GPa)
#
#
# Indices 1 2 3 4 5 6 
#
# 1 116.5278 6.8399 37.6638 5.0125 40.8109 -15.6667
# 2 6.8399 71.8463 -7.9895 11.7260 15.9414 -7.0753
# 3 37.6638 -7.9895 99.1990 0.9628 26.3720 1.9671
# 4 5.0125 11.7260 0.9628 34.6999 9.2854 -5.4628
# 5 40.8109 15.9414 26.3720 9.2854 49.6745 -4.7548
# 6 -15.6667 -7.0753 1.9671 -5.4628 -4.7548 26.8829
#
#
#
# Elastic Compliance Matrix: (Units=1/GPa)
#
#
# Indices 1 2 3 4 5 6 
#
# 1 0.013679 0.001014 -0.002674 0.001467 -0.009748 0.007009
# 2 0.001014 0.016442 0.002669 -0.003568 -0.006589 0.002833
# 3 -0.002674 0.002669 0.012913 0.000248 -0.005828 -0.002781
# 4 0.001467 -0.003568 0.000248 0.032183 -0.005688 0.005432
# 5 -0.009748 -0.006589 -0.005828 -0.005688 0.034211 -0.002093
# 6 0.007009 0.002833 -0.002781 0.005432 -0.002093 0.042965
#
#
# Mechanical properties :
#
#
# Convention : Reuss Voigt Hill
#
# Bulk Modulus (GPa) = 22.19596 40.06683 31.13140
# Shear Modulus (GPa) = 30.23116 38.98871 34.60993
#
# Velocity S-wave (km/s) = 3.57251 4.05710 3.82250
# Velocity P-wave (km/s) = 5.13690 6.23394 5.71182
#
# Compressibility (1/GPa) = 0.04505324
#
# Stress axis : x y z
#
# Youngs Moduli (GPa) = 73.10215 60.81963 77.44115
#
# Poissons Ratio (x) = -0.06167 0.20707
# Poissons Ratio (y) = -0.07412 -0.20672
# Poissons Ratio (z) = 0.19547 -0.16235
#
# Static dielectric constant tensor:
#      x y z
#    x 1.995700 0.026230 -0.028220 
#    y 0.026230 2.021470 0.080450 
#    z -0.028220 0.080450 1.994450 
# 
# From -- ./inp_files/77645.got.cif
#   From: 2010.05.17/outbox.cif.g08.bks.cpg/sg2_39_cif.got.tgz:77645.got - 2010.06.03 11:33:40.
