data_PCOD9007581
_publ_section_title
;
Structure prediction by ZEFSAII (Michael W. Deem and Ramdas Pophale) SiO2 
 PCOD9007581
Probable space group: P -1
;
_chemical_formula_sum "Si O2"
_cell_formula_units_Z 14
_cell_length_a 9.238844
_cell_length_b 17.670603
_cell_length_c 11.856646
_cell_angle_alpha 153.342475
_cell_angle_beta 59.718983
_cell_angle_gamma 129.821564
_cell_volume 653.857053
_symmetry_space_group_name_H-M "P -1"
_symmetry_group_IT_number 2
_symmetry_cell_setting 'triclinic'
loop_
_space_group_symop_operation_xyz
x,y,z
-x,-y,-z
loop_
_atom_site_type_symbol
_atom_site_label
_atom_site_fract_x
_atom_site_fract_y
_atom_site_fract_z
Si Si1 0.298213 0.554855 0.433766
Si Si2 0.949010 0.142926 0.279150
Si Si3 0.727291 0.752542 0.556159
Si Si4 0.326058 0.545300 0.151973
Si Si5 0.712613 0.142710 0.568957
Si Si6 0.892531 0.206874 0.148877
Si Si7 0.034368 0.196317 0.689265
O O1 0.504762 0.609661 0.475865
O O2 0.353482 0.615703 0.362909
O O3 0.216822 0.679309 0.696605
O O4 0.121349 0.335197 0.207775
O O5 0.793533 0.058522 0.327071
O O6 0.880814 0.222058 0.309306
O O7 0.142487 0.287774 0.460794
O O8 0.000000 0.000000 0.000000
O O9 0.800978 0.740349 0.386933
O O10 0.792142 0.982507 0.852662
O O11 0.304502 0.684885 0.255939
O O12 0.500000 0.500000 0.000000
O O13 0.121269 0.352758 0.961793
O O14 0.855368 0.187474 0.679049
O O15 0.500000 0.000000 0.500000
O O16 0.000000 0.000000 0.500000
#
# Coordination Sequence:
#
# PCOD9007581 Si02
#       7
#     2   2   2   2   2   2   2
#     4  11  22  38  62  93 122 167 217 264 326 389
#     4   9  20  41  64  89 129 167 213 274 329 394
#     4  10  21  39  62  88 127 164 214 266 327 389
#     4  12  23  41  64  93 135 171 218 276 323 399
#     4  11  24  42  66  99 132 175 222 275 336 400
#     4  10  21  39  63  89 125 163 216 268 323 391
#     4  11  23  41  65  94 130 176 219 273 338 397
#
# _framework density 21.411407000000001
#
# number of rings (size 3 to 8) (size 9 to 14) (size 15 to 20)
#    0.000    1.429    2.857    2.571    0.000    2.857 
#    0.000    2.857    0.000    0.000    0.000    0.000 
#    0.000    0.000    0.000    0.000    0.000    0.000 
#
# Total GULP energy -78027.657586 kJ/mol
# GULP energy per Si atom -5573.404113 kJ/mol
# Density = 2.136267 g / cm^3
# Si number density = 21.411407 Si / 1000 Ang^3
#
#
#
# Elastic Constant Matrix: (Units=GPa)
#
#
# Indices 1 2 3 4 5 6 
#
# 1 80.3960 25.1693 23.1518 -15.1818 10.1993 19.5369
# 2 25.1693 67.5311 9.6110 -3.6352 6.6339 33.3387
# 3 23.1518 9.6110 47.9113 -1.8594 -7.2288 8.5271
# 4 -15.1818 -3.6352 -1.8594 29.2483 0.3352 -4.0240
# 5 10.1993 6.6339 -7.2288 0.3352 32.4858 1.0079
# 6 19.5369 33.3387 8.5271 -4.0240 1.0079 45.1903
#
#
#
# Elastic Compliance Matrix: (Units=1/GPa)
#
#
# Indices 1 2 3 4 5 6 
#
# 1 0.019405 -0.003014 -0.008927 0.008729 -0.007444 -0.003538
# 2 -0.003014 0.024643 -0.001130 -0.000821 -0.003812 -0.016652
# 3 -0.008927 -0.001130 0.026804 -0.003292 0.009059 -0.000860
# 4 0.008729 -0.000821 -0.003292 0.038586 -0.003734 0.000972
# 5 -0.007444 -0.003812 0.009059 -0.003734 0.035854 0.003189
# 6 -0.003538 -0.016652 -0.000860 0.000972 0.003189 0.036121
#
#
# Mechanical properties :
#
#
# Convention : Reuss Voigt Hill
#
# Bulk Modulus (GPa) = 22.36647 34.63362 28.50004
# Shear Modulus (GPa) = 22.47593 30.57863 26.52728
#
# Velocity S-wave (km/s) = 3.24345 3.78318 3.52367
# Velocity P-wave (km/s) = 4.94928 5.94085 5.46759
#
# Compressibility (1/GPa) = 0.04470978
#
# Stress axis : x y z
#
# Youngs Moduli (GPa) = 51.53232 40.57885 37.30729
#
# Poissons Ratio (x) = 0.12232 0.33305
# Poissons Ratio (y) = 0.15533 0.04217
# Poissons Ratio (z) = 0.46003 0.04587
#
# Static dielectric constant tensor:
#      x y z
#    x 1.875370 -0.124170 -0.111790 
#    y -0.124170 1.713830 0.041580 
#    z -0.111790 0.041580 1.864790 
# 
# From -- ./inp_files/176838.got.cif
#   From: 2010.05.17/outbox.cif.g08.bks.cpg/sg2_89_cif.got.tgz:176838.got - 2010.06.03 11:33:40.
