data_PCOD9007553
_publ_section_title
;
Structure prediction by ZEFSAII (Michael W. Deem and Ramdas Pophale) SiO2 
 PCOD9007553
Probable space group: P -1
;
_chemical_formula_sum "Si O2"
_cell_formula_units_Z 14
_cell_length_a 22.201051
_cell_length_b 5.793099
_cell_length_c 4.796968
_cell_angle_alpha 99.738652
_cell_angle_beta 98.283278
_cell_angle_gamma 60.406743
_cell_volume 527.421093
_symmetry_space_group_name_H-M "P -1"
_symmetry_group_IT_number 2
_symmetry_cell_setting 'triclinic'
loop_
_space_group_symop_operation_xyz
x,y,z
-x,-y,-z
loop_
_atom_site_type_symbol
_atom_site_label
_atom_site_fract_x
_atom_site_fract_y
_atom_site_fract_z
Si Si1 0.954970 0.415984 0.150958
Si Si2 0.719106 0.433058 0.953832
Si Si3 0.489870 0.705946 0.180869
Si Si4 0.563089 0.752566 0.778764
Si Si5 0.172270 0.133963 0.039523
Si Si6 0.791386 0.491045 0.486932
Si Si7 0.080346 0.965161 0.328800
O O1 0.880355 0.676542 0.197300
O O2 0.937297 0.224614 0.911997
O O3 0.007132 0.230649 0.390761
O O4 0.000000 0.500000 0.000000
O O5 0.637357 0.562657 0.924389
O O6 0.745404 0.421763 0.655402
O O7 0.759379 0.136011 0.048439
O O8 0.748932 0.588035 0.194898
O O9 0.544712 0.682093 0.442854
O O10 0.423746 0.983959 0.253608
O O11 0.524081 0.559059 0.868402
O O12 0.500000 0.000000 0.000000
O O13 0.194650 0.301373 0.290741
O O14 0.125448 0.049800 0.180256
O O15 0.866720 0.227053 0.442019
#
# Coordination Sequence:
#
# PCOD9007553 Si02
#       7
#     2   2   2   2   2   2   2
#     4   8  13  27  54  82 110 148 192 239 292 342
#     4  11  23  39  58  85 118 151 191 235 282 341
#     4  10  21  39  62  88 118 151 189 233 280 332
#     4  10  22  38  59  88 118 150 191 234 278 336
#     4   9  19  34  55  81 114 151 191 238 291 344
#     4  10  22  37  56  82 114 152 193 237 286 341
#     4   8  15  30  53  80 112 147 192 242 287 339
#
# _framework density 26.544257999999999
#
# number of rings (size 3 to 8) (size 9 to 14) (size 15 to 20)
#    0.000    2.571    0.000    1.286    0.000    4.571 
#    0.000    0.714    0.000   77.143    0.000    0.000 
#    0.000    0.000    0.000    0.000    0.000    0.000 
#
# Total GULP energy -78150.334873 kJ/mol
# GULP energy per Si atom -5582.166777 kJ/mol
# Density = 2.648384 g / cm^3
# Si number density = 26.544258 Si / 1000 Ang^3
#
#
#
# Elastic Constant Matrix: (Units=GPa)
#
#
# Indices 1 2 3 4 5 6 
#
# 1 112.5207 76.7921 60.8022 3.3725 28.7821 -17.6036
# 2 76.7921 171.5553 54.5155 15.4120 37.4941 -13.2537
# 3 60.8022 54.5155 163.1605 1.8726 10.9658 -14.0915
# 4 3.3725 15.4120 1.8726 41.3995 -0.2384 16.2846
# 5 28.7821 37.4941 10.9658 -0.2384 50.2069 -12.3277
# 6 -17.6036 -13.2537 -14.0915 16.2846 -12.3277 39.5298
#
#
#
# Elastic Compliance Matrix: (Units=1/GPa)
#
#
# Indices 1 2 3 4 5 6 
#
# 1 0.015555 -0.004641 -0.003711 -0.000608 -0.003886 0.003087
# 2 -0.004641 0.009502 -0.001055 -0.003505 -0.003990 0.000942
# 3 -0.003711 -0.001055 0.007881 -0.000186 0.001526 0.001355
# 4 -0.000608 -0.003505 -0.000186 0.031219 -0.000405 -0.014499
# 5 -0.003886 -0.003990 0.001526 -0.000405 0.026218 0.005819
# 6 0.003087 0.000942 0.001355 -0.014499 0.005819 0.035259
#
#
# Mechanical properties :
#
#
# Convention : Reuss Voigt Hill
#
# Bulk Modulus (GPa) = 70.80985 92.38402 81.59693
# Shear Modulus (GPa) = 33.52176 43.23570 38.37873
#
# Velocity S-wave (km/s) = 3.55753 4.04024 3.80654
# Velocity P-wave (km/s) = 6.60369 7.52622 7.08000
#
# Compressibility (1/GPa) = 0.01412233
#
# Stress axis : x y z
#
# Youngs Moduli (GPa) = 64.28692 105.24578 126.88467
#
# Poissons Ratio (x) = 0.48847 0.47090
# Poissons Ratio (y) = 0.29837 0.13391
# Poissons Ratio (z) = 0.23859 0.11107
#
# Static dielectric constant tensor:
#      x y z
#    x 0.911480 -1.193580 0.760920 
#    y -1.193580 0.740140 0.852770 
#    z 0.760920 0.852770 1.483670 
# 
# From -- ./inp_files/13973.got.cif
#   From: 2010.05.17/outbox.cif.g08.bks.cpg/sg2_7_cif.got.tgz:13973.got - 2010.06.03 11:33:40.
