data_PCOD9007511
_publ_section_title
;
Structure prediction by ZEFSAII (Michael W. Deem and Ramdas Pophale) SiO2 
 PCOD9007511
Probable space group: P -1
;
_chemical_formula_sum "Si O2"
_cell_formula_units_Z 14
_cell_length_a 5.139549
_cell_length_b 27.450575
_cell_length_c 16.954510
_cell_angle_alpha 17.144106
_cell_angle_beta 86.402040
_cell_angle_gamma 95.451864
_cell_volume 598.159185
_symmetry_space_group_name_H-M "P -1"
_symmetry_group_IT_number 2
_symmetry_cell_setting 'triclinic'
loop_
_space_group_symop_operation_xyz
x,y,z
-x,-y,-z
loop_
_atom_site_type_symbol
_atom_site_label
_atom_site_fract_x
_atom_site_fract_y
_atom_site_fract_z
Si Si1 0.111617 0.435984 0.788796
Si Si2 0.748433 0.559423 0.510817
Si Si3 0.696224 0.166226 0.531164
Si Si4 0.254689 0.644974 0.927922
Si Si5 0.878329 0.024471 0.381249
Si Si6 0.378921 0.190070 0.983131
Si Si7 0.660551 0.654360 0.687179
O O1 0.451301 0.486246 0.686104
O O2 0.026747 0.577135 0.527613
O O3 0.021546 0.417320 0.910454
O O4 0.884516 0.223922 0.082012
O O5 0.639985 0.388359 0.712239
O O6 0.777715 0.741793 0.183062
O O7 0.801990 0.303081 0.239121
O O8 0.516855 0.232779 0.487675
O O9 0.993949 0.198803 0.518962
O O10 0.512595 0.946214 0.844133
O O11 0.551877 0.839594 0.653381
O O12 0.325924 0.474031 0.184133
O O13 0.000000 0.000000 0.500000
O O14 0.121996 0.060667 0.253205
O O15 0.500000 0.500000 0.000000
#
# Coordination Sequence:
#
# PCOD9007511 Si02
#       7
#     2   2   2   2   2   2   2
#     4  11  23  39  58  86 122 155 196 236 290 359
#     4  10  24  39  59  87 114 159 203 234 285 357
#     4  11  22  37  60  89 116 152 198 247 296 350
#     4  11  21  37  61  88 126 157 188 248 306 350
#     4  11  22  37  61  96 126 155 191 239 304 368
#     4  10  21  39  62  84 120 155 195 246 292 341
#     4  10  22  36  56  88 119 152 198 238 295 360
#
# _framework density 23.405138999999998
#
# number of rings (size 3 to 8) (size 9 to 14) (size 15 to 20)
#    0.000    1.429    0.000    7.286    0.000   13.143 
#    0.000    0.000    0.000    5.143    0.000    0.000 
#    0.000    0.000    0.000    0.000    0.000    0.000 
#
# Total GULP energy -78428.046082 kJ/mol
# GULP energy per Si atom -5602.003292 kJ/mol
# Density = 2.335187 g / cm^3
# Si number density = 23.405139 Si / 1000 Ang^3
#
#
#
# Elastic Constant Matrix: (Units=GPa)
#
#
# Indices 1 2 3 4 5 6 
#
# 1 80.9586 20.9447 26.8682 -11.8453 4.0163 -12.0808
# 2 20.9447 68.9518 32.7008 -6.4127 -1.4677 -18.5972
# 3 26.8682 32.7008 78.1389 -0.2382 18.1390 -19.5132
# 4 -11.8453 -6.4127 -0.2382 28.0522 -5.0827 17.2438
# 5 4.0163 -1.4677 18.1390 -5.0827 39.0039 -1.8512
# 6 -12.0808 -18.5972 -19.5132 17.2438 -1.8512 42.9604
#
#
#
# Elastic Compliance Matrix: (Units=1/GPa)
#
#
# Indices 1 2 3 4 5 6 
#
# 1 0.015335 -0.001911 -0.005301 0.007426 0.001695 -0.001830
# 2 -0.001911 0.020277 -0.008061 0.002322 0.005195 0.003871
# 3 -0.005301 -0.008061 0.023112 -0.012044 -0.011608 0.009852
# 4 0.007426 0.002322 -0.012044 0.056274 0.011095 -0.024487
# 5 0.001695 0.005195 -0.011608 0.011095 0.032237 -0.005611
# 6 -0.001830 0.003871 0.009852 -0.024487 -0.005611 0.038500
#
#
# Mechanical properties :
#
#
# Convention : Reuss Voigt Hill
#
# Bulk Modulus (GPa) = 35.48885 43.23074 39.35979
# Shear Modulus (GPa) = 22.15584 31.83900 26.99742
#
# Velocity S-wave (km/s) = 3.08006 3.69228 3.39998
# Velocity P-wave (km/s) = 5.27682 6.05706 5.68035
#
# Compressibility (1/GPa) = 0.02817786
#
# Stress axis : x y z
#
# Youngs Moduli (GPa) = 65.21040 49.31749 43.26745
#
# Poissons Ratio (x) = 0.09424 0.22937
# Poissons Ratio (y) = 0.12462 0.34877
# Poissons Ratio (z) = 0.34569 0.39754
#
# Static dielectric constant tensor:
#      x y z
#    x 1.887140 0.000930 0.028490 
#    y 0.000930 1.888590 -0.000160 
#    z 0.028490 -0.000160 1.907870 
# 
# From -- ./inp_files/368402.got.cif
#   From: 2010.05.17/outbox.cif.g08.bks.cpg/sg2_185_cif.got.tgz:368402.got - 2010.06.03 11:33:40.
