data_PCOD9007363
_publ_section_title
;
Structure prediction by ZEFSAII (Michael W. Deem and Ramdas Pophale) SiO2 
 PCOD9007363
Probable space group: P -1
;
_chemical_formula_sum "Si O2"
_cell_formula_units_Z 14
_cell_length_a 15.352645
_cell_length_b 5.377565
_cell_length_c 8.000147
_cell_angle_alpha 108.559144
_cell_angle_beta 63.339351
_cell_angle_gamma 117.448865
_cell_volume 518.618518
_symmetry_space_group_name_H-M "P -1"
_symmetry_group_IT_number 2
_symmetry_cell_setting 'triclinic'
loop_
_space_group_symop_operation_xyz
x,y,z
-x,-y,-z
loop_
_atom_site_type_symbol
_atom_site_label
_atom_site_fract_x
_atom_site_fract_y
_atom_site_fract_z
Si Si1 0.892389 0.616030 0.296994
Si Si2 0.082067 0.913280 0.018961
Si Si3 0.571369 0.233666 0.613142
Si Si4 0.308645 0.132415 0.386978
Si Si5 0.411320 0.035138 0.966947
Si Si6 0.875931 0.387115 0.602005
Si Si7 0.229420 0.456033 0.952390
O O1 0.846805 0.551787 0.507937
O O2 0.013325 0.839631 0.232026
O O3 0.909656 0.338998 0.149897
O O4 0.817700 0.628563 0.210916
O O5 0.200608 0.139776 0.981993
O O6 0.000000 0.000000 0.000000
O O7 0.635997 0.538918 0.543615
O O8 0.479996 0.253274 0.817744
O O9 0.500000 0.000000 0.500000
O O10 0.640928 0.075277 0.609755
O O11 0.184522 0.944197 0.461099
O O12 0.340252 0.142189 0.167453
O O13 0.500000 0.000000 0.000000
O O14 0.338668 0.717514 0.902938
O O15 0.837782 0.445186 0.829739
O O16 0.000000 0.500000 0.500000
#
# Coordination Sequence:
#
# PCOD9007363 Si02
#       7
#     2   2   2   2   2   2   2
#     4  10  21  39  61  89 128 168 221 273 331 397
#     4   9  18  37  60  86 125 165 215 272 322 396
#     4  11  23  44  73 102 134 176 230 292 349 408
#     4  10  24  46  66 101 140 176 231 283 344 424
#     4   9  21  44  66  94 132 173 223 280 349 407
#     4  11  23  43  64  98 136 178 227 275 344 411
#     4  10  22  42  63  94 127 173 224 270 339 403
#
# _framework density 26.994792
#
# number of rings (size 3 to 8) (size 9 to 14) (size 15 to 20)
#    0.000    2.000    0.000    3.429    2.000    1.714 
#   33.429    0.000    0.000    0.000    0.000    0.000 
#    0.000    0.000    0.000    0.000    0.000    0.000 
#
# Total GULP energy -78152.510140 kJ/mol
# GULP energy per Si atom -5582.322153 kJ/mol
# Density = 2.693335 g / cm^3
# Si number density = 26.994792 Si / 1000 Ang^3
#
#
#
# Elastic Constant Matrix: (Units=GPa)
#
#
# Indices 1 2 3 4 5 6 
#
# 1 71.0061 43.3108 26.8792 -17.3572 5.1187 28.0082
# 2 43.3108 192.9365 24.6139 -24.1195 -9.4630 40.6797
# 3 26.8792 24.6139 128.5164 -13.4931 2.0594 17.3156
# 4 -17.3572 -24.1195 -13.4931 48.4678 12.3737 -4.0789
# 5 5.1187 -9.4630 2.0594 12.3737 33.1750 -3.5376
# 6 28.0082 40.6797 17.3156 -4.0789 -3.5376 45.4314
#
#
#
# Elastic Compliance Matrix: (Units=1/GPa)
#
#
# Indices 1 2 3 4 5 6 
#
# 1 0.023124 -0.001876 -0.001930 0.007910 -0.008189 -0.011768
# 2 -0.001876 0.006927 -0.000090 0.002100 0.000982 -0.004747
# 3 -0.001930 -0.000090 0.008675 0.001807 -0.001150 -0.001963
# 4 0.007910 0.002100 0.001807 0.027483 -0.011611 -0.005883
# 5 -0.008189 0.000982 -0.001150 -0.011611 0.036774 0.006429
# 6 -0.011768 -0.004747 -0.001963 -0.005883 0.006429 0.034237
#
#
# Mechanical properties :
#
#
# Convention : Reuss Voigt Hill
#
# Bulk Modulus (GPa) = 32.32724 64.67410 48.50067
# Shear Modulus (GPa) = 32.19098 45.25853 38.72475
#
# Velocity S-wave (km/s) = 3.45699 4.09903 3.79162
# Velocity P-wave (km/s) = 5.28543 6.81269 6.09707
#
# Compressibility (1/GPa) = 0.03093367
#
# Stress axis : x y z
#
# Youngs Moduli (GPa) = 43.24529 144.35756 115.27824
#
# Poissons Ratio (x) = 0.27086 0.22246
# Poissons Ratio (y) = 0.08114 0.01037
# Poissons Ratio (z) = 0.08345 0.01299
#
# Static dielectric constant tensor:
#      x y z
#    x 2.313330 -0.137920 0.034290 
#    y -0.137920 2.234500 -0.039020 
#    z 0.034290 -0.039020 2.268400 
# 
# From -- ./inp_files/322741.got.cif
#   From: 2010.05.17/outbox.cif.g08.bks.cpg/sg2_162_cif.got.tgz:322741.got - 2010.06.03 11:33:40.
