data_PCOD9007519
_publ_section_title
;
Structure prediction by ZEFSAII (Michael W. Deem and Ramdas Pophale) SiO2 
 PCOD9007519
Probable space group: P -1
;
_chemical_formula_sum "Si O2"
_cell_formula_units_Z 12
_cell_length_a 16.855863
_cell_length_b 12.611185
_cell_length_c 5.413834
_cell_angle_alpha 119.710955
_cell_angle_beta 112.365454
_cell_angle_gamma 28.993109
_cell_volume 480.626635
_symmetry_space_group_name_H-M "P -1"
_symmetry_group_IT_number 2
_symmetry_cell_setting 'triclinic'
loop_
_space_group_symop_operation_xyz
x,y,z
-x,-y,-z
loop_
_atom_site_type_symbol
_atom_site_label
_atom_site_fract_x
_atom_site_fract_y
_atom_site_fract_z
Si Si1 0.069700 0.169217 0.244450
Si Si2 0.306386 0.088469 0.304292
Si Si3 0.657494 0.290292 0.710145
Si Si4 0.019238 0.122620 0.637290
Si Si5 0.464354 0.341316 0.256575
Si Si6 0.600405 0.793460 0.688975
O O1 0.151311 0.204629 0.368838
O O2 0.234394 0.882141 0.130468
O O3 0.974465 0.241423 0.460680
O O4 0.974404 0.249661 0.977313
O O5 0.460574 0.913573 0.473193
O O6 0.279177 0.259802 0.373281
O O7 0.378322 0.921981 0.969235
O O8 0.782490 0.109466 0.426397
O O9 0.509014 0.381691 0.573662
O O10 0.610140 0.487595 0.853730
O O11 0.000000 0.000000 0.500000
O O12 0.344428 0.387397 0.287350
O O13 0.500000 0.000000 0.000000
#
# Coordination Sequence:
#
# PCOD9007519 Si02
#       6
#     2   2   2   2   2   2
#     4  10  19  33  50  75  98 132 167 203 254 294
#     4  10  17  29  46  70 102 135 167 203 240 295
#     4   9  20  28  51  73 105 134 162 201 253 303
#     4  10  20  35  51  74 101 129 170 211 250 296
#     4  10  17  32  44  76 105 137 162 196 249 306
#     4   9  18  28  45  65 102 136 171 199 234 293
#
# _framework density 24.967406
#
# number of rings (size 3 to 8) (size 9 to 14) (size 15 to 20)
#    1.000    1.333    3.333    0.500    2.333    2.000 
#    0.000    0.000    0.000    0.000    0.000    2.333 
#    0.000    0.000    0.000    0.000    0.000    0.000 
#
# Total GULP energy -66901.312442 kJ/mol
# GULP energy per Si atom -5575.109370 kJ/mol
# Density = 2.491058 g / cm^3
# Si number density = 24.967406 Si / 1000 Ang^3
#
#
#
# Elastic Constant Matrix: (Units=GPa)
#
#
# Indices 1 2 3 4 5 6 
#
# 1 215.2594 28.8956 65.3760 -7.3287 -3.8348 39.5316
# 2 28.8956 52.7253 14.2825 -1.7935 -1.4952 26.9335
# 3 65.3760 14.2825 112.4074 -26.0406 -11.3284 7.4070
# 4 -7.3287 -1.7935 -26.0406 24.6217 5.7563 -4.4599
# 5 -3.8348 -1.4952 -11.3284 5.7563 36.1936 1.0773
# 6 39.5316 26.9335 7.4070 -4.4599 1.0773 46.0165
#
#
#
# Elastic Compliance Matrix: (Units=1/GPa)
#
#
# Indices 1 2 3 4 5 6 
#
# 1 0.006917 0.000234 -0.004544 -0.003787 0.000093 -0.005717
# 2 0.000234 0.028195 -0.003663 -0.005079 0.001346 -0.016638
# 3 -0.004544 -0.003663 0.015344 0.015139 0.001613 0.005007
# 4 -0.003787 -0.005079 0.015139 0.058121 -0.005401 0.009549
# 5 0.000093 0.001346 0.001613 -0.005401 0.029128 -0.002333
# 6 -0.005717 -0.016638 0.005007 0.009549 -0.002333 0.036555
#
#
# Mechanical properties :
#
#
# Convention : Reuss Voigt Hill
#
# Bulk Modulus (GPa) = 28.97739 66.38894 47.68316
# Shear Modulus (GPa) = 24.78832 39.48889 32.13861
#
# Velocity S-wave (km/s) = 3.15433 3.98127 3.59168
# Velocity P-wave (km/s) = 4.98976 6.91245 6.02825
#
# Compressibility (1/GPa) = 0.03450967
#
# Stress axis : x y z
#
# Youngs Moduli (GPa) = 144.57766 35.46783 65.17184
#
# Poissons Ratio (x) = -0.00831 0.29613
# Poissons Ratio (y) = -0.03389 0.23875
# Poissons Ratio (z) = 0.65693 0.12994
#
# Static dielectric constant tensor:
#      x y z
#    x 2.055070 0.009070 -0.024920 
#    y 0.009070 2.007370 0.008250 
#    z -0.024920 0.008250 1.979610 
# 
# From -- ./inp_files/61945.got.cif
#   From: 2010.05.17/outbox.cif.g08.bks.cpg/sg2_31_cif.got.tgz:61945.got - 2010.06.03 11:33:40.
