data_PCOD9007515
_publ_section_title
;
Structure prediction by ZEFSAII (Michael W. Deem and Ramdas Pophale) SiO2 
 PCOD9007515
Probable space group: P -1
;
_chemical_formula_sum "Si O2"
_cell_formula_units_Z 14
_cell_length_a 19.143329
_cell_length_b 22.019775
_cell_length_c 8.064849
_cell_angle_alpha 140.799762
_cell_angle_beta 47.138797
_cell_angle_gamma 161.256677
_cell_volume 665.925949
_symmetry_space_group_name_H-M "P -1"
_symmetry_group_IT_number 2
_symmetry_cell_setting 'triclinic'
loop_
_space_group_symop_operation_xyz
x,y,z
-x,-y,-z
loop_
_atom_site_type_symbol
_atom_site_label
_atom_site_fract_x
_atom_site_fract_y
_atom_site_fract_z
Si Si1 0.263350 0.032407 0.159309
Si Si2 0.663839 0.779730 0.237360
Si Si3 0.875820 0.595185 0.063199
Si Si4 0.773850 0.678076 0.881335
Si Si5 0.133499 0.879700 0.586765
Si Si6 0.519837 0.419329 0.392522
Si Si7 0.501983 0.113785 0.701648
O O1 0.032131 0.768243 0.022958
O O2 0.336073 0.142780 0.451542
O O3 0.294700 0.154268 0.246469
O O4 0.434233 0.111717 0.972215
O O5 0.411044 0.508215 0.071996
O O6 0.743140 0.909737 0.225837
O O7 0.831244 0.844017 0.146138
O O8 0.681588 0.497060 0.192530
O O9 0.016587 0.729097 0.292485
O O10 0.741890 0.372926 0.799134
O O11 0.649254 0.556995 0.647646
O O12 0.949647 0.752273 0.742897
O O13 0.309098 0.969004 0.576517
O O14 0.500000 0.500000 0.500000
O O15 0.500000 0.000000 0.500000
#
# Coordination Sequence:
#
# PCOD9007515 Si02
#       7
#     2   2   2   2   2   2   2
#     4   9  20  40  55  85 124 155 200 251 297 354
#     4   9  18  35  58  86 124 161 197 236 287 361
#     4   9  21  42  59  84 126 154 198 253 294 364
#     4   9  18  33  56  87 125 162 200 232 283 364
#     4  10  21  39  62  85 118 164 195 240 306 358
#     4   9  18  32  56  90 127 164 195 238 289 352
#     4  11  25  43  64  89 115 152 209 266 311 355
#
# _framework density 21.023358999999999
#
# number of rings (size 3 to 8) (size 9 to 14) (size 15 to 20)
#    0.000    2.571    0.000    1.286    4.000    2.857 
#    5.143    2.857    0.000    0.000    0.000    0.000 
#    0.000    0.000    0.000    0.000    0.000    0.000 
#
# Total GULP energy -78107.266362 kJ/mol
# GULP energy per Si atom -5579.090454 kJ/mol
# Density = 2.097551 g / cm^3
# Si number density = 21.023359 Si / 1000 Ang^3
#
#
#
# Elastic Constant Matrix: (Units=GPa)
#
#
# Indices 1 2 3 4 5 6 
#
# 1 104.8726 44.1513 49.8733 22.0499 -27.2807 4.8202
# 2 44.1513 105.6507 20.3710 17.2698 -20.9045 -25.1443
# 3 49.8733 20.3710 80.7320 11.6135 -20.2290 -1.5716
# 4 22.0499 17.2698 11.6135 28.6198 -6.8674 0.7491
# 5 -27.2807 -20.9045 -20.2290 -6.8674 47.5149 7.9035
# 6 4.8202 -25.1443 -1.5716 0.7491 7.9035 26.9973
#
#
#
# Elastic Compliance Matrix: (Units=1/GPa)
#
#
# Indices 1 2 3 4 5 6 
#
# 1 0.020123 -0.007761 -0.008440 -0.005650 0.005871 -0.012875
# 2 -0.007761 0.017676 0.001550 -0.005753 0.000146 0.018056
# 3 -0.008440 0.001550 0.018162 -0.001199 0.002862 0.003203
# 4 -0.005650 -0.005753 -0.001199 0.043649 0.001008 -0.005926
# 5 0.005871 0.000146 0.002862 0.001008 0.027304 -0.008767
# 6 -0.012875 0.018056 0.003203 -0.005926 -0.008767 0.059073
#
#
# Mechanical properties :
#
#
# Convention : Reuss Voigt Hill
#
# Bulk Modulus (GPa) = 37.51091 57.78294 47.64693
# Shear Modulus (GPa) = 22.30391 32.41704 27.36048
#
# Velocity S-wave (km/s) = 3.26070 3.93103 3.61145
# Velocity P-wave (km/s) = 5.66193 6.93893 6.33270
#
# Compressibility (1/GPa) = 0.02665891
#
# Stress axis : x y z
#
# Youngs Moduli (GPa) = 49.69324 56.57367 55.06152
#
# Poissons Ratio (x) = 0.43907 0.46472
# Poissons Ratio (y) = 0.38567 -0.08534
# Poissons Ratio (z) = 0.41941 -0.08768
#
# Static dielectric constant tensor:
#      x y z
#    x 1.768180 -0.003700 0.037610 
#    y -0.003700 1.804290 0.069110 
#    z 0.037610 0.069110 1.812040 
# 
# From -- ./inp_files/197652.got.cif
#   From: 2010.05.17/outbox.cif.g08.bks.cpg/sg2_99_cif.got.tgz:197652.got - 2010.06.03 11:33:40.
