data_PCOD9007544
_publ_section_title
;
Structure prediction by ZEFSAII (Michael W. Deem and Ramdas Pophale) SiO2 
 PCOD9007544
Probable space group: P -1
;
_chemical_formula_sum "Si O2"
_cell_formula_units_Z 14
_cell_length_a 8.772598
_cell_length_b 10.419829
_cell_length_c 8.614264
_cell_angle_alpha 77.978498
_cell_angle_beta 119.780147
_cell_angle_gamma 110.754252
_cell_volume 638.578052
_symmetry_space_group_name_H-M "P -1"
_symmetry_group_IT_number 2
_symmetry_cell_setting 'triclinic'
loop_
_space_group_symop_operation_xyz
x,y,z
-x,-y,-z
loop_
_atom_site_type_symbol
_atom_site_label
_atom_site_fract_x
_atom_site_fract_y
_atom_site_fract_z
Si Si1 0.186003 0.973159 0.343520
Si Si2 0.386777 0.827664 0.054286
Si Si3 0.528460 0.053879 0.275823
Si Si4 0.908799 0.437688 0.310049
Si Si5 0.982067 0.788115 0.777806
Si Si6 0.889403 0.720663 0.087384
Si Si7 0.480295 0.648904 0.965931
O O1 0.357204 0.053133 0.298046
O O2 0.045207 0.851275 0.205752
O O3 0.283047 0.909457 0.543687
O O4 0.090818 0.083569 0.335184
O O5 0.389653 0.673054 0.077393
O O6 0.188742 0.847473 0.935534
O O7 0.471028 0.880294 0.911944
O O8 0.490217 0.896596 0.239780
O O9 0.924430 0.576050 0.183896
O O10 0.689255 0.358683 0.236672
O O11 0.000000 0.500000 0.500000
O O12 0.000758 0.328204 0.306267
O O13 0.873497 0.723798 0.893038
O O14 0.695662 0.731044 0.049426
O O15 0.500000 0.500000 0.000000
#
# Coordination Sequence:
#
# PCOD9007544 Si02
#       7
#     2   2   2   2   2   2   2
#     4  11  24  39  63  97 125 162 212 260 305 365
#     4  10  21  39  62  87 126 170 203 246 318 373
#     4  10  23  40  59  89 133 162 200 260 313 363
#     4  10  24  45  64  92 124 162 211 263 308 369
#     4  11  23  41  64  93 125 166 209 251 316 372
#     4  11  22  41  66  90 127 168 207 250 313 376
#     4   9  21  39  61  85 122 162 205 248 307 369
#
# _framework density 21.923707
#
# number of rings (size 3 to 8) (size 9 to 14) (size 15 to 20)
#    0.000    1.714    1.429    1.714    8.000    2.857 
#    0.000    0.714    0.000    0.000    0.000    0.000 
#    0.000    0.000    0.000    0.000    0.000    0.000 
#
# Total GULP energy -77935.921992 kJ/mol
# GULP energy per Si atom -5566.851571 kJ/mol
# Density = 2.187381 g / cm^3
# Si number density = 21.923707 Si / 1000 Ang^3
#
#
#
# Elastic Constant Matrix: (Units=GPa)
#
#
# Indices 1 2 3 4 5 6 
#
# 1 77.7906 34.8382 36.4340 -1.4452 28.8730 -29.7194
# 2 34.8382 101.8313 49.5337 3.0268 14.7937 -36.0486
# 3 36.4340 49.5337 80.3628 23.5157 7.0336 -19.9945
# 4 -1.4452 3.0268 23.5157 46.2205 4.6517 0.7713
# 5 28.8730 14.7937 7.0336 4.6517 29.5960 -0.4405
# 6 -29.7194 -36.0486 -19.9945 0.7713 -0.4405 37.0333
#
#
#
# Elastic Compliance Matrix: (Units=1/GPa)
#
#
# Indices 1 2 3 4 5 6 
#
# 1 0.062242 0.020022 -0.027402 0.020390 -0.066627 0.053427
# 2 0.020022 0.027385 -0.018454 0.010708 -0.030039 0.032180
# 3 -0.027402 -0.018454 0.034195 -0.019783 0.030631 -0.020715
# 4 0.020390 0.010708 -0.019783 0.033967 -0.025657 0.015093
# 5 -0.066627 -0.030039 0.030631 -0.025657 0.109598 -0.064333
# 6 0.053427 0.032180 -0.020715 0.015093 -0.064333 0.088939
#
#
# Mechanical properties :
#
#
# Convention : Reuss Voigt Hill
#
# Bulk Modulus (GPa) = 13.85937 55.73295 34.79616
# Shear Modulus (GPa) = 11.57286 31.84855 21.71070
#
# Velocity S-wave (km/s) = 2.30003 3.81556 3.15029
# Velocity P-wave (km/s) = 3.65908 6.69984 5.39800
#
# Compressibility (1/GPa) = 0.07215334
#
# Stress axis : x y z
#
# Youngs Moduli (GPa) = 16.06635 36.51688 29.24363
#
# Poissons Ratio (x) = -0.73113 0.80133
# Poissons Ratio (y) = -0.32167 0.53967
# Poissons Ratio (z) = 0.44025 0.67389
#
# Static dielectric constant tensor:
#      x y z
#    x -0.904430 8.657130 -0.507650 
#    y 8.657130 -24.988130 1.530250 
#    z -0.507650 1.530250 1.709960 
# 
# From -- ./inp_files/178406.got.cif
#   From: 2010.05.17/outbox.cif.g08.bks.cpg/sg2_90_cif.got.tgz:178406.got - 2010.06.03 11:33:40.
