data_PCOD9007898
_publ_section_title
;
Structure prediction by ZEFSAII (Michael W. Deem and Ramdas Pophale) SiO2 
 PCOD9007898
Probable space group: P -1
;
_chemical_formula_sum "Si O2"
_cell_formula_units_Z 12
_cell_length_a 9.235810
_cell_length_b 11.658728
_cell_length_c 15.181081
_cell_angle_alpha 152.704742
_cell_angle_beta 98.993345
_cell_angle_gamma 100.060059
_cell_volume 534.242130
_symmetry_space_group_name_H-M "P -1"
_symmetry_group_IT_number 2
_symmetry_cell_setting 'triclinic'
loop_
_space_group_symop_operation_xyz
x,y,z
-x,-y,-z
loop_
_atom_site_type_symbol
_atom_site_label
_atom_site_fract_x
_atom_site_fract_y
_atom_site_fract_z
Si Si1 0.884299 0.068612 0.773358
Si Si2 0.367300 0.091309 0.193578
Si Si3 0.667789 0.205306 0.733300
Si Si4 0.211453 0.199527 0.106198
Si Si5 0.938193 0.196949 0.349585
Si Si6 0.405904 0.952511 0.691139
O O1 0.738412 0.018435 0.651901
O O2 0.812639 0.094388 0.878318
O O3 0.881115 0.764676 0.572369
O O4 0.115966 0.419971 0.015577
O O5 0.500000 0.500000 0.500000
O O6 0.295678 0.049734 0.059480
O O7 0.490376 0.993787 0.168768
O O8 0.500000 0.000000 0.500000
O O9 0.565492 0.229726 0.822850
O O10 0.336214 0.598296 0.407176
O O11 0.181929 0.118921 0.946402
O O12 0.000000 0.000000 0.000000
O O13 0.790293 0.114308 0.355563
O O14 0.000000 0.500000 0.500000
#
# Coordination Sequence:
#
# PCOD9007898 Si02
#       6
#     2   2   2   2   2   2
#     4  10  21  39  63  90 124 167 208 256 314 366
#     4   9  18  36  59  87 123 159 202 253 308 368
#     4  10  22  41  66  86 119 173 218 255 305 368
#     4  11  19  35  62  86 122 168 200 243 316 376
#     4  12  22  36  63  96 127 160 200 257 320 374
#     4  10  22  38  58  90 124 157 210 264 303 366
#
# _framework density 22.461725999999999
#
# number of rings (size 3 to 8) (size 9 to 14) (size 15 to 20)
#    0.000    1.667    3.333    2.000    0.000    1.333 
#    0.000    2.500    0.000    0.000    0.000    0.000 
#    0.000    0.000    0.000    0.000    0.000    0.000 
#
# Total GULP energy -66991.088402 kJ/mol
# GULP energy per Si atom -5582.590700 kJ/mol
# Density = 2.241060 g / cm^3
# Si number density = 22.461726 Si / 1000 Ang^3
#
#
#
# Elastic Constant Matrix: (Units=GPa)
#
#
# Indices 1 2 3 4 5 6 
#
# 1 110.1067 37.6161 13.0760 -1.9085 5.2443 -19.9826
# 2 37.6161 102.5298 20.5277 -2.7154 10.6997 -12.9064
# 3 13.0760 20.5277 47.0789 3.5314 15.0876 1.5511
# 4 -1.9085 -2.7154 3.5314 34.8451 3.2610 19.1316
# 5 5.2443 10.6997 15.0876 3.2610 29.7459 4.3617
# 6 -19.9826 -12.9064 1.5511 19.1316 4.3617 52.1030
#
#
#
# Elastic Compliance Matrix: (Units=1/GPa)
#
#
# Indices 1 2 3 4 5 6 
#
# 1 0.011124 -0.003247 -0.001542 -0.001745 -0.000434 0.004185
# 2 -0.003247 0.012189 -0.003791 0.000282 -0.002209 0.001968
# 3 -0.001542 -0.003791 0.027288 -0.001618 -0.011918 -0.000751
# 4 -0.001745 0.000282 -0.001618 0.036493 -0.000940 -0.013872
# 5 -0.000434 -0.002209 -0.011918 -0.000940 0.041144 -0.003458
# 6 0.004185 0.001968 -0.000751 -0.013872 -0.003458 0.026691
#
#
# Mechanical properties :
#
#
# Convention : Reuss Voigt Hill
#
# Bulk Modulus (GPa) = 29.90337 44.68388 37.29362
# Shear Modulus (GPa) = 27.28713 35.90517 31.59615
#
# Velocity S-wave (km/s) = 3.48922 4.00247 3.75462
# Velocity P-wave (km/s) = 5.43827 6.42621 5.95277
#
# Compressibility (1/GPa) = 0.03344105
#
# Stress axis : x y z
#
# Youngs Moduli (GPa) = 89.89295 82.03981 36.64645
#
# Poissons Ratio (x) = 0.26636 0.05652
# Poissons Ratio (y) = 0.29185 0.13894
# Poissons Ratio (z) = 0.13863 0.31104
#
# Static dielectric constant tensor:
#      x y z
#    x 1.873780 -0.062790 0.027280 
#    y -0.062790 1.879520 -0.023990 
#    z 0.027280 -0.023990 1.941480 
# 
# From -- ./inp_files/167302.got.cif
#   From: 2010.05.17/outbox.cif.g08.bks.cpg/sg2_84_cif.got.tgz:167302.got - 2010.06.03 11:33:40.
