data_PCOD9007762
_publ_section_title
;
Structure prediction by ZEFSAII (Michael W. Deem and Ramdas Pophale) SiO2 
 PCOD9007762
Probable space group: P -1
;
_chemical_formula_sum "Si O2"
_cell_formula_units_Z 13
_cell_length_a 13.366493
_cell_length_b 7.769551
_cell_length_c 11.724557
_cell_angle_alpha 91.961016
_cell_angle_beta 31.443011
_cell_angle_gamma 75.342980
_cell_volume 533.737921
_symmetry_space_group_name_H-M "P -1"
_symmetry_group_IT_number 2
_symmetry_cell_setting 'triclinic'
loop_
_space_group_symop_operation_xyz
x,y,z
-x,-y,-z
loop_
_atom_site_type_symbol
_atom_site_label
_atom_site_fract_x
_atom_site_fract_y
_atom_site_fract_z
Si Si1 0.661000 0.875800 0.448918
Si Si2 0.102240 0.757647 0.897513
Si Si3 0.000000 0.000000 0.500000
Si Si4 0.566194 0.361769 0.042779
Si Si5 0.340771 0.915530 0.308869
Si Si6 0.446494 0.459926 0.397689
Si Si7 0.232433 0.279178 0.270197
O O1 0.666935 0.004530 0.554709
O O2 0.584542 0.729722 0.567105
O O3 0.500000 0.000000 0.500000
O O4 0.907623 0.742897 0.147256
O O5 0.204781 0.658380 0.672945
O O6 0.331880 0.617063 0.742400
O O7 0.000000 0.000000 0.000000
O O8 0.173578 0.841980 0.437151
O O9 0.814548 0.167233 0.781591
O O10 0.529995 0.483349 0.195029
O O11 0.389944 0.289072 0.212742
O O12 0.500000 0.500000 0.000000
O O13 0.203627 0.097595 0.340533
O O14 0.600553 0.796006 0.004351
O O15 0.000000 0.500000 0.500000
#
# Coordination Sequence:
#
# PCOD9007762 Si02
#       7
#     2   2   1   2   2   2   2
#     4  12  24  46  72 106 143 194 240 291 359 422
#     4  11  25  46  72 102 140 190 243 293 357 419
#     4  10  22  42  68  98 138 178 226 290 348 416
#     4  11  23  41  66 100 132 177 228 284 360 415
#     4  10  22  41  65  96 136 174 229 286 342 419
#     4  11  25  47  71 101 145 185 240 300 349 429
#     4  10  21  39  62  95 130 173 224 276 352 409
#
# _framework density 24.356524
#
# number of rings (size 3 to 8) (size 9 to 14) (size 15 to 20)
#    0.000    1.231    3.077    2.308    0.000    4.923 
#    2.769    0.000    0.000    0.000    0.000    0.000 
#    0.000    0.000    0.000    0.000    0.000    0.000 
#
# Total GULP energy -72380.060960 kJ/mol
# GULP energy per Si atom -5567.696997 kJ/mol
# Density = 2.430109 g / cm^3
# Si number density = 24.356524 Si / 1000 Ang^3
#
#
#
# Elastic Constant Matrix: (Units=GPa)
#
#
# Indices 1 2 3 4 5 6 
#
# 1 113.7302 7.7590 80.2740 2.9414 19.7928 -13.5966
# 2 7.7590 58.0054 20.8644 4.2474 4.2350 -24.7417
# 3 80.2740 20.8644 237.2756 26.4400 -2.7392 -24.0058
# 4 2.9414 4.2474 26.4400 47.4405 4.0229 -2.4478
# 5 19.7928 4.2350 -2.7392 4.0229 52.3539 -6.7675
# 6 -13.5966 -24.7417 -24.0058 -2.4478 -6.7675 30.0814
#
#
#
# Elastic Compliance Matrix: (Units=1/GPa)
#
#
# Indices 1 2 3 4 5 6 
#
# 1 0.013063 0.001011 -0.004604 0.002210 -0.005162 0.002081
# 2 0.001011 0.026741 -0.000313 -0.001171 0.000397 0.022196
# 3 -0.004604 -0.000313 0.006537 -0.003400 0.002786 0.003229
# 4 0.002210 -0.001171 -0.003400 0.023111 -0.002881 -0.001445
# 5 -0.005162 0.000397 0.002786 -0.002881 0.022026 0.004938
# 6 0.002081 0.022196 0.003229 -0.001445 0.004938 0.056010
#
#
# Mechanical properties :
#
#
# Convention : Reuss Voigt Hill
#
# Bulk Modulus (GPa) = 25.95333 69.64511 47.79922
# Shear Modulus (GPa) = 29.73657 45.98273 37.85965
#
# Velocity S-wave (km/s) = 3.49791 4.34971 3.94686
# Velocity P-wave (km/s) = 5.19544 7.34049 6.35906
#
# Compressibility (1/GPa) = 0.03853070
#
# Stress axis : x y z
#
# Youngs Moduli (GPa) = 76.55077 37.39541 152.97003
#
# Poissons Ratio (x) = -0.03781 0.70424
# Poissons Ratio (y) = -0.07740 0.04785
# Poissons Ratio (z) = 0.35242 0.01170
#
# Static dielectric constant tensor:
#      x y z
#    x 3.134710 1.298260 -0.451800 
#    y 1.298260 3.888280 -0.621660 
#    z -0.451800 -0.621660 2.269010 
# 
# From -- ./inp_files/305250.got.cif
#   From: 2010.05.17/outbox.cif.g08.bks.cpg/sg2_153_cif.got.tgz:305250.got - 2010.06.03 11:33:40.
