data_PCOD9007606
_publ_section_title
;
Structure prediction by ZEFSAII (Michael W. Deem and Ramdas Pophale) SiO2 
 PCOD9007606
Probable space group: P -1
;
_chemical_formula_sum "Si O2"
_cell_formula_units_Z 10
_cell_length_a 8.459044
_cell_length_b 8.805156
_cell_length_c 11.410487
_cell_angle_alpha 61.780639
_cell_angle_beta 40.177962
_cell_angle_gamma 81.716926
_cell_volume 446.487584
_symmetry_space_group_name_H-M "P -1"
_symmetry_group_IT_number 2
_symmetry_cell_setting 'triclinic'
loop_
_space_group_symop_operation_xyz
x,y,z
-x,-y,-z
loop_
_atom_site_type_symbol
_atom_site_label
_atom_site_fract_x
_atom_site_fract_y
_atom_site_fract_z
Si Si1 0.311705 0.569998 0.502290
Si Si2 0.054621 0.817909 0.573691
Si Si3 0.115050 0.635098 0.997713
Si Si4 0.701060 0.663205 0.618457
Si Si5 0.183856 0.958029 0.698584
O O1 0.500000 0.500000 0.500000
O O2 0.329672 0.783081 0.418645
O O3 0.334194 0.511249 0.379174
O O4 0.035635 0.459375 0.766163
O O5 0.031615 0.827159 0.723236
O O6 0.869532 0.676563 0.634022
O O7 0.000000 0.000000 0.500000
O O8 0.422233 0.666963 0.815849
O O9 0.083118 0.829780 0.916082
O O10 0.000000 0.500000 0.000000
O O11 0.831698 0.843374 0.392290
O O12 0.500000 0.000000 0.500000
#
# Coordination Sequence:
#
# PCOD9007606 Si02
#       5
#     2   2   2   2   2
#     4  12  22  38  65  92 120 162 210 251 295 365
#     4  10  21  39  62  89 126 164 196 251 316 356
#     4  11  20  38  63  90 123 164 204 248 303 364
#     4  10  22  38  61  90 125 159 202 254 303 359
#     4   9  18  38  61  85 119 161 198 242 302 360
#
# _framework density 22.397038999999999
#
# number of rings (size 3 to 8) (size 9 to 14) (size 15 to 20)
#    0.000    1.600    4.000    1.800    0.000    1.600 
#    0.000    0.000    0.000   18.000    0.000    0.000 
#    0.000    0.000    0.000    0.000    0.000    0.000 
#
# Total GULP energy -55677.840245 kJ/mol
# GULP energy per Si atom -5567.784025 kJ/mol
# Density = 2.234606 g / cm^3
# Si number density = 22.397039 Si / 1000 Ang^3
#
#
#
# Elastic Constant Matrix: (Units=GPa)
#
#
# Indices 1 2 3 4 5 6 
#
# 1 134.9532 30.0001 18.5448 -1.9753 11.0201 -14.6187
# 2 30.0001 102.5467 6.0104 7.6819 5.8995 -26.7828
# 3 18.5448 6.0104 52.4095 -0.5506 16.4924 -13.9312
# 4 -1.9753 7.6819 -0.5506 24.4453 -4.5952 9.5096
# 5 11.0201 5.8995 16.4924 -4.5952 21.0052 -5.4792
# 6 -14.6187 -26.7828 -13.9312 9.5096 -5.4792 46.8946
#
#
#
# Elastic Compliance Matrix: (Units=1/GPa)
#
#
# Indices 1 2 3 4 5 6 
#
# 1 0.008381 -0.002183 -0.001994 0.000804 -0.001943 0.000383
# 2 -0.002183 0.013535 0.002999 -0.008791 -0.004536 0.009193
# 3 -0.001994 0.002999 0.028450 -0.007876 -0.021610 0.008615
# 4 0.000804 -0.008791 -0.007876 0.052704 0.015594 -0.015976
# 5 -0.001943 -0.004536 -0.021610 0.015594 0.069050 -0.004710
# 6 0.000383 0.009193 0.008615 -0.015976 -0.004710 0.031943
#
#
# Mechanical properties :
#
#
# Convention : Reuss Voigt Hill
#
# Bulk Modulus (GPa) = 20.82885 44.33554 32.58219
# Shear Modulus (GPa) = 22.47969 34.15929 28.31949
#
# Velocity S-wave (km/s) = 3.17154 3.90958 3.55974
# Velocity P-wave (km/s) = 4.76777 6.34177 5.61024
#
# Compressibility (1/GPa) = 0.04801034
#
# Stress axis : x y z
#
# Youngs Moduli (GPa) = 119.31412 73.88098 35.14999
#
# Poissons Ratio (x) = 0.16131 0.07007
# Poissons Ratio (y) = 0.26051 -0.10542
# Poissons Ratio (z) = 0.23786 -0.22158
#
# Static dielectric constant tensor:
#      x y z
#    x 1.843710 -0.063210 -0.020080 
#    y -0.063210 1.978780 -0.086210 
#    z -0.020080 -0.086210 1.909670 
# 
# From -- ./inp_files/17449.got.cif
#   From: 2010.05.17/outbox.cif.g08.bks.cpg/sg2_9_cif.got.tgz:17449.got - 2010.06.03 11:33:40.
