data_PCOD9007338
_publ_section_title
;
Structure prediction by ZEFSAII (Michael W. Deem and Ramdas Pophale) SiO2 
 PCOD9007338
Probable space group: P -1
;
_chemical_formula_sum "Si O2"
_cell_formula_units_Z 14
_cell_length_a 18.573831
_cell_length_b 5.452059
_cell_length_c 8.312767
_cell_angle_alpha 51.308496
_cell_angle_beta 121.475082
_cell_angle_gamma 106.659241
_cell_volume 559.371734
_symmetry_space_group_name_H-M "P -1"
_symmetry_group_IT_number 2
_symmetry_cell_setting 'triclinic'
loop_
_space_group_symop_operation_xyz
x,y,z
-x,-y,-z
loop_
_atom_site_type_symbol
_atom_site_label
_atom_site_fract_x
_atom_site_fract_y
_atom_site_fract_z
Si Si1 0.812060 0.989297 0.832556
Si Si2 0.329268 0.281142 0.043262
Si Si3 0.509564 0.633499 0.633933
Si Si4 0.408803 0.171252 0.858709
Si Si5 0.951813 0.331261 0.754496
Si Si6 0.240167 0.934077 0.616493
Si Si7 0.092412 0.661865 0.679494
O O1 0.724515 0.977069 0.828877
O O2 0.865144 0.302848 0.765460
O O3 0.794423 0.933771 0.646545
O O4 0.864441 0.685160 0.090887
O O5 0.393515 0.450670 0.165046
O O6 0.386173 0.131142 0.032094
O O7 0.269873 0.563574 0.781336
O O8 0.500000 0.500000 0.500000
O O9 0.435211 0.517802 0.707287
O O10 0.500000 0.000000 0.500000
O O11 0.325076 0.094961 0.696849
O O12 0.500000 0.000000 0.000000
O O13 0.932905 0.314301 0.548125
O O14 0.009206 0.634853 0.707211
O O15 0.000000 0.000000 0.000000
O O16 0.165609 0.911791 0.673869
#
# Coordination Sequence:
#
# PCOD9007338 Si02
#       7
#     2   2   2   2   2   2   2
#     4   9  18  33  56  88 124 165 212 271 333 407
#     4  11  24  40  63  89 127 167 222 279 342 408
#     4  12  27  44  70  99 131 178 233 292 356 423
#     4  12  25  44  64  89 128 175 226 289 351 411
#     4   8  13  26  53  90 127 162 208 261 331 405
#     4  10  21  39  61  88 125 168 219 273 337 407
#     4   8  15  29  54  90 125 163 211 267 326 405
#
# _framework density 25.028078000000001
#
# number of rings (size 3 to 8) (size 9 to 14) (size 15 to 20)
#    0.000    2.000    1.429    2.143    4.000    0.000 
#    0.000    0.000    0.000    0.857    0.000   90.000 
#    0.000    0.000    0.000    0.000    0.000    0.143 
#
# Total GULP energy -78148.205535 kJ/mol
# GULP energy per Si atom -5582.014681 kJ/mol
# Density = 2.497111 g / cm^3
# Si number density = 25.028078 Si / 1000 Ang^3
#
#
#
# Elastic Constant Matrix: (Units=GPa)
#
#
# Indices 1 2 3 4 5 6 
#
# 1 218.7511 70.7612 32.3323 -5.3716 -43.0116 67.2720
# 2 70.7612 81.7001 33.6402 -11.5046 -12.2163 31.9918
# 3 32.3323 33.6402 152.9656 6.8666 -8.5673 11.9734
# 4 -5.3716 -11.5046 6.8666 28.8051 12.4256 -12.7772
# 5 -43.0116 -12.2163 -8.5673 12.4256 40.0186 -11.9166
# 6 67.2720 31.9918 11.9734 -12.7772 -11.9166 59.4969
#
#
#
# Elastic Compliance Matrix: (Units=1/GPa)
#
#
# Indices 1 2 3 4 5 6 
#
# 1 0.011052 -0.005940 0.000679 -0.009025 0.010235 -0.009327
# 2 -0.005940 0.020473 -0.003683 0.008704 -0.004388 -0.002561
# 3 0.000679 -0.003683 0.007607 -0.004557 0.002406 -0.000815
# 4 -0.009025 0.008704 -0.004557 0.052366 -0.020217 0.013638
# 5 0.010235 -0.004388 0.002406 -0.020217 0.039625 -0.006103
# 6 -0.009327 -0.002561 -0.000815 0.013638 -0.006103 0.030601
#
#
# Mechanical properties :
#
#
# Convention : Reuss Voigt Hill
#
# Bulk Modulus (GPa) = 47.07219 80.76492 63.91855
# Shear Modulus (GPa) = 26.78191 46.77634 36.77913
#
# Velocity S-wave (km/s) = 3.27475 4.32783 3.83758
# Velocity P-wave (km/s) = 5.75736 7.57055 6.72534
#
# Compressibility (1/GPa) = 0.02124397
#
# Stress axis : x y z
#
# Youngs Moduli (GPa) = 90.48488 48.84434 131.45763
#
# Poissons Ratio (x) = 0.29012 -0.08923
# Poissons Ratio (y) = 0.53745 0.48416
# Poissons Ratio (z) = -0.06142 0.17989
#
# Static dielectric constant tensor:
#      x y z
#    x 2.190050 0.099160 0.095740 
#    y 0.099160 2.055070 -0.021960 
#    z 0.095740 -0.021960 2.117180 
# 
# From -- ./inp_files/122333.got.cif
#   From: 2010.05.17/outbox.cif.g08.bks.cpg/sg2_62_cif.got.tgz:122333.got - 2010.06.03 11:33:40.
