data_PCOD9007471
_publ_section_title
;
Structure prediction by ZEFSAII (Michael W. Deem and Ramdas Pophale) SiO2 
 PCOD9007471
Probable space group: P -1
;
_chemical_formula_sum "Si O2"
_cell_formula_units_Z 15
_cell_length_a 11.981839
_cell_length_b 5.234497
_cell_length_c 12.011690
_cell_angle_alpha 77.036772
_cell_angle_beta 125.955078
_cell_angle_gamma 103.398334
_cell_volume 589.491049
_symmetry_space_group_name_H-M "P -1"
_symmetry_group_IT_number 2
_symmetry_cell_setting 'triclinic'
loop_
_space_group_symop_operation_xyz
x,y,z
-x,-y,-z
loop_
_atom_site_type_symbol
_atom_site_label
_atom_site_fract_x
_atom_site_fract_y
_atom_site_fract_z
Si Si1 0.321495 0.471185 0.515344
Si Si2 0.092825 0.106824 0.940225
Si Si3 0.426620 0.788163 0.743928
Si Si4 0.129067 0.835237 0.583932
Si Si5 0.274661 0.649110 0.053759
Si Si6 0.963224 0.467784 0.664509
Si Si7 0.584758 0.197500 0.654048
Si Si8 0.500000 0.000000 0.000000
O O1 0.358742 0.531602 0.661101
O O2 0.163250 0.364955 0.399882
O O3 0.435650 0.303463 0.551953
O O4 0.346462 0.746549 0.430934
O O5 0.992942 0.240832 0.786021
O O6 0.207228 0.355693 0.011922
O O7 0.163262 0.861033 0.958044
O O8 0.000000 0.000000 0.000000
O O9 0.290409 0.948340 0.663390
O O10 0.544558 0.914030 0.715127
O O11 0.484495 0.800536 0.900157
O O12 0.096264 0.669975 0.469718
O O13 0.105250 0.645317 0.696196
O O14 0.000000 0.000000 0.500000
O O15 0.320252 0.649221 0.210131
O O16 0.404740 0.773966 0.043790
#
# Coordination Sequence:
#
# PCOD9007471 Si02
#       8
#     2   2   2   2   2   2   2   1
#     4  10  21  41  64  96 130 178 230 297 357 425
#     4  12  27  49  74 107 150 199 252 307 368 450
#     4  10  21  39  61  95 129 175 224 288 358 424
#     4  10  21  39  64  96 134 178 234 298 358 434
#     4  11  27  48  73 109 146 200 248 304 376 441
#     4  10  23  40  66  99 134 185 236 299 363 430
#     4  10  22  41  66  97 132 177 236 294 355 431
#     4  10  24  44  70 104 142 190 238 306 358 456
#
# _framework density 25.445678000000001
#
# number of rings (size 3 to 8) (size 9 to 14) (size 15 to 20)
#    0.000    1.600    0.000    3.200    7.467    0.533 
#   16.800    0.000    0.000    0.000    0.000    0.000 
#    0.000    0.000    0.000    0.000    0.000    0.000 
#
# Total GULP energy -83546.944423 kJ/mol
# GULP energy per Si atom -5569.796295 kJ/mol
# Density = 2.538776 g / cm^3
# Si number density = 25.445678 Si / 1000 Ang^3
#
#
#
# Elastic Constant Matrix: (Units=GPa)
#
#
# Indices 1 2 3 4 5 6 
#
# 1 92.8172 31.6173 38.3769 -4.1977 -5.2090 21.6153
# 2 31.6173 88.6027 22.1832 -1.1525 -2.6068 12.4309
# 3 38.3769 22.1832 104.2862 -9.1790 -20.9706 7.5163
# 4 -4.1977 -1.1525 -9.1790 35.9251 -5.3943 2.7589
# 5 -5.2090 -2.6068 -20.9706 -5.3943 52.0435 -15.8270
# 6 21.6153 12.4309 7.5163 2.7589 -15.8270 37.1458
#
#
#
# Elastic Compliance Matrix: (Units=1/GPa)
#
#
# Indices 1 2 3 4 5 6 
#
# 1 0.015815 -0.003265 -0.005092 0.000620 -0.003143 -0.008464
# 2 -0.003265 0.013207 -0.001688 -0.000364 -0.001192 -0.002659
# 3 -0.005092 -0.001688 0.013094 0.003352 0.005998 0.003185
# 4 0.000620 -0.000364 0.003352 0.029464 0.004026 -0.001391
# 5 -0.003143 -0.001192 0.005998 0.004026 0.025151 0.011431
# 6 -0.008464 -0.002659 0.003185 -0.001391 0.011431 0.037066
#
#
# Mechanical properties :
#
#
# Convention : Reuss Voigt Hill
#
# Bulk Modulus (GPa) = 45.40367 52.22896 48.81631
# Shear Modulus (GPa) = 31.01188 37.92480 34.46834
#
# Velocity S-wave (km/s) = 3.49484 3.86479 3.68446
# Velocity P-wave (km/s) = 5.84529 6.36283 6.10954
#
# Compressibility (1/GPa) = 0.02202465
#
# Stress axis : x y z
#
# Youngs Moduli (GPa) = 63.23292 75.71546 76.37326
#
# Poissons Ratio (x) = 0.24723 0.38892
# Poissons Ratio (y) = 0.20647 0.12890
# Poissons Ratio (z) = 0.32201 0.12779
#
# Static dielectric constant tensor:
#      x y z
#    x 2.168950 -0.005430 0.067620 
#    y -0.005430 2.151380 -0.066220 
#    z 0.067620 -0.066220 2.033670 
# 
# From -- ./inp_files/409247.got.cif
#   From: 2010.05.17/outbox.cif.g08.bks.cpg/sg2_205_cif.got.tgz:409247.got - 2010.06.03 11:33:40.
