data_PCOD9007326
_publ_section_title
;
Structure prediction by ZEFSAII (Michael W. Deem and Ramdas Pophale) SiO2 
 PCOD9007326
Probable space group: P -1
;
_chemical_formula_sum "Si O2"
_cell_formula_units_Z 14
_cell_length_a 15.726241
_cell_length_b 12.812618
_cell_length_c 12.354470
_cell_angle_alpha 141.863894
_cell_angle_beta 45.672260
_cell_angle_gamma 153.734161
_cell_volume 680.095125
_symmetry_space_group_name_H-M "P -1"
_symmetry_group_IT_number 2
_symmetry_cell_setting 'triclinic'
loop_
_space_group_symop_operation_xyz
x,y,z
-x,-y,-z
loop_
_atom_site_type_symbol
_atom_site_label
_atom_site_fract_x
_atom_site_fract_y
_atom_site_fract_z
Si Si1 0.893670 0.926046 0.265929
Si Si2 0.072932 0.662089 0.458740
Si Si3 0.476501 0.974280 0.370027
Si Si4 0.567967 0.465065 0.014498
Si Si5 0.146444 0.612764 0.765279
Si Si6 0.767669 0.943685 0.850966
Si Si7 0.137395 0.005597 0.422029
O O1 0.763813 0.734368 0.122094
O O2 0.992727 0.216821 0.388896
O O3 0.781339 0.847786 0.414124
O O4 0.048153 0.957608 0.189581
O O5 0.300893 0.902710 0.444229
O O6 0.000000 0.500000 0.500000
O O7 0.980661 0.454344 0.274010
O O8 0.500000 0.000000 0.500000
O O9 0.660356 0.228668 0.340534
O O10 0.425177 0.723915 0.179988
O O11 0.405452 0.300342 0.116429
O O12 0.500000 0.500000 0.000000
O O13 0.008452 0.315085 0.693143
O O14 0.194738 0.815176 0.969144
O O15 0.727820 0.873108 0.701703
O O16 0.000000 0.000000 0.500000
#
# Coordination Sequence:
#
# PCOD9007326 Si02
#       7
#     2   2   2   2   2   2   2
#     4  10  23  40  60  90 122 158 203 251 303 354
#     4  11  22  35  59  85 119 163 199 240 300 358
#     4  11  22  38  58  84 122 160 198 243 296 360
#     4  11  25  38  60  92 124 161 200 248 305 360
#     4  10  21  39  61  88 119 158 200 251 301 356
#     4  10  22  41  63  89 121 160 205 252 301 355
#     4   9  20  39  65  89 117 161 203 250 303 354
#
# _framework density 20.585356000000001
#
# number of rings (size 3 to 8) (size 9 to 14) (size 15 to 20)
#    0.000    1.714    1.429    2.143    4.000    5.714 
#    0.000    4.286    0.000   15.429    0.000    0.000 
#    0.000    0.000    0.000    0.000    0.000    0.000 
#
# Total GULP energy -78072.707860 kJ/mol
# GULP energy per Si atom -5576.621990 kJ/mol
# Density = 2.053850 g / cm^3
# Si number density = 20.585356 Si / 1000 Ang^3
#
#
#
# Elastic Constant Matrix: (Units=GPa)
#
#
# Indices 1 2 3 4 5 6 
#
# 1 60.1053 8.4884 9.2366 -7.5778 2.3709 -9.6701
# 2 8.4884 60.0227 17.3965 -14.8442 -7.4402 -8.4581
# 3 9.2366 17.3965 79.0860 -12.0770 11.0725 -7.6439
# 4 -7.5778 -14.8442 -12.0770 27.5642 -1.0513 5.5735
# 5 2.3709 -7.4402 11.0725 -1.0513 33.6935 -2.2729
# 6 -9.6701 -8.4581 -7.6439 5.5735 -2.2729 39.9244
#
#
#
# Elastic Compliance Matrix: (Units=1/GPa)
#
#
# Indices 1 2 3 4 5 6 
#
# 1 0.017924 -0.001103 -0.000906 0.003208 -0.000875 0.003437
# 2 -0.001103 0.021392 -0.003823 0.009263 0.006523 0.002611
# 3 -0.000906 -0.003823 0.015055 0.003875 -0.005540 0.000997
# 4 0.003208 0.009263 0.003875 0.044445 0.001756 -0.002623
# 5 -0.000875 0.006523 -0.005540 0.001756 0.033175 0.001753
# 6 0.003437 0.002611 0.000997 -0.002623 0.001753 0.027090
#
#
# Mechanical properties :
#
#
# Convention : Reuss Voigt Hill
#
# Bulk Modulus (GPa) = 23.41559 29.93967 26.67763
# Shear Modulus (GPa) = 27.02994 31.17591 29.10293
#
# Velocity S-wave (km/s) = 3.62756 3.89584 3.76409
# Velocity P-wave (km/s) = 5.38007 5.90021 5.64613
#
# Compressibility (1/GPa) = 0.04270658
#
# Stress axis : x y z
#
# Youngs Moduli (GPa) = 55.78979 46.74723 66.42327
#
# Poissons Ratio (x) = 0.05156 0.06019
# Poissons Ratio (y) = 0.06153 0.25394
# Poissons Ratio (z) = 0.05056 0.17872
#
# Static dielectric constant tensor:
#      x y z
#    x 1.730310 0.003730 0.010570 
#    y 0.003730 1.742210 -0.008740 
#    z 0.010570 -0.008740 1.752630 
# 
# From -- ./inp_files/134999.got.cif
#   From: 2010.05.17/outbox.cif.g08.bks.cpg/sg2_68_cif.got.tgz:134999.got - 2010.06.03 11:33:40.
