data_PCOD9007172
_publ_section_title
;
Structure prediction by ZEFSAII (Michael W. Deem and Ramdas Pophale) SiO2 
 PCOD9007172
Probable space group: P -1
;
_chemical_formula_sum "Si O2"
_cell_formula_units_Z 16
_cell_length_a 18.147012
_cell_length_b 8.755690
_cell_length_c 6.145122
_cell_angle_alpha 93.853231
_cell_angle_beta 80.014102
_cell_angle_gamma 51.725595
_cell_volume 735.406121
_symmetry_space_group_name_H-M "P -1"
_symmetry_group_IT_number 2
_symmetry_cell_setting 'triclinic'
loop_
_space_group_symop_operation_xyz
x,y,z
-x,-y,-z
loop_
_atom_site_type_symbol
_atom_site_label
_atom_site_fract_x
_atom_site_fract_y
_atom_site_fract_z
Si Si1 0.825290 0.377741 0.859175
Si Si2 0.189007 0.911619 0.363621
Si Si3 0.148656 0.406935 0.820449
Si Si4 0.037400 0.071300 0.807590
Si Si5 0.467728 0.925581 0.695559
Si Si6 0.061418 0.294906 0.171750
Si Si7 0.646308 0.784889 0.831336
Si Si8 0.677277 0.018752 0.512724
O O1 0.751566 0.569573 0.765558
O O2 0.940282 0.229076 0.731343
O O3 0.793797 0.242305 0.838494
O O4 0.819654 0.464711 0.109353
O O5 0.127234 0.916652 0.591509
O O6 0.119677 0.133744 0.315155
O O7 0.283012 0.874737 0.404446
O O8 0.233223 0.189176 0.666990
O O9 0.054605 0.531730 0.722222
O O10 0.111414 0.382471 0.066472
O O11 0.066211 0.179854 0.945073
O O12 0.000000 0.000000 0.000000
O O13 0.565329 0.776631 0.772561
O O14 0.500000 0.000000 0.500000
O O15 0.411203 0.861409 0.602958
O O16 0.390925 0.116807 0.903697
O O17 0.647595 0.941197 0.712127
#
# Coordination Sequence:
#
# PCOD9007172 Si02
#       8
#     2   2   2   2   2   2   2   2
#     4  11  23  38  61  92 123 168 211 252 300 370
#     4  12  25  38  62  90 131 173 208 246 317 359
#     4  10  21  39  60  88 126 162 217 259 299 352
#     4  11  23  41  57  85 132 175 209 250 299 360
#     4   9  20  42  67  93 120 154 199 262 323 374
#     4  10  22  40  56  85 126 172 211 260 294 363
#     4  10  21  40  69  94 120 154 210 258 313 378
#     4  11  22  38  65  95 121 162 205 260 312 370
#
# _framework density 21.756685999999998
#
# number of rings (size 3 to 8) (size 9 to 14) (size 15 to 20)
#    0.000    1.500    3.750    1.125    1.750    1.500 
#    0.000    0.625    0.000    6.750    0.000    0.000 
#    0.000    0.000    0.000    0.000    0.000    0.000 
#
# Total GULP energy -89332.452637 kJ/mol
# GULP energy per Si atom -5583.278290 kJ/mol
# Density = 2.170717 g / cm^3
# Si number density = 21.756686 Si / 1000 Ang^3
#
#
#
# Elastic Constant Matrix: (Units=GPa)
#
#
# Indices 1 2 3 4 5 6 
#
# 1 155.0002 29.2337 38.3372 3.2747 31.9115 4.1974
# 2 29.2337 41.0410 9.9115 -8.7905 4.5569 7.0399
# 3 38.3372 9.9115 60.0187 -5.6866 -6.2459 6.4726
# 4 3.2747 -8.7905 -5.6866 26.0106 -0.1286 8.2404
# 5 31.9115 4.5569 -6.2459 -0.1286 33.9087 0.0141
# 6 4.1974 7.0399 6.4726 8.2404 0.0141 32.5885
#
#
#
# Elastic Compliance Matrix: (Units=1/GPa)
#
#
# Indices 1 2 3 4 5 6 
#
# 1 0.013005 -0.007824 -0.009502 -0.007639 -0.012968 0.003840
# 2 -0.007824 0.034487 0.002427 0.016720 0.003243 -0.011154
# 3 -0.009502 0.002427 0.025381 0.009793 0.013332 -0.006824
# 4 -0.007639 0.016720 0.009793 0.052923 0.006954 -0.017959
# 5 -0.012968 0.003243 0.013332 0.006954 0.043743 -0.003456
# 6 0.003840 -0.011154 -0.006824 -0.017959 -0.003456 0.038498
#
#
# Mechanical properties :
#
#
# Convention : Reuss Voigt Hill
#
# Bulk Modulus (GPa) = 23.21533 45.66942 34.44238
# Shear Modulus (GPa) = 19.82594 30.40672 25.11633
#
# Velocity S-wave (km/s) = 3.02198 3.74248 3.40136
# Velocity P-wave (km/s) = 4.78227 6.30170 5.59381
#
# Compressibility (1/GPa) = 0.04307498
#
# Stress axis : x y z
#
# Youngs Moduli (GPa) = 76.89494 28.99638 39.39879
#
# Poissons Ratio (x) = 0.22685 0.37438
# Poissons Ratio (y) = 0.60159 -0.09561
# Poissons Ratio (z) = 0.73068 -0.07036
#
# Static dielectric constant tensor:
#      x y z
#    x 1.866670 0.007390 0.014350 
#    y 0.007390 1.805580 -0.021650 
#    z 0.014350 -0.021650 1.823310 
# 
# From -- ./inp_files/105138.got.cif
#   From: 2010.05.17/outbox.cif.g08.bks.cpg/sg2_53_cif.got.tgz:105138.got - 2010.06.03 11:33:40.
