data_PCOD9007153
_publ_section_title
;
Structure prediction by ZEFSAII (Michael W. Deem and Ramdas Pophale) SiO2 
 PCOD9007153
Probable space group: P -1
;
_chemical_formula_sum "Si O2"
_cell_formula_units_Z 16
_cell_length_a 15.376845
_cell_length_b 8.527346
_cell_length_c 6.941301
_cell_angle_alpha 120.756252
_cell_angle_beta 106.045940
_cell_angle_gamma 56.734013
_cell_volume 653.974405
_symmetry_space_group_name_H-M "P -1"
_symmetry_group_IT_number 2
_symmetry_cell_setting 'triclinic'
loop_
_space_group_symop_operation_xyz
x,y,z
-x,-y,-z
loop_
_atom_site_type_symbol
_atom_site_label
_atom_site_fract_x
_atom_site_fract_y
_atom_site_fract_z
Si Si1 0.902088 0.208607 0.151830
Si Si2 0.777404 0.061884 0.752136
Si Si3 0.152153 0.805443 0.455019
Si Si4 0.482574 0.829769 0.990540
Si Si5 0.628705 0.571122 0.613530
Si Si6 0.467921 0.689028 0.253438
Si Si7 0.098316 0.506461 0.975608
Si Si8 0.734954 0.849866 0.914288
O O1 0.899434 0.166072 0.350436
O O2 0.800878 0.217574 0.995083
O O3 0.908292 0.407272 0.191837
O O4 0.000000 0.000000 0.000000
O O5 0.847782 0.019373 0.577427
O O6 0.655050 0.173089 0.699170
O O7 0.800224 0.874355 0.796076
O O8 0.274115 0.657109 0.476982
O O9 0.114110 0.672738 0.219939
O O10 0.567978 0.619391 0.808907
O O11 0.499075 0.830818 0.227102
O O12 0.500000 0.000000 0.000000
O O13 0.359086 0.918074 0.945937
O O14 0.541727 0.619097 0.435214
O O15 0.680214 0.720281 0.722427
O O16 0.500000 0.500000 0.000000
O O17 0.196615 0.280054 0.944419
O O18 0.000000 0.500000 0.000000
#
# Coordination Sequence:
#
# PCOD9007153 Si02
#       8
#     2   2   2   2   2   2   2   2
#     4  11  24  44  66  89 122 158 200 257 313 366
#     4  10  22  38  59  91 125 159 205 250 301 363
#     4  10  23  41  64  92 123 161 204 251 306 367
#     4   9  20  36  56  85 123 160 200 247 295 351
#     4  10  21  39  60  87 124 166 207 248 300 356
#     4  11  22  36  58  87 122 164 208 251 295 351
#     4  10  22  43  68  93 121 156 202 255 308 365
#     4   9  20  40  62  91 128 163 204 251 303 362
#
# _framework density 24.465789000000001
#
# number of rings (size 3 to 8) (size 9 to 14) (size 15 to 20)
#    0.000    2.000    0.000    2.250    0.000   15.000 
#    0.000   10.000    0.000    0.000    0.000    0.000 
#    0.000    0.000    0.000    0.000    0.000    0.000 
#
# Total GULP energy -89353.998094 kJ/mol
# GULP energy per Si atom -5584.624881 kJ/mol
# Density = 2.441010 g / cm^3
# Si number density = 24.465789 Si / 1000 Ang^3
#
#
#
# Elastic Constant Matrix: (Units=GPa)
#
#
# Indices 1 2 3 4 5 6 
#
# 1 113.0236 19.9037 36.6777 -18.9696 -18.4952 18.0503
# 2 19.9037 77.3361 8.4063 -26.7414 -27.3385 8.1969
# 3 36.6777 8.4063 96.0253 -21.8868 -39.0385 20.1248
# 4 -18.9696 -26.7414 -21.8868 32.7766 13.6027 -14.2350
# 5 -18.4952 -27.3385 -39.0385 13.6027 56.9592 -7.3863
# 6 18.0503 8.1969 20.1248 -14.2350 -7.3863 54.2816
#
#
#
# Elastic Compliance Matrix: (Units=1/GPa)
#
#
# Indices 1 2 3 4 5 6 
#
# 1 0.010758 -0.001559 -0.003214 0.002191 -0.000189 -0.001601
# 2 -0.001559 0.022572 0.007011 0.017965 0.010934 0.000710
# 3 -0.003214 0.007011 0.019021 0.010185 0.012581 -0.002659
# 4 0.002191 0.017965 0.010185 0.054846 0.004220 0.007740
# 5 -0.000189 0.010934 0.012581 0.004220 0.030224 -0.001033
# 6 -0.001601 0.000710 -0.002659 0.007740 -0.001033 0.021723
#
#
# Mechanical properties :
#
#
# Convention : Reuss Voigt Hill
#
# Bulk Modulus (GPa) = 17.59770 46.26229 31.92999
# Shear Modulus (GPa) = 28.80009 43.56329 36.18169
#
# Velocity S-wave (km/s) = 3.43470 4.22427 3.84978
# Velocity P-wave (km/s) = 4.78935 6.53778 5.73064
#
# Compressibility (1/GPa) = 0.05682562
#
# Stress axis : x y z
#
# Youngs Moduli (GPa) = 92.95508 44.30310 52.57261
#
# Poissons Ratio (x) = 0.06906 0.16899
# Poissons Ratio (y) = 0.14490 -0.36857
# Poissons Ratio (z) = 0.29880 -0.31059
#
# Static dielectric constant tensor:
#      x y z
#    x 1.958100 0.087810 -0.038410 
#    y 0.087810 2.200450 -0.019630 
#    z -0.038410 -0.019630 1.956760 
# 
# From -- ./inp_files/90738.got.cif
#   From: 2010.05.17/outbox.cif.g08.bks.cpg/sg2_46_cif.got.tgz:90738.got - 2010.06.03 11:33:40.
