data_PCOD9007495
_publ_section_title
;
Structure prediction by ZEFSAII (Michael W. Deem and Ramdas Pophale) SiO2 
 PCOD9007495
Probable space group: P -1
;
_chemical_formula_sum "Si O2"
_cell_formula_units_Z 14
_cell_length_a 9.807695
_cell_length_b 17.182708
_cell_length_c 5.532632
_cell_angle_alpha 75.375138
_cell_angle_beta 110.221057
_cell_angle_gamma 60.099748
_cell_volume 646.827540
_symmetry_space_group_name_H-M "P -1"
_symmetry_group_IT_number 2
_symmetry_cell_setting 'triclinic'
loop_
_space_group_symop_operation_xyz
x,y,z
-x,-y,-z
loop_
_atom_site_type_symbol
_atom_site_label
_atom_site_fract_x
_atom_site_fract_y
_atom_site_fract_z
Si Si1 0.594635 0.286414 0.722954
Si Si2 0.023408 0.570286 0.793158
Si Si3 0.291473 0.674079 0.639064
Si Si4 0.055489 0.736131 0.851523
Si Si5 0.377851 0.216498 0.794337
Si Si6 0.363770 0.123807 0.359774
Si Si7 0.655315 0.517523 0.321063
O O1 0.638070 0.268830 0.479834
O O2 0.541505 0.225168 0.873218
O O3 0.407770 0.410236 0.540702
O O4 0.787975 0.260129 0.946092
O O5 0.824387 0.667330 0.471753
O O6 0.080123 0.629851 0.938088
O O7 0.180718 0.504414 0.730418
O O8 0.000000 0.500000 0.000000
O O9 0.085662 0.747184 0.577268
O O10 0.297937 0.592831 0.535863
O O11 0.455723 0.594408 0.993948
O O12 0.855072 0.823811 0.779306
O O13 0.407422 0.151108 0.623569
O O14 0.374988 0.174853 0.085358
O O15 0.500000 0.000000 0.500000
#
# Coordination Sequence:
#
# PCOD9007495 Si02
#       7
#     2   2   2   2   2   2   2
#     4  11  22  36  64  92 139 173 224 280 330 398
#     4  10  21  39  61  99 147 187 230 269 324 403
#     4   9  18  35  53  88 135 178 227 258 323 383
#     4   9  23  39  67  94 131 181 225 278 338 402
#     4  11  27  44  72 105 136 176 227 285 343 403
#     4  11  26  53  76  98 129 174 229 291 355 412
#     4   9  19  32  52  88 129 192 221 256 313 389
#
# _framework density 21.644100000000002
#
# number of rings (size 3 to 8) (size 9 to 14) (size 15 to 20)
#    0.000    2.000    0.000    2.571   14.000    1.714 
#    2.571    1.429    0.000    0.000    0.000    0.000 
#    0.000    0.000    0.000    0.000    0.000    0.000 
#
# Total GULP energy -78049.260928 kJ/mol
# GULP energy per Si atom -5574.947209 kJ/mol
# Density = 2.159484 g / cm^3
# Si number density = 21.644100 Si / 1000 Ang^3
#
#
#
# Elastic Constant Matrix: (Units=GPa)
#
#
# Indices 1 2 3 4 5 6 
#
# 1 206.0490 71.9434 59.3097 -8.5221 -19.3121 -25.8533
# 2 71.9434 102.0703 34.0900 -5.6346 -9.1142 -30.7447
# 3 59.3097 34.0900 66.9215 1.1316 -14.5678 -4.3661
# 4 -8.5221 -5.6346 1.1316 23.7199 4.3890 1.1487
# 5 -19.3121 -9.1142 -14.5678 4.3890 38.8239 17.4680
# 6 -25.8533 -30.7447 -4.3661 1.1487 17.4680 24.8340
#
#
#
# Elastic Compliance Matrix: (Units=1/GPa)
#
#
# Indices 1 2 3 4 5 6 
#
# 1 0.007970 -0.001530 -0.006354 0.002867 -0.002080 0.006616
# 2 -0.001530 0.027580 -0.014412 0.008340 -0.020437 0.044006
# 3 -0.006354 -0.014412 0.030464 -0.009425 0.020994 -0.033432
# 4 0.002867 0.008340 -0.009425 0.047317 -0.014278 0.019507
# 5 -0.002080 -0.020437 0.020994 -0.014278 0.058252 -0.064088
# 6 0.006616 0.044006 -0.033432 0.019507 -0.064088 0.139934
#
#
# Mechanical properties :
#
#
# Convention : Reuss Voigt Hill
#
# Bulk Modulus (GPa) = 46.68042 78.41412 62.54727
# Shear Modulus (GPa) = 13.76466 31.45540 22.61003
#
# Velocity S-wave (km/s) = 2.52455 3.81635 3.23558
# Velocity P-wave (km/s) = 5.48743 7.46505 6.55129
#
# Compressibility (1/GPa) = 0.02142226
#
# Stress axis : x y z
#
# Youngs Moduli (GPa) = 125.46774 36.25838 32.82604
#
# Poissons Ratio (x) = 0.05549 0.20856
# Poissons Ratio (y) = 0.19201 0.47308
# Poissons Ratio (z) = 0.79717 0.52255
#
# Static dielectric constant tensor:
#      x y z
#    x 1.840400 0.019010 -0.007040 
#    y 0.019010 1.885570 0.183780 
#    z -0.007040 0.183780 1.981670 
# 
# From -- ./inp_files/26743.got.cif
#   From: 2010.05.17/outbox.cif.g08.bks.cpg/sg2_14_cif.got.tgz:26743.got - 2010.06.03 11:33:40.
