data_PCOD9007918
_publ_section_title
;
Structure prediction by ZEFSAII (Michael W. Deem and Ramdas Pophale) SiO2 
 PCOD9007918
Probable space group: P -1
;
_chemical_formula_sum "Si O2"
_cell_formula_units_Z 10
_cell_length_a 7.216305
_cell_length_b 7.068627
_cell_length_c 11.235461
_cell_angle_alpha 129.353060
_cell_angle_beta 89.986909
_cell_angle_gamma 116.361725
_cell_volume 362.867787
_symmetry_space_group_name_H-M "P -1"
_symmetry_group_IT_number 2
_symmetry_cell_setting 'triclinic'
loop_
_space_group_symop_operation_xyz
x,y,z
-x,-y,-z
loop_
_atom_site_type_symbol
_atom_site_label
_atom_site_fract_x
_atom_site_fract_y
_atom_site_fract_z
Si Si1 0.226277 0.057542 0.576687
Si Si2 0.882670 0.475082 0.788467
Si Si3 0.473478 0.631027 0.671565
Si Si4 0.695217 0.292098 0.965490
Si Si5 0.204706 0.903060 0.786564
O O1 0.196474 0.004733 0.696163
O O2 0.248211 0.819012 0.409929
O O3 0.426914 0.394006 0.676403
O O4 0.000000 0.000000 0.500000
O O5 0.988277 0.755287 0.811374
O O6 0.751764 0.443128 0.896378
O O7 0.107830 0.519153 0.865614
O O8 0.500000 0.500000 0.500000
O O9 0.257905 0.652189 0.668546
O O10 0.673405 0.980143 0.824608
O O11 0.440545 0.166314 0.951484
#
# Coordination Sequence:
#
# PCOD9007918 Si02
#       5
#     2   2   2   2   2
#     4  12  22  39  65  94 117 167 217 248 300 375
#     4  11  20  39  66  91 125 162 205 256 310 364
#     4  10  21  39  63  91 122 161 207 251 304 373
#     4   9  22  40  63  92 125 165 199 257 312 365
#     4  10  23  40  65  88 131 163 199 258 316 354
#
# _framework density 27.558247000000001
#
# number of rings (size 3 to 8) (size 9 to 14) (size 15 to 20)
#    1.200    0.400    4.000    1.200    0.000    3.200 
#    0.000    4.000    0.000    6.000    0.000    0.000 
#    0.000    0.000    0.000    0.000    0.000    0.000 
#
# Total GULP energy -56045.430257 kJ/mol
# GULP energy per Si atom -5604.543026 kJ/mol
# Density = 2.749552 g / cm^3
# Si number density = 27.558247 Si / 1000 Ang^3
#
#
#
# Elastic Constant Matrix: (Units=GPa)
#
#
# Indices 1 2 3 4 5 6 
#
# 1 71.3705 40.9697 26.5153 11.9249 -0.6889 -2.9731
# 2 40.9697 219.1240 74.8742 -35.6880 -3.9101 23.3290
# 3 26.5153 74.8742 152.2394 -3.5505 -6.0313 7.1362
# 4 11.9249 -35.6880 -3.5505 58.4353 5.4848 2.5915
# 5 -0.6889 -3.9101 -6.0313 5.4848 42.8182 -2.1112
# 6 -2.9731 23.3290 7.1362 2.5915 -2.1112 47.8357
#
#
#
# Elastic Compliance Matrix: (Units=1/GPa)
#
#
# Indices 1 2 3 4 5 6 
#
# 1 0.018401 -0.004518 -0.001297 -0.006840 0.000772 0.003945
# 2 -0.004518 0.007661 -0.002690 0.005676 -0.000674 -0.003953
# 3 -0.001297 -0.002690 0.008129 -0.000984 0.001010 0.000116
# 4 -0.006840 0.005676 -0.000984 0.022374 -0.002812 -0.004382
# 5 0.000772 -0.000674 0.001010 -0.002812 0.023879 0.001432
# 6 0.003945 -0.003953 0.000116 -0.004382 0.001432 0.023361
#
#
# Mechanical properties :
#
#
# Convention : Reuss Voigt Hill
#
# Bulk Modulus (GPa) = 58.20043 80.82804 69.51423
# Shear Modulus (GPa) = 39.51315 49.84282 44.67798
#
# Velocity S-wave (km/s) = 3.79067 4.25742 4.03081
# Velocity P-wave (km/s) = 6.35010 7.31854 6.85145
#
# Compressibility (1/GPa) = 0.01718200
#
# Stress axis : x y z
#
# Youngs Moduli (GPa) = 54.34419 130.53898 123.01609
#
# Poissons Ratio (x) = 0.58973 0.15955
# Poissons Ratio (y) = 0.24551 0.33089
# Poissons Ratio (z) = 0.07048 0.35113
#
# Static dielectric constant tensor:
#      x y z
#    x 2.192580 0.025620 0.010890 
#    y 0.025620 2.153080 0.023570 
#    z 0.010890 0.023570 2.052830 
# 
# From -- ./inp_files/20989.got.cif
#   From: 2010.05.17/outbox.cif.g08.bks.cpg/sg2_11_cif.got.tgz:20989.got - 2010.06.03 11:33:40.
