data_PCOD9007877
_publ_section_title
;
Structure prediction by ZEFSAII (Michael W. Deem and Ramdas Pophale) SiO2 
 PCOD9007877
Probable space group: P -1
;
_chemical_formula_sum "Si O2"
_cell_formula_units_Z 14
_cell_length_a 12.421865
_cell_length_b 6.537932
_cell_length_c 8.240154
_cell_angle_alpha 93.950290
_cell_angle_beta 76.003747
_cell_angle_gamma 83.672540
_cell_volume 642.211510
_symmetry_space_group_name_H-M "P -1"
_symmetry_group_IT_number 2
_symmetry_cell_setting 'triclinic'
loop_
_space_group_symop_operation_xyz
x,y,z
-x,-y,-z
loop_
_atom_site_type_symbol
_atom_site_label
_atom_site_fract_x
_atom_site_fract_y
_atom_site_fract_z
Si Si1 0.431543 0.325261 0.586932
Si Si2 0.519100 0.956063 0.751728
Si Si3 0.793943 0.403248 0.357210
Si Si4 0.122958 0.994954 0.885242
Si Si5 0.077685 0.238609 0.585256
Si Si6 0.823602 0.158126 0.644652
Si Si7 0.683609 0.054047 0.966632
O O1 0.500000 0.500000 0.500000
O O2 0.480805 0.191638 0.716570
O O3 0.307644 0.438839 0.662962
O O4 0.431170 0.164039 0.430278
O O5 0.610725 0.941603 0.859269
O O6 0.409068 0.869063 0.859009
O O7 0.836498 0.240276 0.195410
O O8 0.886996 0.535959 0.399305
O O9 0.762653 0.268408 0.516088
O O10 0.115650 0.127096 0.733196
O O11 0.212569 0.066448 0.980569
O O12 0.000000 0.000000 0.000000
O O13 0.945308 0.232089 0.620566
O O14 0.142966 0.088623 0.416922
O O15 0.746608 0.198453 0.832895
#
# Coordination Sequence:
#
# PCOD9007877 Si02
#       7
#     2   2   2   2   2   2   2
#     4  11  22  44  68  94 124 166 216 264 316 382
#     4  10  24  42  68  94 127 169 210 265 323 374
#     4  11  23  39  65  94 121 170 220 255 315 389
#     4  11  23  42  63  90 132 171 204 266 321 373
#     4  10  21  41  62  88 126 171 213 255 311 380
#     4  10  21  39  63  89 128 166 209 266 311 368
#     4  11  21  42  64  93 129 167 208 259 325 372
#
# _framework density 21.799669999999999
#
# number of rings (size 3 to 8) (size 9 to 14) (size 15 to 20)
#    0.000    1.429    1.429    3.857    0.000    5.143 
#    2.571   17.143    0.000    0.000    0.000    0.000 
#    0.000    0.000    0.000    0.000    0.000    0.000 
#
# Total GULP energy -78176.198852 kJ/mol
# GULP energy per Si atom -5584.014204 kJ/mol
# Density = 2.175005 g / cm^3
# Si number density = 21.799670 Si / 1000 Ang^3
#
#
#
# Elastic Constant Matrix: (Units=GPa)
#
#
# Indices 1 2 3 4 5 6 
#
# 1 131.6488 33.2502 37.4799 -0.6276 1.9800 -14.7372
# 2 33.2502 78.5888 33.1676 -4.5466 -7.2450 -7.1962
# 3 37.4799 33.1676 95.2195 -4.4726 -4.8628 -17.2856
# 4 -0.6276 -4.5466 -4.4726 9.3582 -1.8706 -0.5486
# 5 1.9800 -7.2450 -4.8628 -1.8706 44.8242 -4.8549
# 6 -14.7372 -7.1962 -17.2856 -0.5486 -4.8549 29.0909
#
#
#
# Elastic Compliance Matrix: (Units=1/GPa)
#
#
# Indices 1 2 3 4 5 6 
#
# 1 0.009272 -0.002918 -0.002341 -0.001967 -0.000959 0.002387
# 2 -0.002918 0.016320 -0.003955 0.006426 0.002690 0.000778
# 3 -0.002341 -0.003955 0.014408 0.005608 0.002002 0.006837
# 4 -0.001967 0.006426 0.005608 0.114416 0.007300 0.007302
# 5 -0.000959 0.002690 0.002002 0.007300 0.023904 0.005496
# 6 0.002387 0.000778 0.006837 0.007302 0.005496 0.040894
#
#
# Mechanical properties :
#
#
# Convention : Reuss Voigt Hill
#
# Bulk Modulus (GPa) = 46.36080 57.02806 51.69443
# Shear Modulus (GPa) = 20.42214 30.09196 25.25705
#
# Velocity S-wave (km/s) = 3.06405 3.71939 3.40751
# Velocity P-wave (km/s) = 5.81643 6.68296 6.26469
#
# Compressibility (1/GPa) = 0.02156995
#
# Stress axis : x y z
#
# Youngs Moduli (GPa) = 107.85411 61.27619 69.40618
#
# Poissons Ratio (x) = 0.17883 0.16248
# Poissons Ratio (y) = 0.31476 0.27452
# Poissons Ratio (z) = 0.25248 0.24236
#
# Static dielectric constant tensor:
#      x y z
#    x 1.831830 0.012500 -0.003730 
#    y 0.012500 1.800860 -0.003360 
#    z -0.003730 -0.003360 1.799160 
# 
# From -- ./inp_files/27616.got.cif
#   From: 2010.05.17/outbox.cif.g08.bks.cpg/sg2_14_cif.got.tgz:27616.got - 2010.06.03 11:33:40.
