data_PCOD9007575
_publ_section_title
;
Structure prediction by ZEFSAII (Michael W. Deem and Ramdas Pophale) SiO2 
 PCOD9007575
Probable space group: P -1
;
_chemical_formula_sum "Si O2"
_cell_formula_units_Z 16
_cell_length_a 18.212722
_cell_length_b 8.979595
_cell_length_c 6.819970
_cell_angle_alpha 105.991932
_cell_angle_beta 48.808845
_cell_angle_gamma 108.666401
_cell_volume 791.891547
_symmetry_space_group_name_H-M "P -1"
_symmetry_group_IT_number 2
_symmetry_cell_setting 'triclinic'
loop_
_space_group_symop_operation_xyz
x,y,z
-x,-y,-z
loop_
_atom_site_type_symbol
_atom_site_label
_atom_site_fract_x
_atom_site_fract_y
_atom_site_fract_z
Si Si1 0.742736 0.690256 0.635682
Si Si2 0.595111 0.669669 0.216386
Si Si3 0.390758 0.894294 0.138404
Si Si4 0.625345 0.354036 0.267535
Si Si5 0.277871 0.130877 0.622988
Si Si6 0.934624 0.943837 0.406387
Si Si7 0.898527 0.127559 0.170744
Si Si8 0.741786 0.343806 0.442787
O O1 0.731799 0.719327 0.434918
O O2 0.832101 0.827477 0.597189
O O3 0.763898 0.516400 0.560155
O O4 0.641303 0.695920 0.930048
O O5 0.626657 0.511053 0.191024
O O6 0.477878 0.656367 0.435394
O O7 0.647168 0.814486 0.314211
O O8 0.354353 0.762619 0.321382
O O9 0.318439 0.016434 0.355440
O O10 0.379925 0.796483 0.920473
O O11 0.500000 0.000000 0.000000
O O12 0.712850 0.356087 0.270757
O O13 0.172067 0.034298 0.841829
O O14 0.914417 0.087908 0.356596
O O15 0.000000 0.000000 0.500000
O O16 0.998496 0.850851 0.117575
O O17 0.834769 0.260069 0.288517
#
# Coordination Sequence:
#
# PCOD9007575 Si02
#       8
#     2   2   2   2   2   2   2   2
#     4  11  23  39  66  91 122 167 208 261 318 367
#     4  11  22  38  60  92 124 170 219 252 299 367
#     4  11  23  40  57  88 127 164 213 264 306 356
#     4  11  24  38  62  89 129 173 214 254 308 364
#     4  10  21  39  62  88 126 165 205 258 311 369
#     4  10  21  43  69  92 117 161 206 254 323 390
#     4   9  22  41  63  92 127 153 202 260 320 376
#     4  11  24  41  62  93 130 163 208 264 313 366
#
# _framework density 20.204785999999999
#
# number of rings (size 3 to 8) (size 9 to 14) (size 15 to 20)
#    0.000    1.500    3.750    0.750    1.750    6.500 
#    0.000    0.625    0.000    0.000    0.000    0.000 
#    0.000    0.000    0.000    0.000    0.000    0.000 
#
# Total GULP energy -89296.635318 kJ/mol
# GULP energy per Si atom -5581.039707 kJ/mol
# Density = 2.015880 g / cm^3
# Si number density = 20.204786 Si / 1000 Ang^3
#
#
#
# Elastic Constant Matrix: (Units=GPa)
#
#
# Indices 1 2 3 4 5 6 
#
# 1 62.2216 4.3793 -9.6573 15.9559 11.3477 -11.4610
# 2 4.3793 71.1387 16.6388 8.7649 6.9739 -10.2170
# 3 -9.6573 16.6388 50.8428 7.5128 -8.0596 -1.8257
# 4 15.9559 8.7649 7.5128 30.3496 6.2904 -3.5063
# 5 11.3477 6.9739 -8.0596 6.2904 24.9493 2.3762
# 6 -11.4610 -10.2170 -1.8257 -3.5063 2.3762 28.2227
#
#
#
# Elastic Compliance Matrix: (Units=1/GPa)
#
#
# Indices 1 2 3 4 5 6 
#
# 1 0.022445 0.000796 0.004794 -0.010722 -0.007034 0.008973
# 2 0.000796 0.017344 -0.006237 -0.001571 -0.007461 0.006632
# 3 0.004794 -0.006237 0.025583 -0.009248 0.010222 -0.000666
# 4 -0.010722 -0.001571 -0.009248 0.043180 -0.008612 0.000568
# 5 -0.007034 -0.007461 0.010222 -0.008612 0.051823 -0.010329
# 6 0.008973 0.006632 -0.000666 0.000568 -0.010329 0.042374
#
#
# Mechanical properties :
#
#
# Convention : Reuss Voigt Hill
#
# Bulk Modulus (GPa) = 15.60566 22.99164 19.29865
# Shear Modulus (GPa) = 22.18248 28.22714 25.20481
#
# Velocity S-wave (km/s) = 3.31703 3.74177 3.53578
# Velocity P-wave (km/s) = 4.73400 5.48378 5.12262
#
# Compressibility (1/GPa) = 0.06407933
#
# Stress axis : x y z
#
# Youngs Moduli (GPa) = 44.55363 57.65590 39.08800
#
# Poissons Ratio (x) = -0.04591 -0.18740
# Poissons Ratio (y) = -0.03548 0.24380
# Poissons Ratio (z) = -0.21360 0.35961
#
# Static dielectric constant tensor:
#      x y z
#    x 1.709650 -0.008540 0.003920 
#    y -0.008540 1.734390 -0.010940 
#    z 0.003920 -0.010940 1.729720 
# 
# From -- ./inp_files/39947.got.cif
#   From: 2010.05.17/outbox.cif.g08.bks.cpg/sg2_20_cif.got.tgz:39947.got - 2010.06.03 11:33:40.
