data_PCOD9007024
_publ_section_title
;
Structure prediction by ZEFSAII (Michael W. Deem and Ramdas Pophale) SiO2 
 PCOD9007024
Probable space group: P -1
;
_chemical_formula_sum "Si O2"
_cell_formula_units_Z 16
_cell_length_a 9.384769
_cell_length_b 9.281078
_cell_length_c 13.949839
_cell_angle_alpha 67.191780
_cell_angle_beta 80.892403
_cell_angle_gamma 44.654309
_cell_volume 774.143830
_symmetry_space_group_name_H-M "P -1"
_symmetry_group_IT_number 2
_symmetry_cell_setting 'triclinic'
loop_
_space_group_symop_operation_xyz
x,y,z
-x,-y,-z
loop_
_atom_site_type_symbol
_atom_site_label
_atom_site_fract_x
_atom_site_fract_y
_atom_site_fract_z
Si Si1 0.914132 0.664349 0.558104
Si Si2 0.614724 0.812580 0.725899
Si Si3 0.927233 0.990685 0.407589
Si Si4 0.498380 0.787948 0.091840
Si Si5 0.780054 0.738346 0.931871
Si Si6 0.656316 0.713471 0.293658
Si Si7 0.540461 0.399285 0.239242
Si Si8 0.621512 0.363430 0.617386
O O1 0.740916 0.735002 0.632658
O O2 0.837400 0.889862 0.467574
O O3 0.000000 0.500000 0.500000
O O4 0.125691 0.520286 0.634147
O O5 0.757805 0.752661 0.815810
O O6 0.535931 0.696777 0.779742
O O7 0.417120 0.079713 0.691573
O O8 0.138855 0.814925 0.374980
O O9 0.775029 0.206165 0.301264
O O10 0.000000 0.000000 0.500000
O O11 0.650122 0.735964 0.173812
O O12 0.493914 0.603398 0.144916
O O13 0.283561 0.042368 0.074213
O O14 0.600372 0.767736 0.988430
O O15 0.000000 0.500000 0.000000
O O16 0.473168 0.730425 0.323004
O O17 0.427923 0.482816 0.331860
O O18 0.500000 0.500000 0.500000
#
# Coordination Sequence:
#
# PCOD9007024 Si02
#       8
#     2   2   2   2   2   2   2   2
#     4  12  24  36  55  85 125 168 204 239 294 350
#     4  11  25  39  60  89 123 163 200 253 306 357
#     4  12  22  35  59  85 114 168 209 243 285 349
#     4   9  21  41  65  89 117 150 193 256 311 356
#     4  10  21  43  71  90 111 152 203 249 311 375
#     4  10  21  39  59  85 122 158 204 253 294 358
#     4  11  24  39  56  90 128 154 201 250 299 357
#     4  11  20  37  57  80 117 161 208 249 289 336
#
# _framework density 20.667994
#
# number of rings (size 3 to 8) (size 9 to 14) (size 15 to 20)
#    0.000    1.250    2.500    3.750    0.000    4.500 
#    0.000    0.625    0.000    0.000    0.000    0.000 
#    0.000    0.000    0.000    0.000    0.000    0.000 
#
# Total GULP energy -89254.751353 kJ/mol
# GULP energy per Si atom -5578.421960 kJ/mol
# Density = 2.062095 g / cm^3
# Si number density = 20.667994 Si / 1000 Ang^3
#
#
#
# Elastic Constant Matrix: (Units=GPa)
#
#
# Indices 1 2 3 4 5 6 
#
# 1 67.6722 25.6976 9.1641 -6.8512 -15.2247 16.6276
# 2 25.6976 100.6127 17.0532 -11.6755 -6.7388 0.9602
# 3 9.1641 17.0532 50.5241 -2.7154 -8.4068 2.8342
# 4 -6.8512 -11.6755 -2.7154 47.1835 1.3730 0.2371
# 5 -15.2247 -6.7388 -8.4068 1.3730 27.5159 -7.1885
# 6 16.6276 0.9602 2.8342 0.2371 -7.1885 42.5815
#
#
#
# Elastic Compliance Matrix: (Units=1/GPa)
#
#
# Indices 1 2 3 4 5 6 
#
# 1 0.019998 -0.004245 -0.000393 0.001625 0.008174 -0.006316
# 2 -0.004245 0.011788 -0.003206 0.002112 -0.000136 0.001570
# 3 -0.000393 -0.003206 0.021908 0.000249 0.005603 -0.000288
# 4 0.001625 0.002112 0.000249 0.021965 0.000190 -0.000789
# 5 0.008174 -0.000136 0.005603 0.000190 0.043523 0.003785
# 6 -0.006316 0.001570 -0.000288 -0.000789 0.003785 0.026578
#
#
# Mechanical properties :
#
#
# Convention : Reuss Voigt Hill
#
# Bulk Modulus (GPa) = 26.31169 35.84875 31.08022
# Shear Modulus (GPa) = 28.71674 34.58246 31.64960
#
# Velocity S-wave (km/s) = 3.73155 4.09496 3.91747
# Velocity P-wave (km/s) = 5.59681 6.30404 5.96092
#
# Compressibility (1/GPa) = 0.03800592
#
# Stress axis : x y z
#
# Youngs Moduli (GPa) = 50.00614 84.83482 45.64600
#
# Poissons Ratio (x) = 0.36010 0.01793
# Poissons Ratio (y) = 0.21226 0.14634
# Poissons Ratio (z) = 0.01964 0.27198
#
# Static dielectric constant tensor:
#      x y z
#    x -2.451390 -2.535270 3.629740 
#    y -2.535270 0.167230 2.270180 
#    z 3.629740 2.270180 -1.325870 
# 
# From -- ./inp_files/315059.got.cif
#   From: 2010.05.17/outbox.cif.g08.bks.cpg/sg2_158_cif.got.tgz:315059.got - 2010.06.03 11:33:40.
