data_PCOD9007807
_publ_section_title
;
Structure prediction by ZEFSAII (Michael W. Deem and Ramdas Pophale) SiO2 
 PCOD9007807
Probable space group: P -1
;
_chemical_formula_sum "Si O2"
_cell_formula_units_Z 10
_cell_length_a 5.984291
_cell_length_b 10.534178
_cell_length_c 13.987768
_cell_angle_alpha 150.292508
_cell_angle_beta 61.829828
_cell_angle_gamma 116.089996
_cell_volume 384.332225
_symmetry_space_group_name_H-M "P -1"
_symmetry_group_IT_number 2
_symmetry_cell_setting 'triclinic'
loop_
_space_group_symop_operation_xyz
x,y,z
-x,-y,-z
loop_
_atom_site_type_symbol
_atom_site_label
_atom_site_fract_x
_atom_site_fract_y
_atom_site_fract_z
Si Si1 0.068093 0.825194 0.779657
Si Si2 0.493627 0.862075 0.164020
Si Si3 0.797938 0.635931 0.444751
Si Si4 0.747614 0.136623 0.595089
Si Si5 0.534346 0.709856 0.841623
O O1 0.802516 0.678091 0.715239
O O2 0.220254 0.007236 0.793382
O O3 0.241930 0.607161 0.637445
O O4 0.000000 0.000000 0.000000
O O5 0.317517 0.099122 0.333137
O O6 0.373970 0.744266 0.207720
O O7 0.512899 0.715754 0.964742
O O8 0.662222 0.517319 0.300015
O O9 0.097265 0.681854 0.392176
O O10 0.500000 0.000000 0.500000
O O11 0.000000 0.000000 0.500000
O O12 0.500000 0.000000 0.000000
#
# Coordination Sequence:
#
# PCOD9007807 Si02
#       5
#     2   2   2   2   2
#     4  10  21  39  63 101 131 169 223 281 325 406
#     4  10  23  44  67  99 132 181 224 277 341 400
#     4  11  23  43  70  93 137 179 221 278 344 395
#     4  10  25  47  67 101 137 175 235 282 327 415
#     4  11  23  41  65 102 140 165 230 284 328 410
#
# _framework density 26.019157
#
# number of rings (size 3 to 8) (size 9 to 14) (size 15 to 20)
#    0.000    1.600    4.000    0.600    5.600    4.800 
#    0.000    4.000    0.000    0.000    0.000    0.000 
#    0.000    0.000    0.000    0.000    0.000    0.000 
#
# Total GULP energy -55799.820758 kJ/mol
# GULP energy per Si atom -5579.982076 kJ/mol
# Density = 2.595994 g / cm^3
# Si number density = 26.019157 Si / 1000 Ang^3
#
#
#
# Elastic Constant Matrix: (Units=GPa)
#
#
# Indices 1 2 3 4 5 6 
#
# 1 116.5438 17.1316 47.1133 -2.9257 12.6633 32.1159
# 2 17.1316 81.3821 -4.2371 -27.9120 10.2313 39.9604
# 3 47.1133 -4.2371 124.3451 -23.9494 9.2432 5.9070
# 4 -2.9257 -27.9120 -23.9494 41.5248 -3.1498 -5.9519
# 5 12.6633 10.2313 9.2432 -3.1498 54.8283 8.5207
# 6 32.1159 39.9604 5.9070 -5.9519 8.5207 63.8079
#
#
#
# Elastic Compliance Matrix: (Units=1/GPa)
#
#
# Indices 1 2 3 4 5 6 
#
# 1 0.012287 -0.001727 -0.005183 -0.004065 -0.001121 -0.004852
# 2 -0.001727 0.027021 0.006161 0.019339 -0.002316 -0.014510
# 3 -0.005183 0.006161 0.012422 0.010669 -0.001241 -0.001239
# 4 -0.004065 0.019339 0.010669 0.041869 -0.000973 -0.007018
# 5 -0.001121 -0.002316 -0.001241 -0.000973 0.019164 -0.000520
# 6 -0.004852 -0.014510 -0.001239 -0.007018 -0.000520 0.026731
#
#
# Mechanical properties :
#
#
# Convention : Reuss Voigt Hill
#
# Bulk Modulus (GPa) = 19.90784 49.14295 34.52540
# Shear Modulus (GPa) = 31.69884 49.51644 40.60764
#
# Velocity S-wave (km/s) = 3.49419 4.36716 3.95483
# Velocity P-wave (km/s) = 4.89356 6.66015 5.84400
#
# Compressibility (1/GPa) = 0.05023147
#
# Stress axis : x y z
#
# Youngs Moduli (GPa) = 81.38982 37.00848 80.50250
#
# Poissons Ratio (x) = 0.06392 0.41726
# Poissons Ratio (y) = 0.14057 -0.49601
# Poissons Ratio (z) = 0.42186 -0.22802
#
# Static dielectric constant tensor:
#      x y z
#    x 2.282650 -0.068100 0.001690 
#    y -0.068100 2.101800 0.026750 
#    z 0.001690 0.026750 2.025500 
# 
# From -- ./inp_files/20703.got.cif
#   From: 2010.05.17/outbox.cif.g08.bks.cpg/sg2_11_cif.got.tgz:20703.got - 2010.06.03 11:33:40.
