data_PCOD9007753
_publ_section_title
;
Structure prediction by ZEFSAII (Michael W. Deem and Ramdas Pophale) SiO2 
 PCOD9007753
Probable space group: P -1
;
_chemical_formula_sum "Si O2"
_cell_formula_units_Z 16
_cell_length_a 9.170775
_cell_length_b 13.427254
_cell_length_c 14.510718
_cell_angle_alpha 48.089829
_cell_angle_beta 78.087883
_cell_angle_gamma 117.040385
_cell_volume 756.353788
_symmetry_space_group_name_H-M "P -1"
_symmetry_group_IT_number 2
_symmetry_cell_setting 'triclinic'
loop_
_space_group_symop_operation_xyz
x,y,z
-x,-y,-z
loop_
_atom_site_type_symbol
_atom_site_label
_atom_site_fract_x
_atom_site_fract_y
_atom_site_fract_z
Si Si1 0.802174 0.611389 0.609210
Si Si2 0.453860 0.299790 0.357905
Si Si3 0.189862 0.834019 0.723994
Si Si4 0.295013 0.872463 0.472857
Si Si5 0.411508 0.587678 0.935042
Si Si6 0.065900 0.426229 0.765612
Si Si7 0.963143 0.315031 0.641882
Si Si8 0.570196 0.213748 0.010714
O O1 0.671353 0.651920 0.630673
O O2 0.088012 0.818159 0.488219
O O3 0.838848 0.616933 0.492607
O O4 0.648298 0.374394 0.819842
O O5 0.297204 0.063308 0.569011
O O6 0.740608 0.507583 0.233057
O O7 0.453329 0.275704 0.263050
O O8 0.396439 0.895633 0.714704
O O9 0.221487 0.809626 0.629167
O O10 0.892479 0.620056 0.917523
O O11 0.216070 0.671699 0.566237
O O12 0.500000 0.500000 0.000000
O O13 0.459977 0.714131 0.940326
O O14 0.001540 0.313975 0.745536
O O15 0.809584 0.286733 0.936779
O O16 0.000000 0.500000 0.500000
O O17 0.682295 0.055644 0.811372
#
# Coordination Sequence:
#
# PCOD9007753 Si02
#       8
#     2   2   2   2   2   2   2   2
#     4  11  23  43  64  98 130 172 220 269 325 390
#     4  11  26  40  66  98 139 173 211 272 331 387
#     4  10  21  39  62  94 137 173 213 268 318 391
#     4   9  18  38  63  90 131 166 214 268 311 387
#     4  12  24  40  67 100 136 180 212 257 339 396
#     4  10  22  46  62  99 132 166 227 276 316 389
#     4  12  25  42  76  93 120 180 227 272 336 369
#     4  11  24  43  69  99 132 164 230 269 315 408
#
# _framework density 21.154119999999999
#
# number of rings (size 3 to 8) (size 9 to 14) (size 15 to 20)
#    0.000    1.250    6.250    0.375    3.500    3.000 
#    0.000    0.625    0.000    0.000    0.000    0.000 
#    0.000    0.000    0.000    0.000    0.000    0.000 
#
# Total GULP energy -89413.716652 kJ/mol
# GULP energy per Si atom -5588.357291 kJ/mol
# Density = 2.110597 g / cm^3
# Si number density = 21.154120 Si / 1000 Ang^3
#
#
#
# Elastic Constant Matrix: (Units=GPa)
#
#
# Indices 1 2 3 4 5 6 
#
# 1 123.7587 47.8136 30.4860 -5.0588 -16.5108 -8.0042
# 2 47.8136 138.4140 38.2637 6.1640 -19.2894 -0.1322
# 3 30.4860 38.2637 100.8179 -11.4835 -8.9576 -8.4322
# 4 -5.0588 6.1640 -11.4835 39.7571 2.9851 -4.5387
# 5 -16.5108 -19.2894 -8.9576 2.9851 23.7609 5.1414
# 6 -8.0042 -0.1322 -8.4322 -4.5387 5.1414 25.2671
#
#
#
# Elastic Compliance Matrix: (Units=1/GPa)
#
#
# Indices 1 2 3 4 5 6 
#
# 1 0.010141 -0.002650 -0.001401 0.001268 0.003732 0.002199
# 2 -0.002650 0.010086 -0.003202 -0.003748 0.006441 -0.003839
# 3 -0.001401 -0.003202 0.012408 0.004458 -0.000445 0.004572
# 4 0.001268 -0.003748 0.004458 0.028556 -0.005840 0.008187
# 5 0.003732 0.006441 -0.000445 -0.005840 0.052795 -0.010724
# 6 0.002199 -0.003839 0.004572 0.008187 -0.010724 0.045432
#
#
# Mechanical properties :
#
#
# Convention : Reuss Voigt Hill
#
# Bulk Modulus (GPa) = 55.15971 66.23525 60.69748
# Shear Modulus (GPa) = 27.78259 34.18551 30.98405
#
# Velocity S-wave (km/s) = 3.62794 4.02434 3.83127
# Velocity P-wave (km/s) = 6.60916 7.27822 6.95174
#
# Compressibility (1/GPa) = 0.01812917
#
# Stress axis : x y z
#
# Youngs Moduli (GPa) = 98.60814 99.14417 80.58997
#
# Poissons Ratio (x) = 0.26275 0.11289
# Poissons Ratio (y) = 0.26133 0.25809
# Poissons Ratio (z) = 0.13813 0.31751
#
# Static dielectric constant tensor:
#      x y z
#    x 1.763120 0.014140 0.028070 
#    y 0.014140 1.769600 -0.013130 
#    z 0.028070 -0.013130 1.832200 
# 
# From -- ./inp_files/500032.got.cif
#   From: 2010.05.17/outbox.cif.g08.bks.cpg/sg2_251_cif.got.tgz:500032.got - 2010.06.03 11:33:40.
