data_PCOD9007728
_publ_section_title
;
Structure prediction by ZEFSAII (Michael W. Deem and Ramdas Pophale) SiO2 
 PCOD9007728
Probable space group: P -1
;
_chemical_formula_sum "Si O2"
_cell_formula_units_Z 14
_cell_length_a 18.616146
_cell_length_b 17.742575
_cell_length_c 7.650866
_cell_angle_alpha 59.333033
_cell_angle_beta 47.464944
_cell_angle_gamma 20.856817
_cell_volume 587.330006
_symmetry_space_group_name_H-M "P -1"
_symmetry_group_IT_number 2
_symmetry_cell_setting 'triclinic'
loop_
_space_group_symop_operation_xyz
x,y,z
-x,-y,-z
loop_
_atom_site_type_symbol
_atom_site_label
_atom_site_fract_x
_atom_site_fract_y
_atom_site_fract_z
Si Si1 0.713497 0.808238 0.032739
Si Si2 0.900053 0.516763 0.497021
Si Si3 0.748392 0.113004 0.249171
Si Si4 0.262000 0.069124 0.572582
Si Si5 0.727536 0.972626 0.014531
Si Si6 0.759827 0.137514 0.779874
Si Si7 0.366247 0.608107 0.900876
O O1 0.971724 0.554937 0.809134
O O2 0.787257 0.839763 0.955131
O O3 0.500000 0.000000 0.000000
O O4 0.520941 0.913756 0.349496
O O5 0.000000 0.500000 0.500000
O O6 0.041449 0.305006 0.547375
O O7 0.588830 0.763731 0.738313
O O8 0.646162 0.100190 0.459290
O O9 0.593950 0.327503 0.320886
O O10 0.049179 0.862944 0.121547
O O11 0.755079 0.122572 0.015218
O O12 0.143353 0.150302 0.862911
O O13 0.791233 0.015689 0.787337
O O14 0.501050 0.410084 0.830186
O O15 0.000000 0.000000 0.500000
O O16 0.500000 0.500000 0.000000
#
# Coordination Sequence:
#
# PCOD9007728 Si02
#       7
#     2   2   2   2   2   2   2
#     4  10  21  40  61  95 124 161 214 252 314 385
#     4  11  22  40  63  89 129 169 203 257 322 373
#     4   9  19  38  62  90 123 165 209 260 315 374
#     4  10  21  39  62  93 129 162 211 261 309 382
#     4  11  22  43  64  89 129 169 208 263 319 369
#     4  10  22  40  60  91 126 166 209 261 318 375
#     4   9  18  38  61  86 119 161 211 258 312 368
#
# _framework density 23.836684000000002
#
# number of rings (size 3 to 8) (size 9 to 14) (size 15 to 20)
#    0.000    2.000    2.857    1.286    0.000    1.143 
#   25.714    1.429    0.000    0.000    0.000    0.000 
#    0.000    0.000    0.000    0.000    0.000    0.000 
#
# Total GULP energy -78185.504852 kJ/mol
# GULP energy per Si atom -5584.678918 kJ/mol
# Density = 2.378243 g / cm^3
# Si number density = 23.836684 Si / 1000 Ang^3
#
#
#
# Elastic Constant Matrix: (Units=GPa)
#
#
# Indices 1 2 3 4 5 6 
#
# 1 83.9555 18.1802 14.5458 -20.1125 -10.1424 31.9987
# 2 18.1802 89.7964 19.0513 -14.2400 -4.4945 7.5457
# 3 14.5458 19.0513 62.1414 -10.8038 -5.3540 23.4425
# 4 -20.1125 -14.2400 -10.8038 32.4903 8.4565 -16.7806
# 5 -10.1424 -4.4945 -5.3540 8.4565 33.4570 -8.7284
# 6 31.9987 7.5457 23.4425 -16.7806 -8.7284 46.1499
#
#
#
# Elastic Compliance Matrix: (Units=1/GPa)
#
#
# Indices 1 2 3 4 5 6 
#
# 1 0.017390 -0.002165 0.001476 0.004506 0.001322 -0.010565
# 2 -0.002165 0.012849 -0.003758 0.004558 0.000095 0.002985
# 3 0.001476 -0.003758 0.021129 0.000595 0.000340 -0.010861
# 4 0.004506 0.004558 0.000595 0.042589 -0.006037 0.010172
# 5 0.001322 0.000095 0.000340 -0.006037 0.032632 0.002872
# 6 -0.010565 0.002985 -0.010861 0.010172 0.002872 0.038265
#
#
# Mechanical properties :
#
#
# Convention : Reuss Voigt Hill
#
# Bulk Modulus (GPa) = 23.54381 37.71643 30.63012
# Shear Modulus (GPa) = 26.60919 34.69383 30.65151
#
# Velocity S-wave (km/s) = 3.34475 3.81921 3.58983
# Velocity P-wave (km/s) = 4.98147 5.94186 5.48274
#
# Compressibility (1/GPa) = 0.04247401
#
# Stress axis : x y z
#
# Youngs Moduli (GPa) = 57.50381 77.82873 47.32870
#
# Poissons Ratio (x) = 0.16853 -0.06987
# Poissons Ratio (y) = 0.12452 0.17784
# Poissons Ratio (z) = -0.08489 0.29245
#
# Static dielectric constant tensor:
#      x y z
#    x 1.958720 -0.015640 0.058860 
#    y -0.015640 2.149310 -0.179340 
#    z 0.058860 -0.179340 2.051980 
# 
# From -- ./inp_files/348313.got.cif
#   From: 2010.05.17/outbox.cif.g08.bks.cpg/sg2_175_cif.got.tgz:348313.got - 2010.06.03 11:33:40.
