data_PCOD9007235
_publ_section_title
;
Structure prediction by ZEFSAII (Michael W. Deem and Ramdas Pophale) SiO2 
 PCOD9007235
Probable space group: P -1
;
_chemical_formula_sum "Si O2"
_cell_formula_units_Z 14
_cell_length_a 13.158262
_cell_length_b 20.749073
_cell_length_c 10.496274
_cell_angle_alpha 145.999728
_cell_angle_beta 35.503260
_cell_angle_gamma 152.812440
_cell_volume 698.469429
_symmetry_space_group_name_H-M "P -1"
_symmetry_group_IT_number 2
_symmetry_cell_setting 'triclinic'
loop_
_space_group_symop_operation_xyz
x,y,z
-x,-y,-z
loop_
_atom_site_type_symbol
_atom_site_label
_atom_site_fract_x
_atom_site_fract_y
_atom_site_fract_z
Si Si1 0.505362 0.879879 0.372254
Si Si2 0.162415 0.623602 0.927373
Si Si3 0.932130 0.164826 0.540325
Si Si4 0.972939 0.436678 0.564974
Si Si5 0.578043 0.621509 0.504443
Si Si6 0.797853 0.819738 0.920755
Si Si7 0.614753 0.564117 0.852572
O O1 0.269253 0.733939 0.438642
O O2 0.500000 0.000000 0.500000
O O3 0.710839 0.988773 0.445453
O O4 0.580384 0.806370 0.081322
O O5 0.401062 0.652876 0.730728
O O6 0.032364 0.551751 0.806540
O O7 0.172440 0.761657 0.181944
O O8 0.000000 0.500000 0.000000
O O9 0.151592 0.223565 0.500376
O O10 0.084100 0.233897 0.365995
O O11 0.000000 0.500000 0.500000
O O12 0.173041 0.429963 0.360723
O O13 0.500000 0.500000 0.500000
O O14 0.551589 0.539011 0.265274
O O15 0.717706 0.734147 0.995888
O O16 0.000000 0.000000 0.000000
O O17 0.500000 0.500000 0.000000
#
# Coordination Sequence:
#
# PCOD9007235 Si02
#       7
#     2   2   2   2   2   2   2
#     4  11  24  40  66  99 136 171 218 275 331 391
#     4  11  22  38  65  96 128 169 226 271 322 386
#     4  11  23  38  64  95 129 171 217 269 329 375
#     4  11  25  43  67  96 131 176 221 268 332 397
#     4  11  22  37  64  95 130 170 220 272 324 387
#     4  10  21  39  60  93 130 169 212 264 324 388
#     4  11  23  40  66  97 128 172 222 271 325 389
#
# _framework density 20.043825999999999
#
# number of rings (size 3 to 8) (size 9 to 14) (size 15 to 20)
#    0.000    1.143    2.857    4.286    8.000    0.000 
#    0.000    0.714    0.000    5.143    0.000    0.000 
#    0.000    0.000    0.000    0.000    0.000    0.000 
#
# Total GULP energy -77976.318188 kJ/mol
# GULP energy per Si atom -5569.737013 kJ/mol
# Density = 1.999820 g / cm^3
# Si number density = 20.043826 Si / 1000 Ang^3
#
#
#
# Elastic Constant Matrix: (Units=GPa)
#
#
# Indices 1 2 3 4 5 6 
#
# 1 110.7940 53.9771 50.6929 4.5971 13.1476 -1.5922
# 2 53.9771 131.1538 51.9590 -1.3440 16.2213 10.9712
# 3 50.6929 51.9590 132.4157 0.2530 -1.1327 -6.3185
# 4 4.5971 -1.3440 0.2530 29.8558 0.6840 0.3146
# 5 13.1476 16.2213 -1.1327 0.6840 46.4061 -4.5352
# 6 -1.5922 10.9712 -6.3185 0.3146 -4.5352 42.5418
#
#
#
# Elastic Compliance Matrix: (Units=1/GPa)
#
#
# Indices 1 2 3 4 5 6 
#
# 1 0.012757 -0.003688 -0.003419 -0.002056 -0.002311 0.000690
# 2 -0.003688 0.011146 -0.003176 0.001213 -0.003323 -0.003847
# 3 -0.003419 -0.003176 0.010247 0.000212 0.002569 0.002485
# 4 -0.002056 0.001213 0.000212 0.033880 -0.000400 -0.000652
# 5 -0.002311 -0.003323 0.002569 -0.000400 0.023794 0.003691
# 6 0.000690 -0.003847 0.002485 -0.000652 0.003691 0.025292
#
#
# Mechanical properties :
#
#
# Convention : Reuss Voigt Hill
#
# Bulk Modulus (GPa) = 73.62255 76.40240 75.01247
# Shear Modulus (GPa) = 35.15917 38.27636 36.71777
#
# Velocity S-wave (km/s) = 4.19276 4.37468 4.28468
# Velocity P-wave (km/s) = 7.76206 7.98232 7.87296
#
# Compressibility (1/GPa) = 0.01358280
#
# Stress axis : x y z
#
# Youngs Moduli (GPa) = 78.39126 89.71806 97.58640
#
# Poissons Ratio (x) = 0.33092 0.33367
# Poissons Ratio (y) = 0.28914 0.30993
# Poissons Ratio (z) = 0.26804 0.28494
#
# Static dielectric constant tensor:
#      x y z
#    x 1.806340 0.000170 0.028460 
#    y 0.000170 1.755030 0.029380 
#    z 0.028460 0.029380 1.853230 
# 
# From -- ./inp_files/282419.got.cif
#   From: 2010.05.17/outbox.cif.g08.bks.cpg/sg2_142_cif.got.tgz:282419.got - 2010.06.03 11:33:40.
