data_PCOD9007534
_publ_section_title
;
Structure prediction by ZEFSAII (Michael W. Deem and Ramdas Pophale) SiO2 
 PCOD9007534
Probable space group: P -1
;
_chemical_formula_sum "Si O2"
_cell_formula_units_Z 14
_cell_length_a 4.994819
_cell_length_b 5.814717
_cell_length_c 17.414230
_cell_angle_alpha 94.068606
_cell_angle_beta 73.432426
_cell_angle_gamma 101.807498
_cell_volume 474.471710
_symmetry_space_group_name_H-M "P -1"
_symmetry_group_IT_number 2
_symmetry_cell_setting 'triclinic'
loop_
_space_group_symop_operation_xyz
x,y,z
-x,-y,-z
loop_
_atom_site_type_symbol
_atom_site_label
_atom_site_fract_x
_atom_site_fract_y
_atom_site_fract_z
Si Si1 0.694328 0.005295 0.669717
Si Si2 0.514380 0.766490 0.924977
Si Si3 0.662781 0.912585 0.171492
Si Si4 0.825518 0.652098 0.018149
Si Si5 0.270420 0.557820 0.622600
Si Si6 0.695337 0.227447 0.527771
Si Si7 0.084487 0.311612 0.229743
O O1 0.519216 0.161834 0.739052
O O2 0.470492 0.793592 0.644591
O O3 0.857634 0.869746 0.713112
O O4 0.851866 0.142783 0.587014
O O5 0.525385 0.997834 0.876811
O O6 0.167160 0.648215 0.965330
O O7 0.651185 0.608709 0.846678
O O8 0.750206 0.856679 0.973356
O O9 0.858694 0.154809 0.189132
O O10 0.822741 0.740512 0.108254
O O11 0.500000 0.500000 0.000000
O O12 0.475460 0.380111 0.582637
O O13 0.142629 0.632952 0.554300
O O14 0.046912 0.495218 0.708568
O O15 0.500000 0.000000 0.500000
#
# Coordination Sequence:
#
# PCOD9007534 Si02
#       7
#     2   2   2   2   2   2   2
#     4   9  20  36  57  86 117 152 194 240 291 344
#     4  10  23  41  60  86 120 154 196 245 297 351
#     4  10  22  41  60  85 121 157 194 243 296 348
#     4  11  24  40  62  89 116 155 200 243 296 353
#     4   9  19  38  60  84 118 154 192 241 291 342
#     4   9  18  37  60  84 118 155 192 237 288 345
#     4  10  21  39  62  87 118 157 197 243 294 345
#
# _framework density 29.506499000000002
#
# number of rings (size 3 to 8) (size 9 to 14) (size 15 to 20)
#    0.000    2.286    0.000    1.286    0.000   12.000 
#    0.000   17.857    0.000    0.000    0.000    0.000 
#    0.000    0.000    0.000    0.000    0.000    0.000 
#
# Total GULP energy -78267.243629 kJ/mol
# GULP energy per Si atom -5590.517402 kJ/mol
# Density = 2.943934 g / cm^3
# Si number density = 29.506499 Si / 1000 Ang^3
#
#
#
# Elastic Constant Matrix: (Units=GPa)
#
#
# Indices 1 2 3 4 5 6 
#
# 1 115.6388 34.5926 67.0089 -13.4348 9.6976 -2.5254
# 2 34.5926 77.1797 65.6171 12.8726 -11.9287 15.5431
# 3 67.0089 65.6171 253.7811 27.7338 -14.1906 -13.7626
# 4 -13.4348 12.8726 27.7338 69.1224 -15.5212 -6.3560
# 5 9.6976 -11.9287 -14.1906 -15.5212 71.0578 -18.7693
# 6 -2.5254 15.5431 -13.7626 -6.3560 -18.7693 52.8450
#
#
#
# Elastic Compliance Matrix: (Units=1/GPa)
#
#
# Indices 1 2 3 4 5 6 
#
# 1 0.012032 -0.004392 -0.002505 0.003864 -0.001757 0.001055
# 2 -0.004392 0.020706 -0.004189 -0.003642 0.000414 -0.007682
# 3 -0.002505 -0.004189 0.006092 -0.001588 0.001292 0.002967
# 4 0.003864 -0.003642 -0.001588 0.017715 0.003530 0.004227
# 5 -0.001757 0.000414 0.001292 0.003530 0.017169 0.006653
# 6 0.001055 -0.007682 0.002967 0.004227 0.006653 0.024877
#
#
# Mechanical properties :
#
#
# Convention : Reuss Voigt Hill
#
# Bulk Modulus (GPa) = 60.03389 86.78187 73.40788
# Shear Modulus (GPa) = 39.58373 57.23044 48.40709
#
# Velocity S-wave (km/s) = 3.66666 4.40885 4.05477
# Velocity P-wave (km/s) = 6.18999 7.44260 6.84501
#
# Compressibility (1/GPa) = 0.01665726
#
# Stress axis : x y z
#
# Youngs Moduli (GPa) = 83.11089 48.29629 164.16075
#
# Poissons Ratio (x) = 0.21212 0.41117
# Poissons Ratio (y) = 0.36502 0.68772
# Poissons Ratio (z) = 0.20817 0.20233
#
# Static dielectric constant tensor:
#      x y z
#    x 2.220500 0.835780 -0.461330 
#    y 0.835780 -1.768930 1.867190 
#    z -0.461330 1.867190 1.459870 
# 
# From -- ./inp_files/10866.got.cif
#   From: 2010.05.17/outbox.cif.g08.bks.cpg/sg2_6_cif.got.tgz:10866.got - 2010.06.03 11:33:40.
