data_PCOD9007987
_publ_section_title
;
Structure prediction by ZEFSAII (Michael W. Deem and Ramdas Pophale) SiO2 
 PCOD9007987
Probable space group: P -1
;
_chemical_formula_sum "Si O2"
_cell_formula_units_Z 16
_cell_length_a 7.650004
_cell_length_b 11.307807
_cell_length_c 24.635269
_cell_angle_alpha 31.744300
_cell_angle_beta 48.248824
_cell_angle_gamma 37.478935
_cell_volume 681.959348
_symmetry_space_group_name_H-M "P -1"
_symmetry_group_IT_number 2
_symmetry_cell_setting 'triclinic'
loop_
_space_group_symop_operation_xyz
x,y,z
-x,-y,-z
loop_
_atom_site_type_symbol
_atom_site_label
_atom_site_fract_x
_atom_site_fract_y
_atom_site_fract_z
Si Si1 0.960889 0.763231 0.030653
Si Si2 0.799650 0.280229 0.379078
Si Si3 0.342585 0.668143 0.412104
Si Si4 0.431169 0.328292 0.929430
Si Si5 0.162111 0.845912 0.854746
Si Si6 0.832649 0.787402 0.528049
Si Si7 0.353673 0.576179 0.260040
Si Si8 0.717073 0.794076 0.750646
O O1 0.779498 0.721370 0.039942
O O2 0.140252 0.491432 0.135121
O O3 0.155268 0.819162 0.931841
O O4 0.712244 0.039644 0.005127
O O5 0.555103 0.483062 0.392574
O O6 0.633510 0.401274 0.308069
O O7 0.084368 0.270400 0.317467
O O8 0.894064 0.966479 0.483982
O O9 0.500000 0.500000 0.500000
O O10 0.037480 0.709881 0.463940
O O11 0.287901 0.965658 0.310104
O O12 0.261984 0.560382 0.918405
O O13 0.549788 0.430870 0.818396
O O14 0.392055 0.901495 0.766101
O O15 0.843996 0.106248 0.804036
O O16 0.843579 0.535164 0.649507
O O17 0.500000 0.000000 0.500000
#
# Coordination Sequence:
#
# PCOD9007987 Si02
#       8
#     2   2   2   2   2   2   2   2
#     4  10  22  42  62  92 129 161 210 256 309 370
#     4  10  23  41  64  87 124 174 205 251 317 369
#     4  11  25  42  62  91 127 165 208 255 311 373
#     4  10  22  40  65  92 128 162 205 260 306 373
#     4  11  24  37  66  97 124 164 206 261 312 360
#     4   9  21  39  61  90 122 156 206 259 298 362
#     4  10  21  39  63  93 124 160 212 256 305 373
#     4  11  24  42  64  93 129 165 208 257 308 375
#
# _framework density 23.46181
#
# number of rings (size 3 to 8) (size 9 to 14) (size 15 to 20)
#    0.000    1.750    1.250    1.500    1.750   10.500 
#    0.000    0.000    0.000    0.000    0.000    0.000 
#    0.000    0.000    0.000    0.000    0.000    0.000 
#
# Total GULP energy -89477.348511 kJ/mol
# GULP energy per Si atom -5592.334282 kJ/mol
# Density = 2.340841 g / cm^3
# Si number density = 23.461810 Si / 1000 Ang^3
#
#
#
# Elastic Constant Matrix: (Units=GPa)
#
#
# Indices 1 2 3 4 5 6 
#
# 1 16.6081 3.7095 -2.5437 3.8637 -3.4541 -9.8655
# 2 3.7095 165.8806 34.7609 1.0419 -3.9056 -1.3366
# 3 -2.5437 34.7609 95.1912 -0.5049 -6.1050 -4.9893
# 4 3.8637 1.0419 -0.5049 51.5865 -15.1344 -8.2643
# 5 -3.4541 -3.9056 -6.1050 -15.1344 34.8177 1.2342
# 6 -9.8655 -1.3366 -4.9893 -8.2643 1.2342 30.8171
#
#
#
# Elastic Compliance Matrix: (Units=1/GPa)
#
#
# Indices 1 2 3 4 5 6 
#
# 1 0.078092 -0.002366 0.004783 0.000584 0.007670 0.025521
# 2 -0.002366 0.006604 -0.002520 -0.000113 0.000047 -0.000911
# 3 0.004783 -0.002520 0.011916 0.001159 0.002659 0.003556
# 4 0.000584 -0.000113 0.001159 0.023335 0.010171 0.006220
# 5 0.007670 0.000047 0.002659 0.010171 0.034224 0.004245
# 6 0.025521 -0.000911 0.003556 0.006220 0.004245 0.042654
#
#
# Mechanical properties :
#
#
# Convention : Reuss Voigt Hill
#
# Bulk Modulus (GPa) = 10.37274 38.83704 24.60489
# Shear Modulus (GPa) = 21.81816 39.56112 30.68964
#
# Velocity S-wave (km/s) = 3.05281 4.11078 3.62065
# Velocity P-wave (km/s) = 4.10571 6.25465 5.29044
#
# Compressibility (1/GPa) = 0.09640653
#
# Stress axis : x y z
#
# Youngs Moduli (GPa) = 12.80542 151.42515 83.91870
#
# Poissons Ratio (x) = 0.35829 -0.40142
# Poissons Ratio (y) = 0.03030 0.21148
# Poissons Ratio (z) = -0.06125 0.38161
#
# Static dielectric constant tensor:
#      x y z
#    x 1.924500 -0.007200 -0.028080 
#    y -0.007200 1.860670 0.014030 
#    z -0.028080 0.014030 1.928940 
# 
# From -- ./inp_files/46667.got.cif
#   From: 2010.05.17/outbox.cif.g08.bks.cpg/sg2_24_cif.got.tgz:46667.got - 2010.06.03 11:33:40.
