data_PCOD9007109
_publ_section_title
;
Structure prediction by ZEFSAII (Michael W. Deem and Ramdas Pophale) SiO2 
 PCOD9007109
Probable space group: P -1
;
_chemical_formula_sum "Si O2"
_cell_formula_units_Z 16
_cell_length_a 10.174621
_cell_length_b 15.104720
_cell_length_c 6.702350
_cell_angle_alpha 109.804892
_cell_angle_beta 57.996022
_cell_angle_gamma 140.495090
_cell_volume 550.956913
_symmetry_space_group_name_H-M "P -1"
_symmetry_group_IT_number 2
_symmetry_cell_setting 'triclinic'
loop_
_space_group_symop_operation_xyz
x,y,z
-x,-y,-z
loop_
_atom_site_type_symbol
_atom_site_label
_atom_site_fract_x
_atom_site_fract_y
_atom_site_fract_z
Si Si1 0.132298 0.918317 0.006326
Si Si2 0.712623 0.165570 0.920859
Si Si3 0.907593 0.228222 0.405957
Si Si4 0.251664 0.124942 0.638952
Si Si5 0.755822 0.830791 0.761229
Si Si6 0.617670 0.351478 0.764778
Si Si7 0.297701 0.464526 0.527205
Si Si8 0.012266 0.412473 0.097300
O O1 0.213353 0.906199 0.730410
O O2 0.040512 0.956083 0.641190
O O3 0.889454 0.859674 0.109848
O O4 0.277277 0.070878 0.088024
O O5 0.743443 0.192169 0.683200
O O6 0.758219 0.280288 0.100176
O O7 0.900139 0.176534 0.875247
O O8 0.500000 0.000000 0.000000
O O9 0.135971 0.315960 0.425170
O O10 0.995163 0.333776 0.237677
O O11 0.300089 0.197558 0.447474
O O12 0.481293 0.208289 0.642295
O O13 0.563032 0.698415 0.956060
O O14 0.643038 0.437363 0.627195
O O15 0.855242 0.446353 0.773884
O O16 0.500000 0.500000 0.500000
O O17 0.162460 0.458143 0.811279
#
# Coordination Sequence:
#
# PCOD9007109 Si02
#       8
#     2   2   2   2   2   2   2   2
#     4   9  20  34  54  81 109 140 187 227 263 328
#     4  10  21  39  60  84 110 136 177 239 289 324
#     4   9  20  35  54  79 106 145 179 222 277 330
#     4   9  20  33  50  80 113 148 187 226 260 314
#     4   9  20  36  50  77 115 149 193 219 262 317
#     4  11  20  32  53  72 108 157 178 219 267 320
#     4  10  22  31  47  76 112 145 183 223 263 322
#     4   9  21  37  49  81 108 146 185 220 272 332
#
# _framework density 29.040381
#
# number of rings (size 3 to 8) (size 9 to 14) (size 15 to 20)
#    0.750    1.750    0.000    1.125    7.000    5.000 
#    0.000    0.000    0.000    0.750    0.000    9.625 
#    0.000    0.000    0.000    0.000    0.000    0.000 
#
# Total GULP energy -89178.108136 kJ/mol
# GULP energy per Si atom -5573.631759 kJ/mol
# Density = 2.897428 g / cm^3
# Si number density = 29.040381 Si / 1000 Ang^3
#
#
#
# Elastic Constant Matrix: (Units=GPa)
#
#
# Indices 1 2 3 4 5 6 
#
# 1 83.9499 36.1700 34.9240 -2.5081 29.3121 13.8202
# 2 36.1700 192.6362 57.8718 32.0096 19.8640 38.5139
# 3 34.9240 57.8718 233.8357 -1.9646 32.9947 12.7330
# 4 -2.5081 32.0096 -1.9646 65.6828 -3.2759 22.6620
# 5 29.3121 19.8640 32.9947 -3.2759 51.8616 5.4152
# 6 13.8202 38.5139 12.7330 22.6620 5.4152 44.2650
#
#
#
# Elastic Compliance Matrix: (Units=1/GPa)
#
#
# Indices 1 2 3 4 5 6 
#
# 1 0.016253 -0.001714 -0.000721 0.002313 -0.007545 -0.003636
# 2 -0.001714 0.007135 -0.001204 -0.002194 -0.000706 -0.004117
# 3 -0.000721 -0.001204 0.005020 0.000681 -0.002256 -0.000243
# 4 0.002313 -0.002194 0.000681 0.019652 0.001305 -0.009230
# 5 -0.007545 -0.000706 -0.002256 0.001305 0.025350 -0.000150
# 6 -0.003636 -0.004117 -0.000243 -0.009230 -0.000150 0.032123
#
#
# Mechanical properties :
#
#
# Convention : Reuss Voigt Hill
#
# Bulk Modulus (GPa) = 47.33082 85.37259 66.35171
# Shear Modulus (GPa) = 41.71709 57.79227 49.75468
#
# Velocity S-wave (km/s) = 3.79426 4.46586 4.14368
# Velocity P-wave (km/s) = 5.96061 7.48689 6.76692
#
# Compressibility (1/GPa) = 0.02112788
#
# Stress axis : x y z
#
# Youngs Moduli (GPa) = 61.52890 140.14756 199.21819
#
# Poissons Ratio (x) = 0.24025 0.14365
# Poissons Ratio (y) = 0.10548 0.23995
# Poissons Ratio (z) = 0.04437 0.16880
#
# Static dielectric constant tensor:
#      x y z
#    x 2.333330 0.016950 -0.052370 
#    y 0.016950 2.396270 -0.023710 
#    z -0.052370 -0.023710 2.151840 
# 
# From -- ./inp_files/100620.got.cif
#   From: 2010.05.17/outbox.cif.g08.bks.cpg/sg2_51_cif.got.tgz:100620.got - 2010.06.03 11:33:40.
