data_PCOD9007969
_publ_section_title
;
Structure prediction by ZEFSAII (Michael W. Deem and Ramdas Pophale) SiO2 
 PCOD9007969
Probable space group: P -1
;
_chemical_formula_sum "Si O2"
_cell_formula_units_Z 16
_cell_length_a 19.348092
_cell_length_b 6.781044
_cell_length_c 19.430836
_cell_angle_alpha 66.139485
_cell_angle_beta 159.341033
_cell_angle_gamma 102.250694
_cell_volume 704.855892
_symmetry_space_group_name_H-M "P -1"
_symmetry_group_IT_number 2
_symmetry_cell_setting 'triclinic'
loop_
_space_group_symop_operation_xyz
x,y,z
-x,-y,-z
loop_
_atom_site_type_symbol
_atom_site_label
_atom_site_fract_x
_atom_site_fract_y
_atom_site_fract_z
Si Si1 0.392345 0.886174 0.504552
Si Si2 0.002209 0.275863 0.992271
Si Si3 0.245409 0.165438 0.710137
Si Si4 0.244965 0.966872 0.145012
Si Si5 0.833729 0.984337 0.581668
Si Si6 0.515410 0.938852 0.190174
Si Si7 0.974420 0.759829 0.373295
Si Si8 0.311946 0.678898 0.112287
O O1 0.560357 0.589679 0.694218
O O2 0.226621 0.032296 0.267243
O O3 0.528004 0.028224 0.628283
O O4 0.243116 0.912275 0.428237
O O5 0.047268 0.231054 0.958744
O O6 0.000000 0.500000 0.000000
O O7 0.793474 0.243626 0.825039
O O8 0.292064 0.113976 0.680028
O O9 0.091883 0.119775 0.628517
O O10 0.139182 0.463024 0.576050
O O11 0.500000 0.000000 0.000000
O O12 0.245627 0.901155 0.074752
O O13 0.622301 0.980576 0.351750
O O14 0.899765 0.143018 0.571512
O O15 0.076819 0.725667 0.853545
O O16 0.463549 0.716891 0.190729
O O17 0.268362 0.161296 0.901054
#
# Coordination Sequence:
#
# PCOD9007969 Si02
#       8
#     2   2   2   2   2   2   2   2
#     4  12  25  42  68  95 130 171 213 270 325 386
#     4  11  26  46  68  98 130 165 217 269 323 396
#     4   9  18  38  62  90 128 171 211 269 316 369
#     4  11  24  44  69  96 126 172 212 265 331 384
#     4  11  23  41  61  95 130 167 220 265 318 387
#     4  10  21  39  63  92 127 173 212 263 326 372
#     4   9  20  38  62  90 129 166 217 264 314 382
#     4  11  24  43  64  97 132 167 222 268 319 389
#
# _framework density 22.699674000000002
#
# number of rings (size 3 to 8) (size 9 to 14) (size 15 to 20)
#    0.000    1.500    2.500    1.875    0.000    5.500 
#    0.000    5.625    0.000    0.000    0.000    0.000 
#    0.000    0.000    0.000    0.000    0.000    0.000 
#
# Total GULP energy -89216.426430 kJ/mol
# GULP energy per Si atom -5576.026652 kJ/mol
# Density = 2.264801 g / cm^3
# Si number density = 22.699674 Si / 1000 Ang^3
#
#
#
# Elastic Constant Matrix: (Units=GPa)
#
#
# Indices 1 2 3 4 5 6 
#
# 1 121.3443 24.3737 16.1927 5.4743 18.4325 9.8004
# 2 24.3737 80.7983 50.6085 5.2657 1.7882 10.5205
# 3 16.1927 50.6085 112.1362 -2.0441 -5.3162 9.5662
# 4 5.4743 5.2657 -2.0441 35.3558 9.5784 -2.6472
# 5 18.4325 1.7882 -5.3162 9.5784 36.1907 7.5344
# 6 9.8004 10.5205 9.5662 -2.6472 7.5344 30.8154
#
#
#
# Elastic Compliance Matrix: (Units=1/GPa)
#
#
# Indices 1 2 3 4 5 6 
#
# 1 0.009556 -0.002381 -0.000443 0.000030 -0.004624 -0.000956
# 2 -0.002381 0.018648 -0.007782 -0.003351 0.000800 -0.003677
# 3 -0.000443 -0.007782 0.012779 0.001153 0.002534 -0.001690
# 4 0.000030 -0.003351 0.001153 0.031797 -0.009300 0.005782
# 5 -0.004624 0.000800 0.002534 -0.009300 0.034623 -0.008854
# 6 -0.000956 -0.003677 -0.001690 0.005782 -0.008854 0.037197
#
#
# Mechanical properties :
#
#
# Convention : Reuss Voigt Hill
#
# Bulk Modulus (GPa) = 50.57313 55.18096 52.87704
# Shear Modulus (GPa) = 29.00182 35.34598 32.17390
#
# Velocity S-wave (km/s) = 3.57828 3.95031 3.76889
# Velocity P-wave (km/s) = 6.27692 6.72075 6.50262
#
# Compressibility (1/GPa) = 0.01977335
#
# Stress axis : x y z
#
# Youngs Moduli (GPa) = 104.64120 53.62394 78.25322
#
# Poissons Ratio (x) = 0.12767 0.03463
# Poissons Ratio (y) = 0.24912 0.60896
# Poissons Ratio (z) = 0.04631 0.41730
#
# Static dielectric constant tensor:
#      x y z
#    x 1.950060 -0.030440 -0.002670 
#    y -0.030440 1.848290 0.017940 
#    z -0.002670 0.017940 1.863400 
# 
# From -- ./inp_files/600759.got.cif
#   From: 2010.05.17/outbox.cif.g08.bks.cpg/sg2_301_cif.got.tgz:600759.got - 2010.06.03 11:33:40.
