data_PCOD9007295
_publ_section_title
;
Structure prediction by ZEFSAII (Michael W. Deem and Ramdas Pophale) SiO2 
 PCOD9007295
Probable space group: P -1
;
_chemical_formula_sum "Si O2"
_cell_formula_units_Z 15
_cell_length_a 12.416053
_cell_length_b 6.874518
_cell_length_c 7.100217
_cell_angle_alpha 109.707201
_cell_angle_beta 75.280527
_cell_angle_gamma 102.554109
_cell_volume 546.012858
_symmetry_space_group_name_H-M "P -1"
_symmetry_group_IT_number 2
_symmetry_cell_setting 'triclinic'
loop_
_space_group_symop_operation_xyz
x,y,z
-x,-y,-z
loop_
_atom_site_type_symbol
_atom_site_label
_atom_site_fract_x
_atom_site_fract_y
_atom_site_fract_z
Si Si1 0.095092 0.061086 0.712627
Si Si2 0.500000 0.500000 0.000000
Si Si3 0.889306 0.764229 0.645069
Si Si4 0.868471 0.497705 0.079070
Si Si5 0.210184 0.657932 0.517859
Si Si6 0.337406 0.757324 0.997827
Si Si7 0.370614 0.195637 0.255637
Si Si8 0.552688 0.207476 0.438630
O O1 0.069552 0.177595 0.567716
O O2 0.148579 0.262152 0.874501
O O3 0.178953 0.889944 0.589822
O O4 0.978635 0.917695 0.776499
O O5 0.612962 0.451159 0.043282
O O6 0.430824 0.304164 0.083370
O O7 0.871972 0.517529 0.619445
O O8 0.760577 0.800539 0.702404
O O9 0.822231 0.428177 0.285812
O O10 0.795098 0.310080 0.938212
O O11 0.000000 0.500000 0.000000
O O12 0.346643 0.664712 0.438072
O O13 0.378522 0.826890 0.792716
O O14 0.381336 0.951453 0.171399
O O15 0.440339 0.292706 0.439081
O O16 0.500000 0.000000 0.500000
#
# Coordination Sequence:
#
# PCOD9007295 Si02
#       8
#     2   1   2   2   2   2   2   2
#     4  10  21  39  61  86 121 156 198 256 305 359
#     4  10  22  38  60  88 122 162 202 246 300 360
#     4  10  22  38  59  89 120 157 203 249 305 367
#     4  10  22  39  60  88 119 157 203 250 303 364
#     4  10  22  38  59  88 119 156 204 252 303 363
#     4  10  23  41  62  92 127 162 207 255 304 368
#     4  11  23  40  63  92 126 165 206 253 307 366
#     4  10  21  39  64  89 122 164 204 251 306 360
#
# _framework density 27.471881
#
# number of rings (size 3 to 8) (size 9 to 14) (size 15 to 20)
#    0.000    1.867    0.000    3.600    0.000    8.533 
#    0.000    4.000    0.000    0.000    0.000    0.000 
#    0.000    0.000    0.000    0.000    0.000    0.000 
#
# Total GULP energy -83615.022946 kJ/mol
# GULP energy per Si atom -5574.334863 kJ/mol
# Density = 2.740935 g / cm^3
# Si number density = 27.471881 Si / 1000 Ang^3
#
#
#
# Elastic Constant Matrix: (Units=GPa)
#
#
# Indices 1 2 3 4 5 6 
#
# 1 192.1338 57.9203 10.5837 8.2647 -11.9492 45.6737
# 2 57.9203 185.6888 45.7307 -7.2146 14.8421 22.9795
# 3 10.5837 45.7307 61.2988 -21.2030 0.4845 20.6334
# 4 8.2647 -7.2146 -21.2030 54.5998 8.7689 -0.3537
# 5 -11.9492 14.8421 0.4845 8.7689 28.6072 2.8817
# 6 45.6737 22.9795 20.6334 -0.3537 2.8817 57.2208
#
#
#
# Elastic Compliance Matrix: (Units=1/GPa)
#
#
# Indices 1 2 3 4 5 6 
#
# 1 0.007820 -0.002727 0.002154 -0.001677 0.005786 -0.006225
# 2 -0.002727 0.007933 -0.005848 0.000052 -0.005309 0.001367
# 3 0.002154 -0.005848 0.026328 0.008797 0.001687 -0.008895
# 4 -0.001677 0.000052 0.008797 0.023247 -0.007870 -0.001314
# 5 0.005786 -0.005309 0.001687 -0.007870 0.043046 -0.005311
# 6 -0.006225 0.001367 -0.008895 -0.001314 -0.005311 0.025363
#
#
# Mechanical properties :
#
#
# Convention : Reuss Voigt Hill
#
# Bulk Modulus (GPa) = 34.20119 74.17677 54.18898
# Shear Modulus (GPa) = 31.98437 49.74468 40.86452
#
# Velocity S-wave (km/s) = 3.41582 4.25991 3.86100
# Velocity P-wave (km/s) = 5.29469 7.15928 6.29639
#
# Compressibility (1/GPa) = 0.02923875
#
# Stress axis : x y z
#
# Youngs Moduli (GPa) = 127.87895 126.04991 37.98244
#
# Poissons Ratio (x) = 0.34372 -0.08180
# Poissons Ratio (y) = 0.34871 0.22212
# Poissons Ratio (z) = -0.27541 0.73715
#
# Static dielectric constant tensor:
#      x y z
#    x -0.032250 3.593460 0.222270 
#    y 3.593460 -3.471250 -0.115890 
#    z 0.222270 -0.115890 2.254140 
# 
# From -- ./inp_files/229723.got.cif
#   From: 2010.05.17/outbox.cif.g08.bks.cpg/sg2_115_cif.got.tgz:229723.got - 2010.06.03 11:33:40.
