data_PCOD9007060
_publ_section_title
;
Structure prediction by ZEFSAII (Michael W. Deem and Ramdas Pophale) SiO2 
 PCOD9007060
Probable space group: P -1
;
_chemical_formula_sum "Si O2"
_cell_formula_units_Z 16
_cell_length_a 10.991643
_cell_length_b 14.681578
_cell_length_c 8.821339
_cell_angle_alpha 51.240343
_cell_angle_beta 120.163435
_cell_angle_gamma 142.469372
_cell_volume 676.170741
_symmetry_space_group_name_H-M "P -1"
_symmetry_group_IT_number 2
_symmetry_cell_setting 'triclinic'
loop_
_space_group_symop_operation_xyz
x,y,z
-x,-y,-z
loop_
_atom_site_type_symbol
_atom_site_label
_atom_site_fract_x
_atom_site_fract_y
_atom_site_fract_z
Si Si1 0.515714 0.528598 0.802215
Si Si2 0.767741 0.810360 0.444397
Si Si3 0.607774 0.362729 0.827482
Si Si4 0.157159 0.443106 0.749899
Si Si5 0.547092 0.974100 0.891010
Si Si6 0.076439 0.849895 0.876389
Si Si7 0.759542 0.249443 0.510973
Si Si8 0.989000 0.277700 0.352974
O O1 0.685025 0.716453 0.652171
O O2 0.550150 0.428011 0.843482
O O3 0.300317 0.460164 0.705036
O O4 0.500000 0.500000 0.000000
O O5 0.559927 0.716454 0.324708
O O6 0.890197 0.772738 0.492684
O O7 0.901987 0.004326 0.316551
O O8 0.834838 0.521617 0.753737
O O9 0.582376 0.216460 0.023041
O O10 0.263562 0.627284 0.669434
O O11 0.948160 0.352715 0.636141
O O12 0.106206 0.328171 0.977893
O O13 0.576573 0.085015 0.660679
O O14 0.769144 0.058279 0.982364
O O15 0.500000 0.000000 0.000000
O O16 0.112955 0.800019 0.795030
O O17 0.831677 0.218753 0.443572
#
# Coordination Sequence:
#
# PCOD9007060 Si02
#       8
#     2   2   2   2   2   2   2   2
#     4  11  22  38  61  93 126 161 203 257 305 358
#     4  10  21  39  64  89 124 169 202 248 304 364
#     4  10  22  39  66  90 120 168 208 246 303 367
#     4  10  21  39  59  90 124 160 206 243 308 370
#     4  10  24  44  63  87 122 165 210 250 304 374
#     4  10  23  39  61  92 122 165 199 258 314 349
#     4  10  23  37  63  90 120 163 200 255 306 364
#     4  11  21  39  61  95 125 155 207 254 307 369
#
# _framework density 23.662659999999999
#
# number of rings (size 3 to 8) (size 9 to 14) (size 15 to 20)
#    0.000    1.750    0.000    4.875    8.750    2.500 
#    2.250    4.375    0.000    0.000    0.000    0.000 
#    0.000    0.000    0.000    0.000    0.000    0.000 
#
# Total GULP energy -89376.020288 kJ/mol
# GULP energy per Si atom -5586.001268 kJ/mol
# Density = 2.360880 g / cm^3
# Si number density = 23.662660 Si / 1000 Ang^3
#
#
#
# Elastic Constant Matrix: (Units=GPa)
#
#
# Indices 1 2 3 4 5 6 
#
# 1 83.3028 9.2146 65.2385 -36.5397 -20.5571 -12.9362
# 2 9.2146 96.0379 74.1692 -32.6778 -1.0941 -7.9844
# 3 65.2385 74.1692 197.4430 -51.4400 -14.1948 -17.8068
# 4 -36.5397 -32.6778 -51.4400 51.6075 -0.3289 7.0310
# 5 -20.5571 -1.0941 -14.1948 -0.3289 41.9700 8.8454
# 6 -12.9362 -7.9844 -17.8068 7.0310 8.8454 19.7763
#
#
#
# Elastic Compliance Matrix: (Units=1/GPa)
#
#
# Indices 1 2 3 4 5 6 
#
# 1 0.027400 0.009104 -0.006606 0.018036 0.010619 0.004489
# 2 0.009104 0.018835 -0.006751 0.011323 0.002238 0.002454
# 3 -0.006606 -0.006751 0.010172 0.000918 -0.000376 0.001954
# 4 0.018036 0.011323 0.000918 0.040534 0.010125 -0.001743
# 5 0.010619 0.002238 -0.000376 0.010125 0.031150 -0.010021
# 6 0.004489 0.002454 0.001954 -0.001743 -0.010021 0.061353
#
#
# Mechanical properties :
#
#
# Convention : Reuss Voigt Hill
#
# Bulk Modulus (GPa) = 20.87688 74.89205 47.88446
# Shear Modulus (GPa) = 23.37344 37.88150 30.62747
#
# Velocity S-wave (km/s) = 3.14630 4.00546 3.60159
# Velocity P-wave (km/s) = 4.69476 7.28768 6.12989
#
# Compressibility (1/GPa) = 0.04789988
#
# Stress axis : x y z
#
# Youngs Moduli (GPa) = 36.49694 53.09184 98.30867
#
# Poissons Ratio (x) = -0.48334 0.64943
# Poissons Ratio (y) = -0.33226 0.66372
# Poissons Ratio (z) = 0.24110 0.35844
#
# Static dielectric constant tensor:
#      x y z
#    x 1.916770 0.096890 0.046790 
#    y 0.096890 1.961180 0.044270 
#    z 0.046790 0.044270 1.915640 
# 
# From -- ./inp_files/271864.got.cif
#   From: 2010.05.17/outbox.cif.g08.bks.cpg/sg2_136_cif.got.tgz:271864.got - 2010.06.03 11:33:40.
