data_PCOD9007123
_publ_section_title
;
Structure prediction by ZEFSAII (Michael W. Deem and Ramdas Pophale) SiO2 
 PCOD9007123
Probable space group: P -1
;
_chemical_formula_sum "Si O2"
_cell_formula_units_Z 15
_cell_length_a 7.860798
_cell_length_b 14.615759
_cell_length_c 16.907729
_cell_angle_alpha 158.864260
_cell_angle_beta 64.357063
_cell_angle_gamma 113.848817
_cell_volume 631.454738
_symmetry_space_group_name_H-M "P -1"
_symmetry_group_IT_number 2
_symmetry_cell_setting 'triclinic'
loop_
_space_group_symop_operation_xyz
x,y,z
-x,-y,-z
loop_
_atom_site_type_symbol
_atom_site_label
_atom_site_fract_x
_atom_site_fract_y
_atom_site_fract_z
Si Si1 0.299419 0.857016 0.072899
Si Si2 0.500000 0.500000 0.000000
Si Si3 0.778419 0.706673 0.339761
Si Si4 0.994600 0.749851 0.489638
Si Si5 0.566003 0.000871 0.277494
Si Si6 0.821235 0.215281 0.129406
Si Si7 0.884668 0.238500 0.305649
Si Si8 0.286742 0.904727 0.454732
O O1 0.471279 0.929588 0.153423
O O2 0.137634 0.068684 0.286571
O O3 0.224387 0.592488 0.910033
O O4 0.322842 0.807225 0.933649
O O5 0.565670 0.739281 0.117579
O O6 0.315613 0.667128 0.199412
O O7 0.925689 0.776633 0.433960
O O8 0.580311 0.806335 0.495629
O O9 0.810743 0.853954 0.371189
O O10 0.952857 0.461309 0.286416
O O11 0.207367 0.831199 0.496631
O O12 0.755179 0.148933 0.331969
O O13 0.757393 0.248225 0.259155
O O14 0.954260 0.972294 0.905388
O O15 0.000000 0.500000 0.500000
O O16 0.500000 0.000000 0.500000
#
# Coordination Sequence:
#
# PCOD9007123 Si02
#       8
#     2   1   2   2   2   2   2   2
#     4  10  21  41  63  89 126 168 215 266 317 376
#     4  10  22  40  62  96 130 162 208 264 324 376
#     4   9  21  37  57  88 122 163 209 258 320 376
#     4  10  21  39  60  85 124 165 208 260 316 379
#     4  10  22  41  66  94 129 166 212 268 320 383
#     4  10  23  41  64  92 123 167 215 259 323 385
#     4  11  24  42  65  96 130 168 211 262 324 388
#     4  11  22  34  57  90 122 164 212 260 314 374
#
# _framework density 23.754674000000001
#
# number of rings (size 3 to 8) (size 9 to 14) (size 15 to 20)
#    0.000    1.867    0.000    2.800    0.000    9.600 
#    0.000    9.333    0.000    0.000    0.000    0.000 
#    0.000    0.000    0.000    0.000    0.000    0.000 
#
# Total GULP energy -83518.910331 kJ/mol
# GULP energy per Si atom -5567.927355 kJ/mol
# Density = 2.370061 g / cm^3
# Si number density = 23.754674 Si / 1000 Ang^3
#
#
#
# Elastic Constant Matrix: (Units=GPa)
#
#
# Indices 1 2 3 4 5 6 
#
# 1 37.1054 37.6525 17.7300 12.6532 10.6824 -11.1261
# 2 37.6525 181.4716 45.8625 20.6808 18.7461 -9.7191
# 3 17.7300 45.8625 128.9426 33.4680 -2.5432 -8.4999
# 4 12.6532 20.6808 33.4680 35.2727 -10.4102 4.8758
# 5 10.6824 18.7461 -2.5432 -10.4102 24.3021 2.1260
# 6 -11.1261 -9.7191 -8.4999 4.8758 2.1260 39.6172
#
#
#
# Elastic Compliance Matrix: (Units=1/GPa)
#
#
# Indices 1 2 3 4 5 6 
#
# 1 0.062541 -0.003478 0.003935 -0.040540 -0.043941 0.024902
# 2 -0.003478 0.007799 -0.001188 -0.004369 -0.006620 0.001574
# 3 0.003935 -0.001188 0.011572 -0.014264 -0.006183 0.005384
# 4 -0.040540 -0.004369 -0.014264 0.079499 0.056229 -0.028319
# 5 -0.043941 -0.006620 -0.006183 0.056229 0.091382 -0.027115
# 6 0.024902 0.001574 0.005384 -0.028319 -0.027115 0.038717
#
#
# Mechanical properties :
#
#
# Convention : Reuss Voigt Hill
#
# Bulk Modulus (GPa) = 12.43026 61.11218 36.77122
# Shear Modulus (GPa) = 15.63534 36.25670 25.94602
#
# Velocity S-wave (km/s) = 2.56833 3.91102 3.30850
# Velocity P-wave (km/s) = 3.74689 6.79537 5.48709
#
# Compressibility (1/GPa) = 0.08044882
#
# Stress axis : x y z
#
# Youngs Moduli (GPa) = 15.98953 128.22946 86.41318
#
# Poissons Ratio (x) = 0.44597 -0.34002
# Poissons Ratio (y) = 0.05561 0.10270
# Poissons Ratio (z) = -0.06292 0.15239
#
# Static dielectric constant tensor:
#      x y z
#    x 2.092200 0.042100 0.107010 
#    y 0.042100 1.976660 -0.005520 
#    z 0.107010 -0.005520 1.878680 
# 
# From -- ./inp_files/561217.got.cif
#   From: 2010.05.17/outbox.cif.g08.bks.cpg/sg2_281_cif.got.tgz:561217.got - 2010.06.03 11:33:40.
