data_PCOD9007399
_publ_section_title
;
Structure prediction by ZEFSAII (Michael W. Deem and Ramdas Pophale) SiO2 
 PCOD9007399
Probable space group: P -1
;
_chemical_formula_sum "Si O2"
_cell_formula_units_Z 14
_cell_length_a 12.132365
_cell_length_b 11.517009
_cell_length_c 9.763599
_cell_angle_alpha 119.831111
_cell_angle_beta 56.152182
_cell_angle_gamma 73.742646
_cell_volume 623.398121
_symmetry_space_group_name_H-M "P -1"
_symmetry_group_IT_number 2
_symmetry_cell_setting 'triclinic'
loop_
_space_group_symop_operation_xyz
x,y,z
-x,-y,-z
loop_
_atom_site_type_symbol
_atom_site_label
_atom_site_fract_x
_atom_site_fract_y
_atom_site_fract_z
Si Si1 0.188854 0.501457 0.632613
Si Si2 0.724388 0.425454 0.879868
Si Si3 0.360464 0.567021 0.340767
Si Si4 0.720472 0.935827 0.154367
Si Si5 0.534125 0.117801 0.684299
Si Si6 0.453088 0.678927 0.567255
Si Si7 0.067952 0.337934 0.739642
O O1 0.319606 0.465584 0.397386
O O2 0.312423 0.444424 0.652526
O O3 0.159754 0.365447 0.575765
O O4 0.959092 0.743957 0.922917
O O5 0.781492 0.323370 0.632122
O O6 0.892116 0.380702 0.819989
O O7 0.603761 0.406956 0.039700
O O8 0.544223 0.673501 0.109006
O O9 0.322874 0.725767 0.555094
O O10 0.567697 0.085990 0.477763
O O11 0.677670 0.086779 0.163791
O O12 0.642906 0.847706 0.120725
O O13 0.750454 0.897755 0.466780
O O14 0.500000 0.500000 0.500000
O O15 0.000000 0.500000 0.000000
#
# Coordination Sequence:
#
# PCOD9007399 Si02
#       7
#     2   2   2   2   2   2   2
#     4  11  22  39  66  98 121 158 211 266 305 359
#     4  11  23  45  61  87 130 171 203 252 309 383
#     4  10  24  42  62  85 133 173 198 245 324 372
#     4  11  20  36  64  96 123 151 207 267 308 351
#     4  11  21  36  64  95 121 159 210 256 309 364
#     4  10  21  39  61  91 126 157 199 255 312 363
#     4  12  21  38  69  96 120 159 214 261 309 357
#
# _framework density 22.457557000000001
#
# number of rings (size 3 to 8) (size 9 to 14) (size 15 to 20)
#    0.000    1.143    5.714    1.714    0.000    2.857 
#    0.000    7.857    0.000    0.000    0.000    0.000 
#    0.000    0.000    0.000    0.000    0.000    0.000 
#
# Total GULP energy -77935.153805 kJ/mol
# GULP energy per Si atom -5566.796700 kJ/mol
# Density = 2.240644 g / cm^3
# Si number density = 22.457557 Si / 1000 Ang^3
#
#
#
# Elastic Constant Matrix: (Units=GPa)
#
#
# Indices 1 2 3 4 5 6 
#
# 1 146.4927 30.5180 39.2863 -12.6809 -35.7429 11.0903
# 2 30.5180 131.9779 34.5257 -9.6193 -19.8912 13.9571
# 3 39.2863 34.5257 45.0567 11.1346 -24.9318 -2.5270
# 4 -12.6809 -9.6193 11.1346 45.9411 -7.0523 -11.2681
# 5 -35.7429 -19.8912 -24.9318 -7.0523 28.8055 0.0489
# 6 11.0903 13.9571 -2.5270 -11.2681 0.0489 27.5769
#
#
#
# Elastic Compliance Matrix: (Units=1/GPa)
#
#
# Indices 1 2 3 4 5 6 
#
# 1 0.012011 0.001684 -0.007252 0.006225 0.011320 -0.003823
# 2 0.001684 0.011032 -0.010213 0.004197 0.001905 -0.005485
# 3 -0.007252 -0.010213 0.055981 -0.011028 0.029688 0.008656
# 4 0.006225 0.004197 -0.011028 0.029940 0.008397 0.006580
# 5 0.011320 0.001905 0.029688 0.008397 0.077828 0.000497
# 6 -0.003823 -0.005485 0.008656 0.006580 0.000497 0.044057
#
#
# Mechanical properties :
#
#
# Convention : Reuss Voigt Hill
#
# Bulk Modulus (GPa) = 21.06891 59.13191 40.10041
# Shear Modulus (GPa) = 17.97067 35.07788 26.52427
#
# Velocity S-wave (km/s) = 2.83186 3.95646 3.44042
# Velocity P-wave (km/s) = 4.48270 6.87452 5.80317
#
# Compressibility (1/GPa) = 0.04746331
#
# Stress axis : x y z
#
# Youngs Moduli (GPa) = 83.26015 90.64178 17.86316
#
# Poissons Ratio (x) = -0.15264 0.12954
# Poissons Ratio (y) = -0.14021 0.18243
# Poissons Ratio (z) = 0.60378 0.92569
#
# Static dielectric constant tensor:
#      x y z
#    x 1.888840 -0.056610 0.027830 
#    y -0.056610 1.926530 -0.083100 
#    z 0.027830 -0.083100 1.845400 
# 
# From -- ./inp_files/425291.got.cif
#   From: 2010.05.17/outbox.cif.g08.bks.cpg/sg2_213_cif.got.tgz:425291.got - 2010.06.03 11:33:40.
