data_PCOD9007722
_publ_section_title
;
Structure prediction by ZEFSAII (Michael W. Deem and Ramdas Pophale) SiO2 
 PCOD9007722
Probable space group: P -1
;
_chemical_formula_sum "Si O2"
_cell_formula_units_Z 16
_cell_length_a 6.942592
_cell_length_b 20.037762
_cell_length_c 16.435087
_cell_angle_alpha 18.875718
_cell_angle_beta 72.991385
_cell_angle_gamma 74.754478
_cell_volume 706.612361
_symmetry_space_group_name_H-M "P -1"
_symmetry_group_IT_number 2
_symmetry_cell_setting 'triclinic'
loop_
_space_group_symop_operation_xyz
x,y,z
-x,-y,-z
loop_
_atom_site_type_symbol
_atom_site_label
_atom_site_fract_x
_atom_site_fract_y
_atom_site_fract_z
Si Si1 0.144949 0.335666 0.207839
Si Si2 0.112581 0.084499 0.271781
Si Si3 0.144765 0.539555 0.140888
Si Si4 0.463827 0.189873 0.225287
Si Si5 0.267512 0.185989 0.961448
Si Si6 0.179907 0.638301 0.491129
Si Si7 0.933051 0.725802 0.279376
Si Si8 0.538198 0.892797 0.204917
O O1 0.186327 0.383824 0.242041
O O2 0.343729 0.343121 0.120423
O O3 0.032046 0.113081 0.465950
O O4 0.000000 0.500000 0.000000
O O5 0.323179 0.096925 0.278439
O O6 0.151810 0.098245 0.155086
O O7 0.002796 0.290660 0.071743
O O8 0.021316 0.432128 0.353797
O O9 0.340889 0.679111 0.981210
O O10 0.500000 0.000000 0.500000
O O11 0.484781 0.081310 0.053123
O O12 0.285187 0.433521 0.682505
O O13 0.125722 0.157583 0.931095
O O14 0.340042 0.741997 0.413190
O O15 0.114594 0.775937 0.262945
O O16 0.734157 0.761049 0.319233
O O17 0.000000 0.500000 0.500000
O O18 0.500000 0.000000 0.000000
#
# Coordination Sequence:
#
# PCOD9007722 Si02
#       8
#     2   2   2   2   2   2   2   2
#     4  12  23  43  71  94 133 177 221 275 340 400
#     4  11  23  44  65  97 138 173 217 281 335 393
#     4  11  24  43  66  99 135 174 222 281 328 398
#     4  12  24  44  69  96 133 174 225 274 339 399
#     4   9  21  40  64  89 129 171 211 263 325 382
#     4  10  22  41  64  92 132 171 217 271 327 381
#     4   9  20  40  64  94 127 166 214 261 317 382
#     4  10  21  39  62  93 126 170 218 263 323 390
#
# _framework density 22.643249000000001
#
# number of rings (size 3 to 8) (size 9 to 14) (size 15 to 20)
#    0.000    1.500    2.500    2.250    0.000    8.500 
#    4.500    6.250    0.000    0.000    0.000    0.000 
#    0.000    0.000    0.000    0.000    0.000    0.000 
#
# Total GULP energy -89238.353048 kJ/mol
# GULP energy per Si atom -5577.397065 kJ/mol
# Density = 2.259171 g / cm^3
# Si number density = 22.643249 Si / 1000 Ang^3
#
#
#
# Elastic Constant Matrix: (Units=GPa)
#
#
# Indices 1 2 3 4 5 6 
#
# 1 113.7906 32.0730 33.5501 2.1126 -0.0089 -6.5867
# 2 32.0730 95.2579 22.9800 -7.8032 6.2152 -9.0642
# 3 33.5501 22.9800 53.5465 5.2280 3.6420 -0.1049
# 4 2.1126 -7.8032 5.2280 27.6926 -5.5247 3.4515
# 5 -0.0089 6.2152 3.6420 -5.5247 37.8045 -5.9891
# 6 -6.5867 -9.0642 -0.1049 3.4515 -5.9891 46.9280
#
#
#
# Elastic Compliance Matrix: (Units=1/GPa)
#
#
# Indices 1 2 3 4 5 6 
#
# 1 0.011334 -0.002304 -0.006160 -0.000286 0.001139 0.001298
# 2 -0.002304 0.012919 -0.004461 0.004283 -0.000792 0.001746
# 3 -0.006160 -0.004461 0.025215 -0.005910 -0.002813 -0.001594
# 4 -0.000286 0.004283 -0.005910 0.039721 0.005440 -0.001453
# 5 0.001139 -0.000792 -0.002813 0.005440 0.028154 0.003194
# 6 0.001298 0.001746 -0.001594 -0.001453 0.003194 0.022340
#
#
# Mechanical properties :
#
#
# Convention : Reuss Voigt Hill
#
# Bulk Modulus (GPa) = 42.34240 48.86682 45.60461
# Shear Modulus (GPa) = 28.83421 34.08447 31.45934
#
# Velocity S-wave (km/s) = 3.57236 3.88401 3.73144
# Velocity P-wave (km/s) = 5.97964 6.46081 6.22487
#
# Compressibility (1/GPa) = 0.02361699
#
# Stress axis : x y z
#
# Youngs Moduli (GPa) = 88.22804 77.40830 39.65970
#
# Poissons Ratio (x) = 0.17838 0.24429
# Poissons Ratio (y) = 0.20331 0.17692
# Poissons Ratio (z) = 0.54345 0.34532
#
# Static dielectric constant tensor:
#      x y z
#    x 1.855870 -0.000540 -0.016760 
#    y -0.000540 1.902350 -0.063620 
#    z -0.016760 -0.063620 1.886120 
# 
# From -- ./inp_files/550962.got.cif
#   From: 2010.05.17/outbox.cif.g08.bks.cpg/sg2_276_cif.got.tgz:550962.got - 2010.06.03 11:33:40.
