data_PCOD9007984
_publ_section_title
;
Structure prediction by ZEFSAII (Michael W. Deem and Ramdas Pophale) SiO2 
 PCOD9007984
Probable space group: P -1
;
_chemical_formula_sum "Si O2"
_cell_formula_units_Z 16
_cell_length_a 12.208610
_cell_length_b 9.370010
_cell_length_c 16.657451
_cell_angle_alpha 31.349968
_cell_angle_beta 54.043886
_cell_angle_gamma 47.786441
_cell_volume 733.817105
_symmetry_space_group_name_H-M "P -1"
_symmetry_group_IT_number 2
_symmetry_cell_setting 'triclinic'
loop_
_space_group_symop_operation_xyz
x,y,z
-x,-y,-z
loop_
_atom_site_type_symbol
_atom_site_label
_atom_site_fract_x
_atom_site_fract_y
_atom_site_fract_z
Si Si1 0.058030 0.865423 0.795245
Si Si2 0.404976 0.300703 0.129208
Si Si3 0.481201 0.764400 0.245289
Si Si4 0.524345 0.813499 0.450199
Si Si5 0.263674 0.792821 0.192241
Si Si6 0.726985 0.845975 0.482599
Si Si7 0.807088 0.645949 0.144026
Si Si8 0.929751 0.288649 0.946998
O O1 0.137336 0.554779 0.863147
O O2 0.130553 0.084607 0.625268
O O3 0.080540 0.804047 0.910741
O O4 0.881947 0.018822 0.782766
O O5 0.232208 0.504678 0.113039
O O6 0.423058 0.106535 0.133935
O O7 0.467001 0.042115 0.293176
O O8 0.500000 0.500000 0.000000
O O9 0.428476 0.533712 0.425261
O O10 0.413553 0.757287 0.189833
O O11 0.657737 0.628454 0.245100
O O12 0.655496 0.855404 0.421347
O O13 0.392702 0.906780 0.528245
O O14 0.256007 0.474015 0.335057
O O15 0.243419 0.002002 0.023977
O O16 0.952197 0.557900 0.178042
O O17 0.000000 0.000000 0.000000
#
# Coordination Sequence:
#
# PCOD9007984 Si02
#       8
#     2   2   2   2   2   2   2   2
#     4  11  21  41  65  93 126 166 209 262 316 368
#     4  12  25  41  67  91 125 169 212 252 317 380
#     4  11  22  42  63  94 126 166 209 256 318 373
#     4  10  23  40  62  92 129 162 208 261 309 373
#     4  10  22  35  64  93 125 158 211 258 305 372
#     4  10  21  39  63  93 123 161 211 260 311 365
#     4  11  22  40  65  93 127 166 210 261 312 369
#     4  11  25  42  61  95 132 164 207 262 314 377
#
# _framework density 21.803799999999999
#
# number of rings (size 3 to 8) (size 9 to 14) (size 15 to 20)
#    0.000    1.250    1.250    5.625    5.250    0.000 
#    0.000    0.625    0.000    0.000    0.000    0.000 
#    0.000    0.000    0.000    0.000    0.000    0.000 
#
# Total GULP energy -89367.635775 kJ/mol
# GULP energy per Si atom -5585.477236 kJ/mol
# Density = 2.175417 g / cm^3
# Si number density = 21.803800 Si / 1000 Ang^3
#
#
#
# Elastic Constant Matrix: (Units=GPa)
#
#
# Indices 1 2 3 4 5 6 
#
# 1 98.1748 9.8578 37.8773 -0.6269 -22.4203 -17.5005
# 2 9.8578 61.5164 -2.5610 -24.1904 -15.4628 -1.0520
# 3 37.8773 -2.5610 81.6701 -23.1959 -14.0336 0.2601
# 4 -0.6269 -24.1904 -23.1959 30.7494 -0.7437 -3.0281
# 5 -22.4203 -15.4628 -14.0336 -0.7437 40.3954 -0.2476
# 6 -17.5005 -1.0520 0.2601 -3.0281 -0.2476 37.0507
#
#
#
# Elastic Compliance Matrix: (Units=1/GPa)
#
#
# Indices 1 2 3 4 5 6 
#
# 1 0.017302 -0.008549 -0.012220 -0.014875 0.001853 0.006812
# 2 -0.008549 0.046729 0.025433 0.056515 0.023030 0.001883
# 3 -0.012220 0.025433 0.034496 0.046022 0.015775 -0.001425
# 4 -0.014875 0.056515 0.046022 0.112517 0.031460 0.003662
# 5 0.001853 0.023030 0.015775 0.031460 0.040685 0.004261
# 6 0.006812 0.001883 -0.001425 0.003662 0.004261 0.030599
#
#
# Mechanical properties :
#
#
# Convention : Reuss Voigt Hill
#
# Bulk Modulus (GPa) = 9.27171 36.85661 23.06416
# Shear Modulus (GPa) = 16.18378 34.71824 25.45101
#
# Velocity S-wave (km/s) = 2.72737 3.99470 3.42025
# Velocity P-wave (km/s) = 3.76559 6.18201 5.11844
#
# Compressibility (1/GPa) = 0.10785501
#
# Stress axis : x y z
#
# Youngs Moduli (GPa) = 57.79835 21.39980 28.98877
#
# Poissons Ratio (x) = 0.18294 0.35426
# Poissons Ratio (y) = 0.49409 -0.73727
# Poissons Ratio (z) = 0.70632 -0.54426
#
# Static dielectric constant tensor:
#      x y z
#    x 1.816140 0.008870 0.009000 
#    y 0.008870 1.817290 -0.011700 
#    z 0.009000 -0.011700 1.805440 
# 
# From -- ./inp_files/279200.got.cif
#   From: 2010.05.17/outbox.cif.g08.bks.cpg/sg2_140_cif.got.tgz:279200.got - 2010.06.03 11:33:40.
