data_PCOD9007975
_publ_section_title
;
Structure prediction by ZEFSAII (Michael W. Deem and Ramdas Pophale) SiO2 
 PCOD9007975
Probable space group: P -1
;
_chemical_formula_sum "Si O2"
_cell_formula_units_Z 16
_cell_length_a 15.661369
_cell_length_b 12.750271
_cell_length_c 8.105625
_cell_angle_alpha 104.059816
_cell_angle_beta 121.946253
_cell_angle_gamma 125.554346
_cell_volume 674.018954
_symmetry_space_group_name_H-M "P -1"
_symmetry_group_IT_number 2
_symmetry_cell_setting 'triclinic'
loop_
_space_group_symop_operation_xyz
x,y,z
-x,-y,-z
loop_
_atom_site_type_symbol
_atom_site_label
_atom_site_fract_x
_atom_site_fract_y
_atom_site_fract_z
Si Si1 0.792752 0.705712 0.811288
Si Si2 0.735738 0.818013 0.501428
Si Si3 0.920755 0.601335 0.795683
Si Si4 0.735787 0.331300 0.785551
Si Si5 0.675122 0.226395 0.179635
Si Si6 0.369917 0.617125 0.016323
Si Si7 0.216968 0.253503 0.804467
Si Si8 0.287714 0.898404 0.121684
O O1 0.719237 0.716279 0.594590
O O2 0.774872 0.567395 0.669572
O O3 0.716293 0.663046 0.903515
O O4 0.032545 0.937217 0.166203
O O5 0.580098 0.768838 0.354753
O O6 0.682168 0.729252 0.225232
O O7 0.921018 0.546835 0.954765
O O8 0.840762 0.424037 0.545778
O O9 0.111054 0.814240 0.963588
O O10 0.740753 0.406518 0.982054
O O11 0.716734 0.187916 0.758446
O O12 0.511654 0.147500 0.416299
O O13 0.590878 0.263764 0.044554
O O14 0.758282 0.221057 0.125925
O O15 0.500000 0.000000 0.000000
O O16 0.232689 0.383911 0.778171
O O17 0.000000 0.000000 0.500000
#
# Coordination Sequence:
#
# PCOD9007975 Si02
#       8
#     2   2   2   2   2   2   2   2
#     4  10  22  41  64  95 130 168 224 271 327 404
#     4  10  22  42  65  93 130 171 219 276 329 395
#     4  12  21  40  65  92 128 171 214 273 335 389
#     4  10  21  39  63  92 130 160 224 271 320 402
#     4  11  24  43  63  94 135 169 222 280 330 400
#     4  11  22  42  65  92 131 175 213 274 339 389
#     4  10  21  40  63  94 131 171 216 271 327 391
#     4  10  22  40  63  92 126 175 213 271 334 393
#
# _framework density 23.738205000000001
#
# number of rings (size 3 to 8) (size 9 to 14) (size 15 to 20)
#    0.000    1.500    2.500    2.625    0.000    0.500 
#    4.500    6.250    0.000    0.000    0.000    0.000 
#    0.000    0.000    0.000    0.000    0.000    0.000 
#
# Total GULP energy -89110.416264 kJ/mol
# GULP energy per Si atom -5569.401016 kJ/mol
# Density = 2.368418 g / cm^3
# Si number density = 23.738205 Si / 1000 Ang^3
#
#
#
# Elastic Constant Matrix: (Units=GPa)
#
#
# Indices 1 2 3 4 5 6 
#
# 1 73.9217 24.7578 17.5738 -5.9337 -6.9146 28.5667
# 2 24.7578 115.7496 17.0106 5.3780 6.0651 9.5370
# 3 17.5738 17.0106 49.4343 19.8204 -2.4088 19.1877
# 4 -5.9337 5.3780 19.8204 42.6762 1.7415 0.7740
# 5 -6.9146 6.0651 -2.4088 1.7415 37.4570 2.6131
# 6 28.5667 9.5370 19.1877 0.7740 2.6131 35.6968
#
#
#
# Elastic Compliance Matrix: (Units=1/GPa)
#
#
# Indices 1 2 3 4 5 6 
#
# 1 0.022458 -0.003673 -0.001858 0.004521 0.005562 -0.016497
# 2 -0.003673 0.009827 -0.002852 -0.000357 -0.002579 0.002043
# 3 -0.001858 -0.002852 0.034869 -0.015968 0.004252 -0.016459
# 4 0.004521 -0.000357 -0.015968 0.031518 -0.001915 0.004518
# 5 0.005562 -0.002579 0.004252 -0.001915 0.029071 -0.008134
# 6 -0.016497 0.002043 -0.016459 0.004518 -0.008134 0.050015
#
#
# Mechanical properties :
#
#
# Convention : Reuss Voigt Hill
#
# Bulk Modulus (GPa) = 19.84555 39.75446 29.80001
# Shear Modulus (GPa) = 23.66085 35.15022 29.40554
#
# Velocity S-wave (km/s) = 3.16055 3.85222 3.52340
# Velocity P-wave (km/s) = 4.65801 6.04727 5.39753
#
# Compressibility (1/GPa) = 0.05038913
#
# Stress axis : x y z
#
# Youngs Moduli (GPa) = 44.52734 101.75706 28.67907
#
# Poissons Ratio (x) = 0.37372 0.05329
# Poissons Ratio (y) = 0.16354 0.08178
# Poissons Ratio (z) = 0.08274 0.29017
#
# Static dielectric constant tensor:
#      x y z
#    x 1.943990 0.268540 -0.092660 
#    y 0.268540 3.609830 -0.623580 
#    z -0.092660 -0.623580 2.224990 
# 
# From -- ./inp_files/308159.got.cif
#   From: 2010.05.17/outbox.cif.g08.bks.cpg/sg2_155_cif.got.tgz:308159.got - 2010.06.03 11:33:40.
