data_PCOD9007672
_publ_section_title
;
Structure prediction by ZEFSAII (Michael W. Deem and Ramdas Pophale) SiO2 
 PCOD9007672
Probable space group: P -1
;
_chemical_formula_sum "Si O2"
_cell_formula_units_Z 14
_cell_length_a 15.049504
_cell_length_b 13.885266
_cell_length_c 22.877832
_cell_angle_alpha 21.349788
_cell_angle_beta 160.085021
_cell_angle_gamma 149.615389
_cell_volume 589.565170
_symmetry_space_group_name_H-M "P -1"
_symmetry_group_IT_number 2
_symmetry_cell_setting 'triclinic'
loop_
_space_group_symop_operation_xyz
x,y,z
-x,-y,-z
loop_
_atom_site_type_symbol
_atom_site_label
_atom_site_fract_x
_atom_site_fract_y
_atom_site_fract_z
Si Si1 0.549999 0.568742 0.580096
Si Si2 0.046826 0.711536 0.257632
Si Si3 0.666588 0.623143 0.278257
Si Si4 0.821222 0.768866 0.535083
Si Si5 0.818662 0.197126 0.043223
Si Si6 0.350966 0.870155 0.534948
Si Si7 0.832575 0.741638 0.981571
O O1 0.336243 0.713817 0.408084
O O2 0.647816 0.789879 0.473764
O O3 0.381792 0.346351 0.571372
O O4 0.781464 0.407430 0.849434
O O5 0.111895 0.483687 0.475138
O O6 0.001427 0.019593 0.073556
O O7 0.866190 0.685775 0.103676
O O8 0.711565 0.404141 0.379444
O O9 0.699225 0.921099 0.110212
O O10 0.373357 0.664468 0.102993
O O11 0.000000 0.000000 0.500000
O O12 0.031953 0.518925 0.817665
O O13 0.121091 0.080486 0.299152
O O14 0.542695 0.788365 0.752644
O O15 0.500000 0.000000 0.500000
#
# Coordination Sequence:
#
# PCOD9007672 Si02
#       7
#     2   2   2   2   2   2   2
#     4   9  20  40  63  89 126 174 217 267 338 389
#     4   9  19  42  64  86 130 178 211 265 343 394
#     4  10  22  43  68  93 130 180 223 267 328 410
#     4  10  21  39  63  93 126 170 219 271 327 403
#     4  10  23  43  66  93 134 178 219 273 342 397
#     4  12  23  39  65 102 130 167 223 282 331 397
#     4  10  21  39  62  91 128 165 212 275 331 390
#
# _framework density 23.746314000000002
#
# number of rings (size 3 to 8) (size 9 to 14) (size 15 to 20)
#    0.000    2.000    1.429    1.286    2.000    0.571 
#    2.571    1.429    0.000    0.000    0.000    0.000 
#    0.000    0.000    0.000    0.000    0.000    0.000 
#
# Total GULP energy -78043.767241 kJ/mol
# GULP energy per Si atom -5574.554803 kJ/mol
# Density = 2.369227 g / cm^3
# Si number density = 23.746314 Si / 1000 Ang^3
#
#
#
# Elastic Constant Matrix: (Units=GPa)
#
#
# Indices 1 2 3 4 5 6 
#
# 1 56.6928 26.0066 33.4255 -1.2813 1.9254 0.3623
# 2 26.0066 68.5031 9.1919 -13.0785 7.1539 6.5067
# 3 33.4255 9.1919 156.0528 27.2469 3.0120 -9.6868
# 4 -1.2813 -13.0785 27.2469 49.9223 -3.8751 -8.5530
# 5 1.9254 7.1539 3.0120 -3.8751 22.7266 6.6457
# 6 0.3623 6.5067 -9.6868 -8.5530 6.6457 26.9723
#
#
#
# Elastic Compliance Matrix: (Units=1/GPa)
#
#
# Indices 1 2 3 4 5 6 
#
# 1 0.024472 -0.008542 -0.004983 0.001219 0.001495 -0.000040
# 2 -0.008542 0.019284 -0.000103 0.004193 -0.003954 -0.002270
# 3 -0.004983 -0.000103 0.008453 -0.004554 -0.002085 0.002197
# 4 0.001219 0.004193 -0.004554 0.024598 0.002018 0.004639
# 5 0.001495 -0.003954 -0.002085 0.002018 0.049031 -0.011256
# 6 -0.000040 -0.002270 0.002197 0.004639 -0.011256 0.042657
#
#
# Mechanical properties :
#
#
# Convention : Reuss Voigt Hill
#
# Bulk Modulus (GPa) = 40.07391 46.49963 43.28677
# Shear Modulus (GPa) = 24.50169 34.09921 29.30045
#
# Velocity S-wave (km/s) = 3.21567 3.79354 3.51649
# Velocity P-wave (km/s) = 5.54074 6.22995 5.89543
#
# Compressibility (1/GPa) = 0.02495389
#
# Stress axis : x y z
#
# Youngs Moduli (GPa) = 40.86285 51.85769 118.29855
#
# Poissons Ratio (x) = 0.44295 0.58946
# Poissons Ratio (y) = 0.34904 0.01218
# Poissons Ratio (z) = 0.20361 0.00534
#
# Static dielectric constant tensor:
#      x y z
#    x 2.095850 0.108150 0.193320 
#    y 0.108150 2.085990 0.148760 
#    z 0.193320 0.148760 2.171600 
# 
# From -- ./inp_files/612095.got.cif
#   From: 2010.05.17/outbox.cif.g08.bks.cpg/sg2_307_cif.got.tgz:612095.got - 2010.06.03 11:33:40.
