data_PCOD9007063
_publ_section_title
;
Structure prediction by ZEFSAII (Michael W. Deem and Ramdas Pophale) SiO2 
 PCOD9007063
Probable space group: P -1
;
_chemical_formula_sum "Si O2"
_cell_formula_units_Z 14
_cell_length_a 8.666716
_cell_length_b 20.847244
_cell_length_c 17.051178
_cell_angle_alpha 155.549183
_cell_angle_beta 148.912938
_cell_angle_gamma 33.539733
_cell_volume 637.116284
_symmetry_space_group_name_H-M "P -1"
_symmetry_group_IT_number 2
_symmetry_cell_setting 'triclinic'
loop_
_space_group_symop_operation_xyz
x,y,z
-x,-y,-z
loop_
_atom_site_type_symbol
_atom_site_label
_atom_site_fract_x
_atom_site_fract_y
_atom_site_fract_z
Si Si1 0.925864 0.832210 0.307515
Si Si2 0.223594 0.116449 0.962312
Si Si3 0.938717 0.789811 0.663999
Si Si4 0.618318 0.692861 0.881879
Si Si5 0.547200 0.166400 0.363313
Si Si6 0.352860 0.959804 0.310774
Si Si7 0.786838 0.534140 0.523703
O O1 0.848836 0.733943 0.091115
O O2 0.219800 0.749194 0.395895
O O3 0.622262 0.869727 0.270647
O O4 0.000000 0.000000 0.500000
O O5 0.242204 0.997217 0.762052
O O6 0.899759 0.136445 0.886045
O O7 0.268937 0.279478 0.125644
O O8 0.500000 0.000000 0.000000
O O9 0.691941 0.851868 0.693824
O O10 0.829150 0.881553 0.638655
O O11 0.003383 0.595597 0.469986
O O12 0.270112 0.811840 0.861393
O O13 0.524053 0.530317 0.680009
O O14 0.349440 0.276026 0.330781
O O15 0.500000 0.000000 0.500000
O O16 0.000000 0.500000 0.500000
#
# Coordination Sequence:
#
# PCOD9007063 Si02
#       7
#     2   2   2   2   2   2   2
#     4  12  22  36  61  92 118 154 192 255 293 343
#     4  12  23  35  58  90 120 155 196 244 291 352
#     4   9  20  38  61  85 115 152 200 248 282 344
#     4  10  21  39  59  91 115 155 199 242 300 334
#     4  11  21  39  62  89 117 155 201 238 302 347
#     4  12  22  36  55  88 123 152 191 241 298 347
#     4   8  19  39  62  88 114 152 201 250 286 342
#
# _framework density 21.974011999999998
#
# number of rings (size 3 to 8) (size 9 to 14) (size 15 to 20)
#    0.857    0.571    5.714    0.000    2.000    1.714 
#    0.000    2.857    0.000    0.857    0.000    0.000 
#    0.000    0.000    0.000    0.000    0.000    0.000 
#
# Total GULP energy -77982.928717 kJ/mol
# GULP energy per Si atom -5570.209194 kJ/mol
# Density = 2.192400 g / cm^3
# Si number density = 21.974012 Si / 1000 Ang^3
#
#
#
# Elastic Constant Matrix: (Units=GPa)
#
#
# Indices 1 2 3 4 5 6 
#
# 1 98.2484 14.7057 23.9624 3.5590 41.4571 7.6757
# 2 14.7057 71.3197 7.3505 2.4919 4.7953 15.5235
# 3 23.9624 7.3505 54.0205 -10.8641 23.4541 8.4626
# 4 3.5590 2.4919 -10.8641 41.8239 2.0879 -1.5263
# 5 41.4571 4.7953 23.4541 2.0879 45.6458 -5.6313
# 6 7.6757 15.5235 8.4626 -1.5263 -5.6313 40.4893
#
#
#
# Elastic Compliance Matrix: (Units=1/GPa)
#
#
# Indices 1 2 3 4 5 6 
#
# 1 0.017864 -0.001407 0.000250 -0.000724 -0.016822 -0.005266
# 2 -0.001407 0.015718 -0.000486 -0.001116 -0.000790 -0.005810
# 3 0.000250 -0.000486 0.028175 0.007843 -0.015959 -0.007674
# 4 -0.000724 -0.001116 0.007843 0.026276 -0.004546 -0.000716
# 5 -0.016822 -0.000790 -0.015959 -0.004546 0.047310 0.013236
# 6 -0.005266 -0.005810 -0.007674 -0.000716 0.013236 0.031342
#
#
# Mechanical properties :
#
#
# Convention : Reuss Voigt Hill
#
# Bulk Modulus (GPa) = 17.10220 35.06954 26.08587
# Shear Modulus (GPa) = 26.39093 37.42980 31.91036
#
# Velocity S-wave (km/s) = 3.46931 4.13166 3.81489
# Velocity P-wave (km/s) = 4.88344 6.22536 5.59478
#
# Compressibility (1/GPa) = 0.05847202
#
# Stress axis : x y z
#
# Youngs Moduli (GPa) = 55.97990 63.62060 35.49268
#
# Poissons Ratio (x) = 0.08949 -0.00889
# Poissons Ratio (y) = 0.07874 0.01726
# Poissons Ratio (z) = -0.01402 0.03093
#
# Static dielectric constant tensor:
#      x y z
#    x 1.830770 0.026770 -0.052820 
#    y 0.026770 1.833850 0.039680 
#    z -0.052820 0.039680 1.946340 
# 
# From -- ./inp_files/342673.got.cif
#   From: 2010.05.17/outbox.cif.g08.bks.cpg/sg2_172_cif.got.tgz:342673.got - 2010.06.03 11:33:40.
