data_PCOD9007114
_publ_section_title
;
Structure prediction by ZEFSAII (Michael W. Deem and Ramdas Pophale) SiO2 
 PCOD9007114
Probable space group: P -1
;
_chemical_formula_sum "Si O2"
_cell_formula_units_Z 16
_cell_length_a 19.110369
_cell_length_b 13.037411
_cell_length_c 8.885550
_cell_angle_alpha 80.996964
_cell_angle_beta 57.812755
_cell_angle_gamma 33.115859
_cell_volume 797.818905
_symmetry_space_group_name_H-M "P -1"
_symmetry_group_IT_number 2
_symmetry_cell_setting 'triclinic'
loop_
_space_group_symop_operation_xyz
x,y,z
-x,-y,-z
loop_
_atom_site_type_symbol
_atom_site_label
_atom_site_fract_x
_atom_site_fract_y
_atom_site_fract_z
Si Si1 0.024369 0.056519 0.824535
Si Si2 0.223476 0.799402 0.128247
Si Si3 0.124683 0.565631 0.948096
Si Si4 0.830628 0.574759 0.575898
Si Si5 0.630653 0.408742 0.652865
Si Si6 0.856418 0.644165 0.854040
Si Si7 0.483192 0.041293 0.685417
Si Si8 0.848214 0.366878 0.416712
O O1 0.870596 0.194416 0.843854
O O2 0.975867 0.224535 0.904345
O O3 0.235339 0.807045 0.566860
O O4 0.000000 0.000000 0.000000
O O5 0.291432 0.700283 0.242340
O O6 0.406825 0.633185 0.862463
O O7 0.047894 0.079456 0.270441
O O8 0.348368 0.295119 0.800378
O O9 0.127690 0.583830 0.763768
O O10 0.040456 0.549442 0.099485
O O11 0.829082 0.605475 0.744521
O O12 0.799712 0.490829 0.588243
O O13 0.032735 0.381092 0.319271
O O14 0.676152 0.819811 0.608168
O O15 0.684517 0.467655 0.546321
O O16 0.650179 0.897784 0.103903
O O17 0.500000 0.000000 0.500000
#
# Coordination Sequence:
#
# PCOD9007114 Si02
#       8
#     2   2   2   2   2   2   2   2
#     4  11  20  40  62  87 129 152 196 252 297 354
#     4  10  23  41  61  93 121 160 199 245 299 364
#     4  10  22  40  56  93 120 160 203 238 304 355
#     4  11  21  42  63  87 124 161 196 257 295 352
#     4  10  23  41  61  91 121 159 203 241 301 364
#     4   9  24  39  59  91 121 155 209 240 303 358
#     4  10  21  39  60  84 124 157 200 245 295 354
#     4  11  21  39  63  89 122 160 201 245 304 351
#
# _framework density 20.054677000000002
#
# number of rings (size 3 to 8) (size 9 to 14) (size 15 to 20)
#    0.750    1.000    3.750    1.875    3.500    3.500 
#    4.500    1.250    0.000    0.000    0.000    0.000 
#    0.000    0.000    0.000    0.000    0.000    0.000 
#
# Total GULP energy -89190.161247 kJ/mol
# GULP energy per Si atom -5574.385078 kJ/mol
# Density = 2.000903 g / cm^3
# Si number density = 20.054677 Si / 1000 Ang^3
#
#
#
# Elastic Constant Matrix: (Units=GPa)
#
#
# Indices 1 2 3 4 5 6 
#
# 1 34.6053 -6.0335 8.4425 9.9167 7.6156 13.7381
# 2 -6.0335 30.4178 -4.9497 -8.3085 0.4249 -2.8705
# 3 8.4425 -4.9497 111.3523 -1.2983 -3.4827 -2.1155
# 4 9.9167 -8.3085 -1.2983 33.2357 0.2583 4.0851
# 5 7.6156 0.4249 -3.4827 0.2583 16.9425 6.7251
# 6 13.7381 -2.8705 -2.1155 4.0851 6.7251 18.2359
#
#
#
# Elastic Compliance Matrix: (Units=1/GPa)
#
#
# Indices 1 2 3 4 5 6 
#
# 1 0.047448 0.003363 -0.004451 -0.009757 -0.010382 -0.029718
# 2 0.003363 0.036209 0.001393 0.007781 -0.003375 0.002829
# 3 -0.004451 0.001393 0.009543 0.001615 0.002564 0.003372
# 4 -0.009757 0.007781 0.001615 0.035055 0.004249 -0.000657
# 5 -0.010382 -0.003375 0.002564 0.004249 0.072167 -0.019978
# 6 -0.029718 0.002829 0.003372 -0.000657 -0.019978 0.085576
#
#
# Mechanical properties :
#
#
# Convention : Reuss Voigt Hill
#
# Bulk Modulus (GPa) = 10.65979 19.03267 14.84623
# Shear Modulus (GPa) = 15.78988 25.61056 20.70022
#
# Velocity S-wave (km/s) = 2.80900 3.57744 3.21626
# Velocity P-wave (km/s) = 3.98090 5.15511 4.60558
#
# Compressibility (1/GPa) = 0.09381048
#
# Stress axis : x y z
#
# Youngs Moduli (GPa) = 21.07556 27.61755 104.78868
#
# Poissons Ratio (x) = -0.09287 0.46642
# Poissons Ratio (y) = -0.07087 -0.14602
# Poissons Ratio (z) = 0.09381 -0.03848
#
# Static dielectric constant tensor:
#      x y z
#    x 1.719030 -0.006460 -0.026800 
#    y -0.006460 1.711170 -0.009250 
#    z -0.026800 -0.009250 1.750250 
# 
# From -- ./inp_files/346914.got.cif
#   From: 2010.05.17/outbox.cif.g08.bks.cpg/sg2_174_cif.got.tgz:346914.got - 2010.06.03 11:33:40.
