data_PCOD9007977
_publ_section_title
;
Structure prediction by ZEFSAII (Michael W. Deem and Ramdas Pophale) SiO2 
 PCOD9007977
Probable space group: P -1
;
_chemical_formula_sum "Si O2"
_cell_formula_units_Z 14
_cell_length_a 12.808303
_cell_length_b 9.340005
_cell_length_c 8.469851
_cell_angle_alpha 130.962592
_cell_angle_beta 73.523294
_cell_angle_gamma 119.794495
_cell_volume 662.625305
_symmetry_space_group_name_H-M "P -1"
_symmetry_group_IT_number 2
_symmetry_cell_setting 'triclinic'
loop_
_space_group_symop_operation_xyz
x,y,z
-x,-y,-z
loop_
_atom_site_type_symbol
_atom_site_label
_atom_site_fract_x
_atom_site_fract_y
_atom_site_fract_z
Si Si1 0.142225 0.758411 0.064480
Si Si2 0.585848 0.837582 0.265025
Si Si3 0.639134 0.552124 0.508264
Si Si4 0.885067 0.647419 0.038520
Si Si5 0.337723 0.486841 0.171840
Si Si6 0.787608 0.920523 0.469478
Si Si7 0.378451 0.900500 0.878238
O O1 0.024492 0.724082 0.990002
O O2 0.136102 0.875347 0.313052
O O3 0.139472 0.535868 0.954462
O O4 0.266143 0.896054 0.022312
O O5 0.446626 0.720939 0.293654
O O6 0.682235 0.951954 0.442529
O O7 0.601265 0.976242 0.204881
O O8 0.621404 0.649792 0.062617
O O9 0.500000 0.500000 0.500000
O O10 0.670225 0.603010 0.714875
O O11 0.719942 0.732767 0.486088
O O12 0.651741 0.339763 0.315841
O O13 0.861583 0.837161 0.261382
O O14 0.789683 0.542417 0.863344
O O15 0.500000 0.000000 0.000000
#
# Coordination Sequence:
#
# PCOD9007977 Si02
#       7
#     2   2   2   2   2   2   2
#     4  11  23  43  67  92 133 169 220 257 325 373
#     4  10  22  38  65  95 127 162 212 263 325 381
#     4  12  23  40  63  96 132 166 210 265 329 378
#     4  10  23  43  65  96 127 176 213 267 307 391
#     4  10  21  39  63  92 131 165 211 263 322 376
#     4  11  22  42  67  97 129 169 213 265 322 376
#     4  12  25  40  63  98 130 167 215 269 321 384
#
# _framework density 21.128079
#
# number of rings (size 3 to 8) (size 9 to 14) (size 15 to 20)
#    0.000    1.143    2.857    3.857    4.000    0.571 
#    0.000    8.571    0.000    0.000    0.000    0.000 
#    0.000    0.000    0.000    0.000    0.000    0.000 
#
# Total GULP energy -78304.588377 kJ/mol
# GULP energy per Si atom -5593.184884 kJ/mol
# Density = 2.107999 g / cm^3
# Si number density = 21.128079 Si / 1000 Ang^3
#
#
#
# Elastic Constant Matrix: (Units=GPa)
#
#
# Indices 1 2 3 4 5 6 
#
# 1 179.6929 37.6283 20.0729 -14.0611 23.4645 5.8064
# 2 37.6283 72.6819 -13.6769 -9.1596 1.7372 -1.4427
# 3 20.0729 -13.6769 39.7158 5.9287 3.5203 2.4134
# 4 -14.0611 -9.1596 5.9287 33.7136 -6.7326 -1.6631
# 5 23.4645 1.7372 3.5203 -6.7326 30.8187 -1.1990
# 6 5.8064 -1.4427 2.4134 -1.6631 -1.1990 29.0369
#
#
#
# Elastic Compliance Matrix: (Units=1/GPa)
#
#
# Indices 1 2 3 4 5 6 
#
# 1 0.008031 -0.004861 -0.005506 0.001958 -0.004842 -0.001478
# 2 -0.004861 0.018018 0.008084 0.001964 0.002245 0.001400
# 3 -0.005506 0.008084 0.031854 -0.006034 -0.001280 -0.001543
# 4 0.001958 0.001964 -0.006034 0.033488 0.006497 0.002394
# 5 -0.004842 0.002245 -0.001280 0.006497 0.037694 0.003115
# 6 -0.001478 0.001400 -0.001543 0.002394 0.003115 0.035198
#
#
# Mechanical properties :
#
#
# Convention : Reuss Voigt Hill
#
# Bulk Modulus (GPa) = 18.74863 42.23769 30.49316
# Shear Modulus (GPa) = 26.79125 35.25159 31.02142
#
# Velocity S-wave (km/s) = 3.56482 4.08912 3.83594
# Velocity P-wave (km/s) = 5.08301 6.50609 5.83807
#
# Compressibility (1/GPa) = 0.05333722
#
# Stress axis : x y z
#
# Youngs Moduli (GPa) = 124.51496 55.50007 31.39350
#
# Poissons Ratio (x) = 0.26978 0.17286
# Poissons Ratio (y) = 0.60525 -0.25380
# Poissons Ratio (z) = 0.68561 -0.44868
#
# Static dielectric constant tensor:
#      x y z
#    x 1.748120 0.013840 -0.039530 
#    y 0.013840 1.720020 0.018270 
#    z -0.039530 0.018270 1.781940 
# 
# From -- ./inp_files/160099.got.cif
#   From: 2010.05.17/outbox.cif.g08.bks.cpg/sg2_81_cif.got.tgz:160099.got - 2010.06.03 11:33:40.
