data_PCOD9007049
_publ_section_title
;
Structure prediction by ZEFSAII (Michael W. Deem and Ramdas Pophale) SiO2 
 PCOD9007049
Probable space group: P -1
;
_chemical_formula_sum "Si O2"
_cell_formula_units_Z 14
_cell_length_a 22.218941
_cell_length_b 5.329840
_cell_length_c 5.541627
_cell_angle_alpha 95.674138
_cell_angle_beta 62.913850
_cell_angle_gamma 112.930734
_cell_volume 535.636037
_symmetry_space_group_name_H-M "P -1"
_symmetry_group_IT_number 2
_symmetry_cell_setting 'triclinic'
loop_
_space_group_symop_operation_xyz
x,y,z
-x,-y,-z
loop_
_atom_site_type_symbol
_atom_site_label
_atom_site_fract_x
_atom_site_fract_y
_atom_site_fract_z
Si Si1 0.552465 0.804066 0.007723
Si Si2 0.414159 0.027887 0.541579
Si Si3 0.318531 0.402835 0.719154
Si Si4 0.718555 0.839355 0.739066
Si Si5 0.113887 0.187209 0.889737
Si Si6 0.845943 0.261136 0.276592
Si Si7 0.028913 0.736595 0.671318
O O1 0.557317 0.988327 0.781212
O O2 0.638063 0.848091 0.892661
O O3 0.500000 0.500000 0.000000
O O4 0.531494 0.845802 0.322761
O O5 0.371900 0.233975 0.603283
O O6 0.361162 0.726156 0.689827
O O7 0.283836 0.339856 0.510331
O O8 0.272978 0.292664 0.037255
O O9 0.783650 0.126086 0.576860
O O10 0.166316 0.502086 0.820625
O O11 0.144832 0.974937 0.926681
O O12 0.092962 0.045060 0.644381
O O13 0.040825 0.185022 0.146977
O O14 0.928869 0.402876 0.243602
O O15 0.000000 0.500000 0.500000
#
# Coordination Sequence:
#
# PCOD9007049 Si02
#       7
#     2   2   2   2   2   2   2
#     4  10  21  41  67  97 132 176 224 277 335 398
#     4  10  21  40  64  92 125 167 217 273 330 393
#     4  10  22  41  64  92 127 172 213 273 329 396
#     4  10  23  42  65  95 134 174 225 275 338 398
#     4   9  21  39  59  89 127 166 216 273 329 396
#     4  10  21  39  59  88 129 169 214 277 330 395
#     4   9  20  38  64  91 126 169 222 265 337 396
#
# _framework density 26.137149000000001
#
# number of rings (size 3 to 8) (size 9 to 14) (size 15 to 20)
#    0.857    1.429    0.000    1.714    0.000    6.286 
#    0.000   18.571    0.000    0.000    0.000    0.000 
#    0.000    0.000    0.000    0.000    0.000    0.000 
#
# Total GULP energy -77966.973873 kJ/mol
# GULP energy per Si atom -5569.069562 kJ/mol
# Density = 2.607766 g / cm^3
# Si number density = 26.137149 Si / 1000 Ang^3
#
#
#
# Elastic Constant Matrix: (Units=GPa)
#
#
# Indices 1 2 3 4 5 6 
#
# 1 86.2268 22.8750 37.0754 17.1863 3.2643 -0.9089
# 2 22.8750 171.5692 34.5478 7.4997 8.2909 -10.6614
# 3 37.0754 34.5478 105.0438 13.7156 11.1684 15.1918
# 4 17.1863 7.4997 13.7156 54.8189 6.2460 0.1690
# 5 3.2643 8.2909 11.1684 6.2460 57.6989 10.9339
# 6 -0.9089 -10.6614 15.1918 0.1690 10.9339 43.7358
#
#
#
# Elastic Compliance Matrix: (Units=1/GPa)
#
#
# Indices 1 2 3 4 5 6 
#
# 1 0.014485 -0.000744 -0.004710 -0.003293 0.000231 0.001711
# 2 -0.000744 0.006572 -0.002166 -0.000021 -0.000970 0.002582
# 3 -0.004710 -0.002166 0.012864 -0.001334 -0.000843 -0.004878
# 4 -0.003293 -0.000021 -0.001334 0.019819 -0.001845 0.000774
# 5 0.000231 -0.000970 -0.000843 -0.001845 0.018693 -0.004605
# 6 0.001711 0.002582 -0.004878 0.000774 -0.004605 0.026372
#
#
# Mechanical properties :
#
#
# Convention : Reuss Voigt Hill
#
# Bulk Modulus (GPa) = 53.52995 61.31514 57.42254
# Shear Modulus (GPa) = 41.57183 49.14016 45.35599
#
# Velocity S-wave (km/s) = 3.99247 4.34070 4.17022
# Velocity P-wave (km/s) = 6.46358 6.97368 6.72347
#
# Compressibility (1/GPa) = 0.01868113
#
# Stress axis : x y z
#
# Youngs Moduli (GPa) = 69.03486 152.15601 77.73486
#
# Poissons Ratio (x) = 0.11318 0.36614
# Poissons Ratio (y) = 0.05135 0.16841
# Poissons Ratio (z) = 0.32516 0.32964
#
# Static dielectric constant tensor:
#      x y z
#    x 2.254500 -0.143170 -0.167440 
#    y -0.143170 2.131370 0.090130 
#    z -0.167440 0.090130 2.328570 
# 
# From -- ./inp_files/127926.got.cif
#   From: 2010.05.17/outbox.cif.g08.bks.cpg/sg2_64_cif.got.tgz:127926.got - 2010.06.03 11:33:40.
