data_PCOD9007368
_publ_section_title
;
Structure prediction by ZEFSAII (Michael W. Deem and Ramdas Pophale) SiO2 
 PCOD9007368
Probable space group: P -1
;
_chemical_formula_sum "Si O2"
_cell_formula_units_Z 16
_cell_length_a 11.913541
_cell_length_b 8.156896
_cell_length_c 12.077936
_cell_angle_alpha 110.019124
_cell_angle_beta 132.924476
_cell_angle_gamma 56.973339
_cell_volume 719.778994
_symmetry_space_group_name_H-M "P -1"
_symmetry_group_IT_number 2
_symmetry_cell_setting 'triclinic'
loop_
_space_group_symop_operation_xyz
x,y,z
-x,-y,-z
loop_
_atom_site_type_symbol
_atom_site_label
_atom_site_fract_x
_atom_site_fract_y
_atom_site_fract_z
Si Si1 0.299827 0.249597 0.092486
Si Si2 0.343442 0.159202 0.357287
Si Si3 0.720168 0.398828 0.544217
Si Si4 0.000151 0.883852 0.860793
Si Si5 0.931234 0.886528 0.228901
Si Si6 0.388510 0.675836 0.081407
Si Si7 0.574800 0.214633 0.094380
Si Si8 0.377777 0.577948 0.272703
O O1 0.361020 0.152461 0.232379
O O2 0.441093 0.182672 0.073678
O O3 0.258324 0.476852 0.135862
O O4 0.141577 0.226575 0.927923
O O5 0.317701 0.375666 0.423243
O O6 0.159527 0.162704 0.255793
O O7 0.500000 0.000000 0.500000
O O8 0.571935 0.400998 0.367283
O O9 0.672894 0.347140 0.621317
O O10 0.918374 0.258727 0.624638
O O11 0.989700 0.012846 0.777459
O O12 0.194281 0.708342 0.936234
O O13 0.000000 0.000000 0.000000
O O14 0.767041 0.058295 0.216835
O O15 0.522146 0.446815 0.116152
O O16 0.378677 0.727837 0.216584
O O17 0.430613 0.800243 0.048039
#
# Coordination Sequence:
#
# PCOD9007368 Si02
#       8
#     2   2   2   2   2   2   2   2
#     4  10  21  39  61  90 119 160 200 252 294 362
#     4  11  26  40  61  91 127 157 196 250 316 366
#     4  10  23  38  60  92 125 162 195 248 310 364
#     4  11  22  37  63  95 121 155 199 258 302 357
#     4  11  22  37  64  91 121 159 209 246 294 357
#     4   9  19  37  64  89 122 158 204 247 302 351
#     4   9  20  38  61  90 119 161 206 250 289 353
#     4   9  20  36  62  87 126 160 192 250 312 361
#
# _framework density 22.229044999999999
#
# number of rings (size 3 to 8) (size 9 to 14) (size 15 to 20)
#    0.000    2.000    1.250    1.125   10.500    1.000 
#    0.000    2.500    2.750    1.500    0.000    0.000 
#    0.000    0.000    0.000    0.000    0.000    0.000 
#
# Total GULP energy -89220.743369 kJ/mol
# GULP energy per Si atom -5576.296461 kJ/mol
# Density = 2.217845 g / cm^3
# Si number density = 22.229045 Si / 1000 Ang^3
#
#
#
# Elastic Constant Matrix: (Units=GPa)
#
#
# Indices 1 2 3 4 5 6 
#
# 1 140.1025 8.1069 24.9873 -6.5926 3.9056 26.1552
# 2 8.1069 61.5861 24.9746 -19.1903 17.8169 -2.9473
# 3 24.9873 24.9746 86.0765 -21.8289 18.2973 5.7072
# 4 -6.5926 -19.1903 -21.8289 47.5672 1.1610 7.6345
# 5 3.9056 17.8169 18.2973 1.1610 34.9398 -4.8601
# 6 26.1552 -2.9473 5.7072 7.6345 -4.8601 32.4426
#
#
#
# Elastic Compliance Matrix: (Units=1/GPa)
#
#
# Indices 1 2 3 4 5 6 
#
# 1 0.008923 -0.000006 -0.001295 0.001900 -0.001441 -0.007629
# 2 -0.000006 0.022952 -0.001955 0.008845 -0.011157 -0.001319
# 3 -0.001295 -0.001955 0.016686 0.007728 -0.008572 -0.005172
# 4 0.001900 0.008845 0.007728 0.030433 -0.011303 -0.010943
# 5 -0.001441 -0.011157 -0.008572 -0.011303 0.040786 0.010426
# 6 -0.007629 -0.001319 -0.005172 -0.010943 0.010426 0.041901
#
#
# Mechanical properties :
#
#
# Convention : Reuss Voigt Hill
#
# Bulk Modulus (GPa) = 23.78197 44.87807 34.33002
# Shear Modulus (GPa) = 27.44101 38.30301 32.87201
#
# Velocity S-wave (km/s) = 3.51731 4.15554 3.84967
# Velocity P-wave (km/s) = 5.21700 6.57704 5.93610
#
# Compressibility (1/GPa) = 0.04204867
#
# Stress axis : x y z
#
# Youngs Moduli (GPa) = 112.07380 43.56931 59.93127
#
# Poissons Ratio (x) = 0.00025 0.07758
# Poissons Ratio (y) = 0.00066 0.11719
# Poissons Ratio (z) = 0.14509 0.08520
#
# Static dielectric constant tensor:
#      x y z
#    x 1.856550 -0.037410 -0.014180 
#    y -0.037410 1.896460 -0.017920 
#    z -0.014180 -0.017920 1.863900 
# 
# From -- ./inp_files/245124.got.cif
#   From: 2010.05.17/outbox.cif.g08.bks.cpg/sg2_123_cif.got.tgz:245124.got - 2010.06.03 11:33:40.
