data_PCOD9007236
_publ_section_title
;
Structure prediction by ZEFSAII (Michael W. Deem and Ramdas Pophale) SiO2 
 PCOD9007236
Probable space group: P -1
;
_chemical_formula_sum "Si O2"
_cell_formula_units_Z 16
_cell_length_a 17.996665
_cell_length_b 7.366730
_cell_length_c 5.227048
_cell_angle_alpha 118.643050
_cell_angle_beta 104.484975
_cell_angle_gamma 79.945737
_cell_volume 587.626244
_symmetry_space_group_name_H-M "P -1"
_symmetry_group_IT_number 2
_symmetry_cell_setting 'triclinic'
loop_
_space_group_symop_operation_xyz
x,y,z
-x,-y,-z
loop_
_atom_site_type_symbol
_atom_site_label
_atom_site_fract_x
_atom_site_fract_y
_atom_site_fract_z
Si Si1 0.167725 0.074864 0.502020
Si Si2 0.959493 0.182074 0.916968
Si Si3 0.667804 0.516329 0.199032
Si Si4 0.410123 0.123349 0.299630
Si Si5 0.294231 0.883265 0.747288
Si Si6 0.877972 0.683465 0.893566
Si Si7 0.458219 0.670669 0.270351
Si Si8 0.171587 0.646218 0.715436
O O1 0.145905 0.186752 0.294296
O O2 0.095304 0.934870 0.398855
O O3 0.249736 0.941594 0.486557
O O4 0.166617 0.230764 0.842429
O O5 0.900407 0.315657 0.137799
O O6 0.031824 0.299422 0.964549
O O7 0.000000 0.000000 0.000000
O O8 0.661104 0.337620 0.295059
O O9 0.757928 0.504023 0.221336
O O10 0.622915 0.433423 0.859761
O O11 0.560701 0.103306 0.722294
O O12 0.365088 0.266489 0.569151
O O13 0.515614 0.738687 0.591469
O O14 0.350168 0.062085 0.990244
O O15 0.218480 0.848251 0.833200
O O16 0.856207 0.457242 0.638130
O O17 0.500000 0.500000 0.000000
#
# Coordination Sequence:
#
# PCOD9007236 Si02
#       8
#     2   2   2   2   2   2   2   2
#     4  11  23  43  67  95 131 175 228 285 349 408
#     4  10  22  41  63  89 125 174 226 285 348 407
#     4   8  17  29  53  87 129 170 226 272 336 397
#     4   9  14  28  51  86 137 176 220 272 333 393
#     4   9  19  33  56  88 128 171 220 271 334 398
#     4  11  24  42  67  95 129 177 228 288 351 406
#     4   8  14  25  48  88 134 175 224 267 328 398
#     4  10  21  39  60  93 131 169 229 282 337 410
#
# _framework density 27.228189
#
# number of rings (size 3 to 8) (size 9 to 14) (size 15 to 20)
#    0.750    1.750    0.000    3.000    0.000    2.000 
#    0.000    3.750    0.000    0.000    0.000    1.750 
#    0.000    0.000    0.000    0.000    0.000    1.875 
#
# Total GULP energy -89368.704177 kJ/mol
# GULP energy per Si atom -5585.544011 kJ/mol
# Density = 2.716622 g / cm^3
# Si number density = 27.228189 Si / 1000 Ang^3
#
#
#
# Elastic Constant Matrix: (Units=GPa)
#
#
# Indices 1 2 3 4 5 6 
#
# 1 95.2019 49.4270 58.3216 20.3933 25.9753 -7.6958
# 2 49.4270 139.2536 51.1694 10.5024 -2.5633 -12.4046
# 3 58.3216 51.1694 152.4460 13.6978 21.1913 5.3270
# 4 20.3933 10.5024 13.6978 43.3211 -2.4484 -0.4715
# 5 25.9753 -2.5633 21.1913 -2.4484 64.3155 13.8045
# 6 -7.6958 -12.4046 5.3270 -0.4715 13.8045 39.3879
#
#
#
# Elastic Compliance Matrix: (Units=1/GPa)
#
#
# Indices 1 2 3 4 5 6 
#
# 1 0.019871 -0.004478 -0.004505 -0.007247 -0.008259 0.005889
# 2 -0.004478 0.009640 -0.001979 0.000557 0.002534 0.001547
# 3 -0.004505 -0.001979 0.009174 -0.000370 -0.000763 -0.002481
# 4 -0.007247 0.000557 -0.000370 0.026711 0.004622 -0.002491
# 5 -0.008259 0.002534 -0.000763 0.004622 0.021144 -0.008068
# 6 0.005889 0.001547 -0.002481 -0.002491 -0.008068 0.030160
#
#
# Mechanical properties :
#
#
# Convention : Reuss Voigt Hill
#
# Bulk Modulus (GPa) = 59.66734 78.30417 68.98575
# Shear Modulus (GPa) = 34.67117 44.60379 39.63748
#
# Velocity S-wave (km/s) = 3.57228 4.05179 3.81957
# Velocity P-wave (km/s) = 6.24310 7.12112 6.69651
#
# Compressibility (1/GPa) = 0.01675959
#
# Stress axis : x y z
#
# Youngs Moduli (GPa) = 50.32434 103.73075 109.00772
#
# Poissons Ratio (x) = 0.46455 0.49113
# Poissons Ratio (y) = 0.22537 0.21571
# Poissons Ratio (z) = 0.22673 0.20527
#
# Static dielectric constant tensor:
#      x y z
#    x 2.158340 -0.011320 0.055500 
#    y -0.011320 2.255220 -0.038920 
#    z 0.055500 -0.038920 2.113600 
# 
# From -- ./inp_files/105670.got.cif
#   From: 2010.05.17/outbox.cif.g08.bks.cpg/sg2_53_cif.got.tgz:105670.got - 2010.06.03 11:33:40.
