data_PCOD9007815
_publ_section_title
;
Structure prediction by ZEFSAII (Michael W. Deem and Ramdas Pophale) SiO2 
 PCOD9007815
Probable space group: P -1
;
_chemical_formula_sum "Si O2"
_cell_formula_units_Z 10
_cell_length_a 8.625722
_cell_length_b 20.275658
_cell_length_c 4.911679
_cell_angle_alpha 83.398297
_cell_angle_beta 88.372478
_cell_angle_gamma 25.994721
_cell_volume 368.418524
_symmetry_space_group_name_H-M "P -1"
_symmetry_group_IT_number 2
_symmetry_cell_setting 'triclinic'
loop_
_space_group_symop_operation_xyz
x,y,z
-x,-y,-z
loop_
_atom_site_type_symbol
_atom_site_label
_atom_site_fract_x
_atom_site_fract_y
_atom_site_fract_z
Si Si1 0.557738 0.878822 0.225779
Si Si2 0.282206 0.648989 0.053631
Si Si3 0.278922 0.932813 0.703157
Si Si4 0.489662 0.359535 0.447061
Si Si5 0.709457 0.680021 0.185688
O O1 0.414238 0.941971 0.505011
O O2 0.747585 0.733575 0.323374
O O3 0.243712 0.981846 0.977993
O O4 0.873283 0.797894 0.108869
O O5 0.272190 0.705039 0.779370
O O6 0.500000 0.500000 0.000000
O O7 0.494764 0.592823 0.333478
O O8 0.551524 0.768983 0.871294
O O9 0.000000 0.000000 0.500000
O O10 0.543481 0.271780 0.657657
O O11 0.106542 0.498221 0.251394
#
# Coordination Sequence:
#
# PCOD9007815 Si02
#       5
#     2   2   2   2   2
#     4  10  22  37  60  88 112 148 203 233 286 348
#     4  12  23  37  57  88 125 160 183 230 298 355
#     4  10  21  39  63  84 109 150 204 248 276 328
#     4  11  24  36  58  88 127 153 184 238 292 353
#     4   9  24  36  61  87 118 152 201 230 291 339
#
# _framework density 27.143045000000001
#
# number of rings (size 3 to 8) (size 9 to 14) (size 15 to 20)
#    1.200    0.400    2.000    2.400    8.400    1.600 
#    0.000    0.000    0.000    7.200    0.000    0.000 
#    0.000    0.000    0.000    0.000    0.000    0.000 
#
# Total GULP energy -55790.482393 kJ/mol
# GULP energy per Si atom -5579.048239 kJ/mol
# Density = 2.708127 g / cm^3
# Si number density = 27.143045 Si / 1000 Ang^3
#
#
#
# Elastic Constant Matrix: (Units=GPa)
#
#
# Indices 1 2 3 4 5 6 
#
# 1 92.7545 23.2670 66.1585 10.3281 -16.2287 -23.5468
# 2 23.2670 57.5707 60.2564 -17.2733 -7.8019 -13.2623
# 3 66.1585 60.2564 263.3312 11.5430 -10.7001 -30.4618
# 4 10.3281 -17.2733 11.5430 60.6922 -19.5911 -2.9203
# 5 -16.2287 -7.8019 -10.7001 -19.5911 70.2033 17.4385
# 6 -23.5468 -13.2623 -30.4618 -2.9203 17.4385 37.5579
#
#
#
# Elastic Compliance Matrix: (Units=1/GPa)
#
#
# Indices 1 2 3 4 5 6 
#
# 1 0.015075 -0.002987 -0.002266 -0.002499 0.000598 0.006086
# 2 -0.002987 0.029547 -0.006046 0.011566 0.004259 0.002579
# 3 -0.002266 -0.006046 0.006025 -0.002889 -0.001536 0.001819
# 4 -0.002499 0.011566 -0.002889 0.022937 0.006988 -0.001287
# 5 0.000598 0.004259 -0.001536 0.006988 0.018402 -0.007367
# 6 0.006086 0.002579 0.001819 -0.001287 -0.007367 0.036148
#
#
# Mechanical properties :
#
#
# Convention : Reuss Voigt Hill
#
# Bulk Modulus (GPa) = 35.65322 79.22445 57.43883
# Shear Modulus (GPa) = 31.23405 51.28897 41.26151
#
# Velocity S-wave (km/s) = 3.39591 4.35165 3.90314
# Velocity P-wave (km/s) = 5.34229 7.38243 6.44361
#
# Compressibility (1/GPa) = 0.02804796
#
# Stress axis : x y z
#
# Youngs Moduli (GPa) = 66.33663 33.84443 165.97550
#
# Poissons Ratio (x) = 0.10110 0.37607
# Poissons Ratio (y) = 0.19817 1.00351
# Poissons Ratio (z) = 0.15031 0.20463
#
# Static dielectric constant tensor:
#      x y z
#    x 2.224610 0.042070 -0.005730 
#    y 0.042070 2.814450 0.237170 
#    z -0.005730 0.237170 2.071470 
# 
# From -- ./inp_files/43649.got.cif
#   From: 2010.05.17/outbox.cif.g08.bks.cpg/sg2_22_cif.got.tgz:43649.got - 2010.06.03 11:33:40.
