data_PCOD9007013
_publ_section_title
;
Structure prediction by ZEFSAII (Michael W. Deem and Ramdas Pophale) SiO2 
 PCOD9007013
Probable space group: P -1
;
_chemical_formula_sum "Si O2"
_cell_formula_units_Z 15
_cell_length_a 5.062278
_cell_length_b 9.742728
_cell_length_c 18.950506
_cell_angle_alpha 51.809169
_cell_angle_beta 74.451449
_cell_angle_gamma 94.249105
_cell_volume 671.271452
_symmetry_space_group_name_H-M "P -1"
_symmetry_group_IT_number 2
_symmetry_cell_setting 'triclinic'
loop_
_space_group_symop_operation_xyz
x,y,z
-x,-y,-z
loop_
_atom_site_type_symbol
_atom_site_label
_atom_site_fract_x
_atom_site_fract_y
_atom_site_fract_z
Si Si1 0.221750 0.886758 0.011819
Si Si2 0.358231 0.215990 0.381039
Si Si3 0.000000 0.500000 0.500000
Si Si4 0.791148 0.602979 0.223390
Si Si5 0.985329 0.420568 0.397172
Si Si6 0.003989 0.869627 0.311995
Si Si7 0.369895 0.072263 0.805054
Si Si8 0.512194 0.878309 0.438568
O O1 0.050438 0.693706 0.121739
O O2 0.500000 0.000000 0.000000
O O3 0.300960 0.903097 0.918564
O O4 0.000000 0.000000 0.000000
O O5 0.576863 0.407026 0.276775
O O6 0.447862 0.175981 0.466577
O O7 0.061310 0.261003 0.398429
O O8 0.374745 0.042291 0.391679
O O9 0.775612 0.506228 0.582934
O O10 0.090933 0.343976 0.590969
O O11 0.923109 0.553869 0.302392
O O12 0.614655 0.746450 0.206242
O O13 0.738679 0.310367 0.509767
O O14 0.885889 0.927235 0.229575
O O15 0.821404 0.941295 0.359836
O O16 0.347962 0.922671 0.261376
#
# Coordination Sequence:
#
# PCOD9007013 Si02
#       8
#     2   2   1   2   2   2   2   2
#     4  10  22  39  64  92 125 159 199 262 318 376
#     4  10  21  39  59  82 120 163 215 253 293 367
#     4  12  22  34  58  86 132 154 198 236 316 368
#     4  10  22  37  62  91 120 155 206 257 316 362
#     4  11  21  37  58  90 123 164 200 258 303 377
#     4  12  24  38  60  88 127 168 198 250 307 374
#     4  11  23  39  61  92 126 156 203 251 321 373
#     4  10  23  38  55  85 120 169 211 246 301 358
#
# _framework density 22.345656000000002
#
# number of rings (size 3 to 8) (size 9 to 14) (size 15 to 20)
#    0.000    1.333    2.667    3.600    5.600    1.067 
#    0.000    0.000    0.000    1.600    0.000    0.000 
#    0.000    0.000    0.000    0.000    0.000    0.000 
#
# Total GULP energy -83521.909301 kJ/mol
# GULP energy per Si atom -5568.127287 kJ/mol
# Density = 2.229480 g / cm^3
# Si number density = 22.345656 Si / 1000 Ang^3
#
#
#
# Elastic Constant Matrix: (Units=GPa)
#
#
# Indices 1 2 3 4 5 6 
#
# 1 92.4515 5.9730 31.6255 -0.1548 3.0546 -19.9222
# 2 5.9730 73.6495 42.8693 -2.5801 -7.8860 -22.7223
# 3 31.6255 42.8693 162.1918 4.5900 -10.5977 -6.6646
# 4 -0.1548 -2.5801 4.5900 21.0860 -2.1433 -2.1258
# 5 3.0546 -7.8860 -10.5977 -2.1433 43.7239 1.4741
# 6 -19.9222 -22.7223 -6.6646 -2.1258 1.4741 28.7483
#
#
#
# Elastic Compliance Matrix: (Units=1/GPa)
#
#
# Indices 1 2 3 4 5 6 
#
# 1 0.014838 0.005287 -0.003891 0.002861 -0.001353 0.013840
# 2 0.005287 0.024081 -0.006572 0.006793 0.001987 0.021574
# 3 -0.003891 -0.006572 0.008577 -0.003201 0.001218 -0.006202
# 4 0.002861 0.006793 -0.003201 0.050243 0.002368 0.010203
# 5 -0.001353 0.001987 0.001218 0.002368 0.023739 -0.000127
# 6 0.013840 0.021574 -0.006202 0.010203 -0.000127 0.060751
#
#
# Mechanical properties :
#
#
# Convention : Reuss Voigt Hill
#
# Bulk Modulus (GPa) = 26.92277 54.35870 40.64073
# Shear Modulus (GPa) = 24.39482 35.23330 29.81406
#
# Velocity S-wave (km/s) = 3.30768 3.97513 3.65666
# Velocity P-wave (km/s) = 5.16354 6.74151 6.00458
#
# Compressibility (1/GPa) = 0.03714328
#
# Stress axis : x y z
#
# Youngs Moduli (GPa) = 67.39530 41.52661 116.59659
#
# Poissons Ratio (x) = -0.21955 0.45370
# Poissons Ratio (y) = -0.35631 0.76624
# Poissons Ratio (z) = 0.26225 0.27290
#
# Static dielectric constant tensor:
#      x y z
#    x 1.354380 -0.465280 -0.014430 
#    y -0.465280 1.736260 0.087190 
#    z -0.014430 0.087190 1.854600 
# 
# From -- ./inp_files/113104.got.cif
#   From: 2010.05.17/outbox.cif.g08.bks.cpg/sg2_57_cif.got.tgz:113104.got - 2010.06.03 11:33:40.
