data_PCOD9007360
_publ_section_title
;
Structure prediction by ZEFSAII (Michael W. Deem and Ramdas Pophale) SiO2 
 PCOD9007360
Probable space group: P -1
;
_chemical_formula_sum "Si O2"
_cell_formula_units_Z 14
_cell_length_a 23.203473
_cell_length_b 9.905628
_cell_length_c 7.911385
_cell_angle_alpha 135.389605
_cell_angle_beta 36.542842
_cell_angle_gamma 145.491595
_cell_volume 606.651059
_symmetry_space_group_name_H-M "P -1"
_symmetry_group_IT_number 2
_symmetry_cell_setting 'triclinic'
loop_
_space_group_symop_operation_xyz
x,y,z
-x,-y,-z
loop_
_atom_site_type_symbol
_atom_site_label
_atom_site_fract_x
_atom_site_fract_y
_atom_site_fract_z
Si Si1 0.440142 0.946524 0.280213
Si Si2 0.973775 0.746978 0.287319
Si Si3 0.110767 0.147709 0.735973
Si Si4 0.261875 0.460832 0.171432
Si Si5 0.689320 0.358748 0.164299
Si Si6 0.786506 0.047603 0.228964
Si Si7 0.869318 0.240516 0.592218
O O1 0.369905 0.660156 0.217615
O O2 0.548149 0.140097 0.321643
O O3 0.332576 0.973036 0.548993
O O4 0.500000 0.000000 0.000000
O O5 0.928183 0.732666 0.192922
O O6 0.859747 0.571027 0.516951
O O7 0.000000 0.000000 0.500000
O O8 0.094975 0.769497 0.003318
O O9 0.244717 0.378444 0.676528
O O10 0.119713 0.935963 0.474592
O O11 0.000000 0.000000 0.000000
O O12 0.292008 0.572168 0.015285
O O13 0.241874 0.210335 0.976242
O O14 0.771332 0.269955 0.923685
O O15 0.822666 0.118176 0.405254
O O16 0.000000 0.500000 0.500000
#
# Coordination Sequence:
#
# PCOD9007360 Si02
#       7
#     2   2   2   2   2   2   2
#     4  10  22  37  61  91 122 159 206 252 292 360
#     4  10  22  38  62  91 121 161 198 248 309 360
#     4  12  21  39  62  87 124 157 195 255 301 356
#     4  10  21  39  61  89 126 154 202 251 298 362
#     4  11  22  40  62  94 119 154 207 254 296 356
#     4  11  20  37  59  92 119 161 197 246 313 349
#     4  12  22  33  61  91 118 151 199 248 306 347
#
# _framework density 23.077517
#
# number of rings (size 3 to 8) (size 9 to 14) (size 15 to 20)
#    0.000    1.143    7.143    0.857    0.000    4.000 
#    0.000    3.571    0.000    4.286    0.000    0.000 
#    0.000    0.000    0.000    0.000    0.000    0.000 
#
# Total GULP energy -78125.990868 kJ/mol
# GULP energy per Si atom -5580.427919 kJ/mol
# Density = 2.302499 g / cm^3
# Si number density = 23.077517 Si / 1000 Ang^3
#
#
#
# Elastic Constant Matrix: (Units=GPa)
#
#
# Indices 1 2 3 4 5 6 
#
# 1 47.9702 27.2106 21.7792 -6.1320 -18.8778 15.2953
# 2 27.2106 157.6530 56.8736 5.3590 -22.6936 28.3886
# 3 21.7792 56.8736 109.0455 -2.0212 -33.1441 12.0935
# 4 -6.1320 5.3590 -2.0212 40.0938 -1.4285 -8.5483
# 5 -18.8778 -22.6936 -33.1441 -1.4285 39.9027 -5.3852
# 6 15.2953 28.3886 12.0935 -8.5483 -5.3852 32.3304
#
#
#
# Elastic Compliance Matrix: (Units=1/GPa)
#
#
# Indices 1 2 3 4 5 6 
#
# 1 0.030156 -0.001700 -0.000420 0.003140 0.011736 -0.009831
# 2 -0.001700 0.009369 -0.003732 -0.003134 0.000396 -0.006789
# 3 -0.000420 -0.003732 0.014082 0.001521 0.009455 0.000185
# 4 0.003140 -0.003134 0.001521 0.027859 0.003122 0.008583
# 5 0.011736 0.000396 0.009455 0.003122 0.038508 -0.002197
# 6 -0.009831 -0.006789 0.000185 0.008583 -0.002197 0.043377
#
#
# Mechanical properties :
#
#
# Convention : Reuss Voigt Hill
#
# Bulk Modulus (GPa) = 23.86481 58.48838 41.17659
# Shear Modulus (GPa) = 26.45184 36.38572 31.41878
#
# Velocity S-wave (km/s) = 3.38926 3.97504 3.69378
# Velocity P-wave (km/s) = 5.06751 6.81669 6.00612
#
# Compressibility (1/GPa) = 0.04190271
#
# Stress axis : x y z
#
# Youngs Moduli (GPa) = 33.16049 106.73902 71.01119
#
# Poissons Ratio (x) = 0.18148 0.02986
# Poissons Ratio (y) = 0.05638 0.26498
# Poissons Ratio (z) = 0.01394 0.39830
#
# Static dielectric constant tensor:
#      x y z
#    x 2.265020 0.094440 0.095800 
#    y 0.094440 2.009620 0.060560 
#    z 0.095800 0.060560 1.900280 
# 
# From -- ./inp_files/270037.got.cif
#   From: 2010.05.17/outbox.cif.g08.bks.cpg/sg2_136_cif.got.tgz:270037.got - 2010.06.03 11:33:40.
