data_PCOD9007976
_publ_section_title
;
Structure prediction by ZEFSAII (Michael W. Deem and Ramdas Pophale) SiO2 
 PCOD9007976
Probable space group: P -1
;
_chemical_formula_sum "Si O2"
_cell_formula_units_Z 16
_cell_length_a 13.479293
_cell_length_b 11.426867
_cell_length_c 7.697035
_cell_angle_alpha 81.332065
_cell_angle_beta 58.477814
_cell_angle_gamma 45.155467
_cell_volume 668.314636
_symmetry_space_group_name_H-M "P -1"
_symmetry_group_IT_number 2
_symmetry_cell_setting 'triclinic'
loop_
_space_group_symop_operation_xyz
x,y,z
-x,-y,-z
loop_
_atom_site_type_symbol
_atom_site_label
_atom_site_fract_x
_atom_site_fract_y
_atom_site_fract_z
Si Si1 0.311869 0.657089 0.057971
Si Si2 0.561054 0.863388 0.328644
Si Si3 0.204377 0.039821 0.551830
Si Si4 0.741577 0.518309 0.457123
Si Si5 0.855067 0.440281 0.744329
Si Si6 0.839273 0.199648 0.462169
Si Si7 0.094172 0.372054 0.108166
Si Si8 0.132185 0.988483 0.980131
O O1 0.241398 0.590175 0.048537
O O2 0.182534 0.772274 0.316648
O O3 0.296143 0.783743 0.924913
O O4 0.500000 0.500000 0.000000
O O5 0.390673 0.953808 0.359424
O O6 0.638943 0.687976 0.394107
O O7 0.500000 0.000000 0.500000
O O8 0.712556 0.806766 0.087340
O O9 0.202589 0.903907 0.524816
O O10 0.177693 0.053662 0.784331
O O11 0.047047 0.239393 0.583190
O O12 0.727650 0.549554 0.670472
O O13 0.714275 0.400669 0.465003
O O14 0.948910 0.387499 0.284381
O O15 0.883733 0.542580 0.787839
O O16 0.024424 0.093024 0.230450
O O17 0.000000 0.500000 0.000000
O O18 0.000000 0.000000 0.000000
#
# Coordination Sequence:
#
# PCOD9007976 Si02
#       8
#     2   2   2   2   2   2   2   2
#     4  11  24  40  63  97 141 174 214 271 322 392
#     4  11  26  45  66  97 130 170 224 278 327 383
#     4  11  24  41  67  99 136 172 219 272 319 395
#     4  10  24  43  69  94 132 174 218 271 328 397
#     4  11  23  44  67  96 133 175 219 263 332 392
#     4  10  23  41  65  97 134 174 216 259 337 384
#     4  10  23  43  70  94 125 173 220 273 324 389
#     4  10  21  39  63  92 130 175 215 257 319 389
#
# _framework density 23.940818
#
# number of rings (size 3 to 8) (size 9 to 14) (size 15 to 20)
#    0.000    1.500    2.500    2.250   12.250    0.500 
#    0.000    2.500    0.000    0.000    0.000    0.000 
#    0.000    0.000    0.000    0.000    0.000    0.000 
#
# Total GULP energy -89327.777126 kJ/mol
# GULP energy per Si atom -5582.986070 kJ/mol
# Density = 2.388633 g / cm^3
# Si number density = 23.940818 Si / 1000 Ang^3
#
#
#
# Elastic Constant Matrix: (Units=GPa)
#
#
# Indices 1 2 3 4 5 6 
#
# 1 94.3399 13.0321 0.4064 31.1485 -6.6043 11.4812
# 2 13.0321 92.0977 -6.7976 15.5860 11.3399 -9.5960
# 3 0.4064 -6.7976 64.5302 10.0090 -4.3370 -1.2595
# 4 31.1485 15.5860 10.0090 37.7803 -5.3337 4.6455
# 5 -6.6043 11.3399 -4.3370 -5.3337 26.6175 10.0893
# 6 11.4812 -9.5960 -1.2595 4.6455 10.0893 47.1180
#
#
#
# Elastic Compliance Matrix: (Units=1/GPa)
#
#
# Indices 1 2 3 4 5 6 
#
# 1 0.015256 -0.000777 0.001818 -0.011858 0.003313 -0.003367
# 2 -0.000777 0.014325 0.002210 -0.007988 -0.009833 0.006059
# 3 0.001818 0.002210 0.016846 -0.006935 0.000470 0.001040
# 4 -0.011858 -0.007988 -0.006935 0.043460 0.010073 -0.005364
# 5 0.003313 -0.009833 0.000470 0.010073 0.050185 -0.014536
# 6 -0.003367 0.006059 0.001040 -0.005364 -0.014536 0.026947
#
#
# Mechanical properties :
#
#
# Convention : Reuss Voigt Hill
#
# Bulk Modulus (GPa) = 18.89264 29.36105 24.12685
# Shear Modulus (GPa) = 28.06492 38.59164 33.32828
#
# Velocity S-wave (km/s) = 3.42755 4.01928 3.73515
# Velocity P-wave (km/s) = 4.85516 5.81636 5.35736
#
# Compressibility (1/GPa) = 0.05293065
#
# Stress axis : x y z
#
# Youngs Moduli (GPa) = 65.54678 69.80870 59.36262
#
# Poissons Ratio (x) = 0.05421 -0.10794
# Poissons Ratio (y) = 0.05090 -0.13121
# Poissons Ratio (z) = -0.11918 -0.15430
#
# Static dielectric constant tensor:
#      x y z
#    x 1.898010 0.025490 -0.015510 
#    y 0.025490 1.919640 -0.002960 
#    z -0.015510 -0.002960 1.854120 
# 
# From -- ./inp_files/307279.got.cif
#   From: 2010.05.17/outbox.cif.g08.bks.cpg/sg2_154_cif.got.tgz:307279.got - 2010.06.03 11:33:40.
