data_PCOD9007934
_publ_section_title
;
Structure prediction by ZEFSAII (Michael W. Deem and Ramdas Pophale) SiO2 
 PCOD9007934
Probable space group: P -1
;
_chemical_formula_sum "Si O2"
_cell_formula_units_Z 16
_cell_length_a 6.704513
_cell_length_b 14.726415
_cell_length_c 17.009353
_cell_angle_alpha 28.665123
_cell_angle_beta 112.995696
_cell_angle_gamma 102.688636
_cell_volume 712.156834
_symmetry_space_group_name_H-M "P -1"
_symmetry_group_IT_number 2
_symmetry_cell_setting 'triclinic'
loop_
_space_group_symop_operation_xyz
x,y,z
-x,-y,-z
loop_
_atom_site_type_symbol
_atom_site_label
_atom_site_fract_x
_atom_site_fract_y
_atom_site_fract_z
Si Si1 0.840132 0.322687 0.699381
Si Si2 0.420234 0.631513 0.678191
Si Si3 0.001060 0.030564 0.609177
Si Si4 0.328543 0.422404 0.978079
Si Si5 0.683149 0.934124 0.010155
Si Si6 0.518158 0.050907 0.201930
Si Si7 0.490423 0.398110 0.454217
Si Si8 0.880174 0.731410 0.703460
O O1 0.701059 0.401878 0.538900
O O2 0.738561 0.484005 0.627544
O O3 0.767262 0.128155 0.860143
O O4 0.108087 0.246849 0.793231
O O5 0.200899 0.816556 0.493704
O O6 0.358586 0.503489 0.834624
O O7 0.486451 0.523175 0.688266
O O8 0.634305 0.701668 0.685980
O O9 0.078244 0.149006 0.458555
O O10 0.915934 0.860169 0.684819
O O11 0.222459 0.945642 0.759342
O O12 0.076144 0.525594 0.889133
O O13 0.500000 0.500000 0.000000
O O14 0.397241 0.189838 0.149701
O O15 0.589844 0.890596 0.944537
O O16 0.500000 0.000000 0.000000
O O17 0.511761 0.827534 0.383642
#
# Coordination Sequence:
#
# PCOD9007934 Si02
#       8
#     2   2   2   2   2   2   2   2
#     4   9  22  45  64  94 133 164 210 272 320 377
#     4  11  24  38  67  93 120 175 221 256 317 389
#     4  10  21  39  63  91 127 160 219 270 307 374
#     4  11  25  44  62  94 138 167 211 273 319 379
#     4  10  23  41  69  97 131 166 206 264 333 386
#     4  11  23  42  64  96 128 171 211 268 324 370
#     4  10  22  44  68  92 128 172 217 266 317 382
#     4  10  21  42  63  87 128 170 210 267 317 371
#
# _framework density 22.466961999999999
#
# number of rings (size 3 to 8) (size 9 to 14) (size 15 to 20)
#    0.000    1.750    2.500    0.375    5.250    1.500 
#    2.250    1.875    0.000    0.000    0.000    0.000 
#    0.000    0.000    0.000    0.000    0.000    0.000 
#
# Total GULP energy -89542.142160 kJ/mol
# GULP energy per Si atom -5596.383885 kJ/mol
# Density = 2.241583 g / cm^3
# Si number density = 22.466962 Si / 1000 Ang^3
#
#
#
# Elastic Constant Matrix: (Units=GPa)
#
#
# Indices 1 2 3 4 5 6 
#
# 1 63.7312 11.8976 17.9264 2.9630 20.0626 -0.2897
# 2 11.8976 93.2911 20.9535 -14.3650 8.4620 -19.1860
# 3 17.9264 20.9535 64.4072 -17.4743 19.8246 -4.8060
# 4 2.9630 -14.3650 -17.4743 34.6156 -3.6665 4.9691
# 5 20.0626 8.4620 19.8246 -3.6665 43.5345 0.7551
# 6 -0.2897 -19.1860 -4.8060 4.9691 0.7551 25.5513
#
#
#
# Elastic Compliance Matrix: (Units=1/GPa)
#
#
# Indices 1 2 3 4 5 6 
#
# 1 0.019729 -0.001888 -0.004104 -0.005209 -0.007282 -0.000737
# 2 -0.001888 0.013979 -0.002158 0.003443 -0.000738 0.009422
# 3 -0.004104 -0.002158 0.022257 0.009832 -0.007010 0.000814
# 4 -0.005209 0.003443 0.009832 0.036145 0.000345 -0.002664
# 5 -0.007282 -0.000738 -0.007010 0.000345 0.029741 -0.002901
# 6 -0.000737 0.009422 0.000814 -0.002664 -0.002901 0.046960
#
#
# Mechanical properties :
#
#
# Convention : Reuss Voigt Hill
#
# Bulk Modulus (GPa) = 25.21098 35.88716 30.54907
# Shear Modulus (GPa) = 25.21012 32.11708 28.66360
#
# Velocity S-wave (km/s) = 3.35341 3.78501 3.57572
# Velocity P-wave (km/s) = 5.12245 5.92534 5.53846
#
# Compressibility (1/GPa) = 0.03966526
#
# Stress axis : x y z
#
# Youngs Moduli (GPa) = 50.68708 71.53431 44.93053
#
# Poissons Ratio (x) = 0.13502 0.18439
# Poissons Ratio (y) = 0.09567 0.09697
# Poissons Ratio (z) = 0.20802 0.15439
#
# Static dielectric constant tensor:
#      x y z
#    x 1.798210 0.011870 -0.016840 
#    y 0.011870 1.813660 -0.019820 
#    z -0.016840 -0.019820 1.881400 
# 
# From -- ./inp_files/39983.got.cif
#   From: 2010.05.17/outbox.cif.g08.bks.cpg/sg2_20_cif.got.tgz:39983.got - 2010.06.03 11:33:40.
