data_PCOD9007182
_publ_section_title
;
Structure prediction by ZEFSAII (Michael W. Deem and Ramdas Pophale) SiO2 
 PCOD9007182
Probable space group: P -1
;
_chemical_formula_sum "Si O2"
_cell_formula_units_Z 16
_cell_length_a 18.922923
_cell_length_b 21.113311
_cell_length_c 12.785501
_cell_angle_alpha 37.099861
_cell_angle_beta 27.142074
_cell_angle_gamma 18.796455
_cell_volume 715.066298
_symmetry_space_group_name_H-M "P -1"
_symmetry_group_IT_number 2
_symmetry_cell_setting 'triclinic'
loop_
_space_group_symop_operation_xyz
x,y,z
-x,-y,-z
loop_
_atom_site_type_symbol
_atom_site_label
_atom_site_fract_x
_atom_site_fract_y
_atom_site_fract_z
Si Si1 0.073504 0.739422 0.609194
Si Si2 0.916803 0.477194 0.237118
Si Si3 0.306144 0.935912 0.478150
Si Si4 0.241224 0.601123 0.132580
Si Si5 0.033730 0.246577 0.026697
Si Si6 0.952703 0.926913 0.926546
Si Si7 0.461029 0.360650 0.952532
Si Si8 0.254295 0.166726 0.371537
O O1 0.184550 0.575894 0.608708
O O2 0.306918 0.699519 0.338920
O O3 0.756594 0.965429 0.677858
O O4 0.024321 0.733793 0.800183
O O5 0.647419 0.697540 0.357758
O O6 0.185944 0.289627 0.207874
O O7 0.000000 0.500000 0.000000
O O8 0.192636 0.084638 0.516871
O O9 0.112748 0.943534 0.716530
O O10 0.003700 0.667336 0.420657
O O11 0.500000 0.500000 0.000000
O O12 0.405283 0.444756 0.028209
O O13 0.026750 0.812000 0.079574
O O14 0.389113 0.045005 0.796665
O O15 0.848846 0.451501 0.952063
O O16 0.919493 0.210469 0.161007
O O17 0.610493 0.161041 0.039421
#
# Coordination Sequence:
#
# PCOD9007182 Si02
#       8
#     2   2   2   2   2   2   2   2
#     4  10  21  39  62  89 123 161 203 252 302 356
#     4  11  21  36  60  90 123 159 202 250 302 360
#     4  10  21  39  60  89 121 154 206 255 296 354
#     4  11  22  42  66  88 122 159 203 254 300 357
#     4  11  23  40  59  89 128 162 199 248 306 361
#     4  10  23  40  62  91 118 158 208 247 297 363
#     4  10  23  40  61  90 123 160 203 251 300 356
#     4  11  25  40  61  93 125 161 200 249 308 357
#
# _framework density 22.375547000000001
#
# number of rings (size 3 to 8) (size 9 to 14) (size 15 to 20)
#    0.000    1.500    0.000    6.375    0.000   12.000 
#    0.000    1.250    0.000    0.000    0.000    0.000 
#    0.000    0.000    0.000    0.000    0.000    0.000 
#
# Total GULP energy -89389.774300 kJ/mol
# GULP energy per Si atom -5586.860894 kJ/mol
# Density = 2.232462 g / cm^3
# Si number density = 22.375547 Si / 1000 Ang^3
#
#
#
# Elastic Constant Matrix: (Units=GPa)
#
#
# Indices 1 2 3 4 5 6 
#
# 1 60.4473 19.4036 3.1026 -6.1722 7.9491 -2.5732
# 2 19.4036 163.4999 11.8919 0.2064 3.9557 -22.5209
# 3 3.1026 11.8919 49.0056 6.5034 8.0473 -4.9566
# 4 -6.1722 0.2064 6.5034 35.8808 -3.0561 -3.6403
# 5 7.9491 3.9557 8.0473 -3.0561 27.0496 0.4307
# 6 -2.5732 -22.5209 -4.9566 -3.6403 0.4307 36.6658
#
#
#
# Elastic Compliance Matrix: (Units=1/GPa)
#
#
# Indices 1 2 3 4 5 6 
#
# 1 0.018102 -0.001972 -0.000241 0.002810 -0.004648 0.000360
# 2 -0.001972 0.006993 -0.001174 0.000230 -0.000132 0.004022
# 3 -0.000241 -0.001174 0.022664 -0.004544 -0.007045 0.001957
# 4 0.002810 0.000230 -0.004544 0.029768 0.003814 0.002635
# 5 -0.004648 -0.000132 -0.007045 0.003814 0.040904 -0.001461
# 6 0.000360 0.004022 0.001957 0.002635 -0.001461 0.030313
#
#
# Mechanical properties :
#
#
# Convention : Reuss Voigt Hill
#
# Bulk Modulus (GPa) = 24.39944 37.97211 31.18577
# Shear Modulus (GPa) = 29.55454 35.82288 32.68871
#
# Velocity S-wave (km/s) = 3.63828 4.00557 3.82633
# Velocity P-wave (km/s) = 5.34580 6.19677 5.78695
#
# Compressibility (1/GPa) = 0.04098455
#
# Stress axis : x y z
#
# Youngs Moduli (GPa) = 55.24181 143.00817 44.12333
#
# Poissons Ratio (x) = 0.28206 0.01062
# Poissons Ratio (y) = 0.10895 0.05180
# Poissons Ratio (z) = 0.01329 0.16790
#
# Static dielectric constant tensor:
#      x y z
#    x 1.850260 -0.028400 -0.050990 
#    y -0.028400 1.866710 0.049020 
#    z -0.050990 0.049020 1.869850 
# 
# From -- ./inp_files/438741.got.cif
#   From: 2010.05.17/outbox.cif.g08.bks.cpg/sg2_220_cif.got.tgz:438741.got - 2010.06.03 11:33:40.
