data_PCOD9007610
_publ_section_title
;
Structure prediction by ZEFSAII (Michael W. Deem and Ramdas Pophale) SiO2 
 PCOD9007610
Probable space group: P -1
;
_chemical_formula_sum "Si O2"
_cell_formula_units_Z 14
_cell_length_a 5.387906
_cell_length_b 13.297373
_cell_length_c 9.638866
_cell_angle_alpha 68.422097
_cell_angle_beta 114.856121
_cell_angle_gamma 103.027296
_cell_volume 580.635720
_symmetry_space_group_name_H-M "P -1"
_symmetry_group_IT_number 2
_symmetry_cell_setting 'triclinic'
loop_
_space_group_symop_operation_xyz
x,y,z
-x,-y,-z
loop_
_atom_site_type_symbol
_atom_site_label
_atom_site_fract_x
_atom_site_fract_y
_atom_site_fract_z
Si Si1 0.484748 0.192111 0.265718
Si Si2 0.533594 0.666726 0.477405
Si Si3 0.287952 0.527329 0.226373
Si Si4 0.895045 0.990520 0.826152
Si Si5 0.012714 0.113092 0.363908
Si Si6 0.983668 0.763843 0.339002
Si Si7 0.734841 0.634715 0.077099
O O1 0.808308 0.192588 0.339162
O O2 0.983372 0.565967 0.121135
O O3 0.394815 0.079011 0.219613
O O4 0.374142 0.291260 0.107224
O O5 0.423804 0.592675 0.357195
O O6 0.694106 0.595997 0.659135
O O7 0.247576 0.697216 0.460684
O O8 0.740843 0.751759 0.400129
O O9 0.485746 0.560713 0.126771
O O10 0.319765 0.168150 0.381910
O O11 0.904584 0.111603 0.711547
O O12 0.065984 0.919125 0.798413
O O13 0.000000 0.000000 0.000000
O O14 0.000000 0.000000 0.500000
O O15 0.858146 0.716640 0.186694
#
# Coordination Sequence:
#
# PCOD9007610 Si02
#       7
#     2   2   2   2   2   2   2
#     4  10  21  34  54  75 106 138 176 215 255 311
#     4   9  18  28  42  63  96 139 171 204 248 313
#     4   9  17  28  43  63  97 135 171 205 256 302
#     4  10  22  34  53  80 111 142 173 212 260 311
#     4  10  22  38  54  72 107 146 178 217 255 302
#     4  10  18  29  44  68 101 134 171 203 253 306
#     4  10  17  29  46  70  98 132 168 211 253 306
#
# _framework density 24.111507
#
# number of rings (size 3 to 8) (size 9 to 14) (size 15 to 20)
#    0.857    1.429    1.429    2.143    2.000    5.143 
#    0.000    0.000    0.000    0.000    0.000    0.000 
#    0.000   22.857    0.000    0.000    0.000    0.000 
#
# Total GULP energy -78258.886362 kJ/mol
# GULP energy per Si atom -5589.920454 kJ/mol
# Density = 2.405663 g / cm^3
# Si number density = 24.111507 Si / 1000 Ang^3
#
#
#
# Elastic Constant Matrix: (Units=GPa)
#
#
# Indices 1 2 3 4 5 6 
#
# 1 170.7961 4.7296 60.5765 -8.0141 -5.9866 -11.5794
# 2 4.7296 53.3670 18.8750 0.0819 -2.3586 5.1057
# 3 60.5765 18.8750 103.0001 -15.8564 -5.8489 -8.3692
# 4 -8.0141 0.0819 -15.8564 52.8357 -3.7192 -4.1982
# 5 -5.9866 -2.3586 -5.8489 -3.7192 39.4035 -0.0798
# 6 -11.5794 5.1057 -8.3692 -4.1982 -0.0798 34.0713
#
#
#
# Elastic Compliance Matrix: (Units=1/GPa)
#
#
# Indices 1 2 3 4 5 6 
#
# 1 0.007512 0.000797 -0.004433 -0.000048 0.000529 0.001340
# 2 0.000797 0.020816 -0.004859 -0.001673 0.000479 -0.004247
# 3 -0.004433 -0.004859 0.014159 0.003944 0.001516 0.003189
# 4 -0.000048 -0.001673 0.003944 0.020574 0.002427 0.003744
# 5 0.000529 0.000479 0.001516 0.002427 0.025943 0.000840
# 6 0.001340 -0.004247 0.003189 0.003744 0.000840 0.031689
#
#
# Mechanical properties :
#
#
# Convention : Reuss Voigt Hill
#
# Bulk Modulus (GPa) = 39.21866 55.05839 47.13853
# Shear Modulus (GPa) = 34.20422 41.46092 37.83257
#
# Velocity S-wave (km/s) = 3.77050 4.15124 3.96544
# Velocity P-wave (km/s) = 5.93771 6.77212 6.36859
#
# Compressibility (1/GPa) = 0.02549807
#
# Stress axis : x y z
#
# Youngs Moduli (GPa) = 133.11819 48.03974 70.62894
#
# Poissons Ratio (x) = -0.03830 0.31307
# Poissons Ratio (y) = -0.10613 0.34318
# Poissons Ratio (z) = 0.59006 0.23342
#
# Static dielectric constant tensor:
#      x y z
#    x 1.957650 0.005030 -0.014240 
#    y 0.005030 2.076740 0.102720 
#    z -0.014240 0.102720 1.909440 
# 
# From -- ./inp_files/364135.got.cif
#   From: 2010.05.17/outbox.cif.g08.bks.cpg/sg2_183_cif.got.tgz:364135.got - 2010.06.03 11:33:40.
