data_PCOD9007191
_publ_section_title
;
Structure prediction by ZEFSAII (Michael W. Deem and Ramdas Pophale) SiO2 
 PCOD9007191
Probable space group: P -1
;
_chemical_formula_sum "Si O2"
_cell_formula_units_Z 14
_cell_length_a 18.339081
_cell_length_b 6.855630
_cell_length_c 9.250502
_cell_angle_alpha 74.488057
_cell_angle_beta 69.412155
_cell_angle_gamma 129.181588
_cell_volume 622.896803
_symmetry_space_group_name_H-M "P -1"
_symmetry_group_IT_number 2
_symmetry_cell_setting 'triclinic'
loop_
_space_group_symop_operation_xyz
x,y,z
-x,-y,-z
loop_
_atom_site_type_symbol
_atom_site_label
_atom_site_fract_x
_atom_site_fract_y
_atom_site_fract_z
Si Si1 0.848898 0.422878 0.148758
Si Si2 0.479906 0.357270 0.197769
Si Si3 0.363018 0.294095 0.701232
Si Si4 0.627380 0.244987 0.466639
Si Si5 0.025522 0.919862 0.684738
Si Si6 0.092764 0.498128 0.425185
Si Si7 0.217373 0.983136 0.477078
O O1 0.751154 0.392209 0.279668
O O2 0.875168 0.334221 0.284876
O O3 0.756348 0.102834 0.168445
O O4 0.976560 0.762753 0.908974
O O5 0.604473 0.615684 0.168172
O O6 0.422003 0.005689 0.320175
O O7 0.365989 0.259870 0.366176
O O8 0.500000 0.500000 0.000000
O O9 0.500000 0.500000 0.500000
O O10 0.331158 0.437223 0.614121
O O11 0.500000 0.000000 0.500000
O O12 0.915583 0.606887 0.710154
O O13 0.157297 0.081095 0.505098
O O14 0.044166 0.198470 0.604667
O O15 0.214163 0.851713 0.354165
O O16 0.000000 0.500000 0.500000
#
# Coordination Sequence:
#
# PCOD9007191 Si02
#       7
#     2   2   2   2   2   2   2
#     4  11  22  37  65  91 116 157 205 243 294 363
#     4  10  22  40  62  92 125 158 201 250 302 358
#     4  11  20  41  65  86 125 162 200 248 301 358
#     4   9  19  38  58  85 123 157 196 246 295 345
#     4  10  22  40  62  90 115 159 203 239 304 360
#     4   9  21  42  58  82 127 157 191 247 302 348
#     4  10  21  39  60  89 125 149 196 257 295 347
#
# _framework density 22.475632999999998
#
# number of rings (size 3 to 8) (size 9 to 14) (size 15 to 20)
#    0.000    2.000    4.286    0.429    2.000    5.143 
#   12.857    0.714    0.000    0.000    0.000    0.000 
#    0.000    0.000    0.000    0.000    0.000    0.000 
#
# Total GULP energy -78018.858767 kJ/mol
# GULP energy per Si atom -5572.775626 kJ/mol
# Density = 2.242448 g / cm^3
# Si number density = 22.475633 Si / 1000 Ang^3
#
#
#
# Elastic Constant Matrix: (Units=GPa)
#
#
# Indices 1 2 3 4 5 6 
#
# 1 107.7993 42.7805 26.7604 -12.1809 18.9516 -26.6669
# 2 42.7805 93.2938 19.4064 -1.6301 6.6983 -17.8006
# 3 26.7604 19.4064 102.6590 -4.0081 26.6814 -20.3370
# 4 -12.1809 -1.6301 -4.0081 17.4531 4.6505 10.1745
# 5 18.9516 6.6983 26.6814 4.6505 31.1196 -4.3372
# 6 -26.6669 -17.8006 -20.3370 10.1745 -4.3372 49.5389
#
#
#
# Elastic Compliance Matrix: (Units=1/GPa)
#
#
# Indices 1 2 3 4 5 6 
#
# 1 0.015051 -0.005528 0.000744 0.010810 -0.009763 0.003346
# 2 -0.005528 0.013793 -0.001608 -0.005272 0.002935 0.002660
# 3 0.000744 -0.001608 0.013917 0.004811 -0.012274 0.003473
# 4 0.010810 -0.005272 0.004811 0.078765 -0.023057 -0.012296
# 5 -0.009763 0.002935 -0.012274 -0.023057 0.051417 -0.000002
# 6 0.003346 0.002660 0.003473 -0.012296 -0.000002 0.026894
#
#
# Mechanical properties :
#
#
# Convention : Reuss Voigt Hill
#
# Bulk Modulus (GPa) = 33.35942 53.51632 43.43787
# Shear Modulus (GPa) = 22.46032 33.94264 28.20148
#
# Velocity S-wave (km/s) = 3.16463 3.89034 3.54610
# Velocity P-wave (km/s) = 5.31299 6.63643 6.01124
#
# Compressibility (1/GPa) = 0.02997654
#
# Stress axis : x y z
#
# Youngs Moduli (GPa) = 66.43889 72.50032 71.85467
#
# Poissons Ratio (x) = 0.40081 -0.05346
# Poissons Ratio (y) = 0.36730 0.11555
# Poissons Ratio (z) = -0.04943 0.11659
#
# Static dielectric constant tensor:
#      x y z
#    x 1.848190 0.049840 0.008450 
#    y 0.049840 1.946760 0.004770 
#    z 0.008450 0.004770 1.815430 
# 
# From -- ./inp_files/323437.got.cif
#   From: 2010.05.17/outbox.cif.g08.bks.cpg/sg2_162_cif.got.tgz:323437.got - 2010.06.03 11:33:40.
