data_PCOD9007050
_publ_section_title
;
Structure prediction by ZEFSAII (Michael W. Deem and Ramdas Pophale) SiO2 
 PCOD9007050
Probable space group: P -1
;
_chemical_formula_sum "Si O2"
_cell_formula_units_Z 14
_cell_length_a 9.669728
_cell_length_b 6.254358
_cell_length_c 14.104677
_cell_angle_alpha 109.102571
_cell_angle_beta 95.001959
_cell_angle_gamma 53.591143
_cell_volume 642.250674
_symmetry_space_group_name_H-M "P -1"
_symmetry_group_IT_number 2
_symmetry_cell_setting 'triclinic'
loop_
_space_group_symop_operation_xyz
x,y,z
-x,-y,-z
loop_
_atom_site_type_symbol
_atom_site_label
_atom_site_fract_x
_atom_site_fract_y
_atom_site_fract_z
Si Si1 0.160635 0.430714 0.096019
Si Si2 0.236039 0.320524 0.298713
Si Si3 0.114342 0.055355 0.611925
Si Si4 0.359527 0.460363 0.945846
Si Si5 0.153949 0.015939 0.905296
Si Si6 0.081213 0.184754 0.423872
Si Si7 0.609352 0.016631 0.240650
O O1 0.223329 0.295082 0.182170
O O2 0.010954 0.770487 0.141242
O O3 0.302057 0.391841 0.028108
O O4 0.111910 0.245388 0.015079
O O5 0.202835 0.133979 0.335649
O O6 0.424244 0.248253 0.310339
O O7 0.074478 0.642948 0.354690
O O8 0.172439 0.997932 0.496901
O O9 0.244197 0.075600 0.685732
O O10 0.072631 0.841650 0.613414
O O11 0.200895 0.746979 0.926659
O O12 0.406854 0.222254 0.836862
O O13 0.500000 0.500000 0.000000
O O14 0.323036 0.906909 0.835293
O O15 0.000000 0.500000 0.500000
#
# Coordination Sequence:
#
# PCOD9007050 Si02
#       7
#     2   2   2   2   2   2   2
#     4  10  21  39  60  90 128 170 220 259 314 379
#     4  11  22  40  67  97 129 168 214 266 321 384
#     4  10  22  46  66  94 132 165 211 266 329 387
#     4  11  23  39  60  95 133 175 217 267 314 369
#     4  10  21  39  59  88 130 173 213 264 314 370
#     4   9  22  44  70  94 127 167 207 270 329 388
#     4  11  24  41  64  99 130 170 218 264 314 388
#
# _framework density 21.798341000000001
#
# number of rings (size 3 to 8) (size 9 to 14) (size 15 to 20)
#    0.000    1.714    1.429    2.143    0.000    8.571 
#    2.571    6.429    0.000    0.000    0.000    0.000 
#    0.000    0.000    0.000    0.000    0.000    0.000 
#
# Total GULP energy -78019.505124 kJ/mol
# GULP energy per Si atom -5572.821795 kJ/mol
# Density = 2.174873 g / cm^3
# Si number density = 21.798341 Si / 1000 Ang^3
#
#
#
# Elastic Constant Matrix: (Units=GPa)
#
#
# Indices 1 2 3 4 5 6 
#
# 1 134.9138 41.4401 58.4950 -6.8218 1.1537 -6.3456
# 2 41.4401 58.3016 53.0552 -5.9587 -9.1004 -1.8431
# 3 58.4950 53.0552 94.1237 -26.4544 4.4851 0.9238
# 4 -6.8218 -5.9587 -26.4544 22.6217 8.5478 -5.2637
# 5 1.1537 -9.1004 4.4851 8.5478 35.3515 -0.7212
# 6 -6.3456 -1.8431 0.9238 -5.2637 -0.7212 32.1555
#
#
#
# Elastic Compliance Matrix: (Units=1/GPa)
#
#
# Indices 1 2 3 4 5 6 
#
# 1 0.011139 0.001552 -0.010842 -0.010141 0.003884 0.001026
# 2 0.001552 0.080535 -0.071784 -0.082242 0.049565 -0.005366
# 3 -0.010842 -0.071784 0.090035 0.105539 -0.054920 0.007204
# 4 -0.010141 -0.082242 0.105539 0.175795 -0.076383 0.017316
# 5 0.003884 0.049565 -0.054920 -0.076383 0.066238 -0.005833
# 6 0.001026 -0.005366 0.007204 0.017316 -0.005833 0.033491
#
#
# Mechanical properties :
#
#
# Convention : Reuss Voigt Hill
#
# Bulk Modulus (GPa) = 51.12772 65.92443 58.52607
# Shear Modulus (GPa) = 7.98846 26.98232 17.48539
#
# Velocity S-wave (km/s) = 1.91642 3.52208 2.83529
# Velocity P-wave (km/s) = 5.32942 6.84460 6.13397
#
# Compressibility (1/GPa) = 0.01955886
#
# Stress axis : x y z
#
# Youngs Moduli (GPa) = 89.77676 12.41689 11.10682
#
# Poissons Ratio (x) = -0.01927 0.12042
# Poissons Ratio (y) = -0.13931 0.79730
# Poissons Ratio (z) = 0.97339 0.89134
#
# Static dielectric constant tensor:
#      x y z
#    x 1.858570 -0.039740 -0.002420 
#    y -0.039740 1.886350 -0.025470 
#    z -0.002420 -0.025470 1.865000 
# 
# From -- ./inp_files/488649.got.cif
#   From: 2010.05.17/outbox.cif.g08.bks.cpg/sg2_245_cif.got.tgz:488649.got - 2010.06.03 11:33:40.
