data_PCOD9007879
_publ_section_title
;
Structure prediction by ZEFSAII (Michael W. Deem and Ramdas Pophale) SiO2 
 PCOD9007879
Probable space group: P -1
;
_chemical_formula_sum "Si O2"
_cell_formula_units_Z 16
_cell_length_a 7.816419
_cell_length_b 18.957295
_cell_length_c 14.081257
_cell_angle_alpha 38.013882
_cell_angle_beta 72.747472
_cell_angle_gamma 45.946313
_cell_volume 760.305707
_symmetry_space_group_name_H-M "P -1"
_symmetry_group_IT_number 2
_symmetry_cell_setting 'triclinic'
loop_
_space_group_symop_operation_xyz
x,y,z
-x,-y,-z
loop_
_atom_site_type_symbol
_atom_site_label
_atom_site_fract_x
_atom_site_fract_y
_atom_site_fract_z
Si Si1 0.797128 0.245744 0.135052
Si Si2 0.272971 0.919711 0.821793
Si Si3 0.712520 0.875221 0.509932
Si Si4 0.661524 0.704876 0.158262
Si Si5 0.685139 0.689011 0.570737
Si Si6 0.795639 0.095398 0.841214
Si Si7 0.675246 0.963021 0.861532
Si Si8 0.707774 0.320678 0.286918
O O1 0.750098 0.148061 0.194872
O O2 0.823332 0.223305 0.267627
O O3 0.078497 0.157976 0.131951
O O4 0.529419 0.462491 0.924931
O O5 0.957511 0.090254 0.741440
O O6 0.384094 0.987199 0.701274
O O7 0.486192 0.756502 0.037402
O O8 0.706536 0.752386 0.596770
O O9 0.030382 0.756184 0.615930
O O10 0.500000 0.000000 0.500000
O O11 0.998723 0.515072 0.291096
O O12 0.519014 0.720894 0.258617
O O13 0.600600 0.871574 0.997231
O O14 0.455557 0.702591 0.610706
O O15 0.576160 0.829735 0.357721
O O16 0.796643 0.970417 0.924704
O O17 0.000000 0.000000 0.000000
#
# Coordination Sequence:
#
# PCOD9007879 Si02
#       8
#     2   2   2   2   2   2   2   2
#     4  10  21  39  63  89 128 176 210 271 321 384
#     4  10  21  41  65  90 132 169 217 268 326 385
#     4  12  25  41  66  98 134 174 217 269 324 387
#     4  11  22  42  65  95 129 167 219 268 324 385
#     4  12  25  41  68  99 131 173 218 269 324 386
#     4   9  21  40  69  93 122 175 214 263 333 379
#     4  11  21  41  65  91 131 165 212 269 323 384
#     4  11  23  40  61  97 132 169 224 261 326 385
#
# _framework density 21.044163999999999
#
# number of rings (size 3 to 8) (size 9 to 14) (size 15 to 20)
#    0.000    1.250    2.500    4.125    0.000    2.000 
#    0.000    3.750    0.000    0.000    0.000    0.000 
#    0.000    0.000    0.000    0.000    0.000    0.000 
#
# Total GULP energy -89417.595561 kJ/mol
# GULP energy per Si atom -5588.599723 kJ/mol
# Density = 2.099627 g / cm^3
# Si number density = 21.044164 Si / 1000 Ang^3
#
#
#
# Elastic Constant Matrix: (Units=GPa)
#
#
# Indices 1 2 3 4 5 6 
#
# 1 93.0347 13.6573 16.2988 -2.3482 17.4914 -1.3054
# 2 13.6573 111.2645 24.1917 -3.2009 8.7502 -14.4159
# 3 16.2988 24.1917 74.6702 -6.4918 9.9015 -4.0975
# 4 -2.3482 -3.2009 -6.4918 17.1472 -4.5565 8.8483
# 5 17.4914 8.7502 9.9015 -4.5565 29.3697 4.5010
# 6 -1.3054 -14.4159 -4.0975 8.8483 4.5010 32.7051
#
#
#
# Elastic Compliance Matrix: (Units=1/GPa)
#
#
# Indices 1 2 3 4 5 6 
#
# 1 0.012444 -0.000443 -0.001681 -0.001735 -0.007220 0.001554
# 2 -0.000443 0.010540 -0.002840 -0.002849 -0.003201 0.005484
# 3 -0.001681 -0.002840 0.015403 0.004507 -0.002608 -0.000250
# 4 -0.001735 -0.002849 0.004507 0.075449 0.015643 -0.023326
# 5 -0.007220 -0.003201 -0.002608 0.015643 0.044506 -0.012383
# 6 0.001554 0.005484 -0.000250 -0.023326 -0.012383 0.041039
#
#
# Mechanical properties :
#
#
# Convention : Reuss Voigt Hill
#
# Bulk Modulus (GPa) = 35.13872 43.02944 39.08408
# Shear Modulus (GPa) = 22.85245 30.83249 26.84247
#
# Velocity S-wave (km/s) = 3.29892 3.83186 3.57533
# Velocity P-wave (km/s) = 5.58966 6.33002 5.97132
#
# Compressibility (1/GPa) = 0.02845864
#
# Stress axis : x y z
#
# Youngs Moduli (GPa) = 80.36321 94.87875 64.92101
#
# Poissons Ratio (x) = 0.04200 0.10913
# Poissons Ratio (y) = 0.03558 0.18440
# Poissons Ratio (z) = 0.13509 0.26949
#
# Static dielectric constant tensor:
#      x y z
#    x 1.778910 -0.004010 0.020700 
#    y -0.004010 1.758310 0.018750 
#    z 0.020700 0.018750 1.758980 
# 
# From -- ./inp_files/507912.got.cif
#   From: 2010.05.17/outbox.cif.g08.bks.cpg/sg2_254_cif.got.tgz:507912.got - 2010.06.03 11:33:40.
