data_PCOD9007546
_publ_section_title
;
Structure prediction by ZEFSAII (Michael W. Deem and Ramdas Pophale) SiO2 
 PCOD9007546
Probable space group: P -1
;
_chemical_formula_sum "Si O2"
_cell_formula_units_Z 14
_cell_length_a 9.810272
_cell_length_b 9.815087
_cell_length_c 13.581130
_cell_angle_alpha 44.889852
_cell_angle_beta 55.937038
_cell_angle_gamma 85.551595
_cell_volume 640.511230
_symmetry_space_group_name_H-M "P -1"
_symmetry_group_IT_number 2
_symmetry_cell_setting 'triclinic'
loop_
_space_group_symop_operation_xyz
x,y,z
-x,-y,-z
loop_
_atom_site_type_symbol
_atom_site_label
_atom_site_fract_x
_atom_site_fract_y
_atom_site_fract_z
Si Si1 0.333713 0.095261 0.660004
Si Si2 0.260707 0.712429 0.520700
Si Si3 0.085542 0.318230 0.398334
Si Si4 0.671153 0.187131 0.901794
Si Si5 0.956775 0.802856 0.193593
Si Si6 0.316703 0.681707 0.959777
Si Si7 0.670997 0.895858 0.568665
O O1 0.516594 0.224164 0.595474
O O2 0.197678 0.194174 0.674433
O O3 0.393314 0.127159 0.505881
O O4 0.237446 0.824745 0.864778
O O5 0.132760 0.437453 0.703734
O O6 0.143312 0.771944 0.458420
O O7 0.265515 0.858300 0.537992
O O8 0.212816 0.537943 0.307393
O O9 0.152781 0.144016 0.473511
O O10 0.160355 0.436759 0.197470
O O11 0.844223 0.141875 0.865105
O O12 0.586988 0.177321 0.050035
O O13 0.500000 0.000000 0.000000
O O14 0.000000 0.000000 0.000000
O O15 0.485775 0.709128 0.806472
#
# Coordination Sequence:
#
# PCOD9007546 Si02
#       7
#     2   2   2   2   2   2   2
#     4  11  22  41  63  94 128 161 202 258 311 369
#     4  10  21  39  62  87 127 164 197 255 315 358
#     4   9  20  40  63  89 122 167 207 248 301 373
#     4   9  20  39  64  90 119 155 215 254 297 352
#     4  11  21  43  64  89 122 167 210 250 308 373
#     4   9  19  40  66  82 128 162 208 247 303 363
#     4  11  22  40  61  94 126 164 206 253 314 362
#
# _framework density 21.857538999999999
#
# number of rings (size 3 to 8) (size 9 to 14) (size 15 to 20)
#    0.857    1.143    1.429    3.000    0.000    1.143 
#   12.857    7.857    0.000    0.000    0.000    0.000 
#    0.000    0.000    0.000    0.000    0.000    0.000 
#
# Total GULP energy -77939.650215 kJ/mol
# GULP energy per Si atom -5567.117873 kJ/mol
# Density = 2.180779 g / cm^3
# Si number density = 21.857539 Si / 1000 Ang^3
#
#
#
# Elastic Constant Matrix: (Units=GPa)
#
#
# Indices 1 2 3 4 5 6 
#
# 1 99.5276 24.2147 26.9965 -22.4697 -9.4606 -11.2855
# 2 24.2147 60.0972 4.5786 -7.3632 -3.7555 -8.3940
# 3 26.9965 4.5786 39.1333 0.5656 4.1158 4.1074
# 4 -22.4697 -7.3632 0.5656 26.6938 -5.1916 5.6703
# 5 -9.4606 -3.7555 4.1158 -5.1916 31.7952 -8.4295
# 6 -11.2855 -8.3940 4.1074 5.6703 -8.4295 41.0995
#
#
#
# Elastic Compliance Matrix: (Units=1/GPa)
#
#
# Indices 1 2 3 4 5 6 
#
# 1 0.021836 -0.003355 -0.017091 0.018886 0.013290 0.007139
# 2 -0.003355 0.018907 -0.000531 0.002211 0.002514 0.003204
# 3 -0.017091 -0.000531 0.040313 -0.016349 -0.015629 -0.009780
# 4 0.018886 0.002211 -0.016349 0.057187 0.018158 0.003106
# 5 0.013290 0.002514 -0.015629 0.018158 0.043933 0.012230
# 6 0.007139 0.003204 -0.009780 0.003106 0.012230 0.030003
#
#
# Mechanical properties :
#
#
# Convention : Reuss Voigt Hill
#
# Bulk Modulus (GPa) = 25.57334 34.48195 30.02765
# Shear Modulus (GPa) = 18.71485 29.44890 24.08187
#
# Velocity S-wave (km/s) = 2.92930 3.67456 3.32289
# Velocity P-wave (km/s) = 4.81315 5.81491 5.33758
#
# Compressibility (1/GPa) = 0.03910321
#
# Stress axis : x y z
#
# Youngs Moduli (GPa) = 45.79573 52.88942 24.80597
#
# Poissons Ratio (x) = 0.17743 0.42397
# Poissons Ratio (y) = 0.15363 0.01316
# Poissons Ratio (z) = 0.78271 0.02806
#
# Static dielectric constant tensor:
#      x y z
#    x 1.850620 -0.058860 -0.042320 
#    y -0.058860 1.838550 0.020270 
#    z -0.042320 0.020270 1.940430 
# 
# From -- ./inp_files/375419.got.cif
#   From: 2010.05.17/outbox.cif.g08.bks.cpg/sg2_188_cif.got.tgz:375419.got - 2010.06.03 11:33:40.
