data_PCOD9007093
_publ_section_title
;
Structure prediction by ZEFSAII (Michael W. Deem and Ramdas Pophale) SiO2 
 PCOD9007093
Probable space group: P -1
;
_chemical_formula_sum "Si O2"
_cell_formula_units_Z 15
_cell_length_a 9.295826
_cell_length_b 11.884454
_cell_length_c 19.940943
_cell_angle_alpha 27.086307
_cell_angle_beta 36.613325
_cell_angle_gamma 47.895919
_cell_volume 590.292453
_symmetry_space_group_name_H-M "P -1"
_symmetry_group_IT_number 2
_symmetry_cell_setting 'triclinic'
loop_
_space_group_symop_operation_xyz
x,y,z
-x,-y,-z
loop_
_atom_site_type_symbol
_atom_site_label
_atom_site_fract_x
_atom_site_fract_y
_atom_site_fract_z
Si Si1 0.392942 0.612848 0.880369
Si Si2 0.862569 0.157400 0.738154
Si Si3 0.539210 0.634200 0.141885
Si Si4 0.773516 0.586791 0.442598
Si Si5 0.101673 0.394578 0.869697
Si Si6 0.464512 0.104626 0.195010
Si Si7 0.000000 0.000000 0.000000
Si Si8 0.220884 0.604087 0.590007
O O1 0.418330 0.349243 0.044819
O O2 0.108055 0.627385 0.985238
O O3 0.493426 0.583296 0.784842
O O4 0.516837 0.829412 0.767895
O O5 0.698659 0.256125 0.805755
O O6 0.840881 0.344802 0.585098
O O7 0.124621 0.198787 0.655596
O O8 0.737185 0.876678 0.917195
O O9 0.649228 0.538749 0.218857
O O10 0.489586 0.569707 0.536106
O O11 0.887275 0.610346 0.310328
O O12 0.058862 0.591776 0.723110
O O13 0.105043 0.153423 0.949785
O O14 0.263070 0.858718 0.398532
O O15 0.719508 0.045862 0.102290
#
# Coordination Sequence:
#
# PCOD9007093 Si02
#       8
#     2   2   2   2   2   2   1   2
#     4  10  24  43  62  88 131 165 217 257 318 379
#     4  10  23  38  65  95 127 161 218 259 324 370
#     4  11  23  40  64  91 126 172 211 263 312 384
#     4  10  21  39  59  99 129 160 199 277 321 376
#     4  11  24  40  62  96 125 171 210 264 314 384
#     4  10  23  41  66  95 122 168 211 266 318 379
#     4  10  22  38  66  92 124 156 216 264 310 362
#     4  11  22  38  65  91 132 162 213 259 324 376
#
# _framework density 25.411134000000001
#
# number of rings (size 3 to 8) (size 9 to 14) (size 15 to 20)
#    0.000    1.600    1.333    2.800    9.333    2.667 
#    0.000    3.333    0.000    0.000    0.000    0.000 
#    0.000    0.000    0.000    0.000    0.000    0.000 
#
# Total GULP energy -83655.241707 kJ/mol
# GULP energy per Si atom -5577.016114 kJ/mol
# Density = 2.535330 g / cm^3
# Si number density = 25.411134 Si / 1000 Ang^3
#
#
#
# Elastic Constant Matrix: (Units=GPa)
#
#
# Indices 1 2 3 4 5 6 
#
# 1 98.1763 37.5553 1.7945 -4.1259 -0.0595 16.3401
# 2 37.5553 113.1600 4.3213 -7.3001 -6.7617 28.7891
# 3 1.7945 4.3213 50.8754 -10.6920 1.8859 -5.7156
# 4 -4.1259 -7.3001 -10.6920 20.5246 1.7396 6.0225
# 5 -0.0595 -6.7617 1.8859 1.7396 41.4962 -3.2340
# 6 16.3401 28.7891 -5.7156 6.0225 -3.2340 40.9314
#
#
#
# Elastic Compliance Matrix: (Units=1/GPa)
#
#
# Indices 1 2 3 4 5 6 
#
# 1 0.011968 -0.003119 0.000010 0.002245 -0.000818 -0.002978
# 2 -0.003119 0.012479 -0.000717 0.005802 0.001164 -0.008394
# 3 0.000010 -0.000717 0.022277 0.010919 -0.001440 0.001890
# 4 0.002245 0.005802 0.010919 0.060901 -0.003087 -0.012657
# 5 -0.000818 0.001164 -0.001440 -0.003087 0.024615 0.001706
# 6 -0.002978 -0.008394 0.001890 -0.012657 0.001706 0.033785
#
#
# Mechanical properties :
#
#
# Convention : Reuss Voigt Hill
#
# Bulk Modulus (GPa) = 25.59278 38.83936 32.21607
# Shear Modulus (GPa) = 26.78108 35.15981 30.97044
#
# Velocity S-wave (km/s) = 3.24992 3.72376 3.49488
# Velocity P-wave (km/s) = 4.91691 5.81430 5.38434
#
# Compressibility (1/GPa) = 0.03907352
#
# Stress axis : x y z
#
# Youngs Moduli (GPa) = 83.55589 80.13578 44.88958
#
# Poissons Ratio (x) = 0.24993 -0.00047
# Poissons Ratio (y) = 0.26060 0.03217
# Poissons Ratio (z) = -0.00087 0.05743
#
# Static dielectric constant tensor:
#      x y z
#    x 2.027070 -0.012820 0.002500 
#    y -0.012820 1.967550 0.026460 
#    z 0.002500 0.026460 1.989910 
# 
# From -- ./inp_files/195826.got.cif
#   From: 2010.05.17/outbox.cif.g08.bks.cpg/sg2_98_cif.got.tgz:195826.got - 2010.06.03 11:33:40.
