data_PCOD9007973
_publ_section_title
;
Structure prediction by ZEFSAII (Michael W. Deem and Ramdas Pophale) SiO2 
 PCOD9007973
Probable space group: P -1
;
_chemical_formula_sum "Si O2"
_cell_formula_units_Z 16
_cell_length_a 5.483912
_cell_length_b 15.767089
_cell_length_c 13.296123
_cell_angle_alpha 43.061467
_cell_angle_beta 52.941300
_cell_angle_gamma 61.267681
_cell_volume 624.689285
_symmetry_space_group_name_H-M "P -1"
_symmetry_group_IT_number 2
_symmetry_cell_setting 'triclinic'
loop_
_space_group_symop_operation_xyz
x,y,z
-x,-y,-z
loop_
_atom_site_type_symbol
_atom_site_label
_atom_site_fract_x
_atom_site_fract_y
_atom_site_fract_z
Si Si1 0.814826 0.384966 0.370399
Si Si2 0.641150 0.014380 0.596070
Si Si3 0.303281 0.940103 0.244013
Si Si4 0.169639 0.438731 0.415314
Si Si5 0.331350 0.672711 0.037007
Si Si6 0.284606 0.181087 0.409128
Si Si7 0.050133 0.399486 0.983239
Si Si8 0.101568 0.104442 0.963375
O O1 0.472783 0.356512 0.448564
O O2 0.911644 0.373314 0.472713
O O3 0.816095 0.525848 0.208207
O O4 0.114732 0.311981 0.308504
O O5 0.545663 0.901248 0.649104
O O6 0.556571 0.999806 0.744186
O O7 0.521641 0.150266 0.467101
O O8 0.000000 0.000000 0.500000
O O9 0.574186 0.857421 0.194766
O O10 0.018008 0.876869 0.417743
O O11 0.176524 0.036507 0.109117
O O12 0.280774 0.540438 0.219612
O O13 0.000000 0.500000 0.500000
O O14 0.684234 0.694780 0.956243
O O15 0.231627 0.659191 0.954903
O O16 0.120067 0.776272 0.058903
O O17 0.000000 0.500000 0.000000
O O18 0.000000 0.000000 0.000000
#
# Coordination Sequence:
#
# PCOD9007973 Si02
#       8
#     2   2   2   2   2   2   2   2
#     4  10  23  38  64  96 126 163 216 261 323 399
#     4   9  20  39  59  89 127 166 213 271 323 393
#     4  10  23  40  61  89 131 166 226 267 328 397
#     4  10  22  40  61  94 126 164 211 261 325 393
#     4  10  24  42  68  95 133 169 219 274 331 390
#     4  10  21  39  63  92 129 167 217 275 334 392
#     4  10  22  46  67  99 132 170 221 275 328 396
#     4  11  25  42  63  95 132 176 226 272 331 411
#
# _framework density 25.612735000000001
#
# number of rings (size 3 to 8) (size 9 to 14) (size 15 to 20)
#    0.000    2.000    0.000    1.500    8.750    2.000 
#    6.750    0.000    0.000    0.000    0.000    0.000 
#    0.000    0.000    0.000    0.000    0.000    0.000 
#
# Total GULP energy -89283.306009 kJ/mol
# GULP energy per Si atom -5580.206626 kJ/mol
# Density = 2.555444 g / cm^3
# Si number density = 25.612735 Si / 1000 Ang^3
#
#
#
# Elastic Constant Matrix: (Units=GPa)
#
#
# Indices 1 2 3 4 5 6 
#
# 1 173.1801 75.6825 38.9472 7.8658 52.0326 -23.9605
# 2 75.6825 150.3706 14.5283 15.8204 33.6804 -27.8442
# 3 38.9472 14.5283 75.0761 11.6474 27.1519 5.1755
# 4 7.8658 15.8204 11.6474 44.2103 1.8448 7.0496
# 5 52.0326 33.6804 27.1519 1.8448 51.6686 1.9434
# 6 -23.9605 -27.8442 5.1755 7.0496 1.9434 51.1356
#
#
#
# Elastic Compliance Matrix: (Units=1/GPa)
#
#
# Indices 1 2 3 4 5 6 
#
# 1 0.010233 -0.002366 -0.002231 -0.000722 -0.007720 0.004125
# 2 -0.002366 0.010222 0.001374 -0.004200 -0.005045 0.005089
# 3 -0.002231 0.001374 0.017773 -0.004259 -0.007791 -0.001213
# 4 -0.000722 -0.004200 -0.004259 0.026118 0.004996 -0.005985
# 5 -0.007720 -0.005045 -0.007791 0.004996 0.034618 -0.007580
# 6 0.004125 0.005089 -0.001213 -0.005985 -0.007580 0.025496
#
#
# Mechanical properties :
#
#
# Convention : Reuss Voigt Hill
#
# Bulk Modulus (GPa) = 31.46275 72.99364 52.22819
# Shear Modulus (GPa) = 35.33542 47.36749 41.35145
#
# Velocity S-wave (km/s) = 3.71833 4.30510 4.02243
# Velocity P-wave (km/s) = 5.54485 7.29881 6.48144
#
# Compressibility (1/GPa) = 0.03178362
#
# Stress axis : x y z
#
# Youngs Moduli (GPa) = 97.72268 97.82419 56.26366
#
# Poissons Ratio (x) = 0.23144 0.12554
# Poissons Ratio (y) = 0.23120 -0.07733
# Poissons Ratio (z) = 0.21804 -0.13445
#
# Static dielectric constant tensor:
#      x y z
#    x 2.233550 0.045910 0.012450 
#    y 0.045910 2.068670 -0.055460 
#    z 0.012450 -0.055460 2.041140 
# 
# From -- ./inp_files/369335.got.cif
#   From: 2010.05.17/outbox.cif.g08.bks.cpg/sg2_185_cif.got.tgz:369335.got - 2010.06.03 11:33:40.
