data_PCOD9007810
_publ_section_title
;
Structure prediction by ZEFSAII (Michael W. Deem and Ramdas Pophale) SiO2 
 PCOD9007810
Probable space group: P -1
;
_chemical_formula_sum "Si O2"
_cell_formula_units_Z 12
_cell_length_a 11.922557
_cell_length_b 5.399567
_cell_length_c 18.733126
_cell_angle_alpha 56.420604
_cell_angle_beta 28.288754
_cell_angle_gamma 61.781907
_cell_volume 475.845218
_symmetry_space_group_name_H-M "P -1"
_symmetry_group_IT_number 2
_symmetry_cell_setting 'triclinic'
loop_
_space_group_symop_operation_xyz
x,y,z
-x,-y,-z
loop_
_atom_site_type_symbol
_atom_site_label
_atom_site_fract_x
_atom_site_fract_y
_atom_site_fract_z
Si Si1 0.888613 0.533008 0.762152
Si Si2 0.851141 0.553753 0.504979
Si Si3 0.106852 0.202466 0.841848
Si Si4 0.652725 0.163646 0.560218
Si Si5 0.496226 0.950515 0.924393
Si Si6 0.906102 0.694477 0.955138
O O1 0.688770 0.325958 0.943926
O O2 0.958816 0.364738 0.676807
O O3 0.149723 0.640753 0.625054
O O4 0.750034 0.837216 0.776291
O O5 0.724785 0.263650 0.584660
O O6 0.000000 0.500000 0.500000
O O7 0.682135 0.823066 0.575237
O O8 0.385148 0.248395 0.686868
O O9 0.975125 0.506218 0.878418
O O10 0.052829 0.004087 0.834217
O O11 0.000000 0.000000 0.000000
O O12 0.367919 0.222745 0.913860
O O13 0.500000 0.000000 0.000000
O O14 0.000000 0.500000 0.000000
#
# Coordination Sequence:
#
# PCOD9007810 Si02
#       6
#     2   2   2   2   2   2
#     4   9  24  40  70 102 138 190 228 295 351 417
#     4  10  21  39  63 101 137 180 232 286 352 410
#     4  10  22  44  64  97 135 182 227 285 346 415
#     4  10  21  42  62  96 141 177 233 285 354 410
#     4  11  23  46  72 103 144 182 240 288 353 423
#     4  10  24  44  69 101 136 180 235 288 348 411
#
# _framework density 25.218285000000002
#
# number of rings (size 3 to 8) (size 9 to 14) (size 15 to 20)
#    1.000    1.000    0.000    2.500    4.667    2.667 
#   15.000    1.667    0.000    0.000    0.000    0.000 
#    0.000    0.000    0.000    0.000    0.000    0.000 
#
# Total GULP energy -66944.531985 kJ/mol
# GULP energy per Si atom -5578.710999 kJ/mol
# Density = 2.516089 g / cm^3
# Si number density = 25.218285 Si / 1000 Ang^3
#
#
#
# Elastic Constant Matrix: (Units=GPa)
#
#
# Indices 1 2 3 4 5 6 
#
# 1 112.1514 35.4294 19.5358 8.2725 -10.7059 13.7399
# 2 35.4294 148.3153 35.3333 37.3289 -6.2423 29.2431
# 3 19.5358 35.3333 127.0297 18.8742 -22.3784 -2.3577
# 4 8.2725 37.3289 18.8742 42.7920 -4.8272 -6.0470
# 5 -10.7059 -6.2423 -22.3784 -4.8272 39.0672 2.8848
# 6 13.7399 29.2431 -2.3577 -6.0470 2.8848 56.0610
#
#
#
# Elastic Compliance Matrix: (Units=1/GPa)
#
#
# Indices 1 2 3 4 5 6 
#
# 1 0.010019 -0.001796 -0.000678 -0.000060 0.002186 -0.001666
# 2 -0.001796 0.011283 -0.001591 -0.009756 -0.000323 -0.006548
# 3 -0.000678 -0.001591 0.009571 -0.002037 0.004721 0.000936
# 4 -0.000060 -0.009756 -0.002037 0.034106 0.000833 0.008654
# 5 0.002186 -0.000323 0.004721 0.000833 0.029068 -0.001575
# 6 -0.001666 -0.006548 0.000936 0.008654 -0.001575 0.022716
#
#
# Mechanical properties :
#
#
# Convention : Reuss Voigt Hill
#
# Bulk Modulus (GPa) = 43.97092 63.12149 53.54621
# Shear Modulus (GPa) = 37.74289 47.39722 42.57005
#
# Velocity S-wave (km/s) = 3.87285 4.34000 4.11306
# Velocity P-wave (km/s) = 6.12149 7.08509 6.62084
#
# Compressibility (1/GPa) = 0.02274230
#
# Stress axis : x y z
#
# Youngs Moduli (GPa) = 99.80745 88.62584 104.48334
#
# Poissons Ratio (x) = 0.15920 0.07086
# Poissons Ratio (y) = 0.17929 0.16624
# Poissons Ratio (z) = 0.06769 0.14101
#
# Static dielectric constant tensor:
#      x y z
#    x 1.321830 0.206980 -0.115930 
#    y 0.206980 2.021540 0.013190 
#    z -0.115930 0.013190 1.956820 
# 
# From -- ./inp_files/365315.got.cif
#   From: 2010.05.17/outbox.cif.g08.bks.cpg/sg2_183_cif.got.tgz:365315.got - 2010.06.03 11:33:40.
