data_PCOD9007828
_publ_section_title
;
Structure prediction by ZEFSAII (Michael W. Deem and Ramdas Pophale) SiO2 
 PCOD9007828
Probable space group: P -1
;
_chemical_formula_sum "Si O2"
_cell_formula_units_Z 14
_cell_length_a 19.554640
_cell_length_b 5.823192
_cell_length_c 9.432576
_cell_angle_alpha 56.318601
_cell_angle_beta 53.105826
_cell_angle_gamma 45.749360
_cell_volume 597.794804
_symmetry_space_group_name_H-M "P -1"
_symmetry_group_IT_number 2
_symmetry_cell_setting 'triclinic'
loop_
_space_group_symop_operation_xyz
x,y,z
-x,-y,-z
loop_
_atom_site_type_symbol
_atom_site_label
_atom_site_fract_x
_atom_site_fract_y
_atom_site_fract_z
Si Si1 0.676723 0.798393 0.212597
Si Si2 0.707163 0.579684 0.950275
Si Si3 0.005686 0.439049 0.278897
Si Si4 0.791087 0.892112 0.244506
Si Si5 0.477645 0.464641 0.879191
Si Si6 0.606375 0.308528 0.519350
Si Si7 0.083128 0.749266 0.286504
O O1 0.688255 0.815777 0.023724
O O2 0.780037 0.689047 0.203087
O O3 0.643258 0.557685 0.384373
O O4 0.585561 0.168702 0.235175
O O5 0.601794 0.645908 0.999298
O O6 0.760324 0.231307 0.090507
O O7 0.795070 0.508560 0.757699
O O8 0.899378 0.709073 0.245596
O O9 0.979397 0.301666 0.497515
O O10 0.057566 0.627503 0.213144
O O11 0.059642 0.118360 0.215805
O O12 0.698765 0.988929 0.435980
O O13 0.577699 0.256920 0.728942
O O14 0.500000 0.500000 0.000000
O O15 0.500000 0.500000 0.500000
#
# Coordination Sequence:
#
# PCOD9007828 Si02
#       7
#     2   2   2   2   2   2   2
#     4  10  21  39  63  86 130 167 212 261 324 383
#     4  10  23  41  61  94 127 163 215 269 327 382
#     4  10  24  45  67  95 126 172 222 263 338 397
#     4  10  23  38  66  95 119 170 220 262 318 396
#     4  11  24  39  60  97 128 168 215 266 323 387
#     4  11  20  41  61  89 129 168 213 256 319 388
#     4  10  24  45  67  92 134 169 210 281 334 389
#
# _framework density 23.419409000000002
#
# number of rings (size 3 to 8) (size 9 to 14) (size 15 to 20)
#    0.000    1.714    4.286    0.429    8.000    4.000 
#    2.571    0.000    0.000    0.000    0.000    0.000 
#    0.000    0.000    0.000    0.000    0.000    0.000 
#
# Total GULP energy -78163.892939 kJ/mol
# GULP energy per Si atom -5583.135210 kJ/mol
# Density = 2.336610 g / cm^3
# Si number density = 23.419409 Si / 1000 Ang^3
#
#
#
# Elastic Constant Matrix: (Units=GPa)
#
#
# Indices 1 2 3 4 5 6 
#
# 1 139.6597 33.4499 33.0159 6.8955 12.2692 10.1448
# 2 33.4499 82.6659 22.3414 14.7241 2.5795 8.1232
# 3 33.0159 22.3414 74.0369 28.8816 8.3697 7.4777
# 4 6.8955 14.7241 28.8816 42.7860 -2.5060 1.0875
# 5 12.2692 2.5795 8.3697 -2.5060 32.4999 0.9984
# 6 10.1448 8.1232 7.4777 1.0875 0.9984 34.5630
#
#
#
# Elastic Compliance Matrix: (Units=1/GPa)
#
#
# Indices 1 2 3 4 5 6 
#
# 1 0.008815 -0.002772 -0.003427 0.001757 -0.002053 -0.001190
# 2 -0.002772 0.014462 -0.001604 -0.003386 0.000116 -0.002135
# 3 -0.003427 -0.001604 0.021774 -0.013827 -0.005168 -0.002744
# 4 0.001757 -0.003386 -0.013827 0.033870 0.005715 0.002041
# 5 -0.002053 0.000116 -0.005168 0.005715 0.033290 0.000552
# 6 -0.001190 -0.002135 -0.002744 0.002041 0.000552 0.030297
#
#
# Mechanical properties :
#
#
# Convention : Reuss Voigt Hill
#
# Bulk Modulus (GPa) = 33.96457 52.66409 43.31433
# Shear Modulus (GPa) = 29.77431 35.80681 32.79056
#
# Velocity S-wave (km/s) = 3.56947 3.91441 3.74591
# Velocity P-wave (km/s) = 5.61448 6.55487 6.10281
#
# Compressibility (1/GPa) = 0.02944244
#
# Stress axis : x y z
#
# Youngs Moduli (GPa) = 113.44892 69.14906 45.92548
#
# Poissons Ratio (x) = 0.19171 0.15740
# Poissons Ratio (y) = 0.31453 0.07368
# Poissons Ratio (z) = 0.38882 0.11094
#
# Static dielectric constant tensor:
#      x y z
#    x 1.888880 0.046070 0.012680 
#    y 0.046070 1.953530 0.033110 
#    z 0.012680 0.033110 1.943090 
# 
# From -- ./inp_files/27481.got.cif
#   From: 2010.05.17/outbox.cif.g08.bks.cpg/sg2_14_cif.got.tgz:27481.got - 2010.06.03 11:33:40.
