data_PCOD9007441
_publ_section_title
;
Structure prediction by ZEFSAII (Michael W. Deem and Ramdas Pophale) SiO2 
 PCOD9007441
Probable space group: P -1
;
_chemical_formula_sum "Si O2"
_cell_formula_units_Z 16
_cell_length_a 11.678946
_cell_length_b 17.387297
_cell_length_c 7.867424
_cell_angle_alpha 57.478979
_cell_angle_beta 97.843995
_cell_angle_gamma 143.166495
_cell_volume 657.137410
_symmetry_space_group_name_H-M "P -1"
_symmetry_group_IT_number 2
_symmetry_cell_setting 'triclinic'
loop_
_space_group_symop_operation_xyz
x,y,z
-x,-y,-z
loop_
_atom_site_type_symbol
_atom_site_label
_atom_site_fract_x
_atom_site_fract_y
_atom_site_fract_z
Si Si1 0.502504 0.825547 0.597201
Si Si2 0.544125 0.323601 0.566691
Si Si3 0.059672 0.645441 0.323518
Si Si4 0.334060 0.366064 0.464245
Si Si5 0.250232 0.834282 0.477757
Si Si6 0.812391 0.031658 0.880897
Si Si7 0.742068 0.516785 0.918173
Si Si8 0.930135 0.200079 0.075236
O O1 0.430865 0.735797 0.503034
O O2 0.388061 0.846403 0.582887
O O3 0.773680 0.036408 0.370095
O O4 0.418815 0.683464 0.862706
O O5 0.807691 0.522034 0.449079
O O6 0.414448 0.322680 0.468194
O O7 0.381066 0.174828 0.861821
O O8 0.000000 0.500000 0.500000
O O9 0.237430 0.788831 0.336667
O O10 0.151734 0.751811 0.040331
O O11 0.500000 0.500000 0.500000
O O12 0.363889 0.472092 0.219937
O O13 0.059218 0.170016 0.688841
O O14 0.299916 0.973936 0.270260
O O15 0.989012 0.656716 0.715515
O O16 0.889910 0.126127 0.970754
O O17 0.824844 0.614804 0.001019
#
# Coordination Sequence:
#
# PCOD9007441 Si02
#       8
#     2   2   2   2   2   2   2   2
#     4  11  23  39  64  97 128 172 210 258 320 384
#     4  11  21  39  65  95 126 166 216 261 319 369
#     4  11  20  37  66  95 127 171 211 260 314 367
#     4  11  24  45  67  90 124 167 215 271 316 378
#     4  10  21  39  61  93 133 166 213 259 312 377
#     4   9  22  40  64  97 127 164 217 263 309 379
#     4  11  23  44  62  90 130 169 210 265 319 376
#     4  10  22  40  63  93 131 162 214 258 318 377
#
# _framework density 24.348026999999998
#
# number of rings (size 3 to 8) (size 9 to 14) (size 15 to 20)
#    0.000    1.500    2.500    3.000    1.750    2.500 
#   11.250    1.250    0.000    0.000    0.000    0.000 
#    0.000    0.000    0.000    0.000    0.000    0.000 
#
# Total GULP energy -89310.351141 kJ/mol
# GULP energy per Si atom -5581.896946 kJ/mol
# Density = 2.429261 g / cm^3
# Si number density = 24.348027 Si / 1000 Ang^3
#
#
#
# Elastic Constant Matrix: (Units=GPa)
#
#
# Indices 1 2 3 4 5 6 
#
# 1 150.9584 21.8653 62.1642 0.9093 22.4750 26.7270
# 2 21.8653 71.4436 17.8171 14.6487 11.7169 5.8869
# 3 62.1642 17.8171 166.6273 -11.6658 39.2288 6.7893
# 4 0.9093 14.6487 -11.6658 48.1686 -1.5470 8.2462
# 5 22.4750 11.7169 39.2288 -1.5470 35.9048 0.1278
# 6 26.7270 5.8869 6.7893 8.2462 0.1278 32.3895
#
#
#
# Elastic Compliance Matrix: (Units=1/GPa)
#
#
# Indices 1 2 3 4 5 6 
#
# 1 0.009518 -0.001426 -0.002375 0.000837 -0.002836 -0.007299
# 2 -0.001426 0.016327 -0.000627 -0.005161 -0.003972 -0.000330
# 3 -0.002375 -0.000627 0.009025 0.002222 -0.008072 -0.000352
# 4 0.000837 -0.005161 0.002222 0.023926 -0.000214 -0.006309
# 5 -0.002836 -0.003972 -0.008072 -0.000214 0.039716 0.004652
# 6 -0.007299 -0.000330 -0.000352 -0.006309 0.004652 0.038619
#
#
# Mechanical properties :
#
#
# Convention : Reuss Voigt Hill
#
# Bulk Modulus (GPa) = 38.43962 65.85805 52.14884
# Shear Modulus (GPa) = 32.32959 42.43810 37.38385
#
# Velocity S-wave (km/s) = 3.64787 4.17943 3.92266
# Velocity P-wave (km/s) = 5.79348 7.09912 6.47927
#
# Compressibility (1/GPa) = 0.02601482
#
# Stress axis : x y z
#
# Youngs Moduli (GPa) = 105.06004 61.25006 110.80629
#
# Poissons Ratio (x) = 0.08734 0.26315
# Poissons Ratio (y) = 0.14981 0.06943
# Poissons Ratio (z) = 0.24950 0.03838
#
# Static dielectric constant tensor:
#      x y z
#    x 1.993910 -0.063770 0.005780 
#    y -0.063770 1.992270 0.033090 
#    z 0.005780 0.033090 1.993570 
# 
# From -- ./inp_files/281690.got.cif
#   From: 2010.05.17/outbox.cif.g08.bks.cpg/sg2_141_cif.got.tgz:281690.got - 2010.06.03 11:33:40.
