data_PCOD9007891
_publ_section_title
;
Structure prediction by ZEFSAII (Michael W. Deem and Ramdas Pophale) SiO2 
 PCOD9007891
Probable space group: P -1
;
_chemical_formula_sum "Si O2"
_cell_formula_units_Z 14
_cell_length_a 10.568812
_cell_length_b 17.827938
_cell_length_c 5.036127
_cell_angle_alpha 119.271858
_cell_angle_beta 85.059976
_cell_angle_gamma 137.051080
_cell_volume 501.558360
_symmetry_space_group_name_H-M "P -1"
_symmetry_group_IT_number 2
_symmetry_cell_setting 'triclinic'
loop_
_space_group_symop_operation_xyz
x,y,z
-x,-y,-z
loop_
_atom_site_type_symbol
_atom_site_label
_atom_site_fract_x
_atom_site_fract_y
_atom_site_fract_z
Si Si1 0.725700 0.155224 0.628305
Si Si2 0.282604 0.440287 0.438242
Si Si3 0.244093 0.017607 0.771079
Si Si4 0.278373 0.175602 0.660843
Si Si5 0.276931 0.731762 0.700706
Si Si6 0.881923 0.817849 0.801983
Si Si7 0.274016 0.559790 0.148212
O O1 0.704925 0.196070 0.430954
O O2 0.500000 0.000000 0.500000
O O3 0.829142 0.119552 0.490185
O O4 0.819941 0.266677 0.032458
O O5 0.500000 0.500000 0.500000
O O6 0.114943 0.276381 0.251729
O O7 0.285900 0.492268 0.250789
O O8 0.233053 0.485007 0.754086
O O9 0.180299 0.034877 0.551853
O O10 0.488436 0.158404 0.034152
O O11 0.112100 0.979766 0.978776
O O12 0.212359 0.212780 0.525177
O O13 0.508797 0.278825 0.698924
O O14 0.267056 0.215304 0.019573
O O15 0.170481 0.587305 0.360445
#
# Coordination Sequence:
#
# PCOD9007891 Si02
#       7
#     2   2   2   2   2   2   2
#     4  10  21  39  63  90 121 157 206 257 308 366
#     4  12  22  41  64  87 125 165 214 250 290 360
#     4  11  24  41  63  94 131 162 203 252 318 377
#     4  12  23  39  59  92 129 167 201 248 304 375
#     4  11  23  40  65  93 117 159 206 263 312 357
#     4  12  26  39  60  92 132 171 199 247 308 372
#     4  12  22  40  66  89 121 161 213 258 297 353
#
# _framework density 27.913
#
# number of rings (size 3 to 8) (size 9 to 14) (size 15 to 20)
#    0.000    0.571    2.857    8.143    0.000    5.714 
#    0.000    0.000    0.000    5.143    0.000    0.000 
#    0.000    0.000    0.000    0.000    0.000    0.000 
#
# Total GULP energy -78271.060011 kJ/mol
# GULP energy per Si atom -5590.790001 kJ/mol
# Density = 2.784947 g / cm^3
# Si number density = 27.913000 Si / 1000 Ang^3
#
#
#
# Elastic Constant Matrix: (Units=GPa)
#
#
# Indices 1 2 3 4 5 6 
#
# 1 103.9713 45.3263 37.7633 -13.4424 -19.6626 -25.1573
# 2 45.3263 169.8694 39.8017 -43.7895 9.9498 -42.8929
# 3 37.7633 39.8017 136.6937 -51.7202 -9.7548 -19.4579
# 4 -13.4424 -43.7895 -51.7202 67.1433 -11.5173 7.4320
# 5 -19.6626 9.9498 -9.7548 -11.5173 37.9467 -1.5976
# 6 -25.1573 -42.8929 -19.4579 7.4320 -1.5976 54.2036
#
#
#
# Elastic Compliance Matrix: (Units=1/GPa)
#
#
# Indices 1 2 3 4 5 6 
#
# 1 0.013881 -0.002600 -0.001710 0.000672 0.007803 0.003909
# 2 -0.002600 0.009260 0.000590 0.005036 -0.001860 0.005588
# 3 -0.001710 0.000590 0.012182 0.010014 0.005249 0.002828
# 4 0.000672 0.005036 0.010014 0.027259 0.010063 0.004451
# 5 0.007803 -0.001860 0.005249 0.010063 0.035443 0.003699
# 6 0.003909 0.005588 0.002828 0.004451 0.003699 0.025199
#
#
# Mechanical properties :
#
#
# Convention : Reuss Voigt Hill
#
# Bulk Modulus (GPa) = 35.86390 72.92410 54.39400
# Shear Modulus (GPa) = 35.72439 51.03492 43.37965
#
# Velocity S-wave (km/s) = 3.58138 4.28057 3.94649
# Velocity P-wave (km/s) = 5.47522 7.11430 6.34788
#
# Compressibility (1/GPa) = 0.02788319
#
# Stress axis : x y z
#
# Youngs Moduli (GPa) = 72.04034 107.98604 82.08623
#
# Poissons Ratio (x) = 0.28076 0.14039
# Poissons Ratio (y) = 0.18730 -0.04842
# Poissons Ratio (z) = 0.12321 -0.06370
#
# Static dielectric constant tensor:
#      x y z
#    x 2.300200 0.124780 0.037510 
#    y 0.124780 2.100800 0.216410 
#    z 0.037510 0.216410 2.739610 
# 
# From -- ./inp_files/80934.got.cif
#   From: 2010.05.17/outbox.cif.g08.bks.cpg/sg2_41_cif.got.tgz:80934.got - 2010.06.03 11:33:40.
