data_PCOD9007751
_publ_section_title
;
Structure prediction by ZEFSAII (Michael W. Deem and Ramdas Pophale) SiO2 
 PCOD9007751
Probable space group: P -1
;
_chemical_formula_sum "Si O2"
_cell_formula_units_Z 14
_cell_length_a 15.101844
_cell_length_b 10.169237
_cell_length_c 14.523755
_cell_angle_alpha 42.102414
_cell_angle_beta 28.876987
_cell_angle_gamma 61.696960
_cell_volume 606.820158
_symmetry_space_group_name_H-M "P -1"
_symmetry_group_IT_number 2
_symmetry_cell_setting 'triclinic'
loop_
_space_group_symop_operation_xyz
x,y,z
-x,-y,-z
loop_
_atom_site_type_symbol
_atom_site_label
_atom_site_fract_x
_atom_site_fract_y
_atom_site_fract_z
Si Si1 0.303987 0.707216 0.539866
Si Si2 0.320886 0.072145 0.069479
Si Si3 0.666874 0.277459 0.193161
Si Si4 0.632853 0.331091 0.801441
Si Si5 0.998783 0.787408 0.157438
Si Si6 0.367843 0.810959 0.922067
Si Si7 0.841770 0.642478 0.994449
O O1 0.463461 0.782073 0.268472
O O2 0.076712 0.684298 0.743396
O O3 0.433566 0.924400 0.380118
O O4 0.246519 0.470799 0.766096
O O5 0.397614 0.173004 0.049632
O O6 0.153227 0.126212 0.151536
O O7 0.251315 0.806536 0.264971
O O8 0.617102 0.318878 0.113315
O O9 0.500000 0.000000 0.500000
O O10 0.676660 0.446209 0.173558
O O11 0.902443 0.306933 0.958030
O O12 0.762251 0.587268 0.509819
O O13 0.645627 0.320810 0.904453
O O14 0.162987 0.834049 0.069332
O O15 0.000000 0.000000 0.000000
#
# Coordination Sequence:
#
# PCOD9007751 Si02
#       7
#     2   2   2   2   2   2   2
#     4  10  21  40  64 101 129 170 229 278 317 395
#     4  10  23  40  68  90 135 181 216 271 332 393
#     4  10  21  39  62  94 134 162 214 274 323 386
#     4  10  21  43  64 100 132 168 227 271 325 399
#     4  10  22  39  71  94 124 174 220 269 336 392
#     4   9  21  41  65  91 138 167 207 287 322 381
#     4  11  21  40  67  95 136 175 220 274 331 388
#
# _framework density 23.071085
#
# number of rings (size 3 to 8) (size 9 to 14) (size 15 to 20)
#    0.857    1.143    1.429    1.714    4.000    0.000 
#   10.286   12.143    3.143    0.000    0.000    0.000 
#    0.000    0.000    0.000    0.000    0.000    0.000 
#
# Total GULP energy -78134.029604 kJ/mol
# GULP energy per Si atom -5581.002115 kJ/mol
# Density = 2.301857 g / cm^3
# Si number density = 23.071085 Si / 1000 Ang^3
#
#
#
# Elastic Constant Matrix: (Units=GPa)
#
#
# Indices 1 2 3 4 5 6 
#
# 1 107.8744 24.9732 23.3420 0.7411 14.9980 -5.6387
# 2 24.9732 36.7430 2.9930 -6.8037 10.2825 -18.3534
# 3 23.3420 2.9930 51.6626 -8.8243 6.8983 1.3756
# 4 0.7411 -6.8037 -8.8243 28.1503 -5.5573 4.4617
# 5 14.9980 10.2825 6.8983 -5.5573 35.8291 -6.0684
# 6 -5.6387 -18.3534 1.3756 4.4617 -6.0684 35.4389
#
#
#
# Elastic Compliance Matrix: (Units=1/GPa)
#
#
# Indices 1 2 3 4 5 6 
#
# 1 0.013045 -0.009839 -0.005678 -0.004612 -0.002714 -0.002683
# 2 -0.009839 0.046969 0.003291 0.008337 -0.005197 0.020692
# 3 -0.005678 0.003291 0.023434 0.008117 -0.002072 -0.001485
# 4 -0.004612 0.008337 0.008117 0.041218 0.004164 -0.001207
# 5 -0.002714 -0.005197 -0.002072 0.004164 0.031904 0.001896
# 6 -0.002683 0.020692 -0.001485 -0.001207 0.001896 0.039041
#
#
# Mechanical properties :
#
#
# Convention : Reuss Voigt Hill
#
# Bulk Modulus (GPa) = 16.94999 33.21070 25.08034
# Shear Modulus (GPa) = 20.85710 29.54844 25.20277
#
# Velocity S-wave (km/s) = 3.00998 3.58265 3.30873
# Velocity P-wave (km/s) = 4.40940 5.61605 5.04890
#
# Compressibility (1/GPa) = 0.05899710
#
# Stress axis : x y z
#
# Youngs Moduli (GPa) = 76.65768 21.29065 42.67352
#
# Poissons Ratio (x) = 0.20947 0.24229
# Poissons Ratio (y) = 0.75421 -0.14045
# Poissons Ratio (z) = 0.43525 -0.07007
#
# Static dielectric constant tensor:
#      x y z
#    x 1.916230 0.009760 0.006930 
#    y 0.009760 1.860030 0.017830 
#    z 0.006930 0.017830 1.897950 
# 
# From -- ./inp_files/532320.got.cif
#   From: 2010.05.17/outbox.cif.g08.bks.cpg/sg2_267_cif.got.tgz:532320.got - 2010.06.03 11:33:40.
