data_PCOD9007339
_publ_section_title
;
Structure prediction by ZEFSAII (Michael W. Deem and Ramdas Pophale) SiO2 
 PCOD9007339
Probable space group: P -1
;
_chemical_formula_sum "Si O2"
_cell_formula_units_Z 16
_cell_length_a 15.216120
_cell_length_b 9.566248
_cell_length_c 12.161643
_cell_angle_alpha 50.023015
_cell_angle_beta 113.269894
_cell_angle_gamma 144.878542
_cell_volume 745.498312
_symmetry_space_group_name_H-M "P -1"
_symmetry_group_IT_number 2
_symmetry_cell_setting 'triclinic'
loop_
_space_group_symop_operation_xyz
x,y,z
-x,-y,-z
loop_
_atom_site_type_symbol
_atom_site_label
_atom_site_fract_x
_atom_site_fract_y
_atom_site_fract_z
Si Si1 0.779525 0.683528 0.378687
Si Si2 0.498113 0.961728 0.148873
Si Si3 0.204704 0.521597 0.822738
Si Si4 0.577621 0.752869 0.998339
Si Si5 0.338501 0.349573 0.451390
Si Si6 0.841044 0.381823 0.490883
Si Si7 0.867820 0.973902 0.049710
Si Si8 0.428107 0.272669 0.341300
O O1 0.785356 0.803779 0.434569
O O2 0.842109 0.571251 0.466077
O O3 0.874242 0.925753 0.204375
O O4 0.587136 0.405045 0.393018
O O5 0.668971 0.196407 0.174379
O O6 0.386970 0.622839 0.294235
O O7 0.444688 0.070286 0.120024
O O8 0.500000 0.000000 0.000000
O O9 0.200273 0.611819 0.656801
O O10 0.225806 0.338205 0.897589
O O11 0.034263 0.259808 0.929615
O O12 0.762829 0.991384 0.977851
O O13 0.497869 0.555805 0.171148
O O14 0.500000 0.500000 0.000000
O O15 0.500000 0.500000 0.500000
O O16 0.306998 0.168030 0.426330
O O17 0.000000 0.500000 0.500000
O O18 0.688337 0.031873 0.632832
#
# Coordination Sequence:
#
# PCOD9007339 Si02
#       8
#     2   2   2   2   2   2   2   2
#     4   9  20  38  64  92 119 168 220 264 318 388
#     4  12  24  41  66  98 129 169 220 264 324 388
#     4  10  21  40  62  90 134 168 204 268 332 380
#     4  11  22  36  65  96 124 162 219 272 312 382
#     4  10  21  40  65  87 127 170 216 263 319 378
#     4  11  24  38  63  97 128 166 219 270 328 387
#     4   9  20  38  62  94 124 166 209 265 330 378
#     4  10  21  39  61  88 126 167 210 267 322 380
#
# _framework density 21.462153000000001
#
# number of rings (size 3 to 8) (size 9 to 14) (size 15 to 20)
#    0.000    1.750    2.500    1.875    3.500    1.000 
#    0.000    1.250    0.000    0.000    0.000    0.000 
#    0.000    0.000    0.000    0.000    0.000    0.000 
#
# Total GULP energy -89261.965778 kJ/mol
# GULP energy per Si atom -5578.872861 kJ/mol
# Density = 2.141330 g / cm^3
# Si number density = 21.462153 Si / 1000 Ang^3
#
#
#
# Elastic Constant Matrix: (Units=GPa)
#
#
# Indices 1 2 3 4 5 6 
#
# 1 111.7256 1.0538 24.3103 -3.8455 4.0378 -12.9238
# 2 1.0538 26.2613 -1.7576 5.9970 -0.6891 -5.8122
# 3 24.3103 -1.7576 48.2853 -3.8784 -2.3019 -2.9743
# 4 -3.8455 5.9970 -3.8784 23.3609 -9.4036 -5.5196
# 5 4.0378 -0.6891 -2.3019 -9.4036 43.2650 7.0232
# 6 -12.9238 -5.8122 -2.9743 -5.5196 7.0232 28.5744
#
#
#
# Elastic Compliance Matrix: (Units=1/GPa)
#
#
# Indices 1 2 3 4 5 6 
#
# 1 0.010751 -0.000023 -0.005076 0.001405 -0.001787 0.005040
# 2 -0.000023 0.041978 0.001072 -0.009917 -0.002624 0.007369
# 3 -0.005076 0.001072 0.023779 0.003986 0.002534 0.000545
# 4 0.001405 -0.009917 0.003986 0.051875 0.010133 0.006563
# 5 -0.001787 -0.002624 0.002534 0.010133 0.026490 -0.005632
# 6 0.005040 0.007369 0.000545 0.006563 -0.005632 0.041483
#
#
# Mechanical properties :
#
#
# Convention : Reuss Voigt Hill
#
# Bulk Modulus (GPa) = 14.60822 25.94280 20.27551
# Shear Modulus (GPa) = 22.00432 29.88444 25.94438
#
# Velocity S-wave (km/s) = 3.20544 3.73557 3.48061
# Velocity P-wave (km/s) = 4.53002 5.54255 5.06167
#
# Compressibility (1/GPa) = 0.06845460
#
# Stress axis : x y z
#
# Youngs Moduli (GPa) = 93.01442 23.82187 42.05363
#
# Poissons Ratio (x) = 0.00056 0.21345
# Poissons Ratio (y) = 0.00217 -0.04508
# Poissons Ratio (z) = 0.47210 -0.02554
#
# Static dielectric constant tensor:
#      x y z
#    x 1.793870 -0.040170 -0.010290 
#    y -0.040170 1.819940 0.056310 
#    z -0.010290 0.056310 1.807550 
# 
# From -- ./inp_files/262451.got.cif
#   From: 2010.05.17/outbox.cif.g08.bks.cpg/sg2_132_cif.got.tgz:262451.got - 2010.06.03 11:33:40.
