data_PCOD9007362
_publ_section_title
;
Structure prediction by ZEFSAII (Michael W. Deem and Ramdas Pophale) SiO2 
 PCOD9007362
Probable space group: P -1
;
_chemical_formula_sum "Si O2"
_cell_formula_units_Z 14
_cell_length_a 12.953615
_cell_length_b 11.874239
_cell_length_c 12.850256
_cell_angle_alpha 129.675713
_cell_angle_beta 131.166408
_cell_angle_gamma 21.470578
_cell_volume 542.218891
_symmetry_space_group_name_H-M "P -1"
_symmetry_group_IT_number 2
_symmetry_cell_setting 'triclinic'
loop_
_space_group_symop_operation_xyz
x,y,z
-x,-y,-z
loop_
_atom_site_type_symbol
_atom_site_label
_atom_site_fract_x
_atom_site_fract_y
_atom_site_fract_z
Si Si1 0.011801 0.226061 0.823136
Si Si2 0.407823 0.015339 0.687646
Si Si3 0.363321 0.298891 0.989682
Si Si4 0.219936 0.663940 0.932429
Si Si5 0.581397 0.355496 0.358361
Si Si6 0.748753 0.623520 0.371050
Si Si7 0.796096 0.455099 0.509526
O O1 0.819144 0.540672 0.929700
O O2 0.735980 0.376258 0.741403
O O3 0.303875 0.965539 0.931044
O O4 0.186907 0.996582 0.701752
O O5 0.454497 0.100636 0.683157
O O6 0.126453 0.191388 0.569086
O O7 0.667681 0.655880 0.645229
O O8 0.355193 0.151924 0.838875
O O9 0.233534 0.543537 0.970324
O O10 0.151352 0.615917 0.764525
O O11 0.500000 0.500000 0.000000
O O12 0.000000 0.000000 0.000000
O O13 0.500000 0.500000 0.500000
O O14 0.746189 0.331627 0.397327
O O15 0.623318 0.687090 0.434364
O O16 0.000000 0.500000 0.500000
#
# Coordination Sequence:
#
# PCOD9007362 Si02
#       7
#     2   2   2   2   2   2   2
#     4  10  22  39  65  87 122 164 201 253 327 380
#     4  10  21  39  61  92 126 167 203 256 299 375
#     4  10  21  39  61  89 128 165 209 250 323 377
#     4  11  24  36  57  89 132 169 213 268 302 369
#     4  11  24  42  66  94 123 156 207 274 328 373
#     4   9  22  40  59  89 129 172 214 255 308 372
#     4  11  22  37  65  89 121 164 215 256 311 376
#
# _framework density 25.819834
#
# number of rings (size 3 to 8) (size 9 to 14) (size 15 to 20)
#    0.000    1.714    0.000    3.429    6.000    8.000 
#    0.000    0.000    0.000   17.143    0.000    0.000 
#    0.000    0.000    0.000    0.000    0.000    0.000 
#
# Total GULP energy -78116.957065 kJ/mol
# GULP energy per Si atom -5579.782647 kJ/mol
# Density = 2.576107 g / cm^3
# Si number density = 25.819834 Si / 1000 Ang^3
#
#
#
# Elastic Constant Matrix: (Units=GPa)
#
#
# Indices 1 2 3 4 5 6 
#
# 1 96.7865 36.3995 47.5347 10.5448 22.6407 -0.2984
# 2 36.3995 164.3713 47.7908 14.9302 16.8487 -22.3909
# 3 47.5347 47.7908 177.4776 12.6085 12.9221 -6.8101
# 4 10.5448 14.9302 12.6085 43.9986 -11.3172 8.5013
# 5 22.6407 16.8487 12.9221 -11.3172 42.4084 7.0964
# 6 -0.2984 -22.3909 -6.8101 8.5013 7.0964 37.3057
#
#
#
# Elastic Compliance Matrix: (Units=1/GPa)
#
#
# Indices 1 2 3 4 5 6 
#
# 1 0.014379 -0.000930 -0.002607 -0.004791 -0.008077 0.001709
# 2 -0.000930 0.008535 -0.001049 -0.005046 -0.005100 0.007044
# 3 -0.002607 -0.001049 0.006814 -0.001388 -0.000816 0.001065
# 4 -0.004791 -0.005046 -0.001388 0.032790 0.016053 -0.013846
# 5 -0.008077 -0.005100 -0.000816 0.016053 0.036782 -0.013930
# 6 0.001709 0.007044 0.001065 -0.013846 -0.013930 0.037046
#
#
# Mechanical properties :
#
#
# Convention : Reuss Voigt Hill
#
# Bulk Modulus (GPa) = 48.64725 78.00948 63.32837
# Shear Modulus (GPa) = 32.81459 45.20322 39.00890
#
# Velocity S-wave (km/s) = 3.56884 4.18870 3.89113
# Velocity P-wave (km/s) = 5.98867 7.32613 6.69090
#
# Compressibility (1/GPa) = 0.02055615
#
# Stress axis : x y z
#
# Youngs Moduli (GPa) = 69.54692 117.15863 146.75569
#
# Poissons Ratio (x) = 0.10900 0.38253
# Poissons Ratio (y) = 0.06470 0.15397
# Poissons Ratio (z) = 0.18128 0.12292
#
# Static dielectric constant tensor:
#      x y z
#    x 2.088730 0.021700 -0.076670 
#    y 0.021700 1.960610 0.033510 
#    z -0.076670 0.033510 2.090980 
# 
# From -- ./inp_files/534446.got.cif
#   From: 2010.05.17/outbox.cif.g08.bks.cpg/sg2_268_cif.got.tgz:534446.got - 2010.06.03 11:33:40.
