data_PCOD9007566
_publ_section_title
;
Structure prediction by ZEFSAII (Michael W. Deem and Ramdas Pophale) SiO2 
 PCOD9007566
Probable space group: P -1
;
_chemical_formula_sum "Si O2"
_cell_formula_units_Z 16
_cell_length_a 10.639810
_cell_length_b 11.883495
_cell_length_c 8.220599
_cell_angle_alpha 111.350467
_cell_angle_beta 119.007396
_cell_angle_gamma 108.573026
_cell_volume 672.311255
_symmetry_space_group_name_H-M "P -1"
_symmetry_group_IT_number 2
_symmetry_cell_setting 'triclinic'
loop_
_space_group_symop_operation_xyz
x,y,z
-x,-y,-z
loop_
_atom_site_type_symbol
_atom_site_label
_atom_site_fract_x
_atom_site_fract_y
_atom_site_fract_z
Si Si1 0.305837 0.611203 0.698977
Si Si2 0.279285 0.873202 0.826215
Si Si3 0.405334 0.708959 0.449113
Si Si4 0.529600 0.755945 0.233299
Si Si5 0.736234 0.093802 0.525411
Si Si6 0.287750 0.373745 0.756133
Si Si7 0.813272 0.951563 0.936493
Si Si8 0.932354 0.864480 0.256269
O O1 0.224178 0.704400 0.715729
O O2 0.344515 0.618339 0.534093
O O3 0.222050 0.445075 0.632060
O O4 0.470111 0.710630 0.984826
O O5 0.207571 0.887112 0.618466
O O6 0.204343 0.917877 0.946583
O O7 0.500000 0.000000 0.000000
O O8 0.382246 0.644216 0.218803
O O9 0.313666 0.793636 0.426103
O O10 0.622358 0.832040 0.665593
O O11 0.700289 0.756306 0.374647
O O12 0.571180 0.918975 0.360618
O O13 0.905419 0.118661 0.730985
O O14 0.172631 0.295893 0.802788
O O15 0.500000 0.500000 0.000000
O O16 0.806009 0.869175 0.053759
O O17 0.000000 0.000000 0.000000
O O18 0.000000 0.000000 0.500000
#
# Coordination Sequence:
#
# PCOD9007566 Si02
#       8
#     2   2   2   2   2   2   2   2
#     4  10  21  39  62  88 123 174 218 255 313 398
#     4  11  18  38  65  89 128 175 214 260 325 393
#     4  11  23  38  62  96 127 169 217 264 326 390
#     4  11  19  35  63  91 127 162 211 267 319 377
#     4  11  20  36  64  95 121 164 219 267 315 387
#     4  10  22  39  64  91 125 174 216 254 325 393
#     4  12  23  36  60 103 136 158 212 283 326 373
#     4  12  23  39  67  93 127 164 214 270 321 376
#
# _framework density 23.798501000000002
#
# number of rings (size 3 to 8) (size 9 to 14) (size 15 to 20)
#    0.000    1.000    6.250    2.625    0.000    1.500 
#    0.000    2.500    0.000    3.750    0.000    0.000 
#    0.000    0.000    0.000    0.000    0.000    0.000 
#
# Total GULP energy -89153.054704 kJ/mol
# GULP energy per Si atom -5572.065919 kJ/mol
# Density = 2.374433 g / cm^3
# Si number density = 23.798501 Si / 1000 Ang^3
#
#
#
# Elastic Constant Matrix: (Units=GPa)
#
#
# Indices 1 2 3 4 5 6 
#
# 1 120.3712 27.2748 13.4025 -6.6485 0.2948 -3.2254
# 2 27.2748 154.6646 16.9963 -28.9762 -4.8349 -8.4052
# 3 13.4025 16.9963 39.0162 -15.6439 7.1298 0.5277
# 4 -6.6485 -28.9762 -15.6439 30.3968 1.7774 6.6772
# 5 0.2948 -4.8349 7.1298 1.7774 32.0589 -11.5622
# 6 -3.2254 -8.4052 0.5277 6.6772 -11.5622 36.2409
#
#
#
# Elastic Compliance Matrix: (Units=1/GPa)
#
#
# Indices 1 2 3 4 5 6 
#
# 1 0.008926 -0.001382 -0.003134 -0.001251 0.000843 0.001019
# 2 -0.001382 0.008156 -0.000565 0.006901 0.001320 0.000926
# 3 -0.003134 -0.000565 0.037822 0.020952 -0.012846 -0.008919
# 4 -0.001251 0.006901 0.020952 0.053288 -0.010934 -0.012122
# 5 0.000843 0.001320 -0.012846 -0.010934 0.040431 0.015482
# 6 0.001019 0.000926 -0.008919 -0.012122 0.015482 0.035201
#
#
# Mechanical properties :
#
#
# Convention : Reuss Voigt Hill
#
# Bulk Modulus (GPa) = 22.35011 47.71102 35.03056
# Shear Modulus (GPa) = 23.93497 36.83123 30.38310
#
# Velocity S-wave (km/s) = 3.17477 3.93826 3.57694
# Velocity P-wave (km/s) = 4.78024 6.38524 5.64012
#
# Compressibility (1/GPa) = 0.04474251
#
# Stress axis : x y z
#
# Youngs Moduli (GPa) = 112.03354 122.60967 26.43973
#
# Poissons Ratio (x) = 0.16950 0.08285
# Poissons Ratio (y) = 0.15488 0.01493
# Poissons Ratio (z) = 0.35106 0.06923
#
# Static dielectric constant tensor:
#      x y z
#    x 2.025120 -0.033920 -0.012630 
#    y -0.033920 2.003650 0.040880 
#    z -0.012630 0.040880 2.031360 
# 
# From -- ./inp_files/254331.got.cif
#   From: 2010.05.17/outbox.cif.g08.bks.cpg/sg2_128_cif.got.tgz:254331.got - 2010.06.03 11:33:40.
