data_PCOD9007197
_publ_section_title
;
Structure prediction by ZEFSAII (Michael W. Deem and Ramdas Pophale) SiO2 
 PCOD9007197
Probable space group: P -1
;
_chemical_formula_sum "Si O2"
_cell_formula_units_Z 12
_cell_length_a 11.989554
_cell_length_b 6.897689
_cell_length_c 19.120176
_cell_angle_alpha 122.987771
_cell_angle_beta 28.713020
_cell_angle_gamma 104.472227
_cell_volume 525.830375
_symmetry_space_group_name_H-M "P -1"
_symmetry_group_IT_number 2
_symmetry_cell_setting 'triclinic'
loop_
_space_group_symop_operation_xyz
x,y,z
-x,-y,-z
loop_
_atom_site_type_symbol
_atom_site_label
_atom_site_fract_x
_atom_site_fract_y
_atom_site_fract_z
Si Si1 0.816831 0.050878 0.936796
Si Si2 0.864891 0.300159 0.096232
Si Si3 0.191580 0.081275 0.487598
Si Si4 0.663279 0.453228 0.772474
Si Si5 0.662870 0.107945 0.473655
Si Si6 0.288423 0.252388 0.950847
O O1 0.861679 0.231858 0.003965
O O2 0.506287 0.248642 0.112806
O O3 0.827551 0.816477 0.932392
O O4 0.060752 0.948316 0.726591
O O5 0.585001 0.570472 0.065306
O O6 0.552860 0.557807 0.335123
O O7 0.062981 0.383922 0.038114
O O8 0.903391 0.363406 0.678906
O O9 0.187079 0.807538 0.416392
O O10 0.266617 0.043239 0.519624
O O11 0.443512 0.026475 0.287788
O O12 0.500000 0.000000 0.500000
O O13 0.000000 0.000000 0.000000
#
# Coordination Sequence:
#
# PCOD9007197 Si02
#       6
#     2   2   2   2   2   2
#     4  11  22  37  65  91 125 166 210 260 313 376
#     4  10  21  39  60  89 131 166 204 259 314 371
#     4   9  20  40  63  88 125 167 208 257 315 375
#     4   9  19  40  64  85 126 168 209 254 314 378
#     4  12  24  38  66  98 125 166 213 261 319 378
#     4   9  19  36  61  89 116 167 209 251 306 372
#
# _framework density 22.821047
#
# number of rings (size 3 to 8) (size 9 to 14) (size 15 to 20)
#    1.000    1.000    1.667    2.000    0.000    6.000 
#    0.000    4.167    0.000    0.000    0.000    0.000 
#    0.000    0.000    0.000    0.000    0.000    0.000 
#
# Total GULP energy -66949.509880 kJ/mol
# GULP energy per Si atom -5579.125823 kJ/mol
# Density = 2.276911 g / cm^3
# Si number density = 22.821047 Si / 1000 Ang^3
#
#
#
# Elastic Constant Matrix: (Units=GPa)
#
#
# Indices 1 2 3 4 5 6 
#
# 1 114.5206 11.0996 50.7864 17.1239 -1.0131 -27.9673
# 2 11.0996 64.0340 -2.4589 1.4685 -2.4455 -9.1844
# 3 50.7864 -2.4589 133.2008 24.7766 17.1228 -13.8033
# 4 17.1239 1.4685 24.7766 39.3128 -3.3578 -7.0576
# 5 -1.0131 -2.4455 17.1228 -3.3578 54.1083 5.3920
# 6 -27.9673 -9.1844 -13.8033 -7.0576 5.3920 17.2873
#
#
#
# Elastic Compliance Matrix: (Units=1/GPa)
#
#
# Indices 1 2 3 4 5 6 
#
# 1 0.016029 0.000433 -0.003413 -0.000721 -0.000982 0.023448
# 2 0.000433 0.017174 0.001366 0.000266 -0.000753 0.011259
# 3 -0.003413 0.001366 0.010573 -0.005060 -0.003942 0.002810
# 4 -0.000721 0.000266 -0.005060 0.030327 0.002841 0.006429
# 5 -0.000982 -0.000753 -0.003942 0.002841 0.020899 -0.010494
# 6 0.023448 0.011259 0.002810 0.006429 -0.010494 0.109903
#
#
# Mechanical properties :
#
#
# Convention : Reuss Voigt Hill
#
# Bulk Modulus (GPa) = 24.66233 47.84550 36.25391
# Shear Modulus (GPa) = 22.55800 38.96358 30.76079
#
# Velocity S-wave (km/s) = 3.14741 4.13650 3.67538
# Velocity P-wave (km/s) = 4.90291 6.62006 5.82511
#
# Compressibility (1/GPa) = 0.04054768
#
# Stress axis : x y z
#
# Youngs Moduli (GPa) = 62.38546 58.22712 94.57763
#
# Poissons Ratio (x) = -0.02519 0.32283
# Poissons Ratio (y) = -0.02699 -0.12921
# Poissons Ratio (z) = 0.21295 -0.07955
#
# Static dielectric constant tensor:
#      x y z
#    x 1.894830 0.050650 -0.001010 
#    y 0.050650 1.874370 0.021870 
#    z -0.001010 0.021870 1.859660 
# 
# From -- ./inp_files/376612.got.cif
#   From: 2010.05.17/outbox.cif.g08.bks.cpg/sg2_189_cif.got.tgz:376612.got - 2010.06.03 11:33:40.
