data_PCOD9007681
_publ_section_title
;
Structure prediction by ZEFSAII (Michael W. Deem and Ramdas Pophale) SiO2 
 PCOD9007681
Probable space group: P -1
;
_chemical_formula_sum "Si O2"
_cell_formula_units_Z 16
_cell_length_a 11.995689
_cell_length_b 9.064015
_cell_length_c 9.723324
_cell_angle_alpha 94.441195
_cell_angle_beta 44.172366
_cell_angle_gamma 100.981974
_cell_volume 720.479087
_symmetry_space_group_name_H-M "P -1"
_symmetry_group_IT_number 2
_symmetry_cell_setting 'triclinic'
loop_
_space_group_symop_operation_xyz
x,y,z
-x,-y,-z
loop_
_atom_site_type_symbol
_atom_site_label
_atom_site_fract_x
_atom_site_fract_y
_atom_site_fract_z
Si Si1 0.126492 0.585457 0.045300
Si Si2 0.535736 0.282739 0.336357
Si Si3 0.473507 0.996631 0.860861
Si Si4 0.261797 0.229882 0.994465
Si Si5 0.837634 0.537823 0.714642
Si Si6 0.672003 0.186542 0.465439
Si Si7 0.600678 0.470454 0.669041
Si Si8 0.003864 0.749988 0.959986
O O1 0.188348 0.580477 0.144908
O O2 0.026173 0.419880 0.089364
O O3 0.285800 0.611173 0.810089
O O4 0.031553 0.715971 0.092810
O O5 0.547788 0.169600 0.193202
O O6 0.528984 0.188862 0.477559
O O7 0.414842 0.391993 0.408593
O O8 0.324855 0.082174 0.972493
O O9 0.615193 0.087022 0.642014
O O10 0.500000 0.000000 0.000000
O O11 0.421257 0.364406 0.842511
O O12 0.155110 0.298823 0.207979
O O13 0.155039 0.196006 0.948676
O O14 0.689708 0.521614 0.736665
O O15 0.000000 0.500000 0.500000
O O16 0.704244 0.357126 0.504476
O O17 0.831487 0.155799 0.245112
#
# Coordination Sequence:
#
# PCOD9007681 Si02
#       8
#     2   2   2   2   2   2   2   2
#     4   9  19  33  61  91 119 164 193 258 312 361
#     4  11  21  40  64  93 127 163 215 251 309 372
#     4  11  25  42  63  86 129 172 209 252 314 372
#     4  10  21  39  62  92 119 165 208 256 308 373
#     4  11  21  35  57  93 131 157 203 259 316 362
#     4  10  23  39  64  93 124 167 205 261 309 369
#     4  11  20  35  65  95 123 156 210 263 310 366
#     4   9  17  39  63  86 127 154 210 251 316 360
#
# _framework density 22.207446000000001
#
# number of rings (size 3 to 8) (size 9 to 14) (size 15 to 20)
#    0.000    1.750    2.500    3.375    3.500    0.000 
#    4.500    3.125    5.500    0.000    0.000    0.000 
#    0.000    0.000    0.000    0.000    0.000    0.000 
#
# Total GULP energy -89223.828032 kJ/mol
# GULP energy per Si atom -5576.489252 kJ/mol
# Density = 2.215690 g / cm^3
# Si number density = 22.207446 Si / 1000 Ang^3
#
#
#
# Elastic Constant Matrix: (Units=GPa)
#
#
# Indices 1 2 3 4 5 6 
#
# 1 125.3189 15.1605 7.3348 -23.0318 16.1128 -28.8200
# 2 15.1605 70.5084 16.8144 -3.4164 -1.7035 -8.1965
# 3 7.3348 16.8144 68.2489 -19.0330 2.3131 0.4145
# 4 -23.0318 -3.4164 -19.0330 29.7304 -9.0506 12.1262
# 5 16.1128 -1.7035 2.3131 -9.0506 41.5925 3.3629
# 6 -28.8200 -8.1965 0.4145 12.1262 3.3629 30.7824
#
#
#
# Elastic Compliance Matrix: (Units=1/GPa)
#
#
# Indices 1 2 3 4 5 6 
#
# 1 0.011580 -0.001366 0.000219 0.003699 -0.004518 0.009512
# 2 -0.001366 0.016025 -0.005046 -0.004344 0.000137 0.004752
# 3 0.000219 -0.005046 0.020607 0.017158 0.002983 -0.008501
# 4 0.003699 -0.004344 0.017158 0.060117 0.012373 -0.022958
# 5 -0.004518 0.000137 0.002983 0.012373 0.029321 -0.012311
# 6 0.009512 0.004752 -0.008501 -0.022958 -0.012311 0.053160
#
#
# Mechanical properties :
#
#
# Convention : Reuss Voigt Hill
#
# Bulk Modulus (GPa) = 27.91279 38.07728 32.99504
# Shear Modulus (GPa) = 23.24074 35.40550 29.32312
#
# Velocity S-wave (km/s) = 3.23852 3.99721 3.63770
# Velocity P-wave (km/s) = 5.15562 6.20379 5.70383
#
# Compressibility (1/GPa) = 0.03582587
#
# Stress axis : x y z
#
# Youngs Moduli (GPa) = 86.35280 62.40191 48.52627
#
# Poissons Ratio (x) = 0.08527 -0.01063
# Poissons Ratio (y) = 0.11800 0.24487
# Poissons Ratio (z) = -0.01892 0.31489
#
# Static dielectric constant tensor:
#      x y z
#    x 1.909430 0.005940 0.012530 
#    y 0.005940 1.869550 -0.013720 
#    z 0.012530 -0.013720 1.874590 
# 
# From -- ./inp_files/243858.got.cif
#   From: 2010.05.17/outbox.cif.g08.bks.cpg/sg2_122_cif.got.tgz:243858.got - 2010.06.03 11:33:40.
