data_PCOD9007929
_publ_section_title
;
Structure prediction by ZEFSAII (Michael W. Deem and Ramdas Pophale) SiO2 
 PCOD9007929
Probable space group: P -1
;
_chemical_formula_sum "Si O2"
_cell_formula_units_Z 16
_cell_length_a 5.756050
_cell_length_b 16.859293
_cell_length_c 9.350749
_cell_angle_alpha 75.256343
_cell_angle_beta 128.426449
_cell_angle_gamma 105.767957
_cell_volume 679.707291
_symmetry_space_group_name_H-M "P -1"
_symmetry_group_IT_number 2
_symmetry_cell_setting 'triclinic'
loop_
_space_group_symop_operation_xyz
x,y,z
-x,-y,-z
loop_
_atom_site_type_symbol
_atom_site_label
_atom_site_fract_x
_atom_site_fract_y
_atom_site_fract_z
Si Si1 0.239558 0.016488 0.206956
Si Si2 0.900718 0.071994 0.329151
Si Si3 0.714450 0.757372 0.645121
Si Si4 0.153384 0.829396 0.327644
Si Si5 0.309268 0.273830 0.666250
Si Si6 0.031237 0.704285 0.068468
Si Si7 0.882716 0.475375 0.809591
Si Si8 0.160747 0.432893 0.514560
O O1 0.289294 0.924234 0.313456
O O2 0.546167 0.063395 0.234009
O O3 0.056583 0.054157 0.245340
O O4 0.000000 0.000000 0.000000
O O5 0.033679 0.168650 0.347243
O O6 0.000000 0.000000 0.500000
O O7 0.408662 0.794262 0.531162
O O8 0.642863 0.706687 0.492890
O O9 0.819460 0.718672 0.848056
O O10 0.061784 0.776005 0.170808
O O11 0.851786 0.816519 0.311064
O O12 0.625351 0.287022 0.859752
O O13 0.094129 0.340494 0.592563
O O14 0.977422 0.607703 0.141410
O O15 0.520527 0.454111 0.665680
O O16 0.948977 0.554108 0.694407
O O17 0.000000 0.500000 0.000000
O O18 0.000000 0.500000 0.500000
#
# Coordination Sequence:
#
# PCOD9007929 Si02
#       8
#     2   2   2   2   2   2   2   2
#     4  12  27  44  71 100 135 180 229 282 338 401
#     4  12  25  45  69 100 135 177 231 279 338 400
#     4  11  24  41  66  89 131 169 215 271 329 390
#     4  11  24  42  64  91 129 171 213 270 329 394
#     4  10  23  40  62  92 127 166 213 264 328 393
#     4  10  23  41  61  94 124 167 214 265 326 395
#     4  10  21  39  64  90 126 163 211 264 322 389
#     4  10  21  39  63  91 125 166 208 263 323 390
#
# _framework density 23.539543999999999
#
# number of rings (size 3 to 8) (size 9 to 14) (size 15 to 20)
#    0.000    1.250    1.250    3.750    5.250    4.500 
#    0.000    0.000    0.000    0.000    0.000    0.000 
#    0.000    0.000    0.000    0.000    0.000    0.000 
#
# Total GULP energy -89209.433619 kJ/mol
# GULP energy per Si atom -5575.589601 kJ/mol
# Density = 2.348597 g / cm^3
# Si number density = 23.539544 Si / 1000 Ang^3
#
#
#
# Elastic Constant Matrix: (Units=GPa)
#
#
# Indices 1 2 3 4 5 6 
#
# 1 72.8285 -2.6178 25.2886 6.2645 -1.4819 -2.5965
# 2 -2.6178 48.2997 -3.6336 1.0099 -1.5261 -1.9564
# 3 25.2886 -3.6336 144.6676 -2.0043 -0.3852 -9.7376
# 4 6.2645 1.0099 -2.0043 31.5408 -10.6925 -3.0183
# 5 -1.4819 -1.5261 -0.3852 -10.6925 25.6773 9.4895
# 6 -2.5965 -1.9564 -9.7376 -3.0183 9.4895 41.8070
#
#
#
# Elastic Compliance Matrix: (Units=1/GPa)
#
#
# Indices 1 2 3 4 5 6 
#
# 1 0.014952 0.000673 -0.002628 -0.003345 -0.000621 0.000247
# 2 0.000673 0.020846 0.000464 -0.000423 0.000768 0.000920
# 3 -0.002628 0.000464 0.007515 0.001082 -0.000201 0.001733
# 4 -0.003345 -0.000423 0.001082 0.037735 0.015823 -0.000843
# 5 -0.000621 0.000768 -0.000201 0.015823 0.049270 -0.010091
# 6 0.000247 0.000920 0.001733 -0.000843 -0.010091 0.026611
#
#
# Mechanical properties :
#
#
# Convention : Reuss Voigt Hill
#
# Bulk Modulus (GPa) = 24.79547 33.76338 29.27943
# Shear Modulus (GPa) = 28.84284 36.25561 32.54922
#
# Velocity S-wave (km/s) = 3.50422 3.92880 3.72256
# Velocity P-wave (km/s) = 5.18933 5.91227 5.56256
#
# Compressibility (1/GPa) = 0.04032995
#
# Stress axis : x y z
#
# Youngs Moduli (GPa) = 66.88277 47.97120 133.07560
#
# Poissons Ratio (x) = -0.03228 0.34973
# Poissons Ratio (y) = -0.04501 -0.06176
# Poissons Ratio (z) = 0.17577 -0.02226
#
# Static dielectric constant tensor:
#      x y z
#    x 2.039770 0.008870 -0.075480 
#    y 0.008870 2.048820 0.031410 
#    z -0.075480 0.031410 1.840980 
# 
# From -- ./inp_files/53615.got.cif
#   From: 2010.05.17/outbox.cif.g08.bks.cpg/sg2_27_cif.got.tgz:53615.got - 2010.06.03 11:33:40.
