data_PCOD9007170
_publ_section_title
;
Structure prediction by ZEFSAII (Michael W. Deem and Ramdas Pophale) SiO2 
 PCOD9007170
Probable space group: P -1
;
_chemical_formula_sum "Si O2"
_cell_formula_units_Z 14
_cell_length_a 8.365312
_cell_length_b 6.157348
_cell_length_c 15.535764
_cell_angle_alpha 119.050310
_cell_angle_beta 108.579067
_cell_angle_gamma 55.981404
_cell_volume 578.604178
_symmetry_space_group_name_H-M "P -1"
_symmetry_group_IT_number 2
_symmetry_cell_setting 'triclinic'
loop_
_space_group_symop_operation_xyz
x,y,z
-x,-y,-z
loop_
_atom_site_type_symbol
_atom_site_label
_atom_site_fract_x
_atom_site_fract_y
_atom_site_fract_z
Si Si1 0.328560 0.417355 0.227678
Si Si2 0.946375 0.262603 0.913621
Si Si3 0.749357 0.140680 0.420340
Si Si4 0.611358 0.798238 0.562035
Si Si5 0.356407 0.726854 0.885747
Si Si6 0.615382 0.163635 0.902053
Si Si7 0.135803 0.965663 0.390589
O O1 0.163462 0.624262 0.172831
O O2 0.528221 0.305368 0.188461
O O3 0.288114 0.634008 0.339121
O O4 0.307129 0.142340 0.184820
O O5 0.786971 0.242251 0.941276
O O6 0.134403 0.955483 0.881107
O O7 0.000000 0.500000 0.000000
O O8 0.688092 0.472271 0.485938
O O9 0.553498 0.120911 0.377819
O O10 0.845001 0.973899 0.493930
O O11 0.917272 0.024954 0.356040
O O12 0.500000 0.000000 0.500000
O O13 0.789035 0.858619 0.619552
O O14 0.429492 0.402565 0.866238
O O15 0.423956 0.836523 0.003056
#
# Coordination Sequence:
#
# PCOD9007170 Si02
#       7
#     2   2   2   2   2   2   2
#     4  11  24  40  58  91 126 157 207 253 309 365
#     4  11  23  39  62  90 116 160 214 252 302 368
#     4   9  19  38  65  88 117 161 204 238 305 373
#     4   9  18  37  63  91 114 154 202 243 302 369
#     4  10  22  39  61  86 117 160 205 251 305 360
#     4  10  22  38  63  85 118 163 204 252 306 368
#     4  10  21  39  60  88 124 158 196 258 299 357
#
# _framework density 24.196159999999999
#
# number of rings (size 3 to 8) (size 9 to 14) (size 15 to 20)
#    0.000    2.000    1.429    1.286    4.000    2.286 
#   10.286    0.000    0.000    0.000    0.000    0.000 
#    0.000    0.000    0.000    0.000    0.000    0.000 
#
# Total GULP energy -78204.333814 kJ/mol
# GULP energy per Si atom -5586.023844 kJ/mol
# Density = 2.414109 g / cm^3
# Si number density = 24.196160 Si / 1000 Ang^3
#
#
#
# Elastic Constant Matrix: (Units=GPa)
#
#
# Indices 1 2 3 4 5 6 
#
# 1 202.0479 58.0491 41.4556 23.3723 -31.6494 5.0955
# 2 58.0491 113.3400 0.5863 14.6621 -6.5082 -15.0830
# 3 41.4556 0.5863 53.5636 15.2960 -16.4399 5.9649
# 4 23.3723 14.6621 15.2960 35.6018 -5.9003 3.9512
# 5 -31.6494 -6.5082 -16.4399 -5.9003 24.8986 8.0915
# 6 5.0955 -15.0830 5.9649 3.9512 8.0915 47.6799
#
#
#
# Elastic Compliance Matrix: (Units=1/GPa)
#
#
# Indices 1 2 3 4 5 6 
#
# 1 0.008198 -0.004047 -0.003325 -0.000621 0.008011 -0.003048
# 2 -0.004047 0.011927 0.002946 -0.004478 -0.002656 0.004659
# 3 -0.003325 0.002946 0.028603 -0.008417 0.014767 -0.004100
# 4 -0.000621 -0.004478 -0.008417 0.034645 0.001823 -0.003478
# 5 0.008011 -0.002656 0.014767 0.001823 0.064597 -0.014657
# 6 -0.003048 0.004659 -0.004100 -0.003478 -0.014657 0.026061
#
#
# Mechanical properties :
#
#
# Convention : Reuss Voigt Hill
#
# Bulk Modulus (GPa) = 25.07707 63.23706 44.15706
# Shear Modulus (GPa) = 25.48757 39.56009 32.52383
#
# Velocity S-wave (km/s) = 3.24909 4.04787 3.67027
# Velocity P-wave (km/s) = 4.94591 6.93101 6.02083
#
# Compressibility (1/GPa) = 0.03987707
#
# Stress axis : x y z
#
# Youngs Moduli (GPa) = 121.98603 83.84196 34.96127
#
# Poissons Ratio (x) = 0.33929 0.11624
# Poissons Ratio (y) = 0.49365 -0.10300
# Poissons Ratio (z) = 0.40559 -0.24702
#
# Static dielectric constant tensor:
#      x y z
#    x 1.988910 0.006970 0.011690 
#    y 0.006970 1.941120 -0.054200 
#    z 0.011690 -0.054200 1.985310 
# 
# From -- ./inp_files/553048.got.cif
#   From: 2010.05.17/outbox.cif.g08.bks.cpg/sg2_277_cif.got.tgz:553048.got - 2010.06.03 11:33:40.
