data_PCOD9007937
_publ_section_title
;
Structure prediction by ZEFSAII (Michael W. Deem and Ramdas Pophale) SiO2 
 PCOD9007937
Probable space group: P -1
;
_chemical_formula_sum "Si O2"
_cell_formula_units_Z 16
_cell_length_a 15.124911
_cell_length_b 15.338411
_cell_length_c 8.926857
_cell_angle_alpha 38.953300
_cell_angle_beta 128.314039
_cell_angle_gamma 146.025253
_cell_volume 725.751259
_symmetry_space_group_name_H-M "P -1"
_symmetry_group_IT_number 2
_symmetry_cell_setting 'triclinic'
loop_
_space_group_symop_operation_xyz
x,y,z
-x,-y,-z
loop_
_atom_site_type_symbol
_atom_site_label
_atom_site_fract_x
_atom_site_fract_y
_atom_site_fract_z
Si Si1 0.450417 0.797033 0.746286
Si Si2 0.885511 0.532853 0.333300
Si Si3 0.879558 0.277973 0.117997
Si Si4 0.949995 0.118153 0.160868
Si Si5 0.372688 0.111237 0.469625
Si Si6 0.239155 0.210859 0.408397
Si Si7 0.318814 0.672027 0.322951
Si Si8 0.417434 0.578283 0.270469
O O1 0.267553 0.622831 0.729130
O O2 0.566856 0.814926 0.732286
O O3 0.500000 0.000000 0.500000
O O4 0.480980 0.761627 0.991019
O O5 0.808265 0.490039 0.471730
O O6 0.000000 0.500000 0.500000
O O7 0.000046 0.754436 0.101726
O O8 0.964120 0.240522 0.149072
O O9 0.785730 0.116311 0.366755
O O10 0.748716 0.245490 0.926709
O O11 0.000000 0.500000 0.000000
O O12 0.066539 0.086991 0.323195
O O13 0.780172 0.905716 0.311112
O O14 0.346585 0.230737 0.372940
O O15 0.518147 0.162795 0.638161
O O16 0.289533 0.404718 0.253202
O O17 0.350521 0.588681 0.336606
O O18 0.500000 0.500000 0.500000
#
# Coordination Sequence:
#
# PCOD9007937 Si02
#       8
#     2   2   2   2   2   2   2   2
#     4  11  26  43  68  99 137 170 226 283 335 388
#     4  11  23  42  64  97 131 173 215 275 336 397
#     4  11  22  37  65  94 132 170 224 271 332 392
#     4  10  21  39  63  91 127 173 214 273 324 397
#     4  10  23  41  64  96 128 176 219 274 329 400
#     4  10  21  41  64  91 127 172 223 263 330 395
#     4  11  23  39  65  95 131 173 221 272 338 388
#     4  12  24  42  66  97 134 177 222 275 331 403
#
# _framework density 22.046120999999999
#
# number of rings (size 3 to 8) (size 9 to 14) (size 15 to 20)
#    0.000    1.250    3.750    1.875    1.750    3.500 
#    0.000    0.625    0.000    0.000    0.000    0.000 
#    0.000    0.000    0.000    0.000    0.000    0.000 
#
# Total GULP energy -89216.556506 kJ/mol
# GULP energy per Si atom -5576.034782 kJ/mol
# Density = 2.199594 g / cm^3
# Si number density = 22.046121 Si / 1000 Ang^3
#
#
#
# Elastic Constant Matrix: (Units=GPa)
#
#
# Indices 1 2 3 4 5 6 
#
# 1 151.0264 26.6410 65.5398 11.1169 -15.1340 8.6103
# 2 26.6410 33.2776 13.0586 -7.3848 -1.2565 -9.1573
# 3 65.5398 13.0586 143.0016 -0.2653 -8.5643 -3.4403
# 4 11.1169 -7.3848 -0.2653 35.0598 5.3390 7.9641
# 5 -15.1340 -1.2565 -8.5643 5.3390 40.0604 3.4369
# 6 8.6103 -9.1573 -3.4403 7.9641 3.4369 20.0761
#
#
#
# Elastic Compliance Matrix: (Units=1/GPa)
#
#
# Indices 1 2 3 4 5 6 
#
# 1 0.011935 -0.011453 -0.004393 -0.004662 0.004694 -0.010050
# 2 -0.011453 0.047148 0.001188 0.009000 -0.005857 0.024054
# 3 -0.004393 0.001188 0.008979 0.000908 -0.000135 0.003628
# 4 -0.004662 0.009000 0.000908 0.034159 -0.005290 -0.006385
# 5 0.004694 -0.005857 -0.000135 -0.005290 0.027861 -0.007379
# 6 -0.010050 0.024054 0.003628 -0.006385 -0.007379 0.069510
#
#
# Mechanical properties :
#
#
# Convention : Reuss Voigt Hill
#
# Bulk Modulus (GPa) = 25.80967 59.75384 42.78175
# Shear Modulus (GPa) = 20.67621 33.84367 27.25994
#
# Velocity S-wave (km/s) = 3.06577 3.92232 3.52020
# Velocity P-wave (km/s) = 4.92590 6.90476 5.99751
#
# Compressibility (1/GPa) = 0.03874516
#
# Stress axis : x y z
#
# Youngs Moduli (GPa) = 83.78923 21.20972 111.37366
#
# Poissons Ratio (x) = 0.24292 0.48930
# Poissons Ratio (y) = 0.95967 -0.13235
# Poissons Ratio (z) = 0.36811 -0.02521
#
# Static dielectric constant tensor:
#      x y z
#    x 1.744880 0.163640 -0.215980 
#    y 0.163640 1.644120 0.430260 
#    z -0.215980 0.430260 1.175200 
# 
# From -- ./inp_files/312412.got.cif
#   From: 2010.05.17/outbox.cif.g08.bks.cpg/sg2_157_cif.got.tgz:312412.got - 2010.06.03 11:33:40.
