data_PCOD9007189
_publ_section_title
;
Structure prediction by ZEFSAII (Michael W. Deem and Ramdas Pophale) SiO2 
 PCOD9007189
Probable space group: P -1
;
_chemical_formula_sum "Si O2"
_cell_formula_units_Z 16
_cell_length_a 7.188831
_cell_length_b 22.073104
_cell_length_c 8.521233
_cell_angle_alpha 35.810649
_cell_angle_beta 93.727312
_cell_angle_gamma 100.216620
_cell_volume 771.277905
_symmetry_space_group_name_H-M "P -1"
_symmetry_group_IT_number 2
_symmetry_cell_setting 'triclinic'
loop_
_space_group_symop_operation_xyz
x,y,z
-x,-y,-z
loop_
_atom_site_type_symbol
_atom_site_label
_atom_site_fract_x
_atom_site_fract_y
_atom_site_fract_z
Si Si1 0.331648 0.683439 0.489618
Si Si2 0.014208 0.475051 0.236400
Si Si3 0.069842 0.966393 0.241426
Si Si4 0.670102 0.936442 0.452266
Si Si5 0.645972 0.402154 0.825816
Si Si6 0.668201 0.511352 0.262639
Si Si7 0.315593 0.792222 0.593519
Si Si8 0.562034 0.882614 0.905075
O O1 0.399708 0.572025 0.707505
O O2 0.314757 0.726496 0.571736
O O3 0.113509 0.643046 0.499037
O O4 0.468338 0.772006 0.211036
O O5 0.217692 0.504048 0.265334
O O6 0.891288 0.548824 0.163600
O O7 0.000000 0.500000 0.000000
O O8 0.154988 0.861062 0.447634
O O9 0.887260 0.951493 0.377634
O O10 0.248933 0.054669 0.127746
O O11 0.000000 0.000000 0.000000
O O12 0.521454 0.871373 0.455844
O O13 0.624906 0.876727 0.741005
O O14 0.599589 0.046490 0.241766
O O15 0.644009 0.439528 0.569280
O O16 0.440900 0.396811 0.905042
O O17 0.706985 0.292771 0.089048
#
# Coordination Sequence:
#
# PCOD9007189 Si02
#       8
#     2   2   2   2   2   2   2   2
#     4  10  21  40  58  93 123 164 203 253 308 362
#     4  10  21  39  60  89 124 162 209 249 307 359
#     4  11  23  41  64  96 124 162 207 252 311 374
#     4  10  22  41  65  94 122 164 203 259 308 371
#     4  11  20  43  63  89 125 163 207 260 306 366
#     4   9  23  38  64  89 122 162 207 257 309 357
#     4  11  23  38  65  90 126 165 204 254 312 362
#     4  10  21  42  66  90 129 158 206 257 311 363
#
# _framework density 20.744793999999999
#
# number of rings (size 3 to 8) (size 9 to 14) (size 15 to 20)
#    0.750    1.000    1.250    3.000    0.000    5.000 
#    6.750    2.500    0.000    0.000    0.000    0.000 
#    0.000    0.000    0.000    0.000    0.000    0.000 
#
# Total GULP energy -89209.685686 kJ/mol
# GULP energy per Si atom -5575.605355 kJ/mol
# Density = 2.069758 g / cm^3
# Si number density = 20.744794 Si / 1000 Ang^3
#
#
#
# Elastic Constant Matrix: (Units=GPa)
#
#
# Indices 1 2 3 4 5 6 
#
# 1 98.5846 21.2444 43.5444 8.9532 -4.2449 -10.6875
# 2 21.2444 76.9607 14.6758 7.6880 0.6347 0.6554
# 3 43.5444 14.6758 66.8247 -5.1503 -0.7516 -8.0409
# 4 8.9532 7.6880 -5.1503 21.1339 -2.0831 -5.6729
# 5 -4.2449 0.6347 -0.7516 -2.0831 31.8524 -0.2490
# 6 -10.6875 0.6554 -8.0409 -5.6729 -0.2490 26.5684
#
#
#
# Elastic Compliance Matrix: (Units=1/GPa)
#
#
# Indices 1 2 3 4 5 6 
#
# 1 0.016164 -0.001638 -0.010605 -0.008273 0.001408 0.001580
# 2 -0.001638 0.014707 -0.003067 -0.006397 -0.001028 -0.003326
# 3 -0.010605 -0.003067 0.024280 0.013139 0.000127 0.005965
# 4 -0.008273 -0.006397 0.013139 0.060371 0.003390 0.013728
# 5 0.001408 -0.001028 0.000127 0.003390 0.031841 0.001652
# 6 0.001580 -0.003326 0.005965 0.013728 0.001652 0.043108
#
#
# Mechanical properties :
#
#
# Convention : Reuss Voigt Hill
#
# Bulk Modulus (GPa) = 40.76539 44.58881 42.67710
# Shear Modulus (GPa) = 21.80865 26.77130 24.28998
#
# Velocity S-wave (km/s) = 3.24587 3.59626 3.42555
# Velocity P-wave (km/s) = 5.80871 6.22774 6.02187
#
# Compressibility (1/GPa) = 0.02453061
#
# Stress axis : x y z
#
# Youngs Moduli (GPa) = 61.86636 67.99670 41.18596
#
# Poissons Ratio (x) = 0.11140 0.43676
# Poissons Ratio (y) = 0.10135 0.12632
# Poissons Ratio (z) = 0.65607 0.20855
#
# Static dielectric constant tensor:
#      x y z
#    x 1.759560 -0.005720 -0.000650 
#    y -0.005720 1.761560 0.006230 
#    z -0.000650 0.006230 1.744970 
# 
# From -- ./inp_files/141965.got.cif
#   From: 2010.05.17/outbox.cif.g08.bks.cpg/sg2_71_cif.got.tgz:141965.got - 2010.06.03 11:33:40.
