data_PCOD9007637
_publ_section_title
;
Structure prediction by ZEFSAII (Michael W. Deem and Ramdas Pophale) SiO2 
 PCOD9007637
Probable space group: P -1
;
_chemical_formula_sum "Si O2"
_cell_formula_units_Z 14
_cell_length_a 9.641197
_cell_length_b 13.914658
_cell_length_c 5.203348
_cell_angle_alpha 101.180920
_cell_angle_beta 75.595465
_cell_angle_gamma 62.385552
_cell_volume 558.852545
_symmetry_space_group_name_H-M "P -1"
_symmetry_group_IT_number 2
_symmetry_cell_setting 'triclinic'
loop_
_space_group_symop_operation_xyz
x,y,z
-x,-y,-z
loop_
_atom_site_type_symbol
_atom_site_label
_atom_site_fract_x
_atom_site_fract_y
_atom_site_fract_z
Si Si1 0.689907 0.752496 0.390031
Si Si2 0.789319 0.560228 0.910615
Si Si3 0.701306 0.112773 0.340487
Si Si4 0.618098 0.942835 0.165889
Si Si5 0.606661 0.305625 0.836600
Si Si6 0.033668 0.331737 0.425709
Si Si7 0.787623 0.279465 0.241341
O O1 0.499492 0.806393 0.610320
O O2 0.683374 0.811808 0.150100
O O3 0.810911 0.768463 0.530851
O O4 0.774419 0.615129 0.228249
O O5 0.888578 0.604977 0.725584
O O6 0.893134 0.424384 0.738540
O O7 0.590853 0.622847 0.966188
O O8 0.746591 0.986154 0.174092
O O9 0.675997 0.168278 0.670090
O O10 0.819253 0.150804 0.179384
O O11 0.500000 0.000000 0.500000
O O12 0.500000 0.000000 0.000000
O O13 0.644662 0.343299 0.565270
O O14 0.709746 0.319924 0.019435
O O15 0.941862 0.290155 0.258371
#
# Coordination Sequence:
#
# PCOD9007637 Si02
#       7
#     2   2   2   2   2   2   2
#     4  10  21  39  62  90 126 160 207 262 312 369
#     4  10  23  40  63  88 126 168 220 254 308 369
#     4   8  20  38  64  91 119 157 208 257 303 367
#     4  10  22  35  66  98 119 155 210 260 306 367
#     4   9  21  40  63  87 123 166 207 259 297 368
#     4  11  24  39  60  93 128 171 204 262 316 373
#     4  10  22  39  63  89 129 163 207 256 314 365
#
# _framework density 25.051334000000001
#
# number of rings (size 3 to 8) (size 9 to 14) (size 15 to 20)
#    0.857    1.429    0.000    1.286   12.000    1.143 
#    0.000    0.714    0.000    1.714    0.000    0.000 
#    0.000    0.000    0.000    0.000    0.000    0.000 
#
# Total GULP energy -78038.724056 kJ/mol
# GULP energy per Si atom -5574.194575 kJ/mol
# Density = 2.499432 g / cm^3
# Si number density = 25.051334 Si / 1000 Ang^3
#
#
#
# Elastic Constant Matrix: (Units=GPa)
#
#
# Indices 1 2 3 4 5 6 
#
# 1 186.3186 46.1350 56.9250 -19.2272 34.7141 9.3735
# 2 46.1350 57.1339 22.4653 3.6992 2.8707 4.1651
# 3 56.9250 22.4653 80.8325 -1.5411 24.1812 0.4383
# 4 -19.2272 3.6992 -1.5411 40.5797 -4.4255 -4.5118
# 5 34.7141 2.8707 24.1812 -4.4255 47.6284 -11.0731
# 6 9.3735 4.1651 0.4383 -4.5118 -11.0731 18.1997
#
#
#
# Elastic Compliance Matrix: (Units=1/GPa)
#
#
# Indices 1 2 3 4 5 6 
#
# 1 0.009693 -0.006029 -0.003177 0.003624 -0.006248 -0.006439
# 2 -0.006029 0.024027 -0.003772 -0.004839 0.004190 -0.000953
# 3 -0.003177 -0.003772 0.017825 -0.001587 -0.007296 -0.002762
# 4 0.003624 -0.004839 -0.001587 0.027945 0.002907 0.007975
# 5 -0.006248 0.004190 -0.007296 0.002907 0.034949 0.024420
# 6 -0.006439 -0.000953 -0.002762 0.007975 0.024420 0.075381
#
#
# Mechanical properties :
#
#
# Convention : Reuss Voigt Hill
#
# Bulk Modulus (GPa) = 39.08221 63.92619 51.50420
# Shear Modulus (GPa) = 22.29107 34.53221 28.41164
#
# Velocity S-wave (km/s) = 2.98621 3.71679 3.37135
# Velocity P-wave (km/s) = 5.24640 6.63271 5.97986
#
# Compressibility (1/GPa) = 0.02558709
#
# Stress axis : x y z
#
# Youngs Moduli (GPa) = 103.16919 41.62068 56.10222
#
# Poissons Ratio (x) = 0.25092 0.17825
# Poissons Ratio (y) = 0.62199 0.21164
# Poissons Ratio (z) = 0.32779 0.15701
#
# Static dielectric constant tensor:
#      x y z
#    x 1.982160 0.028430 0.006910 
#    y 0.028430 2.223130 0.099820 
#    z 0.006910 0.099820 2.086630 
# 
# From -- ./inp_files/39246.got.cif
#   From: 2010.05.17/outbox.cif.g08.bks.cpg/sg2_20_cif.got.tgz:39246.got - 2010.06.03 11:33:40.
