data_PCOD9007185
_publ_section_title
;
Structure prediction by ZEFSAII (Michael W. Deem and Ramdas Pophale) SiO2 
 PCOD9007185
Probable space group: P -1
;
_chemical_formula_sum "Si O2"
_cell_formula_units_Z 14
_cell_length_a 9.262948
_cell_length_b 16.496150
_cell_length_c 9.906200
_cell_angle_alpha 51.950973
_cell_angle_beta 44.685519
_cell_angle_gamma 43.868059
_cell_volume 720.750816
_symmetry_space_group_name_H-M "P -1"
_symmetry_group_IT_number 2
_symmetry_cell_setting 'triclinic'
loop_
_space_group_symop_operation_xyz
x,y,z
-x,-y,-z
loop_
_atom_site_type_symbol
_atom_site_label
_atom_site_fract_x
_atom_site_fract_y
_atom_site_fract_z
Si Si1 0.578958 0.873366 0.512745
Si Si2 0.696851 0.238031 0.271528
Si Si3 0.069628 0.735971 0.184457
Si Si4 0.489137 0.636795 0.216379
Si Si5 0.287817 0.638422 0.617256
Si Si6 0.171840 0.344125 0.220709
Si Si7 0.283823 0.481591 0.215063
O O1 0.362840 0.866927 0.591323
O O2 0.674273 0.774785 0.670941
O O3 0.802944 0.830604 0.307665
O O4 0.500000 0.000000 0.500000
O O5 0.806790 0.261694 0.306750
O O6 0.432269 0.358777 0.324096
O O7 0.838952 0.236675 0.044084
O O8 0.256075 0.717950 0.197068
O O9 0.102002 0.604088 0.282775
O O10 0.444695 0.658109 0.382576
O O11 0.567633 0.497502 0.283660
O O12 0.693780 0.657473 0.002677
O O13 0.077230 0.641792 0.665989
O O14 0.160384 0.451306 0.206840
O O15 0.500000 0.500000 0.000000
#
# Coordination Sequence:
#
# PCOD9007185 Si02
#       7
#     2   2   2   2   2   2   2
#     4  11  25  41  62  87 110 158 220 250 281 342
#     4  10  21  39  60  89 123 147 198 250 291 357
#     4  11  19  38  64  85 120 160 193 244 300 347
#     4  11  20  35  58  94 128 157 183 229 307 370
#     4  11  23  34  58  96 129 152 185 232 307 372
#     4  11  21  38  59  87 129 157 187 246 295 351
#     4   9  16  32  58  86 118 148 187 232 292 356
#
# _framework density 19.424189999999999
#
# number of rings (size 3 to 8) (size 9 to 14) (size 15 to 20)
#    0.000    1.429    7.143    1.286    0.000    6.286 
#    0.000    0.714    0.000    1.714    0.000    0.000 
#    0.000    0.000    0.000    0.000    0.000    0.000 
#
# Total GULP energy -78135.054363 kJ/mol
# GULP energy per Si atom -5581.075312 kJ/mol
# Density = 1.937998 g / cm^3
# Si number density = 19.424190 Si / 1000 Ang^3
#
#
#
# Elastic Constant Matrix: (Units=GPa)
#
#
# Indices 1 2 3 4 5 6 
#
# 1 52.9229 15.5591 -13.1463 0.2620 -2.7539 14.5910
# 2 15.5591 90.1262 20.4311 14.0095 -8.0938 25.2545
# 3 -13.1463 20.4311 74.4853 21.5989 1.3800 -1.6110
# 4 0.2620 14.0095 21.5989 18.6091 1.8249 -2.1020
# 5 -2.7539 -8.0938 1.3800 1.8249 24.3324 -0.8171
# 6 14.5910 25.2545 -1.6110 -2.1020 -0.8171 22.0289
#
#
#
# Elastic Compliance Matrix: (Units=1/GPa)
#
#
# Indices 1 2 3 4 5 6 
#
# 1 0.025841 0.001600 0.007275 -0.012540 0.003330 -0.019491
# 2 0.001600 0.023241 -0.000905 -0.020627 0.008522 -0.029421
# 3 0.007275 -0.000905 0.022386 -0.026024 0.001050 -0.004588
# 4 -0.012540 -0.020627 -0.026024 0.105434 -0.013382 0.039614
# 5 0.003330 0.008522 0.001050 -0.013382 0.044867 -0.011511
# 6 -0.019491 -0.029421 -0.004588 0.039614 -0.011511 0.095052
#
#
# Mechanical properties :
#
#
# Convention : Reuss Voigt Hill
#
# Bulk Modulus (GPa) = 11.44080 29.24691 20.34385
# Shear Modulus (GPa) = 15.15072 25.97343 20.56207
#
# Velocity S-wave (km/s) = 2.79586 3.66070 3.25711
# Velocity P-wave (km/s) = 4.04045 5.74084 4.96400
#
# Compressibility (1/GPa) = 0.08740649
#
# Stress axis : x y z
#
# Youngs Moduli (GPa) = 38.69745 43.02823 44.67159
#
# Poissons Ratio (x) = -0.06883 -0.32500
# Poissons Ratio (y) = -0.06190 0.04045
# Poissons Ratio (z) = -0.28154 0.03896
#
# Static dielectric constant tensor:
#      x y z
#    x 1.743490 0.016230 0.007180 
#    y 0.016230 1.678220 0.005500 
#    z 0.007180 0.005500 1.713860 
# 
# From -- ./inp_files/200058.got.cif
#   From: 2010.05.17/outbox.cif.g08.bks.cpg/sg2_101_cif.got.tgz:200058.got - 2010.06.03 11:33:40.
