data_PCOD9007440
_publ_section_title
;
Structure prediction by ZEFSAII (Michael W. Deem and Ramdas Pophale) SiO2 
 PCOD9007440
Probable space group: P -1
;
_chemical_formula_sum "Si O2"
_cell_formula_units_Z 15
_cell_length_a 6.433463
_cell_length_b 11.737743
_cell_length_c 14.612103
_cell_angle_alpha 42.675880
_cell_angle_beta 78.451293
_cell_angle_gamma 69.150502
_cell_volume 695.680056
_symmetry_space_group_name_H-M "P -1"
_symmetry_group_IT_number 2
_symmetry_cell_setting 'triclinic'
loop_
_space_group_symop_operation_xyz
x,y,z
-x,-y,-z
loop_
_atom_site_type_symbol
_atom_site_label
_atom_site_fract_x
_atom_site_fract_y
_atom_site_fract_z
Si Si1 0.687450 0.843585 0.456293
Si Si2 0.779559 0.848082 0.654557
Si Si3 0.544254 0.328214 0.863301
Si Si4 0.540307 0.415213 0.446679
Si Si5 0.000000 0.000000 0.000000
Si Si6 0.295527 0.507047 0.079418
Si Si7 0.847085 0.813044 0.952850
Si Si8 0.080190 0.945719 0.344374
O O1 0.795656 0.809122 0.568360
O O2 0.648868 0.673002 0.514904
O O3 0.850899 0.926110 0.337466
O O4 0.448931 0.991528 0.403304
O O5 0.759343 0.675438 0.807600
O O6 0.962576 0.919483 0.645517
O O7 0.452821 0.439609 0.714248
O O8 0.754982 0.158548 0.923682
O O9 0.623198 0.455807 0.849238
O O10 0.353215 0.265908 0.966096
O O11 0.500000 0.500000 0.500000
O O12 0.765005 0.249216 0.527852
O O13 0.912482 0.884614 0.999607
O O14 0.500000 0.500000 0.000000
O O15 0.069697 0.664214 0.985084
O O16 0.795797 0.972073 0.790438
#
# Coordination Sequence:
#
# PCOD9007440 Si02
#       8
#     2   2   2   2   1   2   2   2
#     4  10  22  41  62  91 132 173 214 268 326 388
#     4  10  21  39  61  93 130 170 218 263 325 390
#     4  11  24  44  69  97 132 173 226 276 338 398
#     4  11  25  43  67  98 129 169 227 276 331 396
#     4  10  24  44  68  90 130 176 220 276 336 390
#     4  11  23  40  66  97 139 177 222 272 332 397
#     4  11  25  42  66 100 133 178 224 275 336 394
#     4  11  24  40  65  96 130 173 218 266 333 392
#
# _framework density 21.561637000000001
#
# number of rings (size 3 to 8) (size 9 to 14) (size 15 to 20)
#    0.000    1.333    1.333    3.200    1.867    8.000 
#    0.000    0.000    0.000    0.000    0.000    0.000 
#    0.000    0.000    0.000    0.000    0.000    0.000 
#
# Total GULP energy -83617.346322 kJ/mol
# GULP energy per Si atom -5574.489755 kJ/mol
# Density = 2.151256 g / cm^3
# Si number density = 21.561637 Si / 1000 Ang^3
#
#
#
# Elastic Constant Matrix: (Units=GPa)
#
#
# Indices 1 2 3 4 5 6 
#
# 1 88.5386 35.4297 39.1397 -6.0032 -14.3895 9.3623
# 2 35.4297 112.7331 31.7023 -15.5570 -7.4453 8.6578
# 3 39.1397 31.7023 100.2943 -0.2892 -9.8138 -16.7248
# 4 -6.0032 -15.5570 -0.2892 23.0053 4.0788 4.4595
# 5 -14.3895 -7.4453 -9.8138 4.0788 32.7916 -6.0755
# 6 9.3623 8.6578 -16.7248 4.4595 -6.0755 33.4627
#
#
#
# Elastic Compliance Matrix: (Units=1/GPa)
#
#
# Indices 1 2 3 4 5 6 
#
# 1 0.016645 -0.002015 -0.006814 0.003832 0.002938 -0.007519
# 2 -0.002015 0.012384 -0.004328 0.009329 -0.001706 -0.006357
# 3 -0.006814 -0.004328 0.016603 -0.007831 0.004410 0.013169
# 4 0.003832 0.009329 -0.007831 0.055338 -0.008449 -0.016308
# 5 0.002938 -0.001706 0.004410 -0.008449 0.035509 0.009396
# 6 -0.007519 -0.006357 0.013169 -0.016308 0.009396 0.044094
#
#
# Mechanical properties :
#
#
# Convention : Reuss Voigt Hill
#
# Bulk Modulus (GPa) = 51.76614 57.12328 54.44471
# Shear Modulus (GPa) = 23.43826 30.87152 27.15489
#
# Velocity S-wave (km/s) = 3.30060 3.78799 3.55266
# Velocity P-wave (km/s) = 6.21175 6.75887 6.49108
#
# Compressibility (1/GPa) = 0.01931765
#
# Stress axis : x y z
#
# Youngs Moduli (GPa) = 60.07635 80.75123 60.23003
#
# Poissons Ratio (x) = 0.16269 0.41043
# Poissons Ratio (y) = 0.12104 0.26069
# Poissons Ratio (z) = 0.40938 0.34951
#
# Static dielectric constant tensor:
#      x y z
#    x 1.785590 0.007380 0.000600 
#    y 0.007380 1.777870 0.039140 
#    z 0.000600 0.039140 1.796150 
# 
# From -- ./inp_files/75943.got.cif
#   From: 2010.05.17/outbox.cif.g08.bks.cpg/sg2_38_cif.got.tgz:75943.got - 2010.06.03 11:33:40.
