data_PCOD9007678
_publ_section_title
;
Structure prediction by ZEFSAII (Michael W. Deem and Ramdas Pophale) SiO2 
 PCOD9007678
Probable space group: P -1
;
_chemical_formula_sum "Si O2"
_cell_formula_units_Z 14
_cell_length_a 13.220214
_cell_length_b 8.844663
_cell_length_c 9.145008
_cell_angle_alpha 131.187271
_cell_angle_beta 55.139082
_cell_angle_gamma 115.106157
_cell_volume 658.318806
_symmetry_space_group_name_H-M "P -1"
_symmetry_group_IT_number 2
_symmetry_cell_setting 'triclinic'
loop_
_space_group_symop_operation_xyz
x,y,z
-x,-y,-z
loop_
_atom_site_type_symbol
_atom_site_label
_atom_site_fract_x
_atom_site_fract_y
_atom_site_fract_z
Si Si1 0.118913 0.522619 0.809359
Si Si2 0.499310 0.788889 0.634614
Si Si3 0.644796 0.080011 0.402173
Si Si4 0.642602 0.475512 0.192996
Si Si5 0.130685 0.086890 0.383257
Si Si6 0.330030 0.844552 0.244929
Si Si7 0.879889 0.036265 0.026284
O O1 0.233031 0.556647 0.846410
O O2 0.140319 0.321409 0.571596
O O3 0.111865 0.721359 0.845245
O O4 0.000000 0.500000 0.000000
O O5 0.382875 0.767649 0.609212
O O6 0.610027 0.701058 0.394955
O O7 0.467484 0.660365 0.722448
O O8 0.541063 0.016606 0.786744
O O9 0.698134 0.159035 0.562286
O O10 0.752926 0.959015 0.165606
O O11 0.500000 0.000000 0.500000
O O12 0.655678 0.380590 0.964348
O O13 0.234784 0.961600 0.298231
O O14 0.000000 0.000000 0.500000
O O15 0.127462 0.052379 0.189112
O O16 0.000000 0.000000 0.000000
#
# Coordination Sequence:
#
# PCOD9007678 Si02
#       7
#     2   2   2   2   2   2   2
#     4  12  24  42  70 100 132 175 231 283 338 412
#     4  10  21  39  62  91 134 166 221 280 329 396
#     4  10  23  42  63  99 142 180 223 279 343 404
#     4  11  21  38  64  95 124 170 225 276 332 400
#     4  12  23  43  70  98 131 183 231 281 344 409
#     4  11  21  38  65  92 130 178 221 266 340 399
#     4  12  26  46  71 100 142 177 227 291 345 404
#
# _framework density 21.266292
#
# number of rings (size 3 to 8) (size 9 to 14) (size 15 to 20)
#    0.000    0.857    5.714    1.286    0.000    2.286 
#    0.000    2.857    0.000    0.000    0.000    0.000 
#    0.000    0.000    0.000    0.000    0.000    0.000 
#
# Total GULP energy -78057.087258 kJ/mol
# GULP energy per Si atom -5575.506233 kJ/mol
# Density = 2.121789 g / cm^3
# Si number density = 21.266292 Si / 1000 Ang^3
#
#
#
# Elastic Constant Matrix: (Units=GPa)
#
#
# Indices 1 2 3 4 5 6 
#
# 1 125.1093 10.2121 53.9503 -10.7439 0.6494 -17.3163
# 2 10.2121 37.4181 18.2271 -1.9943 0.8811 12.2376
# 3 53.9503 18.2271 152.2380 -14.0818 24.0127 4.6819
# 4 -10.7439 -1.9943 -14.0818 45.3713 2.1936 -2.3901
# 5 0.6494 0.8811 24.0127 2.1936 45.7138 -3.0231
# 6 -17.3163 12.2376 4.6819 -2.3901 -3.0231 29.1198
#
#
#
# Elastic Compliance Matrix: (Units=1/GPa)
#
#
# Indices 1 2 3 4 5 6 
#
# 1 0.011636 -0.004329 -0.004177 0.001656 0.002683 0.009825
# 2 -0.004329 0.034378 -0.002067 -0.001014 -0.000580 -0.016833
# 3 -0.004177 -0.002067 0.009394 0.001900 -0.005158 -0.003505
# 4 0.001656 -0.001014 0.001900 0.023219 -0.001930 0.002811
# 5 0.002683 -0.000580 -0.005158 -0.001930 0.024988 0.005104
# 6 0.009825 -0.016833 -0.003505 0.002811 0.005104 0.048581
#
#
# Mechanical properties :
#
#
# Convention : Reuss Voigt Hill
#
# Bulk Modulus (GPa) = 29.18693 53.28270 41.23482
# Shear Modulus (GPa) = 27.06185 39.53269 33.29727
#
# Velocity S-wave (km/s) = 3.57111 4.31622 3.96122
# Velocity P-wave (km/s) = 5.54600 7.06746 6.35245
#
# Compressibility (1/GPa) = 0.03426191
#
# Stress axis : x y z
#
# Youngs Moduli (GPa) = 85.94116 29.08851 106.45525
#
# Poissons Ratio (x) = 0.12592 0.44470
# Poissons Ratio (y) = 0.37202 0.22000
# Poissons Ratio (z) = 0.35900 0.06011
#
# Static dielectric constant tensor:
#      x y z
#    x 1.780830 -0.014720 -0.016590 
#    y -0.014720 1.837440 -0.017410 
#    z -0.016590 -0.017410 1.812600 
# 
# From -- ./inp_files/206703.got.cif
#   From: 2010.05.17/outbox.cif.g08.bks.cpg/sg2_104_cif.got.tgz:206703.got - 2010.06.03 11:33:40.
