data_PCOD9007850
_publ_section_title
;
Structure prediction by ZEFSAII (Michael W. Deem and Ramdas Pophale) SiO2 
 PCOD9007850
Probable space group: P -1
;
_chemical_formula_sum "Si O2"
_cell_formula_units_Z 16
_cell_length_a 9.368979
_cell_length_b 12.418099
_cell_length_c 11.665202
_cell_angle_alpha 37.203641
_cell_angle_beta 59.942866
_cell_angle_gamma 81.499594
_cell_volume 623.162121
_symmetry_space_group_name_H-M "P -1"
_symmetry_group_IT_number 2
_symmetry_cell_setting 'triclinic'
loop_
_space_group_symop_operation_xyz
x,y,z
-x,-y,-z
loop_
_atom_site_type_symbol
_atom_site_label
_atom_site_fract_x
_atom_site_fract_y
_atom_site_fract_z
Si Si1 0.284305 0.627769 0.466302
Si Si2 0.997532 0.501428 0.135866
Si Si3 0.310384 0.476821 0.148090
Si Si4 0.894345 0.156571 0.798247
Si Si5 0.222230 0.943772 0.470892
Si Si6 0.559317 0.918266 0.290399
Si Si7 0.014084 0.999427 0.319046
Si Si8 0.330962 0.410255 0.438052
O O1 0.161712 0.694650 0.376550
O O2 0.443324 0.823636 0.300137
O O3 0.387823 0.540370 0.418358
O O4 0.142203 0.461615 0.756888
O O5 0.203093 0.576787 0.039896
O O6 0.879750 0.253968 0.400849
O O7 0.000000 0.500000 0.000000
O O8 0.156495 0.236325 0.415556
O O9 0.354942 0.544339 0.203744
O O10 0.500000 0.500000 0.000000
O O11 0.883849 0.989410 0.850959
O O12 0.107645 0.267833 0.659655
O O13 0.762195 0.075880 0.029977
O O14 0.435962 0.992762 0.349568
O O15 0.166844 0.080598 0.294406
O O16 0.116493 0.901982 0.671366
O O17 0.571849 0.729575 0.502289
#
# Coordination Sequence:
#
# PCOD9007850 Si02
#       8
#     2   2   2   2   2   2   2   2
#     4  11  22  42  65  93 125 169 214 262 309 379
#     4  10  21  39  63  88 122 161 207 258 307 369
#     4  10  22  39  60  88 124 165 202 250 316 380
#     4  11  21  41  65  91 128 168 211 257 323 376
#     4   9  19  37  61  86 119 158 205 255 307 362
#     4  11  23  39  64  99 123 162 218 268 303 380
#     4   9  18  39  60  85 120 161 200 255 311 367
#     4  11  24  42  63  92 136 165 202 268 329 369
#
# _framework density 25.675501000000001
#
# number of rings (size 3 to 8) (size 9 to 14) (size 15 to 20)
#    0.000    1.750    5.000    1.500    3.500    2.000 
#    4.500    2.500    0.000    0.000    0.000    0.000 
#    0.000    0.000    0.000    0.000    0.000    0.000 
#
# Total GULP energy -89271.178250 kJ/mol
# GULP energy per Si atom -5579.448641 kJ/mol
# Density = 2.561706 g / cm^3
# Si number density = 25.675501 Si / 1000 Ang^3
#
#
#
# Elastic Constant Matrix: (Units=GPa)
#
#
# Indices 1 2 3 4 5 6 
#
# 1 86.1964 14.6750 13.7898 6.2825 0.3793 -20.5645
# 2 14.6750 85.2437 16.6854 30.6058 2.4580 -15.2151
# 3 13.7898 16.6854 48.3804 32.5684 -7.8470 -14.5442
# 4 6.2825 30.6058 32.5684 40.8795 -1.0356 -6.9885
# 5 0.3793 2.4580 -7.8470 -1.0356 38.0125 10.1438
# 6 -20.5645 -15.2151 -14.5442 -6.9885 10.1438 36.3323
#
#
#
# Elastic Compliance Matrix: (Units=1/GPa)
#
#
# Indices 1 2 3 4 5 6 
#
# 1 0.013943 -0.001451 -0.003964 0.003242 -0.002660 0.007064
# 2 -0.001451 0.018718 0.009403 -0.020059 -0.001782 0.007421
# 3 -0.003964 0.009403 0.056578 -0.049099 0.006264 0.013150
# 4 0.003242 -0.020059 -0.049099 0.076212 -0.004008 -0.010442
# 5 -0.002660 -0.001782 0.006264 -0.004008 0.030006 -0.008893
# 6 0.007064 0.007421 0.013150 -0.010442 -0.008893 0.040368
#
#
# Mechanical properties :
#
#
# Convention : Reuss Voigt Hill
#
# Bulk Modulus (GPa) = 10.28644 34.45786 22.37215
# Shear Modulus (GPa) = 19.21205 34.68955 26.95080
#
# Velocity S-wave (km/s) = 2.73841 3.67969 3.24338
# Velocity P-wave (km/s) = 3.74347 5.61276 4.77057
#
# Compressibility (1/GPa) = 0.09721537
#
# Stress axis : x y z
#
# Youngs Moduli (GPa) = 71.71890 53.42442 17.67479
#
# Poissons Ratio (x) = 0.07751 0.07006
# Poissons Ratio (y) = 0.10405 -0.16619
# Poissons Ratio (z) = 0.28429 -0.50234
#
# Static dielectric constant tensor:
#      x y z
#    x 2.122110 -0.145420 0.091880 
#    y -0.145420 2.196720 -0.110850 
#    z 0.091880 -0.110850 2.162920 
# 
# From -- ./inp_files/398373.got.cif
#   From: 2010.05.17/outbox.cif.g08.bks.cpg/sg2_200_cif.got.tgz:398373.got - 2010.06.03 11:33:40.
