data_PCOD9007107
_publ_section_title
;
Structure prediction by ZEFSAII (Michael W. Deem and Ramdas Pophale) SiO2 
 PCOD9007107
Probable space group: P -1
;
_chemical_formula_sum "Si O2"
_cell_formula_units_Z 16
_cell_length_a 17.441761
_cell_length_b 9.597148
_cell_length_c 8.305670
_cell_angle_alpha 46.636802
_cell_angle_beta 76.402920
_cell_angle_gamma 53.201245
_cell_volume 771.404404
_symmetry_space_group_name_H-M "P -1"
_symmetry_group_IT_number 2
_symmetry_cell_setting 'triclinic'
loop_
_space_group_symop_operation_xyz
x,y,z
-x,-y,-z
loop_
_atom_site_type_symbol
_atom_site_label
_atom_site_fract_x
_atom_site_fract_y
_atom_site_fract_z
Si Si1 0.411346 0.617397 0.321235
Si Si2 0.491875 0.172481 0.004993
Si Si3 0.081011 0.287507 0.749973
Si Si4 0.894537 0.371196 0.344727
Si Si5 0.279139 0.659669 0.606200
Si Si6 0.027546 0.853275 0.857768
Si Si7 0.560134 0.602669 0.834940
Si Si8 0.786853 0.171853 0.159688
O O1 0.500000 0.500000 0.500000
O O2 0.417252 0.814048 0.076502
O O3 0.308634 0.729219 0.376036
O O4 0.443353 0.401386 0.353385
O O5 0.385187 0.432059 0.807604
O O6 0.481147 0.168505 0.207841
O O7 0.500000 0.000000 0.000000
O O8 0.116024 0.403449 0.757843
O O9 0.000000 0.500000 0.500000
O O10 0.170187 0.065764 0.776067
O O11 0.029221 0.197151 0.950627
O O12 0.789991 0.416843 0.339038
O O13 0.948704 0.288911 0.209497
O O14 0.961430 0.137582 0.615297
O O15 0.223968 0.856005 0.621557
O O16 0.132609 0.777334 0.932530
O O17 0.500000 0.500000 0.000000
O O18 0.678230 0.396700 0.973299
#
# Coordination Sequence:
#
# PCOD9007107 Si02
#       8
#     2   2   2   2   2   2   2   2
#     4   9  18  35  58  80 114 158 197 244 306 367
#     4   9  18  36  58  84 120 154 202 256 300 369
#     4  12  24  38  61  94 122 157 216 261 303 369
#     4  10  22  40  61  86 124 162 206 261 307 378
#     4   9  20  38  56  83 118 159 203 244 319 366
#     4  10  22  42  62  84 126 167 202 255 324 368
#     4   9  19  35  60  87 115 158 202 239 312 373
#     4  10  21  39  60  83 121 165 199 253 314 368
#
# _framework density 20.741391
#
# number of rings (size 3 to 8) (size 9 to 14) (size 15 to 20)
#    0.000    2.250    1.250    1.500    1.750    2.000 
#    0.000    6.250    0.000    0.000    0.000    0.000 
#    0.000    0.000    0.000    0.000    0.000    0.000 
#
# Total GULP energy -89218.244484 kJ/mol
# GULP energy per Si atom -5576.140280 kJ/mol
# Density = 2.069418 g / cm^3
# Si number density = 20.741391 Si / 1000 Ang^3
#
#
#
# Elastic Constant Matrix: (Units=GPa)
#
#
# Indices 1 2 3 4 5 6 
#
# 1 87.6897 51.4283 17.9884 11.7928 -3.9284 3.3233
# 2 51.4283 197.9351 46.6634 22.4114 -27.0812 31.7632
# 3 17.9884 46.6634 42.8359 17.9641 -5.0875 0.6013
# 4 11.7928 22.4114 17.9641 28.3443 -0.2384 -2.4894
# 5 -3.9284 -27.0812 -5.0875 -0.2384 22.3950 6.2607
# 6 3.3233 31.7632 0.6013 -2.4894 6.2607 42.1192
#
#
#
# Elastic Compliance Matrix: (Units=1/GPa)
#
#
# Indices 1 2 3 4 5 6 
#
# 1 0.013980 -0.003954 -0.001265 -0.001716 -0.003272 0.002282
# 2 -0.003954 0.012459 -0.008279 -0.003839 0.015672 -0.011522
# 3 -0.001265 -0.008279 0.039972 -0.017834 -0.002777 0.005131
# 4 -0.001716 -0.003839 -0.017834 0.050935 -0.010656 0.007880
# 5 -0.003272 0.015672 -0.002777 -0.010656 0.068531 -0.022337
# 6 0.002282 -0.011522 0.005131 0.007880 -0.022337 0.035964
#
#
# Mechanical properties :
#
#
# Convention : Reuss Voigt Hill
#
# Bulk Modulus (GPa) = 25.37031 62.29121 43.83076
# Shear Modulus (GPa) = 19.08582 32.73040 25.90811
#
# Velocity S-wave (km/s) = 3.03674 3.97674 3.53810
# Velocity P-wave (km/s) = 4.95520 7.15427 6.15376
#
# Compressibility (1/GPa) = 0.03941615
#
# Stress axis : x y z
#
# Youngs Moduli (GPa) = 71.53215 80.26242 25.01757
#
# Poissons Ratio (x) = 0.31733 0.03164
# Poissons Ratio (y) = 0.28281 0.20712
# Poissons Ratio (z) = 0.09048 0.66448
#
# Static dielectric constant tensor:
#      x y z
#    x 1.749640 0.028670 0.020380 
#    y 0.028670 1.786410 0.055590 
#    z 0.020380 0.055590 1.809860 
# 
# From -- ./inp_files/328395.got.cif
#   From: 2010.05.17/outbox.cif.g08.bks.cpg/sg2_165_cif.got.tgz:328395.got - 2010.06.03 11:33:40.
