data_PCOD9007781
_publ_section_title
;
Structure prediction by ZEFSAII (Michael W. Deem and Ramdas Pophale) SiO2 
 PCOD9007781
Probable space group: P -1
;
_chemical_formula_sum "Si O2"
_cell_formula_units_Z 14
_cell_length_a 8.076714
_cell_length_b 17.554309
_cell_length_c 5.070806
_cell_angle_alpha 81.696388
_cell_angle_beta 120.254360
_cell_angle_gamma 122.364725
_cell_volume 516.759328
_symmetry_space_group_name_H-M "P -1"
_symmetry_group_IT_number 2
_symmetry_cell_setting 'triclinic'
loop_
_space_group_symop_operation_xyz
x,y,z
-x,-y,-z
loop_
_atom_site_type_symbol
_atom_site_label
_atom_site_fract_x
_atom_site_fract_y
_atom_site_fract_z
Si Si1 0.834888 0.244402 0.653288
Si Si2 0.308599 0.485888 0.654521
Si Si3 0.884265 0.418643 0.735188
Si Si4 0.157150 0.144481 0.280154
Si Si5 0.739794 0.686289 0.409017
Si Si6 0.454146 0.210814 0.967418
Si Si7 0.655916 0.050951 0.850343
O O1 0.819967 0.317132 0.788592
O O2 0.080509 0.281058 0.704087
O O3 0.739676 0.154096 0.789842
O O4 0.677649 0.226421 0.277737
O O5 0.333499 0.577199 0.520298
O O6 0.070121 0.443672 0.641050
O O7 0.291451 0.409285 0.482886
O O8 0.500000 0.500000 0.000000
O O9 0.000000 0.500000 0.000000
O O10 0.158057 0.233969 0.334443
O O11 0.325760 0.147412 0.640374
O O12 0.897481 0.060373 0.091116
O O13 0.272456 0.162896 0.082179
O O14 0.530629 0.693314 0.129743
O O15 0.500000 0.000000 0.500000
O O16 0.500000 0.000000 0.000000
#
# Coordination Sequence:
#
# PCOD9007781 Si02
#       7
#     2   2   2   2   2   2   2
#     4  11  23  45  70  97 141 186 229 285 355 403
#     4  10  21  39  62  96 138 180 229 276 332 403
#     4  10  24  40  61 103 137 176 232 276 333 414
#     4  10  22  44  66 100 141 169 233 279 333 413
#     4   9  21  39  68  94 145 183 227 277 343 398
#     4  10  22  41  67 106 131 183 229 280 339 411
#     4  12  25  46  73 104 133 183 229 283 353 416
#
# _framework density 27.091915
#
# number of rings (size 3 to 8) (size 9 to 14) (size 15 to 20)
#    0.857    0.857    1.429    2.571    2.000    4.000 
#    5.143    4.286    0.000    0.000    0.000    0.000 
#    0.000    0.000    0.000    0.000    0.000    0.000 
#
# Total GULP energy -78331.725135 kJ/mol
# GULP energy per Si atom -5595.123224 kJ/mol
# Density = 2.703025 g / cm^3
# Si number density = 27.091915 Si / 1000 Ang^3
#
#
#
# Elastic Constant Matrix: (Units=GPa)
#
#
# Indices 1 2 3 4 5 6 
#
# 1 102.8477 1.0095 8.1073 -10.1721 3.7695 -6.5300
# 2 1.0095 126.2315 16.0137 -19.4067 0.9340 -10.6665
# 3 8.1073 16.0137 157.3912 3.0854 10.6856 -3.1071
# 4 -10.1721 -19.4067 3.0854 49.6614 1.3682 -0.4787
# 5 3.7695 0.9340 10.6856 1.3682 52.3424 -9.5338
# 6 -6.5300 -10.6665 -3.1071 -0.4787 -9.5338 29.8400
#
#
#
# Elastic Compliance Matrix: (Units=1/GPa)
#
#
# Indices 1 2 3 4 5 6 
#
# 1 0.010152 0.000550 -0.000561 0.002359 -0.000267 0.002312
# 2 0.000550 0.008890 -0.000973 0.003666 0.000528 0.003424
# 3 -0.000561 -0.000973 0.006583 -0.000870 -0.001303 -0.000215
# 4 0.002359 0.003666 -0.000870 0.022133 -0.000271 0.002004
# 5 -0.000267 0.000528 -0.001303 -0.000271 0.020584 0.006567
# 6 0.002312 0.003424 -0.000215 0.002004 0.006567 0.037350
#
#
# Mechanical properties :
#
#
# Convention : Reuss Voigt Hill
#
# Bulk Modulus (GPa) = 42.27255 48.52573 45.39914
# Shear Modulus (GPa) = 43.27309 50.45810 46.86560
#
# Velocity S-wave (km/s) = 4.00092 4.32033 4.16369
# Velocity P-wave (km/s) = 6.08115 6.54503 6.31735
#
# Compressibility (1/GPa) = 0.02365601
#
# Stress axis : x y z
#
# Youngs Moduli (GPa) = 98.50412 112.48613 151.91220
#
# Poissons Ratio (x) = -0.06187 0.08528
# Poissons Ratio (y) = -0.05418 0.14781
# Poissons Ratio (z) = 0.05530 0.10945
#
# Static dielectric constant tensor:
#      x y z
#    x 2.093350 -0.013880 0.023190 
#    y -0.013880 2.215860 -0.045120 
#    z 0.023190 -0.045120 2.169660 
# 
# From -- ./inp_files/44432.got.cif
#   From: 2010.05.17/outbox.cif.g08.bks.cpg/sg2_23_cif.got.tgz:44432.got - 2010.06.03 11:33:40.
