data_PCOD9007689
_publ_section_title
;
Structure prediction by ZEFSAII (Michael W. Deem and Ramdas Pophale) SiO2 
 PCOD9007689
Probable space group: P -1
;
_chemical_formula_sum "Si O2"
_cell_formula_units_Z 16
_cell_length_a 8.609295
_cell_length_b 7.588316
_cell_length_c 14.147695
_cell_angle_alpha 132.432912
_cell_angle_beta 104.929676
_cell_angle_gamma 66.530385
_cell_volume 625.654578
_symmetry_space_group_name_H-M "P -1"
_symmetry_group_IT_number 2
_symmetry_cell_setting 'triclinic'
loop_
_space_group_symop_operation_xyz
x,y,z
-x,-y,-z
loop_
_atom_site_type_symbol
_atom_site_label
_atom_site_fract_x
_atom_site_fract_y
_atom_site_fract_z
Si Si1 0.538223 0.728241 0.956073
Si Si2 0.094189 0.608090 0.177725
Si Si3 0.773754 0.315853 0.208844
Si Si4 0.648423 0.021507 0.812522
Si Si5 0.076115 0.539269 0.349680
Si Si6 0.495919 0.113018 0.435042
Si Si7 0.271927 0.698961 0.590439
Si Si8 0.038500 0.820564 0.050245
O O1 0.721212 0.554892 0.889849
O O2 0.400042 0.606052 0.848364
O O3 0.500000 0.000000 0.000000
O O4 0.513021 0.822790 0.094698
O O5 0.091308 0.697940 0.316727
O O6 0.014752 0.798761 0.151896
O O7 0.986166 0.415505 0.090368
O O8 0.739242 0.227610 0.275724
O O9 0.894831 0.489859 0.305886
O O10 0.895666 0.070580 0.087773
O O11 0.765285 0.725266 0.737956
O O12 0.601248 0.026841 0.698078
O O13 0.776216 0.164200 0.915141
O O14 0.113031 0.659194 0.495860
O O15 0.395729 0.410867 0.520549
O O16 0.660425 0.121949 0.403167
O O17 0.500000 0.000000 0.500000
#
# Coordination Sequence:
#
# PCOD9007689 Si02
#       8
#     2   2   2   2   2   2   2   2
#     4  12  21  35  67  94 120 165 221 264 316 394
#     4  11  23  39  61  94 126 169 211 267 331 379
#     4  11  22  41  66  94 128 174 219 264 324 395
#     4  10  21  39  62  92 124 168 212 260 326 391
#     4  10  21  40  64  87 129 171 214 261 325 388
#     4  10  23  41  66  98 136 169 214 277 333 380
#     4  10  23  41  67  95 130 176 224 265 323 398
#     4  10  23  40  60  87 136 161 207 267 332 382
#
# _framework density 25.573215000000001
#
# number of rings (size 3 to 8) (size 9 to 14) (size 15 to 20)
#    0.000    1.500    2.500    1.875    5.250    2.500 
#    2.250    0.625    0.000    0.000    0.000    0.000 
#    0.000    0.000    0.000    0.000    0.000    0.000 
#
# Total GULP energy -89379.440937 kJ/mol
# GULP energy per Si atom -5586.215059 kJ/mol
# Density = 2.551501 g / cm^3
# Si number density = 25.573215 Si / 1000 Ang^3
#
#
#
# Elastic Constant Matrix: (Units=GPa)
#
#
# Indices 1 2 3 4 5 6 
#
# 1 84.0756 28.6985 48.4760 -1.4816 9.5116 3.8014
# 2 28.6985 103.0274 29.4979 -23.9266 -0.4605 9.9065
# 3 48.4760 29.4979 119.1738 -48.9962 3.5647 4.1388
# 4 -1.4816 -23.9266 -48.9962 44.1802 5.7594 -16.3645
# 5 9.5116 -0.4605 3.5647 5.7594 34.2349 -6.0413
# 6 3.8014 9.9065 4.1388 -16.3645 -6.0413 30.8185
#
#
#
# Elastic Compliance Matrix: (Units=1/GPa)
#
#
# Indices 1 2 3 4 5 6 
#
# 1 0.028662 -0.007820 -0.023663 -0.035557 -0.002666 -0.017247
# 2 -0.007820 0.013290 0.005871 0.014857 -0.000093 0.003774
# 3 -0.023663 0.005871 0.037720 0.053330 -0.002031 0.023886
# 4 -0.035557 0.014857 0.053330 0.107207 -0.004969 0.048400
# 5 -0.002666 -0.000093 -0.002031 -0.004969 0.031741 0.004215
# 6 -0.017247 0.003774 0.023886 0.048400 0.004215 0.056681
#
#
# Mechanical properties :
#
#
# Convention : Reuss Voigt Hill
#
# Bulk Modulus (GPa) = 35.15140 57.73571 46.44356
# Shear Modulus (GPa) = 14.88064 35.15369 25.01717
#
# Velocity S-wave (km/s) = 2.41484 3.71162 3.13110
# Velocity P-wave (km/s) = 4.64226 6.40264 5.59215
#
# Compressibility (1/GPa) = 0.02844837
#
# Stress axis : x y z
#
# Youngs Moduli (GPa) = 34.88982 75.24249 26.51107
#
# Poissons Ratio (x) = 0.58839 0.62733
# Poissons Ratio (y) = 0.27284 -0.15565
# Poissons Ratio (z) = 0.82560 -0.44175
#
# Static dielectric constant tensor:
#      x y z
#    x 2.198470 0.016500 -0.056570 
#    y 0.016500 2.060010 -0.000370 
#    z -0.056570 -0.000370 1.984050 
# 
# From -- ./inp_files/495760.got.cif
#   From: 2010.05.17/outbox.cif.g08.bks.cpg/sg2_248_cif.got.tgz:495760.got - 2010.06.03 11:33:40.
