data_PCOD9007012
_publ_section_title
;
Structure prediction by ZEFSAII (Michael W. Deem and Ramdas Pophale) SiO2 
 PCOD9007012
Probable space group: P -1
;
_chemical_formula_sum "Si O2"
_cell_formula_units_Z 14
_cell_length_a 8.452828
_cell_length_b 12.749773
_cell_length_c 9.437503
_cell_angle_alpha 129.013973
_cell_angle_beta 59.632888
_cell_angle_gamma 111.949774
_cell_volume 679.507614
_symmetry_space_group_name_H-M "P -1"
_symmetry_group_IT_number 2
_symmetry_cell_setting 'triclinic'
loop_
_space_group_symop_operation_xyz
x,y,z
-x,-y,-z
loop_
_atom_site_type_symbol
_atom_site_label
_atom_site_fract_x
_atom_site_fract_y
_atom_site_fract_z
Si Si1 0.105365 0.370061 0.887890
Si Si2 0.707640 0.039475 0.893203
Si Si3 0.954006 0.795275 0.637892
Si Si4 0.194317 0.799524 0.275873
Si Si5 0.314013 0.463602 0.463317
Si Si6 0.081726 0.717806 0.821674
Si Si7 0.556284 0.452420 0.086450
O O1 0.313999 0.419550 0.803395
O O2 0.003136 0.245223 0.745827
O O3 0.000000 0.500000 0.000000
O O4 0.070638 0.340155 0.044399
O O5 0.721202 0.076430 0.751443
O O6 0.834915 0.920815 0.771926
O O7 0.788210 0.171785 0.056360
O O8 0.500000 0.000000 0.000000
O O9 0.829461 0.660182 0.530042
O O10 0.139858 0.816008 0.477353
O O11 0.002469 0.777735 0.765972
O O12 0.325254 0.677355 0.091245
O O13 0.500000 0.500000 0.500000
O O14 0.200855 0.594797 0.621597
O O15 0.387214 0.423467 0.242637
O O16 0.500000 0.500000 0.000000
#
# Coordination Sequence:
#
# PCOD9007012 Si02
#       7
#     2   2   2   2   2   2   2
#     4   9  18  35  55  78 115 156 189 228 286 353
#     4  11  24  43  63  85 118 159 201 247 299 357
#     4  12  23  40  62  89 119 158 201 246 296 356
#     4  10  21  39  59  82 116 159 198 236 292 363
#     4  12  22  36  61  92 120 154 196 245 294 347
#     4  11  23  40  61  89 121 157 199 247 298 353
#     4  11  20  33  55  89 121 149 189 247 296 337
#
# _framework density 20.603155000000001
#
# number of rings (size 3 to 8) (size 9 to 14) (size 15 to 20)
#    0.000    1.143    0.000    9.857    0.000    0.000 
#    0.000    0.714    0.000    0.000    0.000    0.000 
#    0.000    0.000    0.000    0.000    0.000    0.000 
#
# Total GULP energy -78235.769751 kJ/mol
# GULP energy per Si atom -5588.269268 kJ/mol
# Density = 2.055626 g / cm^3
# Si number density = 20.603155 Si / 1000 Ang^3
#
#
#
# Elastic Constant Matrix: (Units=GPa)
#
#
# Indices 1 2 3 4 5 6 
#
# 1 36.4187 37.2581 9.9778 -7.1827 1.3386 -6.7610
# 2 37.2581 143.2214 49.9202 -30.9661 -15.0985 -10.7005
# 3 9.9778 49.9202 90.5220 -15.7089 -18.9017 -12.4258
# 4 -7.1827 -30.9661 -15.7089 42.3237 -12.0524 3.8934
# 5 1.3386 -15.0985 -18.9017 -12.0524 32.3123 -1.6049
# 6 -6.7610 -10.7005 -12.4258 3.8934 -1.6049 43.8353
#
#
#
# Elastic Compliance Matrix: (Units=1/GPa)
#
#
# Indices 1 2 3 4 5 6 
#
# 1 0.039850 -0.012158 0.000012 -0.005002 -0.009027 0.003296
# 2 -0.012158 0.014276 -0.002848 0.009927 0.009224 0.000258
# 3 0.000012 -0.002848 0.016692 0.006955 0.011217 0.003831
# 4 -0.005002 0.009927 0.006955 0.039253 0.023605 0.001001
# 5 -0.009027 0.009224 0.011217 0.023605 0.051188 0.003816
# 6 0.003296 0.000258 0.003831 0.001001 0.003816 0.024521
#
#
# Mechanical properties :
#
#
# Convention : Reuss Voigt Hill
#
# Bulk Modulus (GPa) = 24.49252 51.60826 38.05039
# Shear Modulus (GPa) = 21.79811 35.22801 28.51306
#
# Velocity S-wave (km/s) = 3.25622 4.13950 3.72414
# Velocity P-wave (km/s) = 5.10400 6.92462 6.08281
#
# Compressibility (1/GPa) = 0.04082880
#
# Stress axis : x y z
#
# Youngs Moduli (GPa) = 25.09397 70.04869 59.91033
#
# Poissons Ratio (x) = 0.85162 -0.00070
# Poissons Ratio (y) = 0.30508 0.17065
# Poissons Ratio (z) = -0.00029 0.19953
#
# Static dielectric constant tensor:
#      x y z
#    x 1.738260 0.002350 0.057310 
#    y 0.002350 1.750370 -0.033940 
#    z 0.057310 -0.033940 1.770480 
# 
# From -- ./inp_files/158112.got.cif
#   From: 2010.05.17/outbox.cif.g08.bks.cpg/sg2_80_cif.got.tgz:158112.got - 2010.06.03 11:33:40.
