data_PCOD9007843
_publ_section_title
;
Structure prediction by ZEFSAII (Michael W. Deem and Ramdas Pophale) SiO2 
 PCOD9007843
Probable space group: P -1
;
_chemical_formula_sum "Si O2"
_cell_formula_units_Z 16
_cell_length_a 21.847636
_cell_length_b 22.000807
_cell_length_c 8.171102
_cell_angle_alpha 46.808493
_cell_angle_beta 42.618879
_cell_angle_gamma 17.780406
_cell_volume 809.586232
_symmetry_space_group_name_H-M "P -1"
_symmetry_group_IT_number 2
_symmetry_cell_setting 'triclinic'
loop_
_space_group_symop_operation_xyz
x,y,z
-x,-y,-z
loop_
_atom_site_type_symbol
_atom_site_label
_atom_site_fract_x
_atom_site_fract_y
_atom_site_fract_z
Si Si1 0.506986 0.004518 0.669990
Si Si2 0.224250 0.915687 0.396792
Si Si3 0.421184 0.906696 0.208617
Si Si4 0.197311 0.393107 0.744625
Si Si5 0.793369 0.198276 0.873361
Si Si6 0.044462 0.102330 0.045198
Si Si7 0.378895 0.620976 0.753004
Si Si8 0.898768 0.771663 0.469269
O O1 0.345341 0.211037 0.673717
O O2 0.500000 0.000000 0.500000
O O3 0.744841 0.832821 0.574682
O O4 0.445444 0.969830 0.939618
O O5 0.139240 0.004355 0.218284
O O6 0.010968 0.066091 0.641780
O O7 0.344905 0.893691 0.274495
O O8 0.384719 0.702766 0.493299
O O9 0.646804 0.707349 0.229944
O O10 0.234927 0.080528 0.386959
O O11 0.105514 0.549372 0.540071
O O12 0.000000 0.500000 0.000000
O O13 0.605181 0.387943 0.773662
O O14 0.835784 0.064926 0.001440
O O15 0.719769 0.277605 0.057526
O O16 0.792776 0.290525 0.170833
O O17 0.068897 0.177241 0.806890
#
# Coordination Sequence:
#
# PCOD9007843 Si02
#       8
#     2   2   2   2   2   2   2   2
#     4  11  23  40  64  93 127 158 197 260 318 363
#     4  11  23  38  58  91 124 160 199 252 311 357
#     4  11  22  40  64  87 122 161 208 252 305 372
#     4  11  21  43  66  90 117 167 211 251 302 371
#     4  10  21  40  63  86 120 161 206 250 300 363
#     4  11  23  38  60  89 126 160 197 255 310 358
#     4  10  21  39  63  88 117 163 209 247 298 367
#     4  11  22  41  64  88 121 162 210 250 304 372
#
# _framework density 19.763180999999999
#
# number of rings (size 3 to 8) (size 9 to 14) (size 15 to 20)
#    0.000    1.250    2.500    6.000    0.000    7.500 
#    0.000    1.250    0.000    0.000    0.000    0.000 
#    0.000    0.000    0.000    0.000    0.000    0.000 
#
# Total GULP energy -89439.854673 kJ/mol
# GULP energy per Si atom -5589.990917 kJ/mol
# Density = 1.971820 g / cm^3
# Si number density = 19.763181 Si / 1000 Ang^3
#
#
#
# Elastic Constant Matrix: (Units=GPa)
#
#
# Indices 1 2 3 4 5 6 
#
# 1 1178.2888 395.4113 302.1089 -447.1796 -596.6401 -244.2958
# 2 395.4113 231.1652 121.3446 -180.9391 -201.6208 -103.3055
# 3 302.1089 121.3446 181.3537 -147.5971 -154.6624 -62.4716
# 4 -447.1796 -180.9391 -147.5971 213.4278 244.0394 102.7995
# 5 -596.6401 -201.6208 -154.6624 244.0394 371.3165 119.0498
# 6 -244.2958 -103.3055 -62.4716 102.7995 119.0498 67.1460
#
#
#
# Elastic Compliance Matrix: (Units=1/GPa)
#
#
# Indices 1 2 3 4 5 6 
#
# 1 0.008764 0.000706 -0.002309 0.000589 0.008164 0.015447
# 2 0.000706 0.016095 -0.000876 0.007092 -0.000400 0.016366
# 3 -0.002309 -0.000876 0.014312 0.014405 -0.004089 -0.011236
# 4 0.000589 0.007092 0.014405 0.050319 -0.014034 -0.025698
# 5 0.008164 -0.000400 -0.004089 -0.014034 0.018815 0.013411
# 6 0.015447 0.016366 -0.011236 -0.025698 0.013411 0.101384
#
#
# Mechanical properties :
#
#
# Convention : Reuss Voigt Hill
#
# Bulk Modulus (GPa) = 29.22929 358.72637 193.97783
# Shear Modulus (GPa) = 22.11890 181.84091 101.97991
#
# Velocity S-wave (km/s) = 3.34907 9.60259 7.19117
# Velocity P-wave (km/s) = 5.45682 17.46003 12.93502
#
# Compressibility (1/GPa) = 0.03421226
#
# Stress axis : x y z
#
# Youngs Moduli (GPa) = 114.10684 62.13242 69.86905
#
# Poissons Ratio (x) = -0.04386 0.16131
# Poissons Ratio (y) = -0.08054 0.06123
# Poissons Ratio (z) = 0.26345 0.05445
#
# Static dielectric constant tensor:
#      x y z
#    x 1.671020 0.008020 -0.016500 
#    y 0.008020 1.691050 0.020080 
#    z -0.016500 0.020080 1.666930 
# 
# From -- ./inp_files/349690.got.cif
#   From: 2010.05.17/outbox.cif.g08.bks.cpg/sg2_175_cif.got.tgz:349690.got - 2010.06.03 11:33:40.
