data_PCOD9007705
_publ_section_title
;
Structure prediction by ZEFSAII (Michael W. Deem and Ramdas Pophale) SiO2 
 PCOD9007705
Probable space group: P -1
;
_chemical_formula_sum "Si O2"
_cell_formula_units_Z 15
_cell_length_a 6.334116
_cell_length_b 7.814541
_cell_length_c 22.330529
_cell_angle_alpha 132.149774
_cell_angle_beta 75.835387
_cell_angle_gamma 124.907231
_cell_volume 654.157907
_symmetry_space_group_name_H-M "P -1"
_symmetry_group_IT_number 2
_symmetry_cell_setting 'triclinic'
loop_
_space_group_symop_operation_xyz
x,y,z
-x,-y,-z
loop_
_atom_site_type_symbol
_atom_site_label
_atom_site_fract_x
_atom_site_fract_y
_atom_site_fract_z
Si Si1 0.543298 0.357997 0.634337
Si Si2 0.386030 0.127834 0.467492
Si Si3 0.821254 0.344024 0.804205
Si Si4 0.000000 0.500000 0.500000
Si Si5 0.614818 0.280421 0.094361
Si Si6 0.612756 0.693547 0.097024
Si Si7 0.185574 0.257945 0.195473
Si Si8 0.016469 0.010678 0.355137
O O1 0.403772 0.296986 0.565079
O O2 0.755357 0.653440 0.718689
O O3 0.292460 0.221339 0.665007
O O4 0.663465 0.169140 0.579675
O O5 0.680534 0.303683 0.462127
O O6 0.171446 0.078650 0.423605
O O7 0.595132 0.250772 0.846969
O O8 0.774684 0.476746 0.780587
O O9 0.097407 0.597165 0.871557
O O10 0.863741 0.108275 0.724542
O O11 0.958786 0.705213 0.593541
O O12 0.640267 0.512465 0.102734
O O13 0.405180 0.217437 0.145214
O O14 0.500000 0.000000 0.000000
O O15 0.500000 0.500000 0.000000
O O16 0.896357 0.983719 0.137741
#
# Coordination Sequence:
#
# PCOD9007705 Si02
#       8
#     2   2   2   1   2   2   2   2
#     4  10  21  39  64  92 125 174 231 275 334 402
#     4  10  21  39  62  92 129 173 221 281 335 399
#     4  11  24  43  70  99 135 184 225 286 345 413
#     4  10  24  38  60  90 132 172 224 284 338 402
#     4  11  24  44  70  98 138 180 219 280 354 412
#     4  11  26  45  69 106 138 174 231 286 346 422
#     4  11  23  44  68  99 138 179 230 287 337 412
#     4  11  21  42  64  91 134 178 232 275 350 396
#
# _framework density 22.930242
#
# number of rings (size 3 to 8) (size 9 to 14) (size 15 to 20)
#    0.000    1.333    2.667    2.400    0.000    7.467 
#    2.400    0.000    0.000    0.000    0.000    0.000 
#    0.000    0.000    0.000    0.000    0.000    0.000 
#
# Total GULP energy -83635.473772 kJ/mol
# GULP energy per Si atom -5575.698251 kJ/mol
# Density = 2.287805 g / cm^3
# Si number density = 22.930242 Si / 1000 Ang^3
#
#
#
# Elastic Constant Matrix: (Units=GPa)
#
#
# Indices 1 2 3 4 5 6 
#
# 1 51.7964 13.4557 9.4355 -6.5259 14.2656 11.8363
# 2 13.4557 52.9103 16.2310 -3.4451 5.8254 6.0471
# 3 9.4355 16.2310 146.1957 -11.1577 10.0675 -2.4559
# 4 -6.5259 -3.4451 -11.1577 34.8591 3.9291 3.5315
# 5 14.2656 5.8254 10.0675 3.9291 52.2158 5.9147
# 6 11.8363 6.0471 -2.4559 3.5315 5.9147 31.2723
#
#
#
# Elastic Compliance Matrix: (Units=1/GPa)
#
#
# Indices 1 2 3 4 5 6 
#
# 1 0.024577 -0.004210 -0.000445 0.005498 -0.005658 -0.008074
# 2 -0.004210 0.021010 -0.001989 0.000984 -0.000587 -0.002626
# 3 -0.000445 -0.001989 0.007365 0.002115 -0.001366 0.001151
# 4 0.005498 0.000984 0.002115 0.031421 -0.003826 -0.004930
# 5 -0.005658 -0.000587 -0.001366 -0.003826 0.021482 -0.001483
# 6 -0.008074 -0.002626 0.001151 -0.004930 -0.001483 0.036468
#
#
# Mechanical properties :
#
#
# Convention : Reuss Voigt Hill
#
# Bulk Modulus (GPa) = 25.21299 36.57187 30.89243
# Shear Modulus (GPa) = 29.61515 37.78810 33.70163
#
# Velocity S-wave (km/s) = 3.59769 4.06391 3.83789
# Velocity P-wave (km/s) = 5.31763 6.16476 5.75680
#
# Compressibility (1/GPa) = 0.03966210
#
# Stress axis : x y z
#
# Youngs Moduli (GPa) = 40.68804 47.59733 135.78591
#
# Poissons Ratio (x) = 0.20038 0.06045
# Poissons Ratio (y) = 0.17130 0.27014
# Poissons Ratio (z) = 0.01811 0.09469
#
# Static dielectric constant tensor:
#      x y z
#    x 2.015880 0.003670 -0.040740 
#    y 0.003670 1.979920 -0.012140 
#    z -0.040740 -0.012140 1.835610 
# 
# From -- ./inp_files/585401.got.cif
#   From: 2010.05.17/outbox.cif.g08.bks.cpg/sg2_293_cif.got.tgz:585401.got - 2010.06.03 11:33:40.
