data_PCOD9007431
_publ_section_title
;
Structure prediction by ZEFSAII (Michael W. Deem and Ramdas Pophale) SiO2 
 PCOD9007431
Probable space group: P -1
;
_chemical_formula_sum "Si O2"
_cell_formula_units_Z 15
_cell_length_a 5.355318
_cell_length_b 24.447908
_cell_length_c 18.226466
_cell_angle_alpha 158.639566
_cell_angle_beta 60.791644
_cell_angle_gamma 107.563760
_cell_volume 665.426214
_symmetry_space_group_name_H-M "P -1"
_symmetry_group_IT_number 2
_symmetry_cell_setting 'triclinic'
loop_
_space_group_symop_operation_xyz
x,y,z
-x,-y,-z
loop_
_atom_site_type_symbol
_atom_site_label
_atom_site_fract_x
_atom_site_fract_y
_atom_site_fract_z
Si Si1 0.000000 0.500000 0.000000
Si Si2 0.509534 0.326433 0.062291
Si Si3 0.590521 0.047889 0.807401
Si Si4 0.276663 0.203870 0.797642
Si Si5 0.748720 0.252085 0.696604
Si Si6 0.215940 0.728830 0.599544
Si Si7 0.547453 0.012020 0.093760
Si Si8 0.370035 0.775067 0.484710
O O1 0.829642 0.380388 0.888376
O O2 0.247678 0.358229 0.726642
O O3 0.338098 0.531403 0.349577
O O4 0.454832 0.234753 0.026793
O O5 0.375263 0.265119 0.935230
O O6 0.896663 0.261933 0.919586
O O7 0.637763 0.025382 0.860501
O O8 0.368318 0.957235 0.708524
O O9 0.939060 0.935028 0.576373
O O10 0.404471 0.276382 0.804064
O O11 0.500000 0.000000 0.500000
O O12 0.696639 0.282579 0.655865
O O13 0.147979 0.762518 0.564051
O O14 0.464749 0.805742 0.666516
O O15 0.919291 0.854115 0.850410
O O16 0.500000 0.000000 0.000000
#
# Coordination Sequence:
#
# PCOD9007431 Si02
#       8
#     1   2   2   2   2   2   2   2
#     4  10  22  34  54  96 130 174 226 282 334 404
#     4  12  27  46  69 109 140 189 237 290 345 424
#     4  10  23  41  67  96 133 177 236 284 349 418
#     4  12  26  44  71  98 153 192 237 277 352 418
#     4  11  22  38  64  94 136 189 232 287 342 413
#     4  10  24  43  68 102 136 178 233 295 353 425
#     4  10  22  46  74  98 134 178 229 296 368 420
#     4  10  21  39  61  92 134 178 231 279 350 407
#
# _framework density 22.541943
#
# number of rings (size 3 to 8) (size 9 to 14) (size 15 to 20)
#    0.000    1.333    1.333    3.200    7.467    0.533 
#    2.400    0.667    0.000    0.000    0.000    0.000 
#    0.000    0.000    0.000    0.000    0.000    0.000 
#
# Total GULP energy -83524.001769 kJ/mol
# GULP energy per Si atom -5568.266785 kJ/mol
# Density = 2.249064 g / cm^3
# Si number density = 22.541943 Si / 1000 Ang^3
#
#
#
# Elastic Constant Matrix: (Units=GPa)
#
#
# Indices 1 2 3 4 5 6 
#
# 1 81.2375 35.1422 20.6769 1.1081 13.7497 -3.5229
# 2 35.1422 114.9071 58.0965 13.4320 19.0176 10.0672
# 3 20.6769 58.0965 133.0739 27.9217 19.5623 4.3330
# 4 1.1081 13.4320 27.9217 35.7128 3.1345 -2.9820
# 5 13.7497 19.0176 19.5623 3.1345 28.5631 -14.4618
# 6 -3.5229 10.0672 4.3330 -2.9820 -14.4618 33.8985
#
#
#
# Elastic Compliance Matrix: (Units=1/GPa)
#
#
# Indices 1 2 3 4 5 6 
#
# 1 0.014823 -0.004053 -0.000432 0.001839 -0.003626 0.001414
# 2 -0.004053 0.014197 -0.003465 -0.002401 -0.009050 -0.008267
# 3 -0.000432 -0.003465 0.011849 -0.007691 -0.006846 -0.004128
# 4 0.001839 -0.002401 -0.007691 0.034965 0.005940 0.007497
# 5 -0.003626 -0.009050 -0.006846 0.005940 0.062113 0.030207
# 6 0.001414 -0.008267 -0.004128 0.007497 0.030207 0.046176
#
#
# Mechanical properties :
#
#
# Convention : Reuss Voigt Hill
#
# Bulk Modulus (GPa) = 40.05177 61.89441 50.97309
# Shear Modulus (GPa) = 23.99844 33.98842 28.99343
#
# Velocity S-wave (km/s) = 3.26638 3.88723 3.59025
# Velocity P-wave (km/s) = 5.65967 6.90395 6.31254
#
# Compressibility (1/GPa) = 0.02496769
#
# Stress axis : x y z
#
# Youngs Moduli (GPa) = 67.46211 70.43767 84.39502
#
# Poissons Ratio (x) = 0.28552 0.03649
# Poissons Ratio (y) = 0.27346 0.29241
# Poissons Ratio (z) = 0.02917 0.24405
#
# Static dielectric constant tensor:
#      x y z
#    x 2.469270 -0.026730 -0.032270 
#    y -0.026730 1.924900 0.011350 
#    z -0.032270 0.011350 1.896200 
# 
# From -- ./inp_files/65987.got.cif
#   From: 2010.05.17/outbox.cif.g08.bks.cpg/sg2_33_cif.got.tgz:65987.got - 2010.06.03 11:33:40.
