data_PCOD9007091
_publ_section_title
;
Structure prediction by ZEFSAII (Michael W. Deem and Ramdas Pophale) SiO2 
 PCOD9007091
Probable space group: P -1
;
_chemical_formula_sum "Si O2"
_cell_formula_units_Z 16
_cell_length_a 14.465126
_cell_length_b 14.463159
_cell_length_c 8.771374
_cell_angle_alpha 76.553349
_cell_angle_beta 47.403466
_cell_angle_gamma 40.162627
_cell_volume 697.224832
_symmetry_space_group_name_H-M "P -1"
_symmetry_group_IT_number 2
_symmetry_cell_setting 'triclinic'
loop_
_space_group_symop_operation_xyz
x,y,z
-x,-y,-z
loop_
_atom_site_type_symbol
_atom_site_label
_atom_site_fract_x
_atom_site_fract_y
_atom_site_fract_z
Si Si1 0.306549 0.413375 0.454888
Si Si2 0.427249 0.317486 0.689506
Si Si3 0.596089 0.014899 0.504685
Si Si4 0.023406 0.210812 0.387858
Si Si5 0.272161 0.199092 0.278894
Si Si6 0.071659 0.995004 0.590418
Si Si7 0.101267 0.470873 0.219868
Si Si8 0.204013 0.988318 0.973116
O O1 0.399882 0.381672 0.531019
O O2 0.523204 0.214918 0.216905
O O3 0.209130 0.574460 0.435141
O O4 0.087416 0.479198 0.668503
O O5 0.427956 0.205505 0.683215
O O6 0.660502 0.188293 0.577866
O O7 0.199167 0.480789 0.983816
O O8 0.642348 0.916667 0.631776
O O9 0.500000 0.000000 0.500000
O O10 0.783958 0.958785 0.217554
O O11 0.239606 0.144115 0.202484
O O12 0.022740 0.136965 0.556472
O O13 0.079871 0.126955 0.194303
O O14 0.323790 0.266469 0.114570
O O15 0.019212 0.395680 0.559538
O O16 0.000000 0.000000 0.500000
O O17 0.922703 0.032861 0.867874
#
# Coordination Sequence:
#
# PCOD9007091 Si02
#       8
#     2   2   2   2   2   2   2   2
#     4  10  23  42  65 105 134 179 225 274 355 406
#     4  11  23  42  69  99 138 181 220 284 347 397
#     4  11  24  38  63 104 126 174 225 269 343 412
#     4  10  22  43  69  97 130 182 229 276 339 400
#     4  10  21  39  59  98 129 171 229 257 348 403
#     4  10  23  45  69  98 132 185 237 275 336 400
#     4  10  23  40  65  97 145 170 217 297 330 413
#     4  10  24  44  70  92 145 173 226 290 327 394
#
# _framework density 22.948119999999999
#
# number of rings (size 3 to 8) (size 9 to 14) (size 15 to 20)
#    0.000    1.750    1.250    1.875    5.250   11.000 
#    0.000    3.750    0.000    0.000    0.000    0.000 
#    0.000    0.000    0.000    0.000    0.000    0.000 
#
# Total GULP energy -89103.178104 kJ/mol
# GULP energy per Si atom -5568.948632 kJ/mol
# Density = 2.289589 g / cm^3
# Si number density = 22.948120 Si / 1000 Ang^3
#
#
#
# Elastic Constant Matrix: (Units=GPa)
#
#
# Indices 1 2 3 4 5 6 
#
# 1 70.6591 12.8951 16.6110 -10.1448 -2.9026 -18.8973
# 2 12.8951 109.2782 16.4423 -15.8927 -7.0939 -6.3388
# 3 16.6110 16.4423 74.4388 -18.0345 -4.6567 4.6044
# 4 -10.1448 -15.8927 -18.0345 29.3961 2.0255 -4.8406
# 5 -2.9026 -7.0939 -4.6567 2.0255 37.8834 0.3798
# 6 -18.8973 -6.3388 4.6044 -4.8406 0.3798 25.2997
#
#
#
# Elastic Compliance Matrix: (Units=1/GPa)
#
#
# Indices 1 2 3 4 5 6 
#
# 1 0.020984 0.000350 -0.003909 0.007954 0.000587 0.017986
# 2 0.000350 0.010443 -0.001187 0.005619 0.001494 0.004146
# 3 -0.003909 -0.001187 0.016735 0.007393 0.001189 -0.004866
# 4 0.007954 0.005619 0.007393 0.046806 -0.000082 0.014960
# 5 0.000587 0.001494 0.001189 -0.000082 0.026870 0.000178
# 6 0.017986 0.004146 -0.004866 0.014960 0.000178 0.057744
#
#
# Mechanical properties :
#
#
# Convention : Reuss Voigt Hill
#
# Bulk Modulus (GPa) = 25.85896 38.47477 32.16686
# Shear Modulus (GPa) = 24.75719 32.41103 28.58411
#
# Velocity S-wave (km/s) = 3.28812 3.76222 3.53313
# Velocity P-wave (km/s) = 5.07036 5.97283 5.54001
#
# Compressibility (1/GPa) = 0.03867132
#
# Stress axis : x y z
#
# Youngs Moduli (GPa) = 47.65614 95.75954 59.75632
#
# Poissons Ratio (x) = -0.03353 0.23356
# Poissons Ratio (y) = -0.01669 0.07090
# Poissons Ratio (z) = 0.18626 0.11362
#
# Static dielectric constant tensor:
#      x y z
#    x 1.822410 -0.259390 0.088340 
#    y -0.259390 1.411150 0.329400 
#    z 0.088340 0.329400 1.733320 
# 
# From -- ./inp_files/315053.got.cif
#   From: 2010.05.17/outbox.cif.g08.bks.cpg/sg2_158_cif.got.tgz:315053.got - 2010.06.03 11:33:40.
