data_PCOD9007434
_publ_section_title
;
Structure prediction by ZEFSAII (Michael W. Deem and Ramdas Pophale) SiO2 
 PCOD9007434
Probable space group: P -1
;
_chemical_formula_sum "Si O2"
_cell_formula_units_Z 12
_cell_length_a 5.470136
_cell_length_b 16.340745
_cell_length_c 7.336850
_cell_angle_alpha 123.469597
_cell_angle_beta 120.092860
_cell_angle_gamma 82.397475
_cell_volume 463.781869
_symmetry_space_group_name_H-M "P -1"
_symmetry_group_IT_number 2
_symmetry_cell_setting 'triclinic'
loop_
_space_group_symop_operation_xyz
x,y,z
-x,-y,-z
loop_
_atom_site_type_symbol
_atom_site_label
_atom_site_fract_x
_atom_site_fract_y
_atom_site_fract_z
Si Si1 0.436602 0.705931 0.919971
Si Si2 0.054436 0.799183 0.382273
Si Si3 0.280715 0.611475 0.350379
Si Si4 0.043878 0.849615 0.873001
Si Si5 0.441060 0.050852 0.227012
Si Si6 0.768180 0.497684 0.250468
O O1 0.416467 0.659251 0.652210
O O2 0.173324 0.763740 0.910478
O O3 0.403558 0.616099 0.940922
O O4 0.738445 0.780241 0.157291
O O5 0.177901 0.697605 0.300442
O O6 0.050000 0.826534 0.629637
O O7 0.274547 0.893594 0.497496
O O8 0.532070 0.563733 0.294085
O O9 0.982656 0.537664 0.214163
O O10 0.718840 0.861110 0.788871
O O11 0.230366 0.958932 0.131250
O O12 0.500000 0.000000 0.000000
O O13 0.000000 0.500000 0.500000
#
# Coordination Sequence:
#
# PCOD9007434 Si02
#       6
#     2   2   2   2   2   2
#     4  10  21  39  61  93 120 160 210 255 304 365
#     4  10  22  37  61  94 119 160 209 254 307 366
#     4  10  23  42  63  87 133 170 205 254 309 367
#     4   9  20  41  61  85 121 162 197 255 314 374
#     4   9  19  40  63  82 121 160 197 250 322 372
#     4  10  21  41  63  89 127 173 208 249 311 368
#
# _framework density 25.874231999999999
#
# number of rings (size 3 to 8) (size 9 to 14) (size 15 to 20)
#    0.000    2.333    0.000    2.000    7.000    2.000 
#   12.000    7.500    0.000    0.000    0.000    0.000 
#    0.000    0.000    0.000    0.000    0.000    0.000 
#
# Total GULP energy -67170.313575 kJ/mol
# GULP energy per Si atom -5597.526131 kJ/mol
# Density = 2.581534 g / cm^3
# Si number density = 25.874232 Si / 1000 Ang^3
#
#
#
# Elastic Constant Matrix: (Units=GPa)
#
#
# Indices 1 2 3 4 5 6 
#
# 1 137.7030 44.5558 47.3077 5.7984 -2.9452 -34.7398
# 2 44.5558 93.3468 22.1834 4.8096 -21.4889 -34.2515
# 3 47.3077 22.1834 104.1072 -6.1347 23.6373 2.6004
# 4 5.7984 4.8096 -6.1347 29.6333 5.2986 4.3717
# 5 -2.9452 -21.4889 23.6373 5.2986 47.7618 4.4984
# 6 -34.7398 -34.2515 2.6004 4.3717 4.4984 50.5241
#
#
#
# Elastic Compliance Matrix: (Units=1/GPa)
#
#
# Indices 1 2 3 4 5 6 
#
# 1 0.012320 0.000724 -0.007391 -0.006269 0.004546 0.009480
# 2 0.000724 0.022154 -0.009311 -0.010531 0.014316 0.015632
# 3 -0.007391 -0.009311 0.019143 0.011248 -0.014228 -0.012086
# 4 -0.006269 -0.010531 0.011248 0.043690 -0.014168 -0.014548
# 5 0.004546 0.014316 -0.014228 -0.014168 0.035174 0.011657
# 6 0.009480 0.015632 -0.012086 -0.014548 0.011657 0.037751
#
#
# Mechanical properties :
#
#
# Convention : Reuss Voigt Hill
#
# Bulk Modulus (GPa) = 46.16592 62.58341 54.37466
# Shear Modulus (GPa) = 23.87684 40.32451 32.10067
#
# Velocity S-wave (km/s) = 3.04106 3.95204 3.52610
# Velocity P-wave (km/s) = 5.49654 6.71304 6.13502
#
# Compressibility (1/GPa) = 0.02166100
#
# Stress axis : x y z
#
# Youngs Moduli (GPa) = 81.17115 45.13836 52.23799
#
# Poissons Ratio (x) = -0.03268 0.38608
# Poissons Ratio (y) = -0.05876 0.48639
# Poissons Ratio (z) = 0.59992 0.42029
#
# Static dielectric constant tensor:
#      x y z
#    x 2.087440 0.062880 -0.014020 
#    y 0.062880 2.000670 0.017590 
#    z -0.014020 0.017590 2.088020 
# 
# From -- ./inp_files/46911.got.cif
#   From: 2010.05.17/outbox.cif.g08.bks.cpg/sg2_24_cif.got.tgz:46911.got - 2010.06.03 11:33:40.
