data_PCOD9007389
_publ_section_title
;
Structure prediction by ZEFSAII (Michael W. Deem and Ramdas Pophale) SiO2 
 PCOD9007389
Probable space group: P -1
;
_chemical_formula_sum "Si O2"
_cell_formula_units_Z 16
_cell_length_a 14.958622
_cell_length_b 8.947345
_cell_length_c 12.981325
_cell_angle_alpha 114.489938
_cell_angle_beta 77.023813
_cell_angle_gamma 146.829675
_cell_volume 838.509880
_symmetry_space_group_name_H-M "P -1"
_symmetry_group_IT_number 2
_symmetry_cell_setting 'triclinic'
loop_
_space_group_symop_operation_xyz
x,y,z
-x,-y,-z
loop_
_atom_site_type_symbol
_atom_site_label
_atom_site_fract_x
_atom_site_fract_y
_atom_site_fract_z
Si Si1 0.051731 0.522367 0.168013
Si Si2 0.182126 0.361973 0.154304
Si Si3 0.981453 0.078281 0.427424
Si Si4 0.685197 0.278543 0.576222
Si Si5 0.418962 0.541176 0.981097
Si Si6 0.118036 0.735401 0.440572
Si Si7 0.142476 0.262075 0.846173
Si Si8 0.241473 0.792469 0.991371
O O1 0.092997 0.395859 0.149175
O O2 0.050319 0.611843 0.305104
O O3 0.880476 0.301136 0.086815
O O4 0.190216 0.772625 0.114800
O O5 0.287432 0.568519 0.287090
O O6 0.313047 0.480952 0.076333
O O7 0.028723 0.010837 0.121042
O O8 0.854638 0.035218 0.474866
O O9 0.164005 0.431481 0.453780
O O10 0.914811 0.871221 0.291170
O O11 0.000000 0.000000 0.500000
O O12 0.726719 0.154596 0.562175
O O13 0.500000 0.000000 0.500000
O O14 0.571180 0.875440 0.991062
O O15 0.500000 0.500000 0.000000
O O16 0.276137 0.324058 0.866719
O O17 0.000000 0.500000 0.500000
O O18 0.211927 0.551430 0.921042
#
# Coordination Sequence:
#
# PCOD9007389 Si02
#       8
#     2   2   2   2   2   2   2   2
#     4  10  21  39  64  90 121 165 204 247 312 367
#     4  10  22  40  62  86 126 163 203 250 308 368
#     4  10  21  39  61  91 120 160 201 249 308 360
#     4   9  20  38  62  88 116 159 207 251 295 354
#     4  12  26  40  60  93 124 160 209 255 307 365
#     4   9  19  38  63  87 119 159 208 245 295 366
#     4  11  23  41  63  89 128 163 202 253 308 375
#     4  11  24  39  64  94 123 159 207 254 312 368
#
# _framework density 19.081468999999998
#
# number of rings (size 3 to 8) (size 9 to 14) (size 15 to 20)
#    0.000    1.750    1.250    3.000    3.500    4.000 
#    2.250    0.625    0.000    0.000    0.000    0.000 
#    0.000    0.000    0.000    0.000    0.000    0.000 
#
# Total GULP energy -89198.455033 kJ/mol
# GULP energy per Si atom -5574.903440 kJ/mol
# Density = 1.903804 g / cm^3
# Si number density = 19.081469 Si / 1000 Ang^3
#
#
#
# Elastic Constant Matrix: (Units=GPa)
#
#
# Indices 1 2 3 4 5 6 
#
# 1 54.5677 21.2334 24.8995 -1.0010 14.2143 6.6716
# 2 21.2334 105.8687 54.6632 -2.6377 6.0209 10.0229
# 3 24.8995 54.6632 117.0747 -18.6097 12.6262 4.8211
# 4 -1.0010 -2.6377 -18.6097 28.5303 4.5903 4.6762
# 5 14.2143 6.0209 12.6262 4.5903 37.8339 0.3017
# 6 6.6716 10.0229 4.8211 4.6762 0.3017 25.5068
#
#
#
# Elastic Compliance Matrix: (Units=1/GPa)
#
#
# Indices 1 2 3 4 5 6 
#
# 1 0.022975 -0.002347 -0.002671 0.000803 -0.007427 -0.004642
# 2 -0.002347 0.013203 -0.006064 -0.002511 0.001133 -0.002981
# 3 -0.002671 -0.006064 0.013854 0.009180 -0.003759 -0.001176
# 4 0.000803 -0.002511 0.009180 0.043603 -0.008185 -0.008856
# 5 -0.007427 0.001133 -0.003759 -0.008185 0.031263 0.003339
# 6 -0.004642 -0.002981 -0.001176 -0.008856 0.003339 0.043397
#
#
# Mechanical properties :
#
#
# Convention : Reuss Voigt Hill
#
# Bulk Modulus (GPa) = 35.88320 53.23370 44.55845
# Shear Modulus (GPa) = 25.03186 30.15520 27.59353
#
# Velocity S-wave (km/s) = 3.62586 3.97966 3.80688
# Velocity P-wave (km/s) = 6.03119 7.00540 6.53647
#
# Compressibility (1/GPa) = 0.02786820
#
# Stress axis : x y z
#
# Youngs Moduli (GPa) = 43.52611 75.74316 72.18256
#
# Poissons Ratio (x) = 0.17778 0.19277
# Poissons Ratio (y) = 0.10216 0.43769
# Poissons Ratio (z) = 0.11624 0.45928
#
# Static dielectric constant tensor:
#      x y z
#    x 1.640830 -0.012810 0.019650 
#    y -0.012810 1.656690 -0.022610 
#    z 0.019650 -0.022610 1.700870 
# 
# From -- ./inp_files/185756.got.cif
#   From: 2010.05.17/outbox.cif.g08.bks.cpg/sg2_93_cif.got.tgz:185756.got - 2010.06.03 11:33:40.
