data_PCOD9007889
_publ_section_title
;
Structure prediction by ZEFSAII (Michael W. Deem and Ramdas Pophale) SiO2 
 PCOD9007889
Probable space group: P -1
;
_chemical_formula_sum "Si O2"
_cell_formula_units_Z 14
_cell_length_a 7.900460
_cell_length_b 9.474700
_cell_length_c 12.389713
_cell_angle_alpha 71.992459
_cell_angle_beta 126.521065
_cell_angle_gamma 125.789279
_cell_volume 603.502648
_symmetry_space_group_name_H-M "P -1"
_symmetry_group_IT_number 2
_symmetry_cell_setting 'triclinic'
loop_
_space_group_symop_operation_xyz
x,y,z
-x,-y,-z
loop_
_atom_site_type_symbol
_atom_site_label
_atom_site_fract_x
_atom_site_fract_y
_atom_site_fract_z
Si Si1 0.975642 0.031354 0.687630
Si Si2 0.112338 0.655880 0.415671
Si Si3 0.611238 0.707944 0.504708
Si Si4 0.908304 0.320193 0.852062
Si Si5 0.752645 0.954050 0.853500
Si Si6 0.537127 0.690789 0.235986
Si Si7 0.578128 0.594460 0.894293
O O1 0.920798 0.184385 0.596332
O O2 0.270081 0.139711 0.799314
O O3 0.870152 0.857142 0.618155
O O4 0.824691 0.960975 0.756227
O O5 0.399328 0.719188 0.486920
O O6 0.019882 0.615632 0.261526
O O7 0.000000 0.500000 0.500000
O O8 0.500000 0.500000 0.500000
O O9 0.637991 0.754747 0.378353
O O10 0.752025 0.384576 0.839875
O O11 0.713643 0.111758 0.820114
O O12 0.132996 0.344701 0.003513
O O13 0.545525 0.758085 0.846140
O O14 0.000000 0.000000 0.000000
O O15 0.546907 0.531768 0.224258
O O16 0.500000 0.500000 0.000000
#
# Coordination Sequence:
#
# PCOD9007889 Si02
#       7
#     2   2   2   2   2   2   2
#     4  11  22  40  61  86 121 162 201 245 298 361
#     4  10  21  39  63  90 120 159 202 242 294 360
#     4  11  23  39  60  88 120 158 203 254 301 348
#     4   9  21  39  60  89 122 155 199 248 296 348
#     4   9  19  38  60  84 115 154 200 244 292 352
#     4  11  22  38  58  87 123 154 195 250 301 353
#     4  11  21  39  64  88 116 158 200 245 299 362
#
# _framework density 23.197911000000001
#
# number of rings (size 3 to 8) (size 9 to 14) (size 15 to 20)
#    0.000    1.714    0.000    5.571    0.000    1.143 
#    0.000   12.143    0.000    0.000    0.000    0.000 
#    0.000    0.000    0.000    0.000    0.000    0.000 
#
# Total GULP energy -77958.724287 kJ/mol
# GULP energy per Si atom -5568.480306 kJ/mol
# Density = 2.314511 g / cm^3
# Si number density = 23.197911 Si / 1000 Ang^3
#
#
#
# Elastic Constant Matrix: (Units=GPa)
#
#
# Indices 1 2 3 4 5 6 
#
# 1 76.6156 21.6438 -6.2556 0.3699 -8.2171 -5.9553
# 2 21.6438 141.3822 43.9886 2.8257 -21.5134 -4.5649
# 3 -6.2556 43.9886 57.7166 4.6397 -2.9595 -10.4878
# 4 0.3699 2.8257 4.6397 43.5891 7.4326 -5.7416
# 5 -8.2171 -21.5134 -2.9595 7.4326 21.5072 3.2323
# 6 -5.9553 -4.5649 -10.4878 -5.7416 3.2323 26.2562
#
#
#
# Elastic Compliance Matrix: (Units=1/GPa)
#
#
# Indices 1 2 3 4 5 6 
#
# 1 0.015053 -0.003386 0.005186 -0.000290 0.002498 0.004526
# 2 -0.003386 0.012182 -0.009705 -0.002170 0.010960 -0.004350
# 3 0.005186 -0.009705 0.026980 0.000137 -0.005714 0.010999
# 4 -0.000290 -0.002170 0.000137 0.026066 -0.012296 0.006825
# 5 0.002498 0.010960 -0.005714 -0.012296 0.063425 -0.010307
# 6 0.004526 -0.004350 0.010999 0.006825 -0.010307 0.045511
#
#
# Mechanical properties :
#
#
# Convention : Reuss Voigt Hill
#
# Bulk Modulus (GPa) = 26.03894 43.82978 34.93436
# Shear Modulus (GPa) = 22.95384 32.69301 27.82343
#
# Velocity S-wave (km/s) = 3.14901 3.75815 3.46698
# Velocity P-wave (km/s) = 4.94679 6.14544 5.57840
#
# Compressibility (1/GPa) = 0.03840402
#
# Stress axis : x y z
#
# Youngs Moduli (GPa) = 66.43070 82.09136 37.06504
#
# Poissons Ratio (x) = 0.27796 -0.19222
# Poissons Ratio (y) = 0.22493 0.35973
# Poissons Ratio (z) = -0.34451 0.79672
#
# Static dielectric constant tensor:
#      x y z
#    x 1.953230 0.056170 0.072000 
#    y 0.056170 1.988720 -0.025760 
#    z 0.072000 -0.025760 1.958960 
# 
# From -- ./inp_files/189678.got.cif
#   From: 2010.05.17/outbox.cif.g08.bks.cpg/sg2_95_cif.got.tgz:189678.got - 2010.06.03 11:33:40.
