data_PCOD9007940
_publ_section_title
;
Structure prediction by ZEFSAII (Michael W. Deem and Ramdas Pophale) SiO2 
 PCOD9007940
Probable space group: P -1
;
_chemical_formula_sum "Si O2"
_cell_formula_units_Z 16
_cell_length_a 5.376120
_cell_length_b 12.916023
_cell_length_c 12.108237
_cell_angle_alpha 107.790280
_cell_angle_beta 54.579358
_cell_angle_gamma 91.822921
_cell_volume 640.863222
_symmetry_space_group_name_H-M "P -1"
_symmetry_group_IT_number 2
_symmetry_cell_setting 'triclinic'
loop_
_space_group_symop_operation_xyz
x,y,z
-x,-y,-z
loop_
_atom_site_type_symbol
_atom_site_label
_atom_site_fract_x
_atom_site_fract_y
_atom_site_fract_z
Si Si1 0.896190 0.139241 0.490265
Si Si2 0.773783 0.774460 0.230329
Si Si3 0.150228 0.332181 0.590501
Si Si4 0.725446 0.558250 0.760732
Si Si5 0.000087 0.594310 0.940108
Si Si6 0.804350 0.287450 0.345798
Si Si7 0.220114 0.948941 0.204523
Si Si8 0.125274 0.096945 0.062264
O O1 0.574396 0.156979 0.645207
O O2 0.803750 0.203773 0.420256
O O3 0.113020 0.212046 0.517692
O O4 0.079731 0.019023 0.369992
O O5 0.827236 0.686353 0.289610
O O6 0.004606 0.860635 0.207977
O O7 0.846462 0.704567 0.078911
O O8 0.460448 0.359219 0.464352
O O9 0.863410 0.428499 0.664505
O O10 0.369362 0.589206 0.825347
O O11 0.800857 0.576156 0.877455
O O12 0.936664 0.638081 0.678197
O O13 0.000000 0.500000 0.000000
O O14 0.893921 0.211033 0.189035
O O15 0.208828 0.042636 0.143095
O O16 0.574104 0.888697 0.079626
O O17 0.000000 0.000000 0.000000
#
# Coordination Sequence:
#
# PCOD9007940 Si02
#       8
#     2   2   2   2   2   2   2   2
#     4  10  23  42  65  92 136 169 222 278 332 404
#     4  11  24  40  65  96 130 176 220 274 341 399
#     4  11  24  42  66  92 134 175 218 280 332 402
#     4  12  27  44  73 100 135 183 226 281 338 397
#     4  12  26  46  69 100 140 176 229 282 334 401
#     4  10  24  42  63  99 128 172 225 273 338 398
#     4  10  22  40  63  95 128 168 221 273 332 405
#     4  10  21  39  63  91 128 169 214 276 333 393
#
# _framework density 24.966325000000001
#
# number of rings (size 3 to 8) (size 9 to 14) (size 15 to 20)
#    0.000    1.250    1.250    3.375    7.000    2.000 
#    0.000    0.000    0.000    0.000    0.000    0.000 
#    0.000    0.000    0.000    0.000    0.000    0.000 
#
# Total GULP energy -89611.557337 kJ/mol
# GULP energy per Si atom -5600.722334 kJ/mol
# Density = 2.490950 g / cm^3
# Si number density = 24.966325 Si / 1000 Ang^3
#
#
#
# Elastic Constant Matrix: (Units=GPa)
#
#
# Indices 1 2 3 4 5 6 
#
# 1 55.0591 10.8022 19.5997 1.8237 -3.7560 -11.0240
# 2 10.8022 106.6486 37.2226 2.4249 -16.9873 -1.3500
# 3 19.5997 37.2226 116.6551 -14.6467 0.9180 -17.6161
# 4 1.8237 2.4249 -14.6467 43.0222 21.7088 -13.7919
# 5 -3.7560 -16.9873 0.9180 21.7088 33.9195 6.5441
# 6 -11.0240 -1.3500 -17.6161 -13.7919 6.5441 48.2853
#
#
#
# Elastic Compliance Matrix: (Units=1/GPa)
#
#
# Indices 1 2 3 4 5 6 
#
# 1 0.020226 0.000138 -0.003777 -0.004091 0.004753 0.001431
# 2 0.000138 0.017200 -0.010241 -0.020991 0.024767 -0.012576
# 3 -0.003777 -0.010241 0.018127 0.024459 -0.024741 0.015804
# 4 -0.004091 -0.020991 0.024459 0.082450 -0.072257 0.040746
# 5 0.004753 0.024767 -0.024741 -0.072257 0.097250 -0.041068
# 6 0.001431 -0.012576 0.015804 0.040746 -0.041068 0.043656
#
#
# Mechanical properties :
#
#
# Convention : Reuss Voigt Hill
#
# Bulk Modulus (GPa) = 35.98106 45.95688 40.96897
# Shear Modulus (GPa) = 15.82617 39.09463 27.46040
#
# Velocity S-wave (km/s) = 2.52047 3.96143 3.32007
# Velocity P-wave (km/s) = 4.78680 6.27467 5.58054
#
# Compressibility (1/GPa) = 0.02779240
#
# Stress axis : x y z
#
# Youngs Moduli (GPa) = 49.44112 58.13987 55.16709
#
# Poissons Ratio (x) = -0.00801 0.20837
# Poissons Ratio (y) = -0.00681 0.56496
# Poissons Ratio (z) = 0.18675 0.59540
#
# Static dielectric constant tensor:
#      x y z
#    x 2.048470 -0.029640 0.005310 
#    y -0.029640 1.932470 -0.037000 
#    z 0.005310 -0.037000 2.046930 
# 
# From -- ./inp_files/47809.got.cif
#   From: 2010.05.17/outbox.cif.g08.bks.cpg/sg2_24_cif.got.tgz:47809.got - 2010.06.03 11:33:40.
