data_PCOD9007895
_publ_section_title
;
Structure prediction by ZEFSAII (Michael W. Deem and Ramdas Pophale) SiO2 
 PCOD9007895
Probable space group: P -1
;
_chemical_formula_sum "Si O2"
_cell_formula_units_Z 16
_cell_length_a 18.017759
_cell_length_b 10.227881
_cell_length_c 6.957631
_cell_angle_alpha 46.427726
_cell_angle_beta 73.523538
_cell_angle_gamma 59.712855
_cell_volume 797.942837
_symmetry_space_group_name_H-M "P -1"
_symmetry_group_IT_number 2
_symmetry_cell_setting 'triclinic'
loop_
_space_group_symop_operation_xyz
x,y,z
-x,-y,-z
loop_
_atom_site_type_symbol
_atom_site_label
_atom_site_fract_x
_atom_site_fract_y
_atom_site_fract_z
Si Si1 0.014416 0.688992 0.839817
Si Si2 0.360865 0.620193 0.447674
Si Si3 0.551246 0.815971 0.004092
Si Si4 0.324430 0.996086 0.376859
Si Si5 0.147593 0.046518 0.559130
Si Si6 0.932348 0.941472 0.000387
Si Si7 0.436373 0.715013 0.919751
Si Si8 0.822989 0.272788 0.427192
O O1 0.110287 0.640682 0.757224
O O2 0.943941 0.857772 0.582773
O O3 0.000000 0.500000 0.000000
O O4 0.990178 0.754950 0.010654
O O5 0.428243 0.401792 0.697675
O O6 0.347664 0.819210 0.378248
O O7 0.385391 0.663270 0.176678
O O8 0.271362 0.603147 0.545966
O O9 0.492374 0.819779 0.863385
O O10 0.500000 0.000000 0.000000
O O11 0.634036 0.852174 0.851146
O O12 0.220840 0.109971 0.370640
O O13 0.370250 0.867291 0.662143
O O14 0.126047 0.081140 0.764095
O O15 0.187107 0.819660 0.676835
O O16 0.870920 0.105100 0.726589
O O17 0.000000 0.000000 0.000000
O O18 0.500000 0.500000 0.000000
#
# Coordination Sequence:
#
# PCOD9007895 Si02
#       8
#     2   2   2   2   2   2   2   2
#     4  11  23  37  60  92 128 165 201 255 311 368
#     4  11  24  43  65  98 134 166 211 271 319 381
#     4  12  24  44  71  92 130 170 211 262 329 387
#     4  11  24  42  66 100 129 167 215 270 318 377
#     4  10  21  40  64  88 125 165 210 253 307 373
#     4  11  18  39  64  85 115 168 215 242 300 371
#     4  12  23  44  69  94 128 168 215 262 328 386
#     4  10  21  39  63  90 123 167 208 250 314 371
#
# _framework density 20.051562000000001
#
# number of rings (size 3 to 8) (size 9 to 14) (size 15 to 20)
#    0.000    1.000    5.000    3.000    1.750    0.500 
#    0.000    1.250    0.000    0.000    0.000    0.000 
#    0.000    0.000    0.000    0.000    0.000    0.000 
#
# Total GULP energy -89244.870409 kJ/mol
# GULP energy per Si atom -5577.804401 kJ/mol
# Density = 2.000592 g / cm^3
# Si number density = 20.051562 Si / 1000 Ang^3
#
#
#
# Elastic Constant Matrix: (Units=GPa)
#
#
# Indices 1 2 3 4 5 6 
#
# 1 97.0934 28.0439 15.9090 21.1570 -28.8644 2.8153
# 2 28.0439 85.6536 34.1847 27.0187 -9.4806 13.4839
# 3 15.9090 34.1847 93.6238 27.9527 -19.7418 3.1613
# 4 21.1570 27.0187 27.9527 33.6103 -5.3901 0.5928
# 5 -28.8644 -9.4806 -19.7418 -5.3901 45.4805 3.3216
# 6 2.8153 13.4839 3.1613 0.5928 3.3216 27.9772
#
#
#
# Elastic Compliance Matrix: (Units=1/GPa)
#
#
# Indices 1 2 3 4 5 6 
#
# 1 0.015222 -0.002004 0.002844 -0.008768 0.009572 -0.001838
# 2 -0.002004 0.018171 -0.002618 -0.010917 0.000678 -0.008109
# 3 0.002844 -0.002618 0.016286 -0.012082 0.007001 -0.001440
# 4 -0.008768 -0.010917 -0.012082 0.052788 -0.007359 0.007264
# 5 0.009572 0.000678 0.007001 -0.007359 0.030778 -0.005579
# 6 -0.001838 -0.008109 -0.001440 0.007264 -0.005579 0.040508
#
#
# Mechanical properties :
#
#
# Convention : Reuss Voigt Hill
#
# Bulk Modulus (GPa) = 21.68162 48.07178 34.87670
# Shear Modulus (GPa) = 25.94918 34.62913 30.28916
#
# Velocity S-wave (km/s) = 3.60129 4.16023 3.89081
# Velocity P-wave (km/s) = 5.30366 6.86315 6.13317
#
# Compressibility (1/GPa) = 0.04612203
#
# Stress axis : x y z
#
# Youngs Moduli (GPa) = 65.69491 55.03184 61.40278
#
# Poissons Ratio (x) = 0.11028 -0.17460
# Poissons Ratio (y) = 0.13165 0.16076
# Poissons Ratio (z) = -0.18681 0.14408
#
# Static dielectric constant tensor:
#      x y z
#    x 1.616520 0.099310 -0.061190 
#    y 0.099310 1.580830 0.068920 
#    z -0.061190 0.068920 1.659210 
# 
# From -- ./inp_files/47189.got.cif
#   From: 2010.05.17/outbox.cif.g08.bks.cpg/sg2_24_cif.got.tgz:47189.got - 2010.06.03 11:33:40.
