data_PCOD9007276
_publ_section_title
;
Structure prediction by ZEFSAII (Michael W. Deem and Ramdas Pophale) SiO2 
 PCOD9007276
Probable space group: P -1
;
_chemical_formula_sum "Si O2"
_cell_formula_units_Z 16
_cell_length_a 21.580458
_cell_length_b 12.260992
_cell_length_c 6.397528
_cell_angle_alpha 85.361815
_cell_angle_beta 65.088884
_cell_angle_gamma 35.790651
_cell_volume 781.832498
_symmetry_space_group_name_H-M "P -1"
_symmetry_group_IT_number 2
_symmetry_cell_setting 'triclinic'
loop_
_space_group_symop_operation_xyz
x,y,z
-x,-y,-z
loop_
_atom_site_type_symbol
_atom_site_label
_atom_site_fract_x
_atom_site_fract_y
_atom_site_fract_z
Si Si1 0.755140 0.032350 0.210543
Si Si2 0.521731 0.375837 0.815654
Si Si3 0.089615 0.319143 0.644248
Si Si4 0.669605 0.022627 0.940993
Si Si5 0.106209 0.874430 0.685423
Si Si6 0.892257 0.273486 0.679455
Si Si7 0.742865 0.283607 0.130490
Si Si8 0.170543 0.391748 0.261960
O O1 0.600545 0.463945 0.195330
O O2 0.651922 0.209802 0.511329
O O3 0.812240 0.068617 0.040400
O O4 0.672790 0.080477 0.145341
O O5 0.550306 0.226720 0.932243
O O6 0.500000 0.500000 0.000000
O O7 0.191672 0.132607 0.349493
O O8 0.119820 0.406401 0.550866
O O9 0.940612 0.494964 0.764550
O O10 0.137173 0.198283 0.807636
O O11 0.692717 0.860663 0.946057
O O12 0.241478 0.711657 0.645186
O O13 0.040618 0.060013 0.606222
O O14 0.000000 0.000000 0.000000
O O15 0.890018 0.235072 0.451776
O O16 0.831082 0.476861 0.755114
O O17 0.809449 0.293135 0.913716
#
# Coordination Sequence:
#
# PCOD9007276 Si02
#       8
#     2   2   2   2   2   2   2   2
#     4  11  21  36  60  88 117 147 198 253 293 355
#     4  11  23  39  58  86 119 155 199 255 298 342
#     4   8  19  36  57  88 117 152 193 238 296 347
#     4   9  20  36  58  88 114 150 195 246 294 344
#     4   9  21  39  55  91 115 160 196 234 290 354
#     4  10  21  39  61  84 128 155 188 249 290 359
#     4  11  23  35  59  89 116 155 197 237 308 348
#     4   9  18  41  58  84 123 155 193 236 300 353
#
# _framework density 20.464742000000001
#
# number of rings (size 3 to 8) (size 9 to 14) (size 15 to 20)
#    0.750    1.500    1.250    1.125    1.750    3.500 
#    4.500    0.625    0.000    1.500    0.000    0.000 
#    0.000    0.000    0.000    0.000    0.000    0.000 
#
# Total GULP energy -89113.735875 kJ/mol
# GULP energy per Si atom -5569.608492 kJ/mol
# Density = 2.041816 g / cm^3
# Si number density = 20.464742 Si / 1000 Ang^3
#
#
#
# Elastic Constant Matrix: (Units=GPa)
#
#
# Indices 1 2 3 4 5 6 
#
# 1 99.4188 53.0458 37.8897 -18.7890 4.7680 31.2837
# 2 53.0458 118.2392 28.7478 -39.5156 12.5088 10.2256
# 3 37.8897 28.7478 77.2588 -10.9535 19.9583 7.3120
# 4 -18.7890 -39.5156 -10.9535 35.4084 -0.3625 4.1486
# 5 4.7680 12.5088 19.9583 -0.3625 31.5347 -7.0288
# 6 31.2837 10.2256 7.3120 4.1486 -7.0288 44.5951
#
#
#
# Elastic Compliance Matrix: (Units=1/GPa)
#
#
# Indices 1 2 3 4 5 6 
#
# 1 0.019551 -0.004711 -0.006065 0.004654 0.000118 -0.012055
# 2 -0.004711 0.017252 0.000464 0.017227 -0.006992 -0.003432
# 3 -0.006065 0.000464 0.019361 0.003308 -0.011747 -0.001186
# 4 0.004654 0.017227 0.003308 0.052543 -0.012277 -0.014581
# 5 0.000118 -0.006992 -0.011747 -0.012277 0.044341 0.011577
# 6 -0.012055 -0.003432 -0.001186 -0.014581 0.011577 0.035043
#
#
# Mechanical properties :
#
#
# Convention : Reuss Voigt Hill
#
# Bulk Modulus (GPa) = 28.13678 59.36483 43.75081
# Shear Modulus (GPa) = 22.66962 33.98989 28.32975
#
# Velocity S-wave (km/s) = 3.33188 4.07984 3.72468
# Velocity P-wave (km/s) = 5.34609 7.15994 6.31844
#
# Compressibility (1/GPa) = 0.03554067
#
# Stress axis : x y z
#
# Youngs Moduli (GPa) = 51.14958 57.96473 51.65069
#
# Poissons Ratio (x) = 0.27306 0.31325
# Poissons Ratio (y) = 0.24096 -0.02399
# Poissons Ratio (z) = 0.31021 -0.02692
#
# Static dielectric constant tensor:
#      x y z
#    x 1.754580 -0.000980 -0.028740 
#    y -0.000980 1.784220 -0.009570 
#    z -0.028740 -0.009570 1.774810 
# 
# From -- ./inp_files/123927.got.cif
#   From: 2010.05.17/outbox.cif.g08.bks.cpg/sg2_62_cif.got.tgz:123927.got - 2010.06.03 11:33:40.
