data_PCOD9007489
_publ_section_title
;
Structure prediction by ZEFSAII (Michael W. Deem and Ramdas Pophale) SiO2 
 PCOD9007489
Probable space group: P -1
;
_chemical_formula_sum "Si O2"
_cell_formula_units_Z 16
_cell_length_a 15.341361
_cell_length_b 31.391250
_cell_length_c 9.260574
_cell_angle_alpha 148.257672
_cell_angle_beta 40.894096
_cell_angle_gamma 161.161231
_cell_volume 725.499610
_symmetry_space_group_name_H-M "P -1"
_symmetry_group_IT_number 2
_symmetry_cell_setting 'triclinic'
loop_
_space_group_symop_operation_xyz
x,y,z
-x,-y,-z
loop_
_atom_site_type_symbol
_atom_site_label
_atom_site_fract_x
_atom_site_fract_y
_atom_site_fract_z
Si Si1 0.405891 0.230241 0.264699
Si Si2 0.018495 0.137219 0.313195
Si Si3 0.169291 0.314997 0.363774
Si Si4 0.839908 0.998337 0.695407
Si Si5 0.703719 0.366963 0.561172
Si Si6 0.255933 0.952622 0.310814
Si Si7 0.892139 0.264287 0.332448
Si Si8 0.028050 0.514347 0.835021
O O1 0.538125 0.329467 0.538359
O O2 0.649163 0.307339 0.104731
O O3 0.299461 0.246900 0.346660
O O4 0.147583 0.028840 0.025901
O O5 0.845169 0.080212 0.499619
O O6 0.059697 0.230323 0.414674
O O7 0.500000 0.500000 0.500000
O O8 0.074673 0.342724 0.471285
O O9 0.040663 0.173072 0.018653
O O10 0.775742 0.986803 0.577631
O O11 0.538101 0.829311 0.666688
O O12 0.000000 0.000000 0.500000
O O13 0.816337 0.454683 0.830963
O O14 0.000000 0.500000 0.500000
O O15 0.576962 0.096219 0.307290
O O16 0.079688 0.788738 0.977861
O O17 0.951225 0.379739 0.512859
O O18 0.000000 0.500000 0.000000
#
# Coordination Sequence:
#
# PCOD9007489 Si02
#       8
#     2   2   2   2   2   2   2   2
#     4  10  22  37  63  97 133 167 211 291 323 387
#     4  11  22  41  65  96 130 171 233 267 337 396
#     4  11  25  44  66  93 139 183 221 280 343 404
#     4  11  22  41  69  97 134 179 230 278 342 407
#     4  10  21  39  61  98 133 170 212 279 344 390
#     4  10  22  39  66  94 123 178 221 275 340 401
#     4  10  22  43  62  91 135 171 219 272 340 403
#     4  11  22  40  68  98 129 166 226 275 338 400
#
# _framework density 22.053766
#
# number of rings (size 3 to 8) (size 9 to 14) (size 15 to 20)
#    0.000    1.500    2.500    2.250    1.750    1.500 
#    0.000   11.875    0.000    0.000    0.000    0.000 
#    0.000    0.000    0.000    0.000    0.000    0.000 
#
# Total GULP energy -89249.241437 kJ/mol
# GULP energy per Si atom -5578.077590 kJ/mol
# Density = 2.200357 g / cm^3
# Si number density = 22.053766 Si / 1000 Ang^3
#
#
#
# Elastic Constant Matrix: (Units=GPa)
#
#
# Indices 1 2 3 4 5 6 
#
# 1 122.2295 26.0406 21.9813 -0.8003 39.6877 5.3278
# 2 26.0406 79.9245 28.9374 12.0969 19.4085 -8.1087
# 3 21.9813 28.9374 51.7723 -1.9959 19.7603 2.8095
# 4 -0.8003 12.0969 -1.9959 29.5890 -0.3318 7.1378
# 5 39.6877 19.4085 19.7603 -0.3318 39.8040 6.6161
# 6 5.3278 -8.1087 2.8095 7.1378 6.6161 40.3124
#
#
#
# Elastic Compliance Matrix: (Units=1/GPa)
#
#
# Indices 1 2 3 4 5 6 
#
# 1 0.012207 -0.001302 -0.000032 0.000761 -0.011494 -0.000121
# 2 -0.001302 0.020017 -0.009520 -0.010752 -0.005089 0.007601
# 3 -0.000032 -0.009520 0.028458 0.006584 -0.008798 -0.003616
# 4 0.000761 -0.010752 0.006584 0.041243 0.003316 -0.010569
# 5 -0.011494 -0.005089 -0.008798 0.003316 0.044590 -0.006797
# 6 -0.000121 0.007601 -0.003616 -0.010569 -0.006797 0.029590
#
#
# Mechanical properties :
#
#
# Convention : Reuss Voigt Hill
#
# Bulk Modulus (GPa) = 25.65832 45.31610 35.48721
# Shear Modulus (GPa) = 23.71869 33.73890 28.72880
#
# Velocity S-wave (km/s) = 3.28303 3.91557 3.61317
# Velocity P-wave (km/s) = 5.10203 6.40585 5.79075
#
# Compressibility (1/GPa) = 0.03897371
#
# Stress axis : x y z
#
# Youngs Moduli (GPa) = 81.92175 49.95747 35.13949
#
# Poissons Ratio (x) = 0.06503 0.00113
# Poissons Ratio (y) = 0.10664 0.33453
# Poissons Ratio (z) = 0.00264 0.47560
#
# Static dielectric constant tensor:
#      x y z
#    x 1.859210 0.010580 0.008400 
#    y 0.010580 1.823440 -0.004440 
#    z 0.008400 -0.004440 1.867500 
# 
# From -- ./inp_files/321079.got.cif
#   From: 2010.05.17/outbox.cif.g08.bks.cpg/sg2_161_cif.got.tgz:321079.got - 2010.06.03 11:33:40.
