data_PCOD9007855
_publ_section_title
;
Structure prediction by ZEFSAII (Michael W. Deem and Ramdas Pophale) SiO2 
 PCOD9007855
Probable space group: P -1
;
_chemical_formula_sum "Si O2"
_cell_formula_units_Z 16
_cell_length_a 14.789472
_cell_length_b 9.119354
_cell_length_c 29.587460
_cell_angle_alpha 41.396164
_cell_angle_beta 19.318184
_cell_angle_gamma 51.258557
_cell_volume 809.104650
_symmetry_space_group_name_H-M "P -1"
_symmetry_group_IT_number 2
_symmetry_cell_setting 'triclinic'
loop_
_space_group_symop_operation_xyz
x,y,z
-x,-y,-z
loop_
_atom_site_type_symbol
_atom_site_label
_atom_site_fract_x
_atom_site_fract_y
_atom_site_fract_z
Si Si1 0.137551 0.091597 0.128621
Si Si2 0.171688 0.854980 0.477405
Si Si3 0.935509 0.943955 0.934645
Si Si4 0.689705 0.387612 0.697501
Si Si5 0.629661 0.239349 0.351223
Si Si6 0.251177 0.213139 0.804640
Si Si7 0.809027 0.315477 0.758073
Si Si8 0.477089 0.808979 0.692678
O O1 0.107698 0.021968 0.105940
O O2 0.965588 0.261560 0.180472
O O3 0.017190 0.845182 0.269709
O O4 0.473818 0.217581 0.955712
O O5 0.461198 0.855948 0.314461
O O6 0.961822 0.581821 0.640819
O O7 0.286958 0.961646 0.447452
O O8 0.000000 0.000000 0.500000
O O9 0.154054 0.795317 0.864578
O O10 0.601758 0.810419 0.141522
O O11 0.114519 0.171913 0.827791
O O12 0.775636 0.297734 0.724276
O O13 0.559237 0.591365 0.722209
O O14 0.000000 0.500000 0.500000
O O15 0.651164 0.506447 0.293006
O O16 0.498902 0.184652 0.374475
O O17 0.500000 0.000000 0.500000
O O18 0.000000 0.000000 0.000000
#
# Coordination Sequence:
#
# PCOD9007855 Si02
#       8
#     2   2   2   2   2   2   2   2
#     4   9  21  41  65  85 120 175 209 251 306 391
#     4  11  23  39  61  92 126 163 205 255 310 378
#     4   9  21  41  60  87 122 167 208 250 311 382
#     4  11  22  34  62  92 128 157 206 265 315 360
#     4  11  24  41  66  92 127 165 215 262 317 371
#     4  11  25  39  65  95 131 160 210 270 321 360
#     4  10  21  39  63  88 125 166 215 247 314 381
#     4  10  22  39  60  89 122 168 204 252 312 379
#
# _framework density 19.774944000000001
#
# number of rings (size 3 to 8) (size 9 to 14) (size 15 to 20)
#    0.000    1.750    1.250    1.875    7.000    3.000 
#    0.000    3.750    0.000    3.000    0.000    0.000 
#    0.000    0.000    0.000    0.000    0.000    0.000 
#
# Total GULP energy -89145.003309 kJ/mol
# GULP energy per Si atom -5571.562707 kJ/mol
# Density = 1.972994 g / cm^3
# Si number density = 19.774944 Si / 1000 Ang^3
#
#
#
# Elastic Constant Matrix: (Units=GPa)
#
#
# Indices 1 2 3 4 5 6 
#
# 1 76.1881 55.6032 45.7191 4.0217 -19.5207 1.9293
# 2 55.6032 119.5732 54.1948 -2.1849 -14.1067 -0.2584
# 3 45.7191 54.1948 101.8851 -5.1109 -18.7993 2.6221
# 4 4.0217 -2.1849 -5.1109 24.9023 0.7404 -7.3992
# 5 -19.5207 -14.1067 -18.7993 0.7404 33.2477 -4.9669
# 6 1.9293 -0.2584 2.6221 -7.3992 -4.9669 32.7909
#
#
#
# Elastic Compliance Matrix: (Units=1/GPa)
#
#
# Indices 1 2 3 4 5 6 
#
# 1 0.024911 -0.008217 -0.005645 -0.006541 0.007890 -0.001360
# 2 -0.008217 0.013819 -0.003762 0.002163 -0.000952 0.001237
# 3 -0.005645 -0.003762 0.015202 0.003737 0.003675 0.000487
# 4 -0.006541 0.002163 0.003737 0.045229 -0.000283 0.010266
# 5 0.007890 -0.000952 0.003675 -0.000283 0.037106 0.004791
# 6 -0.001360 0.001237 0.000487 0.010266 0.004791 0.033589
#
#
# Mechanical properties :
#
#
# Convention : Reuss Voigt Hill
#
# Bulk Modulus (GPa) = 53.52196 67.63118 60.57657
# Shear Modulus (GPa) = 23.65927 27.66346 25.66136
#
# Velocity S-wave (km/s) = 3.46269 3.74426 3.60623
# Velocity P-wave (km/s) = 6.56592 7.27787 6.93104
#
# Compressibility (1/GPa) = 0.01868392
#
# Stress axis : x y z
#
# Youngs Moduli (GPa) = 40.14270 72.36215 65.77965
#
# Poissons Ratio (x) = 0.59462 0.37131
# Poissons Ratio (y) = 0.32986 0.24749
# Poissons Ratio (z) = 0.22660 0.27226
#
# Static dielectric constant tensor:
#      x y z
#    x 1.831610 -0.034490 0.114860 
#    y -0.034490 1.736570 -0.001840 
#    z 0.114860 -0.001840 1.842440 
# 
# From -- ./inp_files/331765.got.cif
#   From: 2010.05.17/outbox.cif.g08.bks.cpg/sg2_166_cif.got.tgz:331765.got - 2010.06.03 11:33:40.
