data_PCOD9007089
_publ_section_title
;
Structure prediction by ZEFSAII (Michael W. Deem and Ramdas Pophale) SiO2 
 PCOD9007089
Probable space group: P -1
;
_chemical_formula_sum "Si O2"
_cell_formula_units_Z 16
_cell_length_a 17.967939
_cell_length_b 5.192212
_cell_length_c 8.487995
_cell_angle_alpha 100.069110
_cell_angle_beta 114.707912
_cell_angle_gamma 106.127148
_cell_volume 651.534155
_symmetry_space_group_name_H-M "P -1"
_symmetry_group_IT_number 2
_symmetry_cell_setting 'triclinic'
loop_
_space_group_symop_operation_xyz
x,y,z
-x,-y,-z
loop_
_atom_site_type_symbol
_atom_site_label
_atom_site_fract_x
_atom_site_fract_y
_atom_site_fract_z
Si Si1 0.001853 0.282260 0.613890
Si Si2 0.165969 0.779616 0.334476
Si Si3 0.738622 0.996431 0.971883
Si Si4 0.301827 0.779949 0.723586
Si Si5 0.687102 0.657261 0.485247
Si Si6 0.419149 0.542347 0.344521
Si Si7 0.530949 0.757675 0.182980
Si Si8 0.162076 0.418217 0.010720
O O1 0.088743 0.397581 0.813318
O O2 0.000000 0.500000 0.500000
O O3 0.917559 0.213194 0.645793
O O4 0.000000 0.000000 0.500000
O O5 0.238282 0.766580 0.519939
O O6 0.226199 0.087110 0.344893
O O7 0.134339 0.505969 0.163561
O O8 0.810403 0.850100 0.005062
O O9 0.732887 0.090810 0.153793
O O10 0.755984 0.286446 0.924732
O O11 0.644875 0.756226 0.816925
O O12 0.287904 0.452633 0.669227
O O13 0.408768 0.951477 0.821019
O O14 0.642435 0.427951 0.562228
O O15 0.607227 0.736712 0.363034
O O16 0.500000 0.500000 0.500000
O O17 0.456182 0.744266 0.245215
O O18 0.500000 0.500000 0.000000
#
# Coordination Sequence:
#
# PCOD9007089 Si02
#       8
#     2   2   2   2   2   2   2   2
#     4  12  28  50  76 112 147 185 236 294 360 434
#     4  11  25  45  74 102 145 183 237 291 357 430
#     4  12  26  46  74 105 148 189 246 296 358 425
#     4  11  24  41  66 101 142 189 238 300 356 424
#     4  10  23  42  65  97 139 186 234 293 360 419
#     4  10  21  45  64  99 145 190 243 297 355 422
#     4  10  21  39  59  96 136 184 242 293 357 414
#     4  12  27  49  75 109 142 193 235 297 362 427
#
# _framework density 24.557426
#
# number of rings (size 3 to 8) (size 9 to 14) (size 15 to 20)
#    0.000    1.000    2.500    3.375    7.000    1.000 
#    4.500    2.500    0.000    0.000    0.000    0.000 
#    0.000    0.000    0.000    0.000    0.000    0.000 
#
# Total GULP energy -89343.818606 kJ/mol
# GULP energy per Si atom -5583.988663 kJ/mol
# Density = 2.450153 g / cm^3
# Si number density = 24.557426 Si / 1000 Ang^3
#
#
#
# Elastic Constant Matrix: (Units=GPa)
#
#
# Indices 1 2 3 4 5 6 
#
# 1 138.5828 29.4351 45.7233 3.0923 -25.9355 -6.7255
# 2 29.4351 55.2556 3.8687 1.4354 -11.5710 -7.7992
# 3 45.7233 3.8687 144.7994 9.8378 -17.7846 -14.0036
# 4 3.0923 1.4354 9.8378 32.6846 -7.5962 -6.1485
# 5 -25.9355 -11.5710 -17.7846 -7.5962 52.0040 7.1496
# 6 -6.7255 -7.7992 -14.0036 -6.1485 7.1496 29.1159
#
#
#
# Elastic Compliance Matrix: (Units=1/GPa)
#
#
# Indices 1 2 3 4 5 6 
#
# 1 0.009543 -0.004390 -0.002644 0.000641 0.003091 -0.000867
# 2 -0.004390 0.021549 0.001569 0.000526 0.002531 0.005003
# 3 -0.002644 0.001569 0.008252 -0.001423 0.001207 0.003181
# 4 0.000641 0.000526 -0.001423 0.032917 0.003992 0.005575
# 5 0.003091 0.002531 0.001207 0.003992 0.022710 -0.002761
# 6 -0.000867 0.005003 0.003181 0.005575 -0.002761 0.038871
#
#
# Mechanical properties :
#
#
# Convention : Reuss Voigt Hill
#
# Bulk Modulus (GPa) = 35.19326 55.18800 45.19063
# Shear Modulus (GPa) = 32.41689 40.06827 36.24258
#
# Velocity S-wave (km/s) = 3.63718 4.04371 3.84582
# Velocity P-wave (km/s) = 5.65694 6.65762 6.17757
#
# Compressibility (1/GPa) = 0.02841453
#
# Stress axis : x y z
#
# Youngs Moduli (GPa) = 104.79160 46.40599 121.18771
#
# Poissons Ratio (x) = 0.20373 0.32039
# Poissons Ratio (y) = 0.46005 -0.19020
# Poissons Ratio (z) = 0.27704 -0.07283
#
# Static dielectric constant tensor:
#      x y z
#    x 2.028310 -0.018370 -0.055210 
#    y -0.018370 2.215030 -0.060620 
#    z -0.055210 -0.060620 1.958740 
# 
# From -- ./inp_files/53806.got.cif
#   From: 2010.05.17/outbox.cif.g08.bks.cpg/sg2_27_cif.got.tgz:53806.got - 2010.06.03 11:33:40.
