data_PCOD9007119
_publ_section_title
;
Structure prediction by ZEFSAII (Michael W. Deem and Ramdas Pophale) SiO2 
 PCOD9007119
Probable space group: P -1
;
_chemical_formula_sum "Si O2"
_cell_formula_units_Z 16
_cell_length_a 18.700660
_cell_length_b 9.240694
_cell_length_c 12.240864
_cell_angle_alpha 101.090886
_cell_angle_beta 41.757089
_cell_angle_gamma 134.080742
_cell_volume 739.498723
_symmetry_space_group_name_H-M "P -1"
_symmetry_group_IT_number 2
_symmetry_cell_setting 'triclinic'
loop_
_space_group_symop_operation_xyz
x,y,z
-x,-y,-z
loop_
_atom_site_type_symbol
_atom_site_label
_atom_site_fract_x
_atom_site_fract_y
_atom_site_fract_z
Si Si1 0.592750 0.369165 0.809112
Si Si2 0.924972 0.485441 0.195593
Si Si3 0.135041 0.507232 0.340669
Si Si4 0.147066 0.529066 0.084195
Si Si5 0.742810 0.873672 0.708474
Si Si6 0.511987 0.837366 0.572900
Si Si7 0.730994 0.868227 0.471440
Si Si8 0.683594 0.470589 0.469718
O O1 0.695642 0.346140 0.744954
O O2 0.710856 0.662873 0.736655
O O3 0.592614 0.347288 0.676257
O O4 0.379873 0.164903 0.074778
O O5 0.889867 0.617500 0.248381
O O6 0.065458 0.593347 0.148515
O O7 0.700877 0.163039 0.421651
O O8 0.000000 0.500000 0.000000
O O9 0.222206 0.610798 0.134095
O O10 0.000000 0.500000 0.500000
O O11 0.972404 0.187971 0.491183
O O12 0.315342 0.673102 0.829939
O O13 0.949404 0.195703 0.254344
O O14 0.667141 0.818191 0.663110
O O15 0.576855 0.764373 0.549739
O O16 0.465800 0.757063 0.487355
O O17 0.734882 0.699512 0.425209
#
# Coordination Sequence:
#
# PCOD9007119 Si02
#       8
#     2   2   2   2   2   2   2   2
#     4  10  21  39  60  85 117 155 193 241 283 339
#     4  11  23  42  59  83 120 155 190 240 291 347
#     4  11  22  37  59  90 117 152 196 238 287 344
#     4  10  22  40  62  84 119 158 191 238 296 340
#     4   9  20  40  61  83 118 154 193 238 291 336
#     4  11  22  40  61  86 116 156 191 237 296 348
#     4   9  21  40  60  88 118 150 195 245 285 342
#     4  11  22  39  59  89 119 152 199 238 285 346
#
# _framework density 21.636277
#
# number of rings (size 3 to 8) (size 9 to 14) (size 15 to 20)
#    0.000    1.750    1.250    2.625    0.000    2.000 
#    4.500    0.000    0.000    0.000    0.000    0.000 
#    0.000    0.000    0.000    0.000    0.000    0.000 
#
# Total GULP energy -89444.303646 kJ/mol
# GULP energy per Si atom -5590.268978 kJ/mol
# Density = 2.158703 g / cm^3
# Si number density = 21.636277 Si / 1000 Ang^3
#
#
#
# Elastic Constant Matrix: (Units=GPa)
#
#
# Indices 1 2 3 4 5 6 
#
# 1 169.7104 30.8231 43.6905 18.5934 -18.0375 -5.8120
# 2 30.8231 44.1580 19.4204 18.0212 -7.5627 -4.3947
# 3 43.6905 19.4204 84.4926 27.0559 -2.1345 4.7534
# 4 18.5934 18.0212 27.0559 29.1097 -3.0897 -1.8487
# 5 -18.0375 -7.5627 -2.1345 -3.0897 22.4693 9.4365
# 6 -5.8120 -4.3947 4.7534 -1.8487 9.4365 29.3525
#
#
#
# Elastic Compliance Matrix: (Units=1/GPa)
#
#
# Indices 1 2 3 4 5 6 
#
# 1 0.007826 -0.003463 -0.003394 0.000822 0.004881 0.000063
# 2 -0.003463 0.033416 -0.000194 -0.017627 0.005393 0.001505
# 3 -0.003394 -0.000194 0.018856 -0.015654 -0.001341 -0.004309
# 4 0.000822 -0.017627 -0.015654 0.059514 -0.000202 0.003872
# 5 0.004881 0.005393 -0.001341 -0.000202 0.056940 -0.016327
# 6 0.000063 0.001505 -0.004309 0.003872 -0.016327 0.040497
#
#
# Mechanical properties :
#
#
# Convention : Reuss Voigt Hill
#
# Bulk Modulus (GPa) = 21.74132 54.02544 37.88338
# Shear Modulus (GPa) = 20.28535 29.81478 25.05006
#
# Velocity S-wave (km/s) = 3.06529 3.71617 3.40631
# Velocity P-wave (km/s) = 4.75377 6.59069 5.74611
#
# Compressibility (1/GPa) = 0.04599537
#
# Stress axis : x y z
#
# Youngs Moduli (GPa) = 127.77786 29.92618 53.03283
#
# Poissons Ratio (x) = 0.10364 0.18001
# Poissons Ratio (y) = 0.44253 0.01027
# Poissons Ratio (z) = 0.43372 0.00580
#
# Static dielectric constant tensor:
#      x y z
#    x 1.798990 -0.021810 0.008700 
#    y -0.021810 1.795470 0.006650 
#    z 0.008700 0.006650 1.751750 
# 
# From -- ./inp_files/70324.got.cif
#   From: 2010.05.17/outbox.cif.g08.bks.cpg/sg2_36_cif.got.tgz:70324.got - 2010.06.03 11:33:40.
