data_PCOD9007776
_publ_section_title
;
Structure prediction by ZEFSAII (Michael W. Deem and Ramdas Pophale) SiO2 
 PCOD9007776
Probable space group: P -1
;
_chemical_formula_sum "Si O2"
_cell_formula_units_Z 16
_cell_length_a 7.896572
_cell_length_b 19.515362
_cell_length_c 9.820302
_cell_angle_alpha 150.338340
_cell_angle_beta 52.344524
_cell_angle_gamma 129.588125
_cell_volume 570.636867
_symmetry_space_group_name_H-M "P -1"
_symmetry_group_IT_number 2
_symmetry_cell_setting 'triclinic'
loop_
_space_group_symop_operation_xyz
x,y,z
-x,-y,-z
loop_
_atom_site_type_symbol
_atom_site_label
_atom_site_fract_x
_atom_site_fract_y
_atom_site_fract_z
Si Si1 0.214302 0.604594 0.147051
Si Si2 0.740152 0.511357 0.563876
Si Si3 0.136767 0.419343 0.103239
Si Si4 0.156866 0.053963 0.648114
Si Si5 0.709818 0.212326 0.826893
Si Si6 0.236821 0.225440 0.153775
Si Si7 0.576464 0.808037 0.752180
Si Si8 0.535992 0.132308 0.383846
O O1 0.270723 0.493612 0.035246
O O2 0.316748 0.676862 0.082405
O O3 0.238250 0.746756 0.476482
O O4 0.000000 0.500000 0.000000
O O5 0.729426 0.597444 0.857982
O O6 0.690704 0.606795 0.629154
O O7 0.599609 0.346804 0.383879
O O8 0.992892 0.521557 0.411379
O O9 0.929625 0.287662 0.937152
O O10 0.379550 0.125362 0.578742
O O11 0.221063 0.929319 0.487923
O O12 0.087430 0.146281 0.963375
O O13 0.000000 0.000000 0.500000
O O14 0.466344 0.175252 0.947524
O O15 0.199826 0.197596 0.285346
O O16 0.571540 0.807429 0.588830
O O17 0.542935 0.969213 0.069316
#
# Coordination Sequence:
#
# PCOD9007776 Si02
#       8
#     2   2   2   2   2   2   2   2
#     4  10  21  39  68 100 130 175 225 276 331 395
#     4  11  22  39  64  96 133 176 220 265 340 398
#     4  10  21  39  62  96 133 172 213 275 330 401
#     4  12  25  45  68  96 132 178 227 277 337 400
#     4  11  21  41  68  93 127 173 226 275 333 391
#     4  12  23  40  68  98 128 177 225 277 328 400
#     4  11  23  40  69  97 135 171 223 278 331 396
#     4  11  22  44  69 100 133 179 223 273 342 391
#
# _framework density 28.038848000000002
#
# number of rings (size 3 to 8) (size 9 to 14) (size 15 to 20)
#    0.000    1.000    5.000    2.250    0.000    1.000 
#    2.250    4.375    0.000    0.000    0.000    0.000 
#    0.000    0.000    0.000    0.000    0.000    0.000 
#
# Total GULP energy -89091.585195 kJ/mol
# GULP energy per Si atom -5568.224075 kJ/mol
# Density = 2.797503 g / cm^3
# Si number density = 28.038848 Si / 1000 Ang^3
#
#
#
# Elastic Constant Matrix: (Units=GPa)
#
#
# Indices 1 2 3 4 5 6 
#
# 1 119.5574 35.3835 41.4312 14.2413 24.6484 -28.6290
# 2 35.3835 117.9685 7.0553 16.0682 -8.9173 -38.7322
# 3 41.4312 7.0553 89.5017 7.0042 25.5502 -2.6992
# 4 14.2413 16.0682 7.0042 28.8800 -10.4470 -0.9070
# 5 24.6484 -8.9173 25.5502 -10.4470 59.0686 3.1911
# 6 -28.6290 -38.7322 -2.6992 -0.9070 3.1911 53.2770
#
#
#
# Elastic Compliance Matrix: (Units=1/GPa)
#
#
# Indices 1 2 3 4 5 6 
#
# 1 0.013630 -0.001218 -0.003809 -0.007020 -0.005815 0.006475
# 2 -0.001218 0.012377 0.000020 -0.005701 0.000917 0.008192
# 3 -0.003809 0.000020 0.014725 -0.003680 -0.005372 -0.001027
# 4 -0.007020 -0.005701 -0.003680 0.046346 0.012292 -0.008051
# 5 -0.005815 0.000917 -0.005372 0.012292 0.024207 -0.003971
# 6 0.006475 0.008192 -0.001027 -0.008051 -0.003971 0.028254
#
#
# Mechanical properties :
#
#
# Convention : Reuss Voigt Hill
#
# Bulk Modulus (GPa) = 32.55475 54.97416 43.76446
# Shear Modulus (GPa) = 31.29074 44.45563 37.87318
#
# Velocity S-wave (km/s) = 3.34425 3.98616 3.67923
# Velocity P-wave (km/s) = 5.15246 6.39022 5.80443
#
# Compressibility (1/GPa) = 0.03071748
#
# Stress axis : x y z
#
# Youngs Moduli (GPa) = 73.36717 80.79759 67.91095
#
# Poissons Ratio (x) = 0.09841 0.25865
# Poissons Ratio (y) = 0.08936 -0.00133
# Poissons Ratio (z) = 0.27943 -0.00158
#
# Static dielectric constant tensor:
#      x y z
#    x 2.325180 -0.006300 0.139470 
#    y -0.006300 2.466690 -0.157880 
#    z 0.139470 -0.157880 2.323350 
# 
# From -- ./inp_files/404342.got.cif
#   From: 2010.05.17/outbox.cif.g08.bks.cpg/sg2_203_cif.got.tgz:404342.got - 2010.06.03 11:33:40.
