data_PCOD9007447
_publ_section_title
;
Structure prediction by ZEFSAII (Michael W. Deem and Ramdas Pophale) SiO2 
 PCOD9007447
Probable space group: P -1
;
_chemical_formula_sum "Si O2"
_cell_formula_units_Z 14
_cell_length_a 17.758788
_cell_length_b 11.621610
_cell_length_c 8.468063
_cell_angle_alpha 52.855272
_cell_angle_beta 147.257810
_cell_angle_gamma 134.873252
_cell_volume 669.626116
_symmetry_space_group_name_H-M "P -1"
_symmetry_group_IT_number 2
_symmetry_cell_setting 'triclinic'
loop_
_space_group_symop_operation_xyz
x,y,z
-x,-y,-z
loop_
_atom_site_type_symbol
_atom_site_label
_atom_site_fract_x
_atom_site_fract_y
_atom_site_fract_z
Si Si1 0.797028 0.956753 0.501110
Si Si2 0.624583 0.386110 0.451575
Si Si3 0.653339 0.159102 0.194786
Si Si4 0.515117 0.677513 0.405284
Si Si5 0.672405 0.122838 0.631050
Si Si6 0.670218 0.719117 0.187559
Si Si7 0.898550 0.958717 0.194679
O O1 0.687363 0.821175 0.546402
O O2 0.712851 0.866113 0.263745
O O3 0.786547 0.122720 0.379787
O O4 0.977228 0.997258 0.762827
O O5 0.526608 0.308439 0.500056
O O6 0.726456 0.294296 0.672534
O O7 0.699317 0.579684 0.437696
O O8 0.506793 0.345665 0.128534
O O9 0.663367 0.151734 0.405684
O O10 0.615480 0.300575 0.948252
O O11 0.500000 0.000000 0.000000
O O12 0.500000 0.500000 0.500000
O O13 0.500000 0.000000 0.500000
O O14 0.795209 0.052920 0.926405
O O15 0.773428 0.774537 0.164514
O O16 0.000000 0.000000 0.500000
#
# Coordination Sequence:
#
# PCOD9007447 Si02
#       7
#     2   2   2   2   2   2   2
#     4  10  21  43  59  88 130 162 211 253 323 370
#     4  11  22  36  66  93 125 156 215 262 309 367
#     4  10  23  37  62  91 126 164 208 264 301 374
#     4  11  22  37  63  94 127 165 205 260 317 369
#     4  12  23  40  65  96 124 165 221 256 310 375
#     4  10  21  39  61  94 120 165 204 266 305 371
#     4  10  24  40  66  90 127 169 207 264 313 376
#
# _framework density 20.907191000000001
#
# number of rings (size 3 to 8) (size 9 to 14) (size 15 to 20)
#    0.000    1.429    2.857    3.429   10.000    0.571 
#    0.000    4.286    0.000    1.714    0.000    0.000 
#    0.000    0.000    0.000    0.000    0.000    0.000 
#
# Total GULP energy -78101.080067 kJ/mol
# GULP energy per Si atom -5578.648576 kJ/mol
# Density = 2.085961 g / cm^3
# Si number density = 20.907191 Si / 1000 Ang^3
#
#
#
# Elastic Constant Matrix: (Units=GPa)
#
#
# Indices 1 2 3 4 5 6 
#
# 1 147.8579 41.9213 62.3130 -25.7313 15.1236 -1.8731
# 2 41.9213 56.3859 35.5585 -32.5257 11.6051 1.8067
# 3 62.3130 35.5585 122.2064 -35.5718 18.3839 2.2003
# 4 -25.7313 -32.5257 -35.5718 34.5613 -5.1981 -3.6574
# 5 15.1236 11.6051 18.3839 -5.1981 47.1422 1.8910
# 6 -1.8731 1.8067 2.2003 -3.6574 1.8910 30.8071
#
#
#
# Elastic Compliance Matrix: (Units=1/GPa)
#
#
# Indices 1 2 3 4 5 6 
#
# 1 0.009772 -0.006232 -0.003858 -0.002522 -0.000413 0.000961
# 2 -0.006232 0.044471 0.002422 0.039047 -0.005660 0.001823
# 3 -0.003858 0.002422 0.013748 0.013104 -0.003291 0.000399
# 4 -0.002522 0.039047 0.013104 0.077087 -0.005659 0.006120
# 5 -0.000413 -0.005660 -0.003291 -0.005659 0.023460 -0.001570
# 6 0.000961 0.001823 0.000399 0.006120 -0.001570 0.033206
#
#
# Mechanical properties :
#
#
# Convention : Reuss Voigt Hill
#
# Bulk Modulus (GPa) = 18.99199 67.33732 43.16465
# Shear Modulus (GPa) = 21.30995 34.94594 28.12795
#
# Velocity S-wave (km/s) = 3.19605 4.09281 3.67191
# Velocity P-wave (km/s) = 4.76690 7.39002 6.21835
#
# Compressibility (1/GPa) = 0.05265379
#
# Stress axis : x y z
#
# Youngs Moduli (GPa) = 102.33386 22.48655 72.74007
#
# Poissons Ratio (x) = 0.14014 0.28067
# Poissons Ratio (y) = 0.63777 -0.17621
# Poissons Ratio (z) = 0.39485 -0.05447
#
# Static dielectric constant tensor:
#      x y z
#    x 1.836430 0.016740 0.020960 
#    y 0.016740 1.824210 -0.008600 
#    z 0.020960 -0.008600 1.864520 
# 
# From -- ./inp_files/332989.got.cif
#   From: 2010.05.17/outbox.cif.g08.bks.cpg/sg2_167_cif.got.tgz:332989.got - 2010.06.03 11:33:40.
