data_PCOD9007857
_publ_section_title
;
Structure prediction by ZEFSAII (Michael W. Deem and Ramdas Pophale) SiO2 
 PCOD9007857
Probable space group: P -1
;
_chemical_formula_sum "Si O2"
_cell_formula_units_Z 14
_cell_length_a 6.801304
_cell_length_b 24.267907
_cell_length_c 26.832555
_cell_angle_alpha 170.183850
_cell_angle_beta 120.142132
_cell_angle_gamma 60.359288
_cell_volume 652.957226
_symmetry_space_group_name_H-M "P -1"
_symmetry_group_IT_number 2
_symmetry_cell_setting 'triclinic'
loop_
_space_group_symop_operation_xyz
x,y,z
-x,-y,-z
loop_
_atom_site_type_symbol
_atom_site_label
_atom_site_fract_x
_atom_site_fract_y
_atom_site_fract_z
Si Si1 0.011806 0.764805 0.433740
Si Si2 0.425020 0.959744 0.095794
Si Si3 0.836579 0.697261 0.543280
Si Si4 0.222090 0.310368 0.878317
Si Si5 0.134133 0.329040 0.320131
Si Si6 0.917960 0.974058 0.219205
Si Si7 0.504870 0.090833 0.523312
O O1 0.750255 0.874598 0.497563
O O2 0.148334 0.003643 0.628012
O O3 0.100976 0.809590 0.541138
O O4 0.027245 0.395452 0.089173
O O5 0.681898 0.965481 0.151605
O O6 0.267924 0.072987 0.223059
O O7 0.373191 0.209075 0.265801
O O8 0.336039 0.603276 0.752551
O O9 0.077459 0.550417 0.462919
O O10 0.887591 0.883060 0.664587
O O11 0.362263 0.175452 0.728968
O O12 0.367718 0.564882 0.155555
O O13 0.000000 0.500000 0.000000
O O14 0.000000 0.500000 0.500000
O O15 0.000000 0.000000 0.000000
O O16 0.500000 0.000000 0.500000
#
# Coordination Sequence:
#
# PCOD9007857 Si02
#       7
#     2   2   2   2   2   2   2
#     4  12  28  44  64  97 132 162 220 254 314 391
#     4  10  21  39  63  88 127 165 213 263 316 368
#     4  10  21  39  63  88 127 165 213 263 316 368
#     4  12  26  45  74  99 128 165 207 266 326 376
#     4   8  16  33  58  89 116 160 210 265 310 363
#     4  12  26  41  62  94 128 174 210 256 310 392
#     4  12  26  45  74  99 128 165 207 266 326 376
#
# _framework density 21.440913999999999
#
# number of rings (size 3 to 8) (size 9 to 14) (size 15 to 20)
#    0.000    1.143    1.429    4.286    2.000    7.429 
#    0.000    0.000    0.000   12.000    0.000    0.000 
#    0.000    0.000    0.000    0.000    0.000    0.000 
#
# Total GULP energy -78290.742912 kJ/mol
# GULP energy per Si atom -5592.195922 kJ/mol
# Density = 2.139211 g / cm^3
# Si number density = 21.440914 Si / 1000 Ang^3
#
#
#
# Elastic Constant Matrix: (Units=GPa)
#
#
# Indices 1 2 3 4 5 6 
#
# 1 56.6151 9.2069 6.1155 1.9216 -4.7802 -16.0423
# 2 9.2069 58.4281 -2.9331 -7.2880 4.4545 -13.1158
# 3 6.1155 -2.9331 79.6069 -4.8075 -4.2546 4.8044
# 4 1.9216 -7.2880 -4.8075 39.0092 7.8036 4.1657
# 5 -4.7802 4.4545 -4.2546 7.8036 37.0440 2.6896
# 6 -16.0423 -13.1158 4.8044 4.1657 2.6896 42.3438
#
#
#
# Elastic Compliance Matrix: (Units=1/GPa)
#
#
# Indices 1 2 3 4 5 6 
#
# 1 0.020742 -0.002287 -0.002168 -0.003081 0.002806 0.007521
# 2 -0.002287 0.019401 0.000637 0.004044 -0.003764 0.004912
# 3 -0.002168 0.000637 0.013057 0.001903 0.000913 -0.002351
# 4 -0.003081 0.004044 0.001903 0.028335 -0.006452 -0.002508
# 5 0.002806 -0.003764 0.000913 -0.006452 0.029378 -0.001438
# 6 0.007521 0.004912 -0.002351 -0.002508 -0.001438 0.028592
#
#
# Mechanical properties :
#
#
# Convention : Reuss Voigt Hill
#
# Bulk Modulus (GPa) = 21.94658 24.38098 23.16378
# Shear Modulus (GPa) = 30.80162 35.83013 33.31588
#
# Velocity S-wave (km/s) = 3.79434 4.09236 3.94616
# Velocity P-wave (km/s) = 5.42716 5.80739 5.62049
#
# Compressibility (1/GPa) = 0.04556518
#
# Stress axis : x y z
#
# Youngs Moduli (GPa) = 48.21210 51.54262 76.58531
#
# Poissons Ratio (x) = 0.11789 0.16601
# Poissons Ratio (y) = 0.11027 -0.04880
# Poissons Ratio (z) = 0.10451 -0.03284
#
# Static dielectric constant tensor:
#      x y z
#    x 1.734630 -0.019470 0.009070 
#    y -0.019470 1.793600 0.028570 
#    z 0.009070 0.028570 1.740760 
# 
# From -- ./inp_files/10446.got.cif
#   From: 2010.05.17/outbox.cif.g08.bks.cpg/sg2_6_cif.got.tgz:10446.got - 2010.06.03 11:33:40.
