data_PCOD9007105
_publ_section_title
;
Structure prediction by ZEFSAII (Michael W. Deem and Ramdas Pophale) SiO2 
 PCOD9007105
Probable space group: P -1
;
_chemical_formula_sum "Si O2"
_cell_formula_units_Z 16
_cell_length_a 7.875953
_cell_length_b 9.521902
_cell_length_c 7.793787
_cell_angle_alpha 99.792093
_cell_angle_beta 100.978987
_cell_angle_gamma 89.052856
_cell_volume 565.354527
_symmetry_space_group_name_H-M "P -1"
_symmetry_group_IT_number 2
_symmetry_cell_setting 'triclinic'
loop_
_space_group_symop_operation_xyz
x,y,z
-x,-y,-z
loop_
_atom_site_type_symbol
_atom_site_label
_atom_site_fract_x
_atom_site_fract_y
_atom_site_fract_z
Si Si1 0.419184 0.854882 0.817498
Si Si2 0.131096 0.639032 0.752747
Si Si3 0.339466 0.395430 0.655576
Si Si4 0.953311 0.901116 0.688666
Si Si5 0.817851 0.355553 0.840729
Si Si6 0.870928 0.825759 0.267286
Si Si7 0.626002 0.081007 0.777398
Si Si8 0.355374 0.385357 0.258072
O O1 0.271646 0.743880 0.705641
O O2 0.596628 0.763320 0.850123
O O3 0.457004 0.978626 0.710884
O O4 0.372144 0.899207 0.011222
O O5 0.161486 0.486937 0.640783
O O6 0.975048 0.750402 0.754536
O O7 0.192417 0.616292 0.953895
O O8 0.303711 0.263744 0.747948
O O9 0.373968 0.355866 0.457716
O O10 0.491470 0.505731 0.756363
O O11 0.942185 0.856730 0.479108
O O12 0.783576 0.985111 0.724688
O O13 0.105838 0.018221 0.779518
O O14 0.670444 0.236327 0.740203
O O15 0.802727 0.507954 0.779988
O O16 0.996965 0.278515 0.821936
#
# Coordination Sequence:
#
# PCOD9007105 Si02
#       8
#     2   2   2   2   2   2   2   2
#     4   9  19  35  56  82 111 147 188 228 276 331
#     4  10  22  38  57  86 119 148 185 233 282 336
#     4  10  22  39  60  85 112 149 193 233 280 336
#     4  10  21  39  60  83 115 150 187 235 283 331
#     4  10  22  38  57  86 119 148 185 233 282 336
#     4  10  22  39  60  85 112 149 193 233 280 336
#     4   9  19  35  56  82 111 147 188 228 276 331
#     4  10  21  39  60  83 115 150 187 235 283 331
#
# _framework density 28.300827999999999
#
# number of rings (size 3 to 8) (size 9 to 14) (size 15 to 20)
#    0.000    2.250    0.000    1.500    0.000   13.500 
#    0.000    5.000    0.000    9.000    0.000    0.000 
#    0.000    0.000    0.000    0.000    0.000    0.000 
#
# Total GULP energy -89559.172215 kJ/mol
# GULP energy per Si atom -5597.448263 kJ/mol
# Density = 2.823641 g / cm^3
# Si number density = 28.300828 Si / 1000 Ang^3
#
#
#
# Elastic Constant Matrix: (Units=GPa)
#
#
# Indices 1 2 3 4 5 6 
#
# 1 57.0688 21.8826 10.3240 6.6699 -27.5998 4.0629
# 2 21.8826 206.6188 30.9690 -14.6226 -17.3104 4.7865
# 3 10.3240 30.9690 98.1061 3.4664 -29.1461 -21.5222
# 4 6.6699 -14.6226 3.4664 40.9671 -8.4569 -14.5564
# 5 -27.5998 -17.3104 -29.1461 -8.4569 40.4759 1.1278
# 6 4.0629 4.7865 -21.5222 -14.5564 1.1278 74.8313
#
#
#
# Elastic Compliance Matrix: (Units=1/GPa)
#
#
# Indices 1 2 3 4 5 6 
#
# 1 0.027683 -0.001853 0.003553 -0.001622 0.020331 -0.000984
# 2 -0.001853 0.005481 -0.001524 0.002408 0.000493 -0.000227
# 3 0.003553 -0.001524 0.015011 0.001814 0.012837 0.004381
# 4 -0.001622 0.002408 0.001814 0.028976 0.007118 0.005985
# 5 0.020331 0.000493 0.012837 0.007118 0.049422 0.003196
# 6 -0.000984 -0.000227 0.004381 0.005985 0.003196 0.015808
#
#
# Mechanical properties :
#
#
# Convention : Reuss Voigt Hill
#
# Bulk Modulus (GPa) = 20.60675 54.23833 37.42254
# Shear Modulus (GPa) = 31.60476 51.16274 41.38375
#
# Velocity S-wave (km/s) = 3.34540 4.25646 3.82813
# Velocity P-wave (km/s) = 4.71374 6.58507 5.72636
#
# Compressibility (1/GPa) = 0.04852779
#
# Stress axis : x y z
#
# Youngs Moduli (GPa) = 36.12379 182.43269 66.61763
#
# Poissons Ratio (x) = 0.33806 -0.23671
# Poissons Ratio (y) = 0.06694 0.10151
# Poissons Ratio (z) = -0.12836 0.27800
#
# Static dielectric constant tensor:
#      x y z
#    x 2.510610 -0.010810 0.080350 
#    y -0.010810 2.272320 0.003520 
#    z 0.080350 0.003520 2.025940 
# 
# From -- ./inp_files/158733.got.cif
#   From: 2010.05.17/outbox.cif.g08.bks.cpg/sg2_80_cif.got.tgz:158733.got - 2010.06.03 11:33:40.
