data_PCOD9007908
_publ_section_title
;
Structure prediction by ZEFSAII (Michael W. Deem and Ramdas Pophale) SiO2 
 PCOD9007908
Probable space group: P -1
;
_chemical_formula_sum "Si O2"
_cell_formula_units_Z 16
_cell_length_a 22.726154
_cell_length_b 15.245702
_cell_length_c 8.417488
_cell_angle_alpha 119.485055
_cell_angle_beta 67.193625
_cell_angle_gamma 161.447304
_cell_volume 774.209785
_symmetry_space_group_name_H-M "P -1"
_symmetry_group_IT_number 2
_symmetry_cell_setting 'triclinic'
loop_
_space_group_symop_operation_xyz
x,y,z
-x,-y,-z
loop_
_atom_site_type_symbol
_atom_site_label
_atom_site_fract_x
_atom_site_fract_y
_atom_site_fract_z
Si Si1 0.274663 0.734063 0.613957
Si Si2 0.839175 0.653958 0.509192
Si Si3 0.758933 0.646481 0.254945
Si Si4 0.369706 0.597856 0.174083
Si Si5 0.603063 0.750606 0.685153
Si Si6 0.959037 0.548043 0.667175
Si Si7 0.629604 0.783585 0.053624
Si Si8 0.945172 0.381870 0.781344
O O1 0.230188 0.564107 0.595970
O O2 0.186840 0.600940 0.409457
O O3 0.140165 0.620820 0.728299
O O4 0.490790 0.096983 0.709785
O O5 0.788747 0.619997 0.355104
O O6 0.743232 0.565656 0.685553
O O7 0.067620 0.013827 0.613627
O O8 0.554801 0.396709 0.269366
O O9 0.751014 0.589397 0.032218
O O10 0.509166 0.707472 0.132359
O O11 0.500000 0.500000 0.500000
O O12 0.778873 0.051022 0.662419
O O13 0.671051 0.831806 0.866189
O O14 0.000000 0.500000 0.500000
O O15 0.875984 0.380787 0.767189
O O16 0.166300 0.906720 0.794942
O O17 0.500000 0.500000 0.000000
O O18 0.000000 0.500000 0.000000
#
# Coordination Sequence:
#
# PCOD9007908 Si02
#       8
#     2   2   2   2   2   2   2   2
#     4  11  24  41  65  96 130 164 219 259 319 399
#     4  11  25  45  67  90 129 179 218 265 323 378
#     4  10  25  46  63  93 133 167 223 273 312 386
#     4  11  23  46  66  94 129 171 218 270 322 385
#     4  11  24  38  65  96 126 169 210 266 335 380
#     4  10  21  39  63  90 133 164 198 267 324 374
#     4  11  24  40  63 102 129 165 218 264 329 402
#     4  11  20  41  63  93 132 163 205 267 327 382
#
# _framework density 20.666232999999998
#
# number of rings (size 3 to 8) (size 9 to 14) (size 15 to 20)
#    0.000    1.250    3.750    2.250   10.500    0.500 
#    2.250    0.000    0.000    0.000    0.000    0.000 
#    0.000    0.000    0.000    0.000    0.000    0.000 
#
# Total GULP energy -89290.840977 kJ/mol
# GULP energy per Si atom -5580.677561 kJ/mol
# Density = 2.061920 g / cm^3
# Si number density = 20.666233 Si / 1000 Ang^3
#
#
#
# Elastic Constant Matrix: (Units=GPa)
#
#
# Indices 1 2 3 4 5 6 
#
# 1 62.2494 12.1739 23.4332 6.9492 8.3703 -23.8880
# 2 12.1739 84.3760 11.9354 19.2958 5.0101 -18.5374
# 3 23.4332 11.9354 86.0700 15.5709 17.7981 -6.7970
# 4 6.9492 19.2958 15.5709 49.2466 -2.4515 -9.3442
# 5 8.3703 5.0101 17.7981 -2.4515 27.6888 1.6887
# 6 -23.8880 -18.5374 -6.7970 -9.3442 1.6887 37.3784
#
#
#
# Elastic Compliance Matrix: (Units=1/GPa)
#
#
# Indices 1 2 3 4 5 6 
#
# 1 0.024167 0.000763 -0.004386 0.000315 -0.005533 0.015355
# 2 0.000763 0.014501 -0.000101 -0.004675 -0.003610 0.006656
# 3 -0.004386 -0.000101 0.015498 -0.004849 -0.008996 -0.000841
# 4 0.000315 -0.004675 -0.004849 0.024459 0.005859 0.002851
# 5 -0.005533 -0.003610 -0.008996 0.005859 0.045202 -0.007540
# 6 0.015355 0.006656 -0.000841 0.002851 -0.007540 0.040768
#
#
# Mechanical properties :
#
#
# Convention : Reuss Voigt Hill
#
# Bulk Modulus (GPa) = 21.40447 36.42003 28.91225
# Shear Modulus (GPa) = 26.65025 35.20629 30.92827
#
# Velocity S-wave (km/s) = 3.59493 4.13191 3.87274
# Velocity P-wave (km/s) = 5.25463 6.35805 5.83249
#
# Compressibility (1/GPa) = 0.04671921
#
# Stress axis : x y z
#
# Youngs Moduli (GPa) = 41.37824 68.95840 64.52642
#
# Poissons Ratio (x) = -0.05264 0.28300
# Poissons Ratio (y) = -0.03159 0.00652
# Poissons Ratio (z) = 0.18148 0.00697
#
# Static dielectric constant tensor:
#      x y z
#    x 1.717540 0.007970 0.006860 
#    y 0.007970 1.805830 -0.046450 
#    z 0.006860 -0.046450 1.772750 
# 
# From -- ./inp_files/354562.got.cif
#   From: 2010.05.17/outbox.cif.g08.bks.cpg/sg2_178_cif.got.tgz:354562.got - 2010.06.03 11:33:40.
