data_PCOD9007140
_publ_section_title
;
Structure prediction by ZEFSAII (Michael W. Deem and Ramdas Pophale) SiO2 
 PCOD9007140
Probable space group: P -1
;
_chemical_formula_sum "Si O2"
_cell_formula_units_Z 16
_cell_length_a 14.466287
_cell_length_b 13.863690
_cell_length_c 10.657137
_cell_angle_alpha 124.638573
_cell_angle_beta 71.677209
_cell_angle_gamma 150.705528
_cell_volume 768.201029
_symmetry_space_group_name_H-M "P -1"
_symmetry_group_IT_number 2
_symmetry_cell_setting 'triclinic'
loop_
_space_group_symop_operation_xyz
x,y,z
-x,-y,-z
loop_
_atom_site_type_symbol
_atom_site_label
_atom_site_fract_x
_atom_site_fract_y
_atom_site_fract_z
Si Si1 0.785856 0.540455 0.905456
Si Si2 0.678567 0.593000 0.510927
Si Si3 0.489862 0.558114 0.175778
Si Si4 0.813495 0.307900 0.764523
Si Si5 0.861130 0.664044 0.250161
Si Si6 0.260864 0.723931 0.934022
Si Si7 0.681589 0.906233 0.548656
Si Si8 0.130415 0.073879 0.108079
O O1 0.767078 0.564391 0.076029
O O2 0.644617 0.469137 0.822566
O O3 0.738029 0.351726 0.774228
O O4 0.027746 0.837478 0.992231
O O5 0.500000 0.500000 0.500000
O O6 0.780819 0.670672 0.391237
O O7 0.538236 0.345414 0.465152
O O8 0.862768 0.841958 0.706124
O O9 0.679443 0.814384 0.364059
O O10 0.368813 0.338534 0.155777
O O11 0.500000 0.500000 0.000000
O O12 0.067248 0.576095 0.833031
O O13 0.716115 0.075647 0.607959
O O14 0.773086 0.276285 0.907394
O O15 0.780055 0.456787 0.191505
O O16 0.115310 0.915167 0.323202
O O17 0.500000 0.000000 0.000000
O O18 0.000000 0.000000 0.000000
#
# Coordination Sequence:
#
# PCOD9007140 Si02
#       8
#     2   2   2   2   2   2   2   2
#     4  10  21  39  60  87 116 155 198 242 294 353
#     4  11  23  35  57  88 118 154 195 241 289 345
#     4  10  23  40  60  83 116 159 198 241 299 354
#     4   9  19  36  58  86 117 153 196 240 293 343
#     4  10  22  35  58  90 119 151 190 244 294 340
#     4   9  17  33  56  83 121 157 185 233 293 352
#     4  10  22  40  60  86 121 157 194 245 294 348
#     4   9  21  38  56  78 110 157 187 238 293 341
#
# _framework density 20.827881999999999
#
# number of rings (size 3 to 8) (size 9 to 14) (size 15 to 20)
#    0.000    2.250    0.000    2.250    7.000    2.500 
#    2.250    0.000    0.000    0.750    0.000    0.000 
#    0.000    0.000    0.000    0.000    0.000    0.000 
#
# Total GULP energy -89124.068833 kJ/mol
# GULP energy per Si atom -5570.254302 kJ/mol
# Density = 2.078048 g / cm^3
# Si number density = 20.827882 Si / 1000 Ang^3
#
#
#
# Elastic Constant Matrix: (Units=GPa)
#
#
# Indices 1 2 3 4 5 6 
#
# 1 49.3153 23.9093 25.9725 9.3131 -4.5560 -12.3126
# 2 23.9093 61.7187 4.9224 9.1376 -14.5881 -4.0837
# 3 25.9725 4.9224 68.5445 3.9115 -10.2715 -3.0769
# 4 9.3131 9.1376 3.9115 38.1425 -2.9245 -3.9061
# 5 -4.5560 -14.5881 -10.2715 -2.9245 34.7598 3.1726
# 6 -12.3126 -4.0837 -3.0769 -3.9061 3.1726 20.3394
#
#
#
# Elastic Compliance Matrix: (Units=1/GPa)
#
#
# Indices 1 2 3 4 5 6 
#
# 1 0.039049 -0.013871 -0.013767 -0.003356 -0.006805 0.019188
# 2 -0.013871 0.023535 0.004951 -0.002515 0.009760 -0.004928
# 3 -0.013767 0.004951 0.020217 0.000074 0.006739 -0.005319
# 4 -0.003356 -0.002515 0.000074 0.027961 0.000628 0.002746
# 5 -0.006805 0.009760 0.006739 0.000628 0.034603 -0.006417
# 6 0.019188 -0.004928 -0.005319 0.002746 -0.006417 0.060516
#
#
# Mechanical properties :
#
#
# Convention : Reuss Voigt Hill
#
# Bulk Modulus (GPa) = 26.71970 32.13188 29.42579
# Shear Modulus (GPa) = 18.95868 26.96662 22.96265
#
# Velocity S-wave (km/s) = 3.02032 3.60215 3.32399
# Velocity P-wave (km/s) = 5.00197 5.72376 5.37500
#
# Compressibility (1/GPa) = 0.03742557
#
# Stress axis : x y z
#
# Youngs Moduli (GPa) = 25.60864 42.49063 49.46341
#
# Poissons Ratio (x) = 0.58940 0.68097
# Poissons Ratio (y) = 0.35523 -0.24489
# Poissons Ratio (z) = 0.35256 -0.21036
#
# Static dielectric constant tensor:
#      x y z
#    x 1.783690 0.008920 -0.000390 
#    y 0.008920 1.847740 -0.015050 
#    z -0.000390 -0.015050 1.844550 
# 
# From -- ./inp_files/433749.got.cif
#   From: 2010.05.17/outbox.cif.g08.bks.cpg/sg2_217_cif.got.tgz:433749.got - 2010.06.03 11:33:40.
