data_PCOD9007057
_publ_section_title
;
Structure prediction by ZEFSAII (Michael W. Deem and Ramdas Pophale) SiO2 
 PCOD9007057
Probable space group: P -1
;
_chemical_formula_sum "Si O2"
_cell_formula_units_Z 16
_cell_length_a 17.934670
_cell_length_b 14.773332
_cell_length_c 10.892175
_cell_angle_alpha 152.896527
_cell_angle_beta 142.965161
_cell_angle_gamma 37.641887
_cell_volume 756.424243
_symmetry_space_group_name_H-M "P -1"
_symmetry_group_IT_number 2
_symmetry_cell_setting 'triclinic'
loop_
_space_group_symop_operation_xyz
x,y,z
-x,-y,-z
loop_
_atom_site_type_symbol
_atom_site_label
_atom_site_fract_x
_atom_site_fract_y
_atom_site_fract_z
Si Si1 0.453925 0.352225 0.354176
Si Si2 0.162288 0.977707 0.081129
Si Si3 0.863775 0.957461 0.246950
Si Si4 0.108910 0.415099 0.648367
Si Si5 0.304360 0.040880 0.734770
Si Si6 0.872669 0.169059 0.887820
Si Si7 0.044237 0.501315 0.204344
Si Si8 0.276461 0.689557 0.691815
O O1 0.500000 0.500000 0.500000
O O2 0.571161 0.155638 0.311946
O O3 0.390214 0.495064 0.559086
O O4 0.351131 0.246040 0.029889
O O5 0.281890 0.843210 0.995910
O O6 0.818258 0.813456 0.582897
O O7 0.133261 0.831822 0.973750
O O8 0.024583 0.056681 0.921111
O O9 0.791170 0.924207 0.233225
O O10 0.770317 0.154123 0.294149
O O11 0.896859 0.735314 0.957782
O O12 0.000000 0.000000 0.500000
O O13 0.000000 0.500000 0.500000
O O14 0.057102 0.402209 0.703318
O O15 0.173387 0.602724 0.957070
O O16 0.222000 0.962286 0.432156
O O17 0.157222 0.607203 0.474511
O O18 0.000000 0.500000 0.000000
#
# Coordination Sequence:
#
# PCOD9007057 Si02
#       8
#     2   2   2   2   2   2   2   2
#     4  11  25  46  64  89 127 180 221 272 329 374
#     4  10  22  38  64  95 130 175 211 259 331 401
#     4  12  22  36  61  98 132 158 202 264 339 397
#     4  10  21  39  59  89 137 178 204 247 331 404
#     4  11  24  42  65  95 124 171 221 264 327 398
#     4  10  21  40  65  92 132 168 212 266 326 396
#     4  12  24  34  58  98 134 166 210 270 330 392
#     4  12  23  39  61  90 128 168 219 270 318 388
#
# _framework density 21.152152000000001
#
# number of rings (size 3 to 8) (size 9 to 14) (size 15 to 20)
#    0.000    1.000    3.750    5.250    1.750    1.000 
#    0.000    0.625    0.000    1.500    0.000    0.000 
#    0.000    0.000    0.000    0.000    0.000    0.000 
#
# Total GULP energy -89297.390080 kJ/mol
# GULP energy per Si atom -5581.086880 kJ/mol
# Density = 2.110401 g / cm^3
# Si number density = 21.152152 Si / 1000 Ang^3
#
#
#
# Elastic Constant Matrix: (Units=GPa)
#
#
# Indices 1 2 3 4 5 6 
#
# 1 120.0939 31.8879 59.1861 12.3146 -7.3130 -0.8601
# 2 31.8879 57.3659 37.1963 20.5785 -0.2673 -5.2197
# 3 59.1861 37.1963 130.1736 25.5435 4.6357 -5.5249
# 4 12.3146 20.5785 25.5435 34.8100 1.7506 -4.7122
# 5 -7.3130 -0.2673 4.6357 1.7506 41.5484 17.6314
# 6 -0.8601 -5.2197 -5.5249 -4.7122 17.6314 37.3536
#
#
#
# Elastic Compliance Matrix: (Units=1/GPa)
#
#
# Indices 1 2 3 4 5 6 
#
# 1 0.011806 -0.004194 -0.004637 0.001179 0.003601 -0.002551
# 2 -0.004194 0.026073 -0.003231 -0.011274 -0.000542 0.001903
# 3 -0.004637 -0.003231 0.011820 -0.004727 -0.002762 0.001897
# 4 0.001179 -0.011274 -0.004727 0.039111 -0.002658 0.003941
# 5 0.003601 -0.000542 -0.002762 -0.002658 0.031801 -0.015747
# 6 -0.002551 0.001903 0.001897 0.003941 -0.015747 0.035189
#
#
# Mechanical properties :
#
#
# Convention : Reuss Voigt Hill
#
# Bulk Modulus (GPa) = 39.10122 62.68600 50.89361
# Shear Modulus (GPa) = 26.53215 34.69994 30.61604
#
# Velocity S-wave (km/s) = 3.54552 4.05469 3.80862
# Velocity P-wave (km/s) = 5.94027 7.18476 6.59195
#
# Compressibility (1/GPa) = 0.02557465
#
# Stress axis : x y z
#
# Youngs Moduli (GPa) = 84.70280 38.35359 84.60060
#
# Poissons Ratio (x) = 0.16086 0.39232
# Poissons Ratio (y) = 0.35525 0.27334
# Poissons Ratio (z) = 0.39279 0.12392
#
# Static dielectric constant tensor:
#      x y z
#    x 1.695650 -0.025670 -0.016110 
#    y -0.025670 1.778800 0.028010 
#    z -0.016110 0.028010 1.865420 
# 
# From -- ./inp_files/465971.got.cif
#   From: 2010.05.17/outbox.cif.g08.bks.cpg/sg2_233_cif.got.tgz:465971.got - 2010.06.03 11:33:40.
