data_PCOD9007233
_publ_section_title
;
Structure prediction by ZEFSAII (Michael W. Deem and Ramdas Pophale) SiO2 
 PCOD9007233
Probable space group: P -1
;
_chemical_formula_sum "Si O2"
_cell_formula_units_Z 12
_cell_length_a 6.641156
_cell_length_b 9.693543
_cell_length_c 13.367239
_cell_angle_alpha 111.765087
_cell_angle_beta 44.599260
_cell_angle_gamma 115.437955
_cell_volume 542.769177
_symmetry_space_group_name_H-M "P -1"
_symmetry_group_IT_number 2
_symmetry_cell_setting 'triclinic'
loop_
_space_group_symop_operation_xyz
x,y,z
-x,-y,-z
loop_
_atom_site_type_symbol
_atom_site_label
_atom_site_fract_x
_atom_site_fract_y
_atom_site_fract_z
Si Si1 0.596256 0.802388 0.819181
Si Si2 0.771052 0.968201 0.981981
Si Si3 0.400238 0.775365 0.221781
Si Si4 0.653921 0.921603 0.605432
Si Si5 0.302931 0.460835 0.848639
Si Si6 0.704601 0.642925 0.405377
O O1 0.618516 0.837194 0.703038
O O2 0.542722 0.624364 0.809560
O O3 0.321540 0.875023 0.963827
O O4 0.844925 0.896701 0.832820
O O5 0.492108 0.843817 0.097352
O O6 0.000000 0.000000 0.000000
O O7 0.594590 0.659654 0.150053
O O8 0.051299 0.690903 0.329647
O O9 0.477814 0.929926 0.304115
O O10 0.578793 0.791585 0.512980
O O11 0.000000 0.000000 0.500000
O O12 0.290172 0.398403 0.723625
O O13 0.000000 0.500000 0.000000
O O14 0.500000 0.500000 0.500000
#
# Coordination Sequence:
#
# PCOD9007233 Si02
#       6
#     2   2   2   2   2   2
#     4  10  21  39  60  92 132 172 219 277 330 398
#     4  10  21  39  64  93 132 179 223 272 339 401
#     4  10  24  42  67 103 135 175 233 283 334 408
#     4   9  20  43  66  92 133 178 225 282 327 401
#     4  12  25  41  69 102 140 178 226 284 346 401
#     4  11  23  45  71  97 139 183 225 280 344 403
#
# _framework density 22.108844000000001
#
# number of rings (size 3 to 8) (size 9 to 14) (size 15 to 20)
#    0.000    1.667    1.667    2.000    0.000   10.667 
#    0.000    0.000    0.000    0.000    0.000    0.000 
#    0.000    0.000    0.000    0.000    0.000    0.000 
#
# Total GULP energy -66972.970874 kJ/mol
# GULP energy per Si atom -5581.080906 kJ/mol
# Density = 2.205852 g / cm^3
# Si number density = 22.108844 Si / 1000 Ang^3
#
#
#
# Elastic Constant Matrix: (Units=GPa)
#
#
# Indices 1 2 3 4 5 6 
#
# 1 89.3612 39.9818 29.4336 13.4026 7.6525 -4.6008
# 2 39.9818 139.1700 40.2195 24.5255 -1.3437 -16.0300
# 3 29.4336 40.2195 107.0314 21.2537 19.2502 -0.1262
# 4 13.4026 24.5255 21.2537 44.8223 12.2191 -3.9737
# 5 7.6525 -1.3437 19.2502 12.2191 35.3469 6.5584
# 6 -4.6008 -16.0300 -0.1262 -3.9737 6.5584 43.7879
#
#
#
# Elastic Compliance Matrix: (Units=1/GPa)
#
#
# Indices 1 2 3 4 5 6 
#
# 1 0.013566 -0.003107 -0.002085 -0.000862 -0.001707 0.000460
# 2 -0.003107 0.009852 -0.002683 -0.003906 0.003412 0.002407
# 3 -0.002085 -0.002683 0.012372 -0.002331 -0.005480 -0.000556
# 4 -0.000862 -0.003906 -0.002331 0.028472 -0.008980 0.002401
# 5 -0.001707 0.003412 -0.005480 -0.008980 0.035830 -0.005128
# 6 0.000460 0.002407 -0.000556 0.002401 -0.005128 0.024751
#
#
# Mechanical properties :
#
#
# Convention : Reuss Voigt Hill
#
# Bulk Modulus (GPa) = 49.89467 61.64804 55.77135
# Shear Modulus (GPa) = 33.95067 39.85328 36.90198
#
# Velocity S-wave (km/s) = 3.92294 4.25030 4.08990
# Velocity P-wave (km/s) = 6.56780 7.21326 6.89809
#
# Compressibility (1/GPa) = 0.02004222
#
# Stress axis : x y z
#
# Youngs Moduli (GPa) = 73.71236 101.50362 80.82636
#
# Poissons Ratio (x) = 0.31533 0.16849
# Poissons Ratio (y) = 0.22900 0.21685
# Poissons Ratio (z) = 0.15366 0.27232
#
# Static dielectric constant tensor:
#      x y z
#    x 1.860880 0.045180 -0.020520 
#    y 0.045180 1.804310 0.010100 
#    z -0.020520 0.010100 1.869220 
# 
# From -- ./inp_files/25918.got.cif
#   From: 2010.05.17/outbox.cif.g08.bks.cpg/sg2_13_cif.got.tgz:25918.got - 2010.06.03 11:33:40.
