data_PCOD9007796
_publ_section_title
;
Structure prediction by ZEFSAII (Michael W. Deem and Ramdas Pophale) SiO2 
 PCOD9007796
Probable space group: P -1
;
_chemical_formula_sum "Si O2"
_cell_formula_units_Z 16
_cell_length_a 8.359396
_cell_length_b 21.009504
_cell_length_c 12.665830
_cell_angle_alpha 149.840078
_cell_angle_beta 141.923735
_cell_angle_gamma 51.590690
_cell_volume 676.473491
_symmetry_space_group_name_H-M "P -1"
_symmetry_group_IT_number 2
_symmetry_cell_setting 'triclinic'
loop_
_space_group_symop_operation_xyz
x,y,z
-x,-y,-z
loop_
_atom_site_type_symbol
_atom_site_label
_atom_site_fract_x
_atom_site_fract_y
_atom_site_fract_z
Si Si1 0.282539 0.518281 0.994946
Si Si2 0.183362 0.036133 0.251541
Si Si3 0.044123 0.280751 0.881656
Si Si4 0.236017 0.277733 0.750898
Si Si5 0.801998 0.247646 0.090796
Si Si6 0.597357 0.715167 0.604618
Si Si7 0.582029 0.233141 0.185660
Si Si8 0.549206 0.076932 0.327835
O O1 0.088755 0.607465 0.978740
O O2 0.435559 0.598866 0.286311
O O3 0.500000 0.500000 0.000000
O O4 0.169170 0.375817 0.770506
O O5 0.108391 0.135204 0.438582
O O6 0.445369 0.111438 0.437992
O O7 0.232150 0.907989 0.149163
O O8 0.000000 0.000000 0.000000
O O9 0.854539 0.141178 0.580624
O O10 0.104005 0.315210 0.841405
O O11 0.315085 0.270808 0.059157
O O12 0.547758 0.284445 0.951887
O O13 0.779428 0.274364 0.245599
O O14 0.090617 0.295907 0.256356
O O15 0.435926 0.718175 0.633722
O O16 0.580763 0.847306 0.721143
O O17 0.527711 0.076581 0.941485
#
# Coordination Sequence:
#
# PCOD9007796 Si02
#       8
#     2   2   2   2   2   2   2   2
#     4  11  26  47  65  92 126 175 225 267 328 394
#     4  11  22  39  66  99 133 166 216 269 320 389
#     4  10  23  43  64  96 128 172 220 267 330 387
#     4  11  24  44  66  93 135 174 213 271 329 390
#     4  10  24  42  65 105 132 172 217 264 336 386
#     4  11  23  42  68  96 132 175 222 268 325 384
#     4  10  23  40  66 100 137 167 215 276 322 393
#     4  10  21  39  62  99 135 172 213 259 332 390
#
# _framework density 23.652073999999999
#
# number of rings (size 3 to 8) (size 9 to 14) (size 15 to 20)
#    0.000    1.500    1.250    3.000    5.250    4.500 
#    2.250    1.250    0.000    0.000    0.000    0.000 
#    0.000    0.000    0.000    0.000    0.000    0.000 
#
# Total GULP energy -89351.446206 kJ/mol
# GULP energy per Si atom -5584.465388 kJ/mol
# Density = 2.359824 g / cm^3
# Si number density = 23.652074 Si / 1000 Ang^3
#
#
#
# Elastic Constant Matrix: (Units=GPa)
#
#
# Indices 1 2 3 4 5 6 
#
# 1 -149.6453 505.0372 -338.7973 818.5169 -305.5247 408.6571
# 2 505.0372 -825.2186 687.0906-1510.5253 520.5457 -809.6295
# 3 -338.7973 687.0906 -437.2459 1105.8961 -411.3787 567.1841
# 4 818.5169-1510.5253 1105.8961-2550.7506 897.8592-1352.4546
# 5 -305.5247 520.5457 -411.3787 897.8592 -277.0831 474.7364
# 6 408.6571 -809.6295 567.1841-1352.4546 474.7364 -671.7939
#
#
#
# Elastic Compliance Matrix: (Units=1/GPa)
#
#
# Indices 1 2 3 4 5 6 
#
# 1 0.012017 -0.004520 0.007727 0.008000 0.008778 0.009379
# 2 -0.004520 0.025841 -0.028147 -0.027610 -0.010923 -0.009791
# 3 0.007727 -0.028147 0.079203 0.050243 0.041475 0.033653
# 4 0.008000 -0.027610 0.050243 0.046966 0.033539 0.009710
# 5 0.008778 -0.010923 0.041475 0.033539 0.050735 0.021852
# 6 0.009379 -0.009791 0.033653 0.009710 0.021852 0.040323
#
#
# Mechanical properties :
#
#
# Convention : Reuss Voigt Hill
#
# Bulk Modulus (GPa) = 14.88494 32.72792 23.80643
# Shear Modulus (GPa) = 15.27378 -850.95486 -417.84054
#
# Velocity S-wave (km/s) = 2.54396 -18.98845 -13.30582
# Velocity P-wave (km/s) = 3.86470 21.60743 15.03239
#
# Compressibility (1/GPa) = 0.06718199
#
# Stress axis : x y z
#
# Youngs Moduli (GPa) = 83.21466 38.69853 12.62577
#
# Poissons Ratio (x) = 0.17492 -0.09756
# Poissons Ratio (y) = 0.37613 0.35538
# Poissons Ratio (z) = -0.64303 1.08924
#
# Static dielectric constant tensor:
#      x y z
#    x 1.972680 -0.022960 0.034800 
#    y -0.022960 1.910250 -0.019120 
#    z 0.034800 -0.019120 1.956890 
# 
# From -- ./inp_files/185874.got.cif
#   From: 2010.05.17/outbox.cif.g08.bks.cpg/sg2_93_cif.got.tgz:185874.got - 2010.06.03 11:33:40.
