data_PCOD9007304
_publ_section_title
;
Structure prediction by ZEFSAII (Michael W. Deem and Ramdas Pophale) SiO2 
 PCOD9007304
Probable space group: P -1
;
_chemical_formula_sum "Si O2"
_cell_formula_units_Z 16
_cell_length_a 8.952721
_cell_length_b 8.335124
_cell_length_c 12.681598
_cell_angle_alpha 113.240567
_cell_angle_beta 86.645795
_cell_angle_gamma 72.612912
_cell_volume 812.838257
_symmetry_space_group_name_H-M "P -1"
_symmetry_group_IT_number 2
_symmetry_cell_setting 'triclinic'
loop_
_space_group_symop_operation_xyz
x,y,z
-x,-y,-z
loop_
_atom_site_type_symbol
_atom_site_label
_atom_site_fract_x
_atom_site_fract_y
_atom_site_fract_z
Si Si1 0.659451 0.570711 0.138681
Si Si2 0.394971 0.668986 0.476477
Si Si3 0.697650 0.718593 0.399917
Si Si4 0.698573 0.342416 0.753410
Si Si5 0.054981 0.792331 0.901806
Si Si6 0.123991 0.701123 0.638439
Si Si7 0.122378 0.059363 0.438069
Si Si8 0.852540 0.576548 0.943738
O O1 0.700445 0.677423 0.264588
O O2 0.474634 0.593515 0.166477
O O3 0.783376 0.356412 0.090826
O O4 0.700988 0.647396 0.046961
O O5 0.500000 0.500000 0.500000
O O6 0.516136 0.767627 0.459125
O O7 0.333944 0.600328 0.354082
O O8 0.247996 0.767884 0.584033
O O9 0.800102 0.519439 0.398143
O O10 0.769288 0.870491 0.471697
O O11 0.814810 0.428954 0.830637
O O12 0.778722 0.119341 0.682062
O O13 0.090014 0.793207 0.777352
O O14 0.910049 0.715891 0.908364
O O15 0.000000 0.000000 0.000000
O O16 0.968317 0.770216 0.590913
O O17 0.000000 0.000000 0.500000
O O18 0.000000 0.500000 0.000000
#
# Coordination Sequence:
#
# PCOD9007304 Si02
#       8
#     2   2   2   2   2   2   2   2
#     4   9  21  42  69  84 125 170 207 263 313 375
#     4   9  19  39  64  87 123 165 202 254 316 388
#     4   9  21  40  62  92 124 167 208 249 330 370
#     4  11  23  41  62  98 128 162 216 256 321 378
#     4  10  23  41  63  93 117 165 220 260 305 376
#     4  10  21  39  61  86 129 164 201 262 317 373
#     4  12  25  35  61  99 132 159 208 267 305 391
#     4  10  23  41  68  88 123 171 208 263 316 368
#
# _framework density 19.684114000000001
#
# number of rings (size 3 to 8) (size 9 to 14) (size 15 to 20)
#    0.000    2.000    1.250    1.500    8.750    4.000 
#    2.250    0.625    0.000    0.000    0.000    0.000 
#    0.000    0.000    0.000    0.000    0.000    0.000 
#
# Total GULP energy -89222.619907 kJ/mol
# GULP energy per Si atom -5576.413744 kJ/mol
# Density = 1.963931 g / cm^3
# Si number density = 19.684114 Si / 1000 Ang^3
#
#
#
# Elastic Constant Matrix: (Units=GPa)
#
#
# Indices 1 2 3 4 5 6 
#
# 1 106.3238 45.5855 85.2497 20.5761 5.3325 12.1243
# 2 45.5855 52.3027 53.0690 11.7435 1.7663 1.0012
# 3 85.2497 53.0690 128.7145 8.4052 -5.7862 25.8328
# 4 20.5761 11.7435 8.4052 34.9370 6.2531 9.3712
# 5 5.3325 1.7663 -5.7862 6.2531 48.7203 -1.2367
# 6 12.1243 1.0012 25.8328 9.3712 -1.2367 31.5392
#
#
#
# Elastic Compliance Matrix: (Units=1/GPa)
#
#
# Indices 1 2 3 4 5 6 
#
# 1 0.025337 -0.002985 -0.016348 -0.011329 -0.002975 0.006995
# 2 -0.002985 0.043846 -0.019179 -0.013322 -0.001339 0.019370
# 3 -0.016348 -0.019179 0.030132 0.014010 0.003712 -0.021804
# 4 -0.011329 -0.013322 0.014010 0.042021 -0.002496 -0.019280
# 5 -0.002975 -0.001339 0.003712 -0.002496 0.021654 -0.000263
# 6 0.006995 0.019370 -0.021804 -0.019280 -0.000263 0.051980
#
#
# Mechanical properties :
#
#
# Convention : Reuss Voigt Hill
#
# Bulk Modulus (GPa) = 44.85902 72.79439 58.82671
# Shear Modulus (GPa) = 16.69869 29.93509 23.31689
#
# Velocity S-wave (km/s) = 2.91578 3.90394 3.44547
# Velocity P-wave (km/s) = 5.84590 7.57513 6.76599
#
# Compressibility (1/GPa) = 0.02229206
#
# Stress axis : x y z
#
# Youngs Moduli (GPa) = 39.46825 22.80688 33.18724
#
# Poissons Ratio (x) = 0.06808 0.54254
# Poissons Ratio (y) = 0.11781 0.63649
# Poissons Ratio (z) = 0.64523 0.43741
#
# Static dielectric constant tensor:
#      x y z
#    x 1.776970 -0.034730 0.001520 
#    y -0.034730 1.705230 -0.020580 
#    z 0.001520 -0.020580 1.688750 
# 
# From -- ./inp_files/234161.got.cif
#   From: 2010.05.17/outbox.cif.g08.bks.cpg/sg2_118_cif.got.tgz:234161.got - 2010.06.03 11:33:40.
