data_PCOD9007030
_publ_section_title
;
Structure prediction by ZEFSAII (Michael W. Deem and Ramdas Pophale) SiO2 
 PCOD9007030
Probable space group: P -1
;
_chemical_formula_sum "Si O2"
_cell_formula_units_Z 14
_cell_length_a 5.175710
_cell_length_b 5.479126
_cell_length_c 22.935340
_cell_angle_alpha 122.824024
_cell_angle_beta 72.906926
_cell_angle_gamma 91.744473
_cell_volume 515.652431
_symmetry_space_group_name_H-M "P -1"
_symmetry_group_IT_number 2
_symmetry_cell_setting 'triclinic'
loop_
_space_group_symop_operation_xyz
x,y,z
-x,-y,-z
loop_
_atom_site_type_symbol
_atom_site_label
_atom_site_fract_x
_atom_site_fract_y
_atom_site_fract_z
Si Si1 0.652900 0.027450 0.703926
Si Si2 0.235771 0.418324 0.272944
Si Si3 0.386534 0.929239 0.925391
Si Si4 0.865755 0.780818 0.439975
Si Si5 0.985049 0.454579 0.064123
Si Si6 0.994310 0.717141 0.840746
Si Si7 0.715075 0.176812 0.397462
O O1 0.611382 0.882879 0.749537
O O2 0.501932 0.873776 0.643625
O O3 0.980728 0.959684 0.663230
O O4 0.579369 0.378229 0.746803
O O5 0.992121 0.383413 0.239793
O O6 0.109133 0.600881 0.361099
O O7 0.695469 0.922877 0.887227
O O8 0.317246 0.634055 0.921687
O O9 0.200620 0.922402 0.878296
O O10 0.239687 0.178705 0.010248
O O11 0.736392 0.522733 0.447189
O O12 0.677348 0.984069 0.432153
O O13 0.000000 0.000000 0.500000
O O14 0.012887 0.539236 0.142492
O O15 0.000000 0.500000 0.000000
#
# Coordination Sequence:
#
# PCOD9007030 Si02
#       7
#     2   2   2   2   2   2   2
#     4  10  22  41  63  89 124 167 202 262 313 373
#     4  10  23  42  62  93 130 165 215 262 317 377
#     4   9  21  39  57  86 119 153 200 244 306 364
#     4  10  21  41  67  95 128 170 214 264 318 375
#     4   9  20  38  62  88 118 156 202 248 302 367
#     4  10  21  39  59  86 120 161 198 253 309 365
#     4  10  21  40  64  91 121 162 210 260 314 374
#
# _framework density 27.150074
#
# number of rings (size 3 to 8) (size 9 to 14) (size 15 to 20)
#    0.857    1.429    0.000    1.714    0.000    6.286 
#    2.571   17.143    0.000    0.000    0.000    0.000 
#    0.000    0.000    0.000    0.000    0.000    0.000 
#
# Total GULP energy -78084.144354 kJ/mol
# GULP energy per Si atom -5577.438882 kJ/mol
# Density = 2.708828 g / cm^3
# Si number density = 27.150074 Si / 1000 Ang^3
#
#
#
# Elastic Constant Matrix: (Units=GPa)
#
#
# Indices 1 2 3 4 5 6 
#
# 1 116.1657 10.7770 31.8961 -8.8736 24.1391 0.6439
# 2 10.7770 175.9409 24.1680 -25.8226 26.0601 -12.3514
# 3 31.8961 24.1680 120.1347 -20.3272 30.1804 4.7651
# 4 -8.8736 -25.8226 -20.3272 48.2345 -7.1405 9.0031
# 5 24.1391 26.0601 30.1804 -7.1405 68.4057 -10.3370
# 6 0.6439 -12.3514 4.7651 9.0031 -10.3370 30.5651
#
#
#
# Elastic Compliance Matrix: (Units=1/GPa)
#
#
# Indices 1 2 3 4 5 6 
#
# 1 0.009723 0.000110 -0.001701 0.000925 -0.002794 -0.001113
# 2 0.000110 0.006511 -0.000451 0.002811 -0.001838 0.001250
# 3 -0.001701 -0.000451 0.010826 0.004222 -0.004246 -0.004514
# 4 0.000925 0.002811 0.004222 0.025344 -0.001763 -0.007604
# 5 -0.002794 -0.001838 -0.004246 -0.001763 0.019042 0.006937
# 6 -0.001113 0.001250 -0.004514 -0.007604 0.006937 0.038535
#
#
# Mechanical properties :
#
#
# Convention : Reuss Voigt Hill
#
# Bulk Modulus (GPa) = 43.52569 60.65817 52.09193
# Shear Modulus (GPa) = 41.07582 52.46775 46.77179
#
# Velocity S-wave (km/s) = 3.89384 4.40080 4.15506
# Velocity P-wave (km/s) = 6.02348 6.94356 6.49982
#
# Compressibility (1/GPa) = 0.02297494
#
# Stress axis : x y z
#
# Youngs Moduli (GPa) = 102.85303 153.57476 92.36631
#
# Poissons Ratio (x) = -0.01682 0.15711
# Poissons Ratio (y) = -0.01126 0.04169
# Poissons Ratio (z) = 0.17495 0.06931
#
# Static dielectric constant tensor:
#      x y z
#    x 2.177580 -0.084050 -0.046790 
#    y -0.084050 2.425270 0.037810 
#    z -0.046790 0.037810 2.143190 
# 
# From -- ./inp_files/114548.got.cif
#   From: 2010.05.17/outbox.cif.g08.bks.cpg/sg2_58_cif.got.tgz:114548.got - 2010.06.03 11:33:40.
