data_PCOD9007421
_publ_section_title
;
Structure prediction by ZEFSAII (Michael W. Deem and Ramdas Pophale) SiO2 
 PCOD9007421
Probable space group: P -1
;
_chemical_formula_sum "Si O2"
_cell_formula_units_Z 16
_cell_length_a 8.765347
_cell_length_b 14.272661
_cell_length_c 11.391638
_cell_angle_alpha 125.070565
_cell_angle_beta 137.506174
_cell_angle_gamma 77.239785
_cell_volume 732.997847
_symmetry_space_group_name_H-M "P -1"
_symmetry_group_IT_number 2
_symmetry_cell_setting 'triclinic'
loop_
_space_group_symop_operation_xyz
x,y,z
-x,-y,-z
loop_
_atom_site_type_symbol
_atom_site_label
_atom_site_fract_x
_atom_site_fract_y
_atom_site_fract_z
Si Si1 0.785179 0.060964 0.196656
Si Si2 0.975444 0.714910 0.680490
Si Si3 0.228197 0.858879 0.500965
Si Si4 0.163449 0.702984 0.018190
Si Si5 0.824101 0.040630 0.693826
Si Si6 0.487848 0.442136 0.823943
Si Si7 0.113437 0.395871 0.996566
Si Si8 0.256945 0.111371 0.250033
O O1 0.872542 0.116745 0.415330
O O2 0.860924 0.169502 0.221698
O O3 0.905608 0.961779 0.162555
O O4 0.500000 0.000000 0.000000
O O5 0.789817 0.617778 0.419142
O O6 0.798941 0.766116 0.691170
O O7 0.125262 0.678296 0.839730
O O8 0.057812 0.727858 0.256404
O O9 0.507293 0.870658 0.679029
O O10 0.244282 0.957041 0.478676
O O11 0.369366 0.654027 0.149131
O O12 0.916789 0.636430 0.906037
O O13 0.207131 0.845364 0.173852
O O14 0.687449 0.921588 0.609371
O O15 0.500000 0.500000 0.000000
O O16 0.633179 0.544597 0.883817
O O17 0.000000 0.500000 0.000000
O O18 0.000000 0.000000 0.000000
#
# Coordination Sequence:
#
# PCOD9007421 Si02
#       8
#     2   2   2   2   2   2   2   2
#     4  11  25  41  57  95 137 169 201 262 323 381
#     4  11  23  42  66  93 129 172 210 256 329 378
#     4  11  21  38  63  89 124 172 211 261 320 378
#     4  10  22  42  67  96 124 166 219 257 317 394
#     4  10  21  39  61  92 125 167 216 250 312 392
#     4  11  24  45  68  94 129 164 214 275 324 372
#     4   9  20  41  64  93 123 160 217 273 312 365
#     4  11  20  36  62  94 131 164 205 259 312 378
#
# _framework density 21.828168000000002
#
# number of rings (size 3 to 8) (size 9 to 14) (size 15 to 20)
#    0.000    1.500    1.250    5.250    0.000    2.000 
#    6.750    0.000    0.000    0.000    0.000    0.000 
#    0.000    0.000    0.000    0.000    0.000    0.000 
#
# Total GULP energy -89261.947828 kJ/mol
# GULP energy per Si atom -5578.871739 kJ/mol
# Density = 2.177849 g / cm^3
# Si number density = 21.828168 Si / 1000 Ang^3
#
#
#
# Elastic Constant Matrix: (Units=GPa)
#
#
# Indices 1 2 3 4 5 6 
#
# 1 89.7106 16.2004 26.9286 -3.3218 0.2264 6.3898
# 2 16.2004 63.5652 21.6826 -8.5153 -1.7813 14.1454
# 3 26.9286 21.6826 104.1132 -5.0716 0.4994 10.7916
# 4 -3.3218 -8.5153 -5.0716 27.0844 5.8294 -10.0643
# 5 0.2264 -1.7813 0.4994 5.8294 45.4937 -3.1334
# 6 6.3898 14.1454 10.7916 -10.0643 -3.1334 38.6605
#
#
#
# Elastic Compliance Matrix: (Units=1/GPa)
#
#
# Indices 1 2 3 4 5 6 
#
# 1 0.012381 -0.002103 -0.002703 0.000210 -0.000174 -0.000482
# 2 -0.002103 0.018715 -0.002686 0.003304 0.000013 -0.004889
# 3 -0.002703 -0.002686 0.011048 0.000384 -0.000371 -0.001585
# 4 0.000210 0.003304 0.000384 0.042538 -0.004683 0.009344
# 5 -0.000174 0.000013 -0.000371 -0.004683 0.022638 0.000743
# 6 -0.000482 -0.004889 -0.001585 0.009344 0.000743 0.030670
#
#
# Mechanical properties :
#
#
# Convention : Reuss Voigt Hill
#
# Bulk Modulus (GPa) = 36.81949 43.00136 39.91042
# Shear Modulus (GPa) = 30.85912 35.08622 32.97267
#
# Velocity S-wave (km/s) = 3.76404 4.01357 3.89080
# Velocity P-wave (km/s) = 5.98290 6.42036 6.20549
#
# Compressibility (1/GPa) = 0.02715953
#
# Stress axis : x y z
#
# Youngs Moduli (GPa) = 80.77110 53.43315 90.51209
#
# Poissons Ratio (x) = 0.11236 0.24468
# Poissons Ratio (y) = 0.16985 0.24312
# Poissons Ratio (z) = 0.21835 0.14352
#
# Static dielectric constant tensor:
#      x y z
#    x 1.815430 0.000760 -0.021620 
#    y 0.000760 1.834260 -0.042970 
#    z -0.021620 -0.042970 1.894920 
# 
# From -- ./inp_files/399490.got.cif
#   From: 2010.05.17/outbox.cif.g08.bks.cpg/sg2_200_cif.got.tgz:399490.got - 2010.06.03 11:33:40.
