data_PCOD9007724
_publ_section_title
;
Structure prediction by ZEFSAII (Michael W. Deem and Ramdas Pophale) SiO2 
 PCOD9007724
Probable space group: P -1
;
_chemical_formula_sum "Si O2"
_cell_formula_units_Z 16
_cell_length_a 8.338561
_cell_length_b 25.993959
_cell_length_c 15.292897
_cell_angle_alpha 20.540393
_cell_angle_beta 54.729167
_cell_angle_gamma 42.020153
_cell_volume 672.685831
_symmetry_space_group_name_H-M "P -1"
_symmetry_group_IT_number 2
_symmetry_cell_setting 'triclinic'
loop_
_space_group_symop_operation_xyz
x,y,z
-x,-y,-z
loop_
_atom_site_type_symbol
_atom_site_label
_atom_site_fract_x
_atom_site_fract_y
_atom_site_fract_z
Si Si1 0.331243 0.728127 0.726586
Si Si2 0.430451 0.370798 0.716843
Si Si3 0.952691 0.066997 0.770201
Si Si4 0.254559 0.268103 0.070614
Si Si5 0.888242 0.831467 0.582872
Si Si6 0.745950 0.965637 0.842391
Si Si7 0.422527 0.277215 0.685927
Si Si8 0.851183 0.334485 0.955767
O O1 0.034305 0.860845 0.561099
O O2 0.428904 0.831068 0.490143
O O3 0.500000 0.500000 0.000000
O O4 0.305246 0.708674 0.869222
O O5 0.500000 0.500000 0.500000
O O6 0.287805 0.404653 0.616498
O O7 0.262243 0.417527 0.782021
O O8 0.723850 0.132006 0.001255
O O9 0.838972 0.004524 0.837040
O O10 0.742797 0.160912 0.765951
O O11 0.949005 0.223710 0.469699
O O12 0.114058 0.322778 0.121925
O O13 0.570499 0.046865 0.330201
O O14 0.096548 0.252501 0.074145
O O15 0.611601 0.880749 0.047722
O O16 0.013219 0.792453 0.973762
O O17 0.305452 0.433171 0.392525
#
# Coordination Sequence:
#
# PCOD9007724 Si02
#       8
#     2   2   2   2   2   2   2   2
#     4  10  21  39  62  93 127 168 210 263 322 377
#     4  11  23  40  62  89 125 167 215 254 316 379
#     4  10  22  39  62  87 126 168 202 259 324 370
#     4   9  18  35  60  88 117 161 201 265 300 365
#     4   8  17  36  60  82 117 157 208 243 314 361
#     4  11  22  39  62  98 123 167 216 260 315 377
#     4  12  24  40  63  95 133 164 210 266 319 380
#     4  11  21  36  64  92 127 161 218 262 310 374
#
# _framework density 23.785250999999999
#
# number of rings (size 3 to 8) (size 9 to 14) (size 15 to 20)
#    0.000    1.750    1.250    3.750    1.750    0.000 
#    2.250    1.250    0.000    1.500    0.000    0.000 
#    0.000    0.000    0.000    0.000    0.000    0.000 
#
# Total GULP energy -89185.823930 kJ/mol
# GULP energy per Si atom -5574.113996 kJ/mol
# Density = 2.373111 g / cm^3
# Si number density = 23.785251 Si / 1000 Ang^3
#
#
#
# Elastic Constant Matrix: (Units=GPa)
#
#
# Indices 1 2 3 4 5 6 
#
# 1 44.9524 -2.4182 30.1206 9.1350 9.7721 -6.3364
# 2 -2.4182 94.4199 41.5071 44.4843 -3.0705 2.2985
# 3 30.1206 41.5071 124.1240 40.2200 1.3671 0.5158
# 4 9.1350 44.4843 40.2200 57.0939 -11.7923 1.6999
# 5 9.7721 -3.0705 1.3671 -11.7923 32.0421 -1.3594
# 6 -6.3364 2.2985 0.5158 1.6999 -1.3594 21.7384
#
#
#
# Elastic Compliance Matrix: (Units=1/GPa)
#
#
# Indices 1 2 3 4 5 6 
#
# 1 0.033551 0.007764 -0.007849 -0.008625 -0.011942 0.009072
# 2 0.007764 0.019125 -0.003349 -0.015032 -0.005876 0.001128
# 3 -0.007849 -0.003349 0.012768 -0.005168 -0.000453 -0.001861
# 4 -0.008625 -0.015032 -0.005168 0.037443 0.015072 -0.002787
# 5 -0.011942 -0.005876 -0.000453 0.015072 0.039789 -0.001539
# 6 0.009072 0.001128 -0.001861 -0.002787 -0.001539 0.048693
#
#
# Mechanical properties :
#
#
# Convention : Reuss Voigt Hill
#
# Bulk Modulus (GPa) = 17.07187 44.65724 30.86455
# Shear Modulus (GPa) = 22.96079 35.12734 29.04406
#
# Velocity S-wave (km/s) = 3.11036 3.84715 3.49821
# Velocity P-wave (km/s) = 4.48243 6.20887 5.41490
#
# Compressibility (1/GPa) = 0.05857590
#
# Stress axis : x y z
#
# Youngs Moduli (GPa) = 29.80580 52.28640 78.31938
#
# Poissons Ratio (x) = -0.40595 0.61476
# Poissons Ratio (y) = -0.23141 0.26227
# Poissons Ratio (z) = 0.23396 0.17509
#
# Static dielectric constant tensor:
#      x y z
#    x 1.890260 -0.050090 0.044620 
#    y -0.050090 1.946260 0.059190 
#    z 0.044620 0.059190 2.062330 
# 
# From -- ./inp_files/508958.got.cif
#   From: 2010.05.17/outbox.cif.g08.bks.cpg/sg2_255_cif.got.tgz:508958.got - 2010.06.03 11:33:40.
