data_PCOD9007481
_publ_section_title
;
Structure prediction by ZEFSAII (Michael W. Deem and Ramdas Pophale) SiO2 
 PCOD9007481
Probable space group: P -1
;
_chemical_formula_sum "Si O2"
_cell_formula_units_Z 12
_cell_length_a 17.791121
_cell_length_b 12.254854
_cell_length_c 6.985342
_cell_angle_alpha 108.248504
_cell_angle_beta 73.567507
_cell_angle_gamma 160.741502
_cell_volume 476.673481
_symmetry_space_group_name_H-M "P -1"
_symmetry_group_IT_number 2
_symmetry_cell_setting 'triclinic'
loop_
_space_group_symop_operation_xyz
x,y,z
-x,-y,-z
loop_
_atom_site_type_symbol
_atom_site_label
_atom_site_fract_x
_atom_site_fract_y
_atom_site_fract_z
Si Si1 0.247910 0.338785 0.779710
Si Si2 0.552898 0.554359 0.767175
Si Si3 0.621378 0.262250 0.347268
Si Si4 0.285388 0.454472 0.251492
Si Si5 0.043448 0.726708 0.138328
Si Si6 0.113760 0.610975 0.284932
O O1 0.380639 0.400382 0.693832
O O2 0.299059 0.512665 0.696935
O O3 0.019202 0.058138 0.252232
O O4 0.320373 0.487044 0.018231
O O5 0.561861 0.429675 0.682192
O O6 0.500000 0.500000 0.000000
O O7 0.195880 0.048672 0.231387
O O8 0.662527 0.351251 0.587789
O O9 0.644375 0.114537 0.704999
O O10 0.788888 0.395823 0.220008
O O11 0.149570 0.769822 0.207715
O O12 0.037335 0.683028 0.896167
O O13 0.000000 0.500000 0.500000
#
# Coordination Sequence:
#
# PCOD9007481 Si02
#       6
#     2   2   2   2   2   2
#     4  10  21  39  61  96 136 172 203 265 324 385
#     4  10  21  39  67  98 133 172 206 265 328 391
#     4  12  24  42  69  97 130 171 221 272 324 390
#     4  10  23  38  62 102 135 168 212 258 331 395
#     4  11  25  47  67  98 134 169 223 273 323 389
#     4  11  28  47  69  93 127 180 226 272 325 381
#
# _framework density 25.174464
#
# number of rings (size 3 to 8) (size 9 to 14) (size 15 to 20)
#    0.000    1.333    3.333    1.000    4.667    4.000 
#    0.000    0.000    0.000    0.000    0.000    0.000 
#    0.000    0.000    0.000    0.000    0.000    0.000 
#
# Total GULP energy -67243.328750 kJ/mol
# GULP energy per Si atom -5603.610729 kJ/mol
# Density = 2.511717 g / cm^3
# Si number density = 25.174464 Si / 1000 Ang^3
#
#
#
# Elastic Constant Matrix: (Units=GPa)
#
#
# Indices 1 2 3 4 5 6 
#
# 1 135.5866 20.6374 32.2329 -10.3702 0.9594 19.9297
# 2 20.6374 51.4410 17.4832 -10.6855 8.2903 18.6275
# 3 32.2329 17.4832 126.0626 13.7859 -8.8222 5.1603
# 4 -10.3702 -10.6855 13.7859 24.7604 2.5056 -6.5162
# 5 0.9594 8.2903 -8.8222 2.5056 31.9334 -3.4469
# 6 19.9297 18.6275 5.1603 -6.5162 -3.4469 31.9730
#
#
#
# Elastic Compliance Matrix: (Units=1/GPa)
#
#
# Indices 1 2 3 4 5 6 
#
# 1 0.009029 0.000215 -0.002765 0.004394 -0.001934 -0.004620
# 2 0.000215 0.032773 -0.006468 0.014809 -0.013255 -0.016595
# 3 -0.002765 -0.006468 0.010946 -0.010025 0.005822 0.002310
# 4 0.004394 0.014809 -0.010025 0.055411 -0.011056 0.000353
# 5 -0.001934 -0.013255 0.005822 -0.011056 0.038356 0.009870
# 6 -0.004620 -0.016595 0.002310 0.000353 0.009870 0.044587
#
#
# Mechanical properties :
#
#
# Convention : Reuss Voigt Hill
#
# Bulk Modulus (GPa) = 28.80881 50.42189 39.61535
# Shear Modulus (GPa) = 22.65424 33.91582 28.28503
#
# Velocity S-wave (km/s) = 3.00307 3.67445 3.35559
# Velocity P-wave (km/s) = 4.84697 6.17046 5.54832
#
# Compressibility (1/GPa) = 0.03471160
#
# Stress axis : x y z
#
# Youngs Moduli (GPa) = 110.75662 30.51270 91.35915
#
# Poissons Ratio (x) = -0.00656 0.25262
# Poissons Ratio (y) = -0.02380 0.59090
# Poissons Ratio (z) = 0.30626 0.19735
#
# Static dielectric constant tensor:
#      x y z
#    x 1.965680 0.001970 -0.015170 
#    y 0.001970 1.946490 -0.009940 
#    z -0.015170 -0.009940 2.019290 
# 
# From -- ./inp_files/109770.got.cif
#   From: 2010.05.17/outbox.cif.g08.bks.cpg/sg2_55_cif.got.tgz:109770.got - 2010.06.03 11:33:40.
