data_PCOD9007605
_publ_section_title
;
Structure prediction by ZEFSAII (Michael W. Deem and Ramdas Pophale) SiO2 
 PCOD9007605
Probable space group: P -1
;
_chemical_formula_sum "Si O2"
_cell_formula_units_Z 16
_cell_length_a 17.337447
_cell_length_b 18.470837
_cell_length_c 14.124711
_cell_angle_alpha 45.435813
_cell_angle_beta 155.491251
_cell_angle_gamma 152.803108
_cell_volume 706.143117
_symmetry_space_group_name_H-M "P -1"
_symmetry_group_IT_number 2
_symmetry_cell_setting 'triclinic'
loop_
_space_group_symop_operation_xyz
x,y,z
-x,-y,-z
loop_
_atom_site_type_symbol
_atom_site_label
_atom_site_fract_x
_atom_site_fract_y
_atom_site_fract_z
Si Si1 0.420275 0.842817 0.873528
Si Si2 0.061319 0.507248 0.452956
Si Si3 0.831854 0.982625 0.686093
Si Si4 0.320981 0.807326 0.997148
Si Si5 0.797806 0.769955 0.955595
Si Si6 0.842172 0.244349 0.940213
Si Si7 0.937192 0.900654 0.371304
Si Si8 0.684614 0.526031 0.917474
O O1 0.167223 0.697111 0.640271
O O2 0.593470 0.031550 0.876833
O O3 0.202070 0.723570 0.836425
O O4 0.731805 0.905812 0.165929
O O5 0.453950 0.660646 0.720468
O O6 0.000000 0.500000 0.500000
O O7 0.898612 0.527380 0.195509
O O8 0.049971 0.104734 0.722866
O O9 0.921028 0.911880 0.887870
O O10 0.426563 0.801408 0.366925
O O11 0.920706 0.100798 0.762746
O O12 0.061495 0.680779 0.912861
O O13 0.669330 0.908251 0.325751
O O14 0.500000 0.000000 0.000000
O O15 0.716333 0.629308 0.936701
O O16 0.144273 0.363428 0.093001
O O17 0.710494 0.698260 0.336722
#
# Coordination Sequence:
#
# PCOD9007605 Si02
#       8
#     2   2   2   2   2   2   2   2
#     4  10  21  39  65  88 124 168 206 251 315 368
#     4  11  25  41  60  96 131 159 209 256 308 371
#     4  10  22  40  60  89 124 168 209 254 304 382
#     4   9  20  38  65  88 120 164 207 253 311 372
#     4  11  23  39  63  88 128 166 211 253 313 360
#     4  10  21  41  62  92 124 162 210 258 309 366
#     4  10  21  39  62  89 124 157 211 254 312 372
#     4  11  24  39  63  94 125 162 207 260 308 367
#
# _framework density 22.658294999999999
#
# number of rings (size 3 to 8) (size 9 to 14) (size 15 to 20)
#    0.000    1.750    1.250    2.625    7.000    2.500 
#    0.000    5.000    2.750    0.000    0.000    0.000 
#    0.000    0.000    0.000    0.000    0.000    0.000 
#
# Total GULP energy -89362.829934 kJ/mol
# GULP energy per Si atom -5585.176871 kJ/mol
# Density = 2.260672 g / cm^3
# Si number density = 22.658295 Si / 1000 Ang^3
#
#
#
# Elastic Constant Matrix: (Units=GPa)
#
#
# Indices 1 2 3 4 5 6 
#
# 1 129.6698 27.9168 7.0987 -2.6099 -10.2810 35.1114
# 2 27.9168 60.7628 -2.2153 -3.3049 -4.0371 16.4584
# 3 7.0987 -2.2153 25.7369 -8.6300 2.9453 10.2785
# 4 -2.6099 -3.3049 -8.6300 19.5650 0.6128 3.5316
# 5 -10.2810 -4.0371 2.9453 0.6128 30.4975 -4.7575
# 6 35.1114 16.4584 10.2785 3.5316 -4.7575 36.8664
#
#
#
# Elastic Compliance Matrix: (Units=1/GPa)
#
#
# Indices 1 2 3 4 5 6 
#
# 1 0.011022 -0.001843 0.002105 0.003922 0.001562 -0.010435
# 2 -0.001843 0.021396 0.010602 0.010209 -0.000865 -0.011842
# 3 0.002105 0.010602 0.063933 0.035835 -0.009337 -0.029200
# 4 0.003922 0.010209 0.035835 0.074095 -0.006364 -0.026204
# 5 0.001562 -0.000865 -0.009337 -0.006364 0.035270 0.006663
# 6 -0.010435 -0.011842 -0.029200 -0.026204 0.006663 0.053861
#
#
# Mechanical properties :
#
#
# Convention : Reuss Voigt Hill
#
# Bulk Modulus (GPa) = 8.46897 31.30778 19.88838
# Shear Modulus (GPa) = 18.03683 29.61042 23.82362
#
# Velocity S-wave (km/s) = 2.82447 3.61892 3.24609
# Velocity P-wave (km/s) = 3.79245 5.59549 4.77976
#
# Compressibility (1/GPa) = 0.11807808
#
# Stress axis : x y z
#
# Youngs Moduli (GPa) = 90.72806 46.73736 15.64139
#
# Poissons Ratio (x) = 0.08616 -0.03293
# Poissons Ratio (y) = 0.16726 -0.16582
# Poissons Ratio (z) = -0.19101 -0.49549
#
# Static dielectric constant tensor:
#      x y z
#    x 1.885700 -0.016230 -0.007080 
#    y -0.016230 1.844630 0.014720 
#    z -0.007080 0.014720 1.896270 
# 
# From -- ./inp_files/201111.got.cif
#   From: 2010.05.17/outbox.cif.g08.bks.cpg/sg2_101_cif.got.tgz:201111.got - 2010.06.03 11:33:40.
