data_PCOD9007706
_publ_section_title
;
Structure prediction by ZEFSAII (Michael W. Deem and Ramdas Pophale) SiO2 
 PCOD9007706
Probable space group: P -1
;
_chemical_formula_sum "Si O2"
_cell_formula_units_Z 15
_cell_length_a 14.354011
_cell_length_b 5.945211
_cell_length_c 9.020531
_cell_angle_alpha 102.924069
_cell_angle_beta 122.936763
_cell_angle_gamma 103.184716
_cell_volume 569.255981
_symmetry_space_group_name_H-M "P -1"
_symmetry_group_IT_number 2
_symmetry_cell_setting 'triclinic'
loop_
_space_group_symop_operation_xyz
x,y,z
-x,-y,-z
loop_
_atom_site_type_symbol
_atom_site_label
_atom_site_fract_x
_atom_site_fract_y
_atom_site_fract_z
Si Si1 0.833035 0.397146 0.130711
Si Si2 0.926118 0.876361 0.762928
Si Si3 0.000000 0.000000 0.500000
Si Si4 0.428946 0.037658 0.644854
Si Si5 0.368929 0.420836 0.119563
Si Si6 0.080739 0.630651 0.234111
Si Si7 0.344986 0.054719 0.253402
Si Si8 0.250858 0.961226 0.739590
O O1 0.804181 0.304465 0.258688
O O2 0.974052 0.589469 0.260506
O O3 0.742401 0.508060 0.004983
O O4 0.785358 0.138415 0.955350
O O5 0.864965 0.570761 0.700940
O O6 0.994905 0.904603 0.666978
O O7 0.860237 0.066851 0.705641
O O8 0.000000 0.000000 0.000000
O O9 0.857665 0.957785 0.379728
O O10 0.502475 0.344314 0.763321
O O11 0.538464 0.950858 0.734641
O O12 0.368895 0.974947 0.422489
O O13 0.327539 0.934993 0.665899
O O14 0.356499 0.333372 0.267218
O O15 0.344370 0.183391 0.957491
O O16 0.000000 0.500000 0.000000
#
# Coordination Sequence:
#
# PCOD9007706 Si02
#       8
#     2   2   1   2   2   2   2   2
#     4  10  21  39  62  92 129 174 219 278 345 416
#     4  10  23  43  70  96 134 189 241 294 354 416
#     4  12  24  46  66 100 146 186 242 298 346 440
#     4  10  21  40  65  96 129 170 218 284 344 417
#     4  10  21  40  66  92 127 171 218 281 344 415
#     4  10  21  41  67  96 135 188 239 291 354 423
#     4   9  21  39  65  95 132 161 224 278 343 420
#     4  11  24  41  62  95 131 174 225 277 351 414
#
# _framework density 26.350183999999999
#
# number of rings (size 3 to 8) (size 9 to 14) (size 15 to 20)
#    0.000    1.867    1.333    1.600    1.867    8.533 
#    4.800    0.000    0.000    0.000    0.000    0.000 
#    0.000    0.000    0.000    0.000    0.000    0.000 
#
# Total GULP energy -83568.002092 kJ/mol
# GULP energy per Si atom -5571.200139 kJ/mol
# Density = 2.629021 g / cm^3
# Si number density = 26.350184 Si / 1000 Ang^3
#
#
#
# Elastic Constant Matrix: (Units=GPa)
#
#
# Indices 1 2 3 4 5 6 
#
# 1 88.0354 11.9275 -11.3613 -19.3246 5.2696 1.1588
# 2 11.9275 159.2600 13.6061 -19.6443 10.9091 -21.2092
# 3 -11.3613 13.6061 95.1485 -8.9259 3.6585 1.2331
# 4 -19.3246 -19.6443 -8.9259 40.8510 4.6059 4.6217
# 5 5.2696 10.9091 3.6585 4.6059 36.3233 -4.1657
# 6 1.1588 -21.2092 1.2331 4.6217 -4.1657 21.6749
#
#
#
# Elastic Compliance Matrix: (Units=1/GPa)
#
#
# Indices 1 2 3 4 5 6 
#
# 1 0.013695 -0.000571 0.002610 0.007586 -0.003467 -0.003724
# 2 -0.000571 0.007752 -0.000947 0.002678 -0.001713 0.006770
# 3 0.002610 -0.000947 0.011435 0.003843 -0.002070 -0.002934
# 4 0.007586 0.002678 0.003843 0.031676 -0.007009 -0.006105
# 5 -0.003467 -0.001713 -0.002070 -0.007009 0.030328 0.005950
# 6 -0.003724 0.006770 -0.002934 -0.006105 0.005950 0.055572
#
#
# Mechanical properties :
#
#
# Convention : Reuss Voigt Hill
#
# Bulk Modulus (GPa) = 28.51826 41.19870 34.85848
# Shear Modulus (GPa) = 31.25715 41.65462 36.45589
#
# Velocity S-wave (km/s) = 3.44789 3.98025 3.72360
# Velocity P-wave (km/s) = 5.16691 6.06566 5.63423
#
# Compressibility (1/GPa) = 0.03506525
#
# Stress axis : x y z
#
# Youngs Moduli (GPa) = 73.01859 129.00001 87.44942
#
# Poissons Ratio (x) = 0.07370 -0.22826
# Poissons Ratio (y) = 0.04172 0.08285
# Poissons Ratio (z) = -0.19060 0.12222
#
# Static dielectric constant tensor:
#      x y z
#    x 1.856960 0.208030 0.050400 
#    y 0.208030 1.927750 -0.146870 
#    z 0.050400 -0.146870 2.018010 
# 
# From -- ./inp_files/288943.got.cif
#   From: 2010.05.17/outbox.cif.g08.bks.cpg/sg2_145_cif.got.tgz:288943.got - 2010.06.03 11:33:40.
