data_PCOD9007289
_publ_section_title
;
Structure prediction by ZEFSAII (Michael W. Deem and Ramdas Pophale) SiO2 
 PCOD9007289
Probable space group: P -1
;
_chemical_formula_sum "Si O2"
_cell_formula_units_Z 14
_cell_length_a 16.062668
_cell_length_b 5.552747
_cell_length_c 8.664177
_cell_angle_alpha 124.463690
_cell_angle_beta 73.207490
_cell_angle_gamma 118.748150
_cell_volume 558.458765
_symmetry_space_group_name_H-M "P -1"
_symmetry_group_IT_number 2
_symmetry_cell_setting 'triclinic'
loop_
_space_group_symop_operation_xyz
x,y,z
-x,-y,-z
loop_
_atom_site_type_symbol
_atom_site_label
_atom_site_fract_x
_atom_site_fract_y
_atom_site_fract_z
Si Si1 0.629519 0.236883 0.665264
Si Si2 0.266756 0.173650 0.641297
Si Si3 0.913664 0.096148 0.523120
Si Si4 0.698608 0.867278 0.054730
Si Si5 0.862732 0.278480 0.917086
Si Si6 0.571562 0.219816 0.346700
Si Si7 0.994884 0.971838 0.171545
O O1 0.591506 0.312421 0.550018
O O2 0.712330 0.126714 0.534358
O O3 0.540551 0.939919 0.676821
O O4 0.663059 0.530119 0.868515
O O5 0.242040 0.133274 0.821986
O O6 0.364936 0.479597 0.679746
O O7 0.188676 0.185935 0.566060
O O8 0.887401 0.319036 0.736115
O O9 0.951468 0.188508 0.361208
O O10 0.000000 0.000000 0.500000
O O11 0.613347 0.954625 0.192454
O O12 0.758872 0.130572 0.990997
O O13 0.902687 0.004859 0.824052
O O14 0.923460 0.597068 0.094168
O O15 0.000000 0.000000 0.000000
#
# Coordination Sequence:
#
# PCOD9007289 Si02
#       7
#     2   2   2   2   2   2   2
#     4  10  23  41  64  96 130 168 212 264 323 381
#     4  11  23  39  64  95 128 168 218 268 316 379
#     4  10  22  40  62  88 122 165 208 257 316 373
#     4  11  23  39  64  94 128 169 214 260 318 382
#     4  10  22  38  58  85 118 159 203 253 310 370
#     4  10  22  42  65  93 132 170 211 263 320 384
#     4  10  21  39  61  86 117 153 205 260 307 365
#
# _framework density 25.068994
#
# number of rings (size 3 to 8) (size 9 to 14) (size 15 to 20)
#    0.000    1.714    0.000    3.429    0.000    6.857 
#    0.000    4.286    0.000    0.000    0.000    0.000 
#    0.000    0.000    0.000    0.000    0.000    0.000 
#
# Total GULP energy -78184.137796 kJ/mol
# GULP energy per Si atom -5584.581271 kJ/mol
# Density = 2.501194 g / cm^3
# Si number density = 25.068994 Si / 1000 Ang^3
#
#
#
# Elastic Constant Matrix: (Units=GPa)
#
#
# Indices 1 2 3 4 5 6 
#
# 1 77.7319 11.4327 43.7505 4.0563 5.5000 14.9651
# 2 11.4327 60.6010 29.4297 -6.0649 -2.5483 9.4815
# 3 43.7505 29.4297 195.8690 4.4716 -1.3442 14.2710
# 4 4.0563 -6.0649 4.4716 40.3243 7.9277 -6.4764
# 5 5.5000 -2.5483 -1.3442 7.9277 22.4811 -2.5924
# 6 14.9651 9.4815 14.2710 -6.4764 -2.5924 27.5043
#
#
#
# Elastic Compliance Matrix: (Units=1/GPa)
#
#
# Indices 1 2 3 4 5 6 
#
# 1 0.016654 -0.000798 -0.002999 -0.001855 -0.004624 -0.008103
# 2 -0.000798 0.018727 -0.002380 0.002320 0.000878 -0.004158
# 3 -0.002999 -0.002380 0.006235 -0.001119 0.001123 -0.000941
# 4 -0.001855 0.002320 -0.001119 0.028200 -0.008530 0.006626
# 5 -0.004624 0.000878 0.001123 -0.008530 0.049280 0.004267
# 6 -0.008103 -0.004158 -0.000941 0.006626 0.004267 0.044651
#
#
# Mechanical properties :
#
#
# Convention : Reuss Voigt Hill
#
# Bulk Modulus (GPa) = 34.17280 55.93641 45.05460
# Shear Modulus (GPa) = 26.90286 34.70119 30.80203
#
# Velocity S-wave (km/s) = 3.27946 3.72456 3.50907
# Velocity P-wave (km/s) = 5.29158 6.39202 5.86765
#
# Compressibility (1/GPa) = 0.02926304
#
# Stress axis : x y z
#
# Youngs Moduli (GPa) = 60.04539 53.39840 160.39301
#
# Poissons Ratio (x) = 0.04260 0.48103
# Poissons Ratio (y) = 0.04790 0.38167
# Poissons Ratio (z) = 0.18008 0.12707
#
# Static dielectric constant tensor:
#      x y z
#    x 2.059630 -0.055790 0.036040 
#    y -0.055790 2.128720 -0.093280 
#    z 0.036040 -0.093280 2.084990 
# 
# From -- ./inp_files/41667.got.cif
#   From: 2010.05.17/outbox.cif.g08.bks.cpg/sg2_21_cif.got.tgz:41667.got - 2010.06.03 11:33:40.
