data_PCOD9007961
_publ_section_title
;
Structure prediction by ZEFSAII (Michael W. Deem and Ramdas Pophale) SiO2 
 PCOD9007961
Probable space group: P -1
;
_chemical_formula_sum "Si O2"
_cell_formula_units_Z 14
_cell_length_a 13.029897
_cell_length_b 13.491962
_cell_length_c 5.013553
_cell_angle_alpha 111.125020
_cell_angle_beta 102.741269
_cell_angle_gamma 51.108559
_cell_volume 639.886005
_symmetry_space_group_name_H-M "P -1"
_symmetry_group_IT_number 2
_symmetry_cell_setting 'triclinic'
loop_
_space_group_symop_operation_xyz
x,y,z
-x,-y,-z
loop_
_atom_site_type_symbol
_atom_site_label
_atom_site_fract_x
_atom_site_fract_y
_atom_site_fract_z
Si Si1 0.727142 0.983872 0.252420
Si Si2 0.878793 0.600585 0.329718
Si Si3 0.844235 0.380199 0.137139
Si Si4 0.613371 0.856356 0.303066
Si Si5 0.612595 0.158241 0.867527
Si Si6 0.993980 0.736425 0.362656
Si Si7 0.410753 0.582222 0.780890
O O1 0.647316 0.108786 0.533136
O O2 0.668246 0.900410 0.148756
O O3 0.712638 0.034333 0.996160
O O4 0.872696 0.883939 0.357397
O O5 0.823545 0.515720 0.176940
O O6 0.741565 0.748607 0.450516
O O7 0.000000 0.500000 0.500000
O O8 0.946157 0.641905 0.197829
O O9 0.962807 0.291102 0.331652
O O10 0.719880 0.407611 0.242113
O O11 0.887865 0.304576 0.807222
O O12 0.533471 0.800341 0.119225
O O13 0.500000 0.000000 0.500000
O O14 0.621953 0.273945 0.068828
O O15 0.500000 0.500000 0.500000
O O16 0.500000 0.500000 0.000000
#
# Coordination Sequence:
#
# PCOD9007961 Si02
#       7
#     2   2   2   2   2   2   2
#     4  10  21  39  63  93 125 158 202 260 318 381
#     4   9  19  36  62  93 126 163 207 260 322 381
#     4  11  22  40  61  89 122 165 209 256 313 376
#     4   9  19  36  61  93 126 163 206 260 322 381
#     4  11  22  40  62  90 123 165 209 256 313 376
#     4  10  21  39  63  92 125 158 202 260 318 381
#     4  12  26  44  63  88 123 166 215 266 310 372
#
# _framework density 21.878896999999998
#
# number of rings (size 3 to 8) (size 9 to 14) (size 15 to 20)
#    0.000    1.714    0.000    4.286    0.000    2.286 
#    0.000   17.143    0.000    0.000    0.000    0.000 
#    0.000    0.000    0.000    0.000    0.000    0.000 
#
# Total GULP energy -78025.129007 kJ/mol
# GULP energy per Si atom -5573.223501 kJ/mol
# Density = 2.182910 g / cm^3
# Si number density = 21.878897 Si / 1000 Ang^3
#
#
#
# Elastic Constant Matrix: (Units=GPa)
#
#
# Indices 1 2 3 4 5 6 
#
# 1 103.8340 29.4621 17.6077 17.9974 -8.0432 -1.4572
# 2 29.4621 117.5414 8.3541 -10.2966 -3.2140 -21.4454
# 3 17.6077 8.3541 70.4959 -5.6778 -16.3066 1.0676
# 4 17.9974 -10.2966 -5.6778 32.7308 1.6357 4.9379
# 5 -8.0432 -3.2140 -16.3066 1.6357 27.2028 -1.1324
# 6 -1.4572 -21.4454 1.0676 4.9379 -1.1324 29.6623
#
#
#
# Elastic Compliance Matrix: (Units=1/GPa)
#
#
# Indices 1 2 3 4 5 6 
#
# 1 0.012916 -0.003830 -0.002997 -0.008859 0.002083 -0.000472
# 2 -0.003830 0.011178 -0.000073 0.004522 0.000170 0.007150
# 3 -0.002997 -0.000073 0.017453 0.004371 0.009255 -0.001202
# 4 -0.008859 0.004522 0.004371 0.038269 -0.001923 -0.003767
# 5 0.002083 0.000170 0.009255 -0.001923 0.043138 0.001859
# 6 -0.000472 0.007150 -0.001202 -0.003767 0.001859 0.039600
#
#
# Mechanical properties :
#
#
# Convention : Reuss Voigt Hill
#
# Bulk Modulus (GPa) = 36.03723 44.74656 40.39190
# Shear Modulus (GPa) = 26.93936 33.68234 30.31085
#
# Velocity S-wave (km/s) = 3.51279 3.92789 3.72612
# Velocity P-wave (km/s) = 5.74107 6.40839 6.08388
#
# Compressibility (1/GPa) = 0.02774908
#
# Stress axis : x y z
#
# Youngs Moduli (GPa) = 77.42398 89.46131 57.29561
#
# Poissons Ratio (x) = 0.34261 0.17170
# Poissons Ratio (y) = 0.29651 0.00417
# Poissons Ratio (z) = 0.23202 0.00650
#
# Static dielectric constant tensor:
#      x y z
#    x 1.726780 -0.029880 -0.062540 
#    y -0.029880 1.802210 0.014180 
#    z -0.062540 0.014180 1.758000 
# 
# From -- ./inp_files/71880.got.cif
#   From: 2010.05.17/outbox.cif.g08.bks.cpg/sg2_36_cif.got.tgz:71880.got - 2010.06.03 11:33:40.
