data_PCOD9007994
_publ_section_title
;
Structure prediction by ZEFSAII (Michael W. Deem and Ramdas Pophale) SiO2 
 PCOD9007994
Probable space group: P -1
;
_chemical_formula_sum "Si O2"
_cell_formula_units_Z 12
_cell_length_a 12.030383
_cell_length_b 8.301342
_cell_length_c 11.655634
_cell_angle_alpha 37.498456
_cell_angle_beta 55.541617
_cell_angle_gamma 57.260709
_cell_volume 574.378082
_symmetry_space_group_name_H-M "P -1"
_symmetry_group_IT_number 2
_symmetry_cell_setting 'triclinic'
loop_
_space_group_symop_operation_xyz
x,y,z
-x,-y,-z
loop_
_atom_site_type_symbol
_atom_site_label
_atom_site_fract_x
_atom_site_fract_y
_atom_site_fract_z
Si Si1 0.116403 0.346896 0.437528
Si Si2 0.542738 0.549363 0.237828
Si Si3 0.619527 0.014508 0.763781
Si Si4 0.163963 0.739109 0.774555
Si Si5 0.915748 0.700716 0.773475
Si Si6 0.418529 0.327953 0.227661
O O1 0.048925 0.331457 0.361396
O O2 0.257536 0.455427 0.269629
O O3 0.000000 0.500000 0.500000
O O4 0.167256 0.046629 0.625799
O O5 0.692267 0.415809 0.270627
O O6 0.486138 0.337919 0.307466
O O7 0.444481 0.696123 0.311353
O O8 0.565313 0.792328 0.001320
O O9 0.783988 0.940568 0.721883
O O10 0.582560 0.939693 0.697442
O O11 0.041138 0.739613 0.756931
O O12 0.133444 0.566555 0.999428
O O13 0.500000 0.500000 0.000000
#
# Coordination Sequence:
#
# PCOD9007994 Si02
#       6
#     2   2   2   2   2   2
#     4  11  24  40  62  95 129 166 210 263 321 377
#     4   9  17  33  58  88 116 157 208 255 306 371
#     4   8  16  33  60  85 114 161 208 248 310 371
#     4  10  21  39  63  93 126 161 216 263 314 378
#     4   9  20  41  63  87 126 169 205 263 318 381
#     4   9  19  38  60  87 124 166 207 258 311 378
#
# _framework density 20.892160000000001
#
# number of rings (size 3 to 8) (size 9 to 14) (size 15 to 20)
#    0.000    2.667    0.000    1.500    2.333    1.333 
#    6.000    3.333    0.000    0.000    0.000    0.000 
#    0.000    0.000    0.000    0.000    0.000    0.000 
#
# Total GULP energy -66941.039182 kJ/mol
# GULP energy per Si atom -5578.419932 kJ/mol
# Density = 2.084461 g / cm^3
# Si number density = 20.892160 Si / 1000 Ang^3
#
#
#
# Elastic Constant Matrix: (Units=GPa)
#
#
# Indices 1 2 3 4 5 6 
#
# 1 108.8831 73.7253 16.8152 6.4493 -1.9709 -3.4452
# 2 73.7253 190.1704 46.7070 32.2066 4.0617 -10.9189
# 3 16.8152 46.7070 98.1904 7.4528 -1.6158 -8.2168
# 4 6.4493 32.2066 7.4528 31.3579 -1.5137 1.1557
# 5 -1.9709 4.0617 -1.6158 -1.5137 22.6143 1.8515
# 6 -3.4452 -10.9189 -8.2168 1.1557 1.8515 19.0491
#
#
#
# Elastic Compliance Matrix: (Units=1/GPa)
#
#
# Indices 1 2 3 4 5 6 
#
# 1 0.012832 -0.005722 0.000200 0.003359 0.002493 -0.001319
# 2 -0.005722 0.009960 -0.002790 -0.008714 -0.003425 0.004332
# 3 0.000200 -0.002790 0.011785 -0.000050 0.001077 0.003419
# 4 0.003359 -0.008714 -0.000050 0.040683 0.005182 -0.007381
# 5 0.002493 -0.003425 0.001077 0.005182 0.045953 -0.005828
# 6 -0.001319 0.004332 0.003419 -0.007381 -0.005828 0.057229
#
#
# Mechanical properties :
#
#
# Convention : Reuss Voigt Hill
#
# Bulk Modulus (GPa) = 55.70192 74.63763 65.16977
# Shear Modulus (GPa) = 24.86946 31.93737 28.40341
#
# Velocity S-wave (km/s) = 3.45392 3.91407 3.69117
# Velocity P-wave (km/s) = 6.52883 7.49862 7.03047
#
# Compressibility (1/GPa) = 0.01795270
#
# Stress axis : x y z
#
# Youngs Moduli (GPa) = 77.93126 100.40652 84.85438
#
# Poissons Ratio (x) = 0.57448 -0.01696
# Poissons Ratio (y) = 0.44588 0.23675
# Poissons Ratio (z) = -0.01558 0.28015
#
# Static dielectric constant tensor:
#      x y z
#    x 1.741110 0.039220 0.000110 
#    y 0.039220 1.657010 -0.072250 
#    z 0.000110 -0.072250 1.758470 
# 
# From -- ./inp_files/176231.got.cif
#   From: 2010.05.17/outbox.cif.g08.bks.cpg/sg2_89_cif.got.tgz:176231.got - 2010.06.03 11:33:40.
