data_PCOD9007569
_publ_section_title
;
Structure prediction by ZEFSAII (Michael W. Deem and Ramdas Pophale) SiO2 
 PCOD9007569
Probable space group: P -1
;
_chemical_formula_sum "Si O2"
_cell_formula_units_Z 16
_cell_length_a 8.948464
_cell_length_b 18.562110
_cell_length_c 11.684217
_cell_angle_alpha 130.765133
_cell_angle_beta 59.039910
_cell_angle_gamma 149.698429
_cell_volume 735.453878
_symmetry_space_group_name_H-M "P -1"
_symmetry_group_IT_number 2
_symmetry_cell_setting 'triclinic'
loop_
_space_group_symop_operation_xyz
x,y,z
-x,-y,-z
loop_
_atom_site_type_symbol
_atom_site_label
_atom_site_fract_x
_atom_site_fract_y
_atom_site_fract_z
Si Si1 0.284761 0.258042 0.333001
Si Si2 0.142412 0.778698 0.625305
Si Si3 0.459324 0.643268 0.911644
Si Si4 0.660263 0.064602 0.881335
Si Si5 0.741852 0.465919 0.577702
Si Si6 0.930018 0.916341 0.181077
Si Si7 0.628708 0.310438 0.679480
Si Si8 0.032881 0.616639 0.001505
O O1 0.473191 0.351322 0.239269
O O2 0.505857 0.358421 0.456847
O O3 0.040909 0.233054 0.396723
O O4 0.115353 0.082393 0.221833
O O5 0.253120 0.735142 0.467674
O O6 0.922159 0.643171 0.672545
O O7 0.417763 0.950563 0.757812
O O8 0.316909 0.686658 0.012843
O O9 0.759180 0.779930 0.009832
O O10 0.208810 0.469514 0.893587
O O11 0.852828 0.054202 0.801125
O O12 0.865518 0.246601 0.965388
O O13 0.500000 0.000000 0.000000
O O14 0.582547 0.367457 0.655893
O O15 0.000000 0.500000 0.500000
O O16 0.670602 0.839086 0.286285
O O17 0.871541 0.468481 0.829182
#
# Coordination Sequence:
#
# PCOD9007569 Si02
#       8
#     2   2   2   2   2   2   2   2
#     4  12  23  39  64  94 128 168 214 260 314 378
#     4  11  24  41  64  94 128 168 211 261 316 377
#     4  10  21  40  63  91 128 166 211 257 317 377
#     4  12  24  41  66  96 128 167 216 262 317 379
#     4  10  21  39  62  88 124 166 206 256 311 370
#     4  11  24  40  65  94 128 169 209 266 320 373
#     4  10  23  44  64  93 131 166 212 260 320 381
#     4  10  22  41  67  93 128 169 204 264 320 373
#
# _framework density 21.755274
#
# number of rings (size 3 to 8) (size 9 to 14) (size 15 to 20)
#    0.000    1.250    0.000    6.750    0.000    5.500 
#    0.000    3.750    0.000    0.000    0.000    0.000 
#    0.000    0.000    0.000    0.000    0.000    0.000 
#
# Total GULP energy -89521.585233 kJ/mol
# GULP energy per Si atom -5595.099077 kJ/mol
# Density = 2.170576 g / cm^3
# Si number density = 21.755274 Si / 1000 Ang^3
#
#
#
# Elastic Constant Matrix: (Units=GPa)
#
#
# Indices 1 2 3 4 5 6 
#
# 1 116.2518 26.0377 27.3980 -2.3824 6.4148 9.0745
# 2 26.0377 100.4238 39.0846 -7.4208 -6.9068 -9.1799
# 3 27.3980 39.0846 73.4002 -9.9465 9.4053 6.3291
# 4 -2.3824 -7.4208 -9.9465 27.5641 -8.4464 7.3553
# 5 6.4148 -6.9068 9.4053 -8.4464 37.9154 8.7084
# 6 9.0745 -9.1799 6.3291 7.3553 8.7084 36.4581
#
#
#
# Elastic Compliance Matrix: (Units=1/GPa)
#
#
# Indices 1 2 3 4 5 6 
#
# 1 0.009809 -0.001913 -0.002356 -0.000211 -0.000956 -0.002243
# 2 -0.001913 0.014126 -0.007544 0.001043 0.004044 0.004166
# 3 -0.002356 -0.007544 0.020129 0.005241 -0.003655 -0.004992
# 4 -0.000211 0.001043 0.005241 0.045463 0.011952 -0.012622
# 5 -0.000956 0.004044 -0.003655 0.011952 0.032759 -0.008346
# 6 -0.002243 0.004166 -0.004992 -0.012622 -0.008346 0.034443
#
#
# Mechanical properties :
#
#
# Convention : Reuss Voigt Hill
#
# Bulk Modulus (GPa) = 48.92505 52.79070 50.85788
# Shear Modulus (GPa) = 26.71410 33.55788 30.13599
#
# Velocity S-wave (km/s) = 3.50799 3.93175 3.72590
# Velocity P-wave (km/s) = 6.24065 6.70298 6.47594
#
# Compressibility (1/GPa) = 0.02043943
#
# Stress axis : x y z
#
# Youngs Moduli (GPa) = 101.94576 70.79229 49.67905
#
# Poissons Ratio (x) = 0.13542 0.11702
# Poissons Ratio (y) = 0.19501 0.37477
# Poissons Ratio (z) = 0.24014 0.53405
#
# Static dielectric constant tensor:
#      x y z
#    x 1.799410 0.015970 0.001000 
#    y 0.015970 1.799290 -0.018180 
#    z 0.001000 -0.018180 1.782390 
# 
# From -- ./inp_files/271451.got.cif
#   From: 2010.05.17/outbox.cif.g08.bks.cpg/sg2_136_cif.got.tgz:271451.got - 2010.06.03 11:33:40.
