data_PCOD9007216
_publ_section_title
;
Structure prediction by ZEFSAII (Michael W. Deem and Ramdas Pophale) SiO2 
 PCOD9007216
Probable space group: P -1
;
_chemical_formula_sum "Si O2"
_cell_formula_units_Z 16
_cell_length_a 12.664792
_cell_length_b 8.289402
_cell_length_c 22.227166
_cell_angle_alpha 77.940786
_cell_angle_beta 159.033790
_cell_angle_gamma 105.374876
_cell_volume 800.010687
_symmetry_space_group_name_H-M "P -1"
_symmetry_group_IT_number 2
_symmetry_cell_setting 'triclinic'
loop_
_space_group_symop_operation_xyz
x,y,z
-x,-y,-z
loop_
_atom_site_type_symbol
_atom_site_label
_atom_site_fract_x
_atom_site_fract_y
_atom_site_fract_z
Si Si1 0.705977 0.047507 0.808647
Si Si2 0.663002 0.191101 0.066113
Si Si3 0.619435 0.301026 0.390681
Si Si4 0.669046 0.632210 0.221554
Si Si5 0.657540 0.389771 0.826471
Si Si6 0.521405 0.635231 0.947369
Si Si7 0.305301 0.204466 0.360275
Si Si8 0.801320 0.167711 0.712643
O O1 0.631990 0.209308 0.793087
O O2 0.745588 0.116366 0.756103
O O3 0.494207 0.861616 0.700302
O O4 0.000000 0.000000 0.000000
O O5 0.684531 0.247696 0.142777
O O6 0.988399 0.251508 0.204131
O O7 0.433425 0.263969 0.895660
O O8 0.500000 0.000000 0.000000
O O9 0.535884 0.476364 0.311362
O O10 0.459175 0.265858 0.373790
O O11 0.976842 0.320093 0.583888
O O12 0.468661 0.652739 0.170576
O O13 0.585863 0.441745 0.167385
O O14 0.000000 0.500000 0.000000
O O15 0.500000 0.500000 0.000000
O O16 0.867750 0.722603 0.122788
O O17 0.545896 0.249537 0.538605
O O18 0.210061 0.002133 0.318443
#
# Coordination Sequence:
#
# PCOD9007216 Si02
#       8
#     2   2   2   2   2   2   2   2
#     4  11  25  43  72 101 133 180 230 279 338 404
#     4  11  22  38  65  99 133 174 226 275 336 409
#     4  11  25  47  69  99 143 174 228 289 334 405
#     4  11  26  44  64  97 139 179 224 283 342 403
#     4  12  24  46  71  97 135 181 230 274 342 407
#     4  10  21  39  60  90 132 173 214 274 333 393
#     4  10  21  39  68  98 132 176 223 281 343 399
#     4  10  21  39  65  95 135 176 220 279 341 402
#
# _framework density 19.999734
#
# number of rings (size 3 to 8) (size 9 to 14) (size 15 to 20)
#    0.000    1.250    2.500    3.375    5.250    2.500 
#    0.000    3.750    0.000    0.000    0.000    0.000 
#    0.000    0.000    0.000    0.000    0.000    0.000 
#
# Total GULP energy -89161.200823 kJ/mol
# GULP energy per Si atom -5572.575051 kJ/mol
# Density = 1.995421 g / cm^3
# Si number density = 19.999734 Si / 1000 Ang^3
#
#
#
# Elastic Constant Matrix: (Units=GPa)
#
#
# Indices 1 2 3 4 5 6 
#
# 1 96.4460 53.1275 45.4093 13.9877 -2.2150 -27.9546
# 2 53.1275 102.5603 41.9002 7.6386 -3.8669 -18.1045
# 3 45.4093 41.9002 134.5618 18.1255 0.6415 -17.4644
# 4 13.9877 7.6386 18.1255 37.0960 4.1832 -4.0668
# 5 -2.2150 -3.8669 0.6415 4.1832 29.1051 -2.4760
# 6 -27.9546 -18.1045 -17.4644 -4.0668 -2.4760 32.0315
#
#
#
# Elastic Compliance Matrix: (Units=1/GPa)
#
#
# Indices 1 2 3 4 5 6 
#
# 1 0.018900 -0.006469 -0.002431 -0.003615 0.002106 0.011217
# 2 -0.006469 0.014245 -0.002149 0.000543 0.001490 0.001419
# 3 -0.002431 -0.002149 0.009532 -0.003126 -0.000107 0.001455
# 4 -0.003615 0.000543 -0.003126 0.030131 -0.004556 -0.001079
# 5 0.002106 0.001490 -0.000107 -0.004556 0.035783 0.004809
# 6 0.011217 0.001419 0.001455 -0.001079 0.004809 0.042839
#
#
# Mechanical properties :
#
#
# Convention : Reuss Voigt Hill
#
# Bulk Modulus (GPa) = 48.59202 68.27134 58.43168
# Shear Modulus (GPa) = 27.71814 32.52194 30.12004
#
# Velocity S-wave (km/s) = 3.72684 4.03689 3.88496
# Velocity P-wave (km/s) = 6.54738 7.47923 7.02877
#
# Compressibility (1/GPa) = 0.02057951
#
# Stress axis : x y z
#
# Youngs Moduli (GPa) = 52.90959 70.19858 104.91394
#
# Poissons Ratio (x) = 0.45409 0.25507
# Poissons Ratio (y) = 0.34225 0.22546
# Poissons Ratio (z) = 0.12863 0.15086
#
# Static dielectric constant tensor:
#      x y z
#    x 1.694680 -0.031950 0.012680 
#    y -0.031950 1.776270 -0.028580 
#    z 0.012680 -0.028580 1.701790 
# 
# From -- ./inp_files/594126.got.cif
#   From: 2010.05.17/outbox.cif.g08.bks.cpg/sg2_298_cif.got.tgz:594126.got - 2010.06.03 11:33:40.
