data_PCOD9007400
_publ_section_title
;
Structure prediction by ZEFSAII (Michael W. Deem and Ramdas Pophale) SiO2 
 PCOD9007400
Probable space group: P -1
;
_chemical_formula_sum "Si O2"
_cell_formula_units_Z 16
_cell_length_a 10.443215
_cell_length_b 7.756154
_cell_length_c 14.362078
_cell_angle_alpha 57.340679
_cell_angle_beta 87.719690
_cell_angle_gamma 53.333540
_cell_volume 713.570635
_symmetry_space_group_name_H-M "P -1"
_symmetry_group_IT_number 2
_symmetry_cell_setting 'triclinic'
loop_
_space_group_symop_operation_xyz
x,y,z
-x,-y,-z
loop_
_atom_site_type_symbol
_atom_site_label
_atom_site_fract_x
_atom_site_fract_y
_atom_site_fract_z
Si Si1 0.148572 0.726786 0.520490
Si Si2 0.105695 0.865736 0.939285
Si Si3 0.760023 0.829182 0.137436
Si Si4 0.793587 0.682113 0.964781
Si Si5 0.929084 0.628612 0.617020
Si Si6 0.518539 0.823182 0.276854
Si Si7 0.191525 0.703745 0.319514
Si Si8 0.545880 0.155984 0.506021
O O1 0.327481 0.513595 0.634936
O O2 0.166240 0.799156 0.397760
O O3 0.065759 0.587283 0.555269
O O4 0.000000 0.000000 0.500000
O O5 0.220979 0.947436 0.912202
O O6 0.218647 0.537824 0.010946
O O7 0.946563 0.038742 0.818737
O O8 0.000000 0.000000 0.000000
O O9 0.614329 0.901072 0.192325
O O10 0.950907 0.530371 0.248566
O O11 0.735620 0.784867 0.043954
O O12 0.673150 0.965655 0.824205
O O13 0.000000 0.500000 0.000000
O O14 0.866559 0.471139 0.637226
O O15 0.753104 0.952548 0.543512
O O16 0.492814 0.847878 0.382600
O O17 0.403800 0.469612 0.375243
O O18 0.500000 0.000000 0.500000
#
# Coordination Sequence:
#
# PCOD9007400 Si02
#       8
#     2   2   2   2   2   2   2   2
#     4  10  21  39  61  91 126 160 204 259 313 381
#     4  11  24  41  65  97 125 168 222 256 315 386
#     4  10  22  43  65  94 130 169 211 268 314 381
#     4  12  24  42  71  89 132 175 209 267 321 370
#     4   9  18  36  65  85 124 161 203 253 323 366
#     4  10  23  41  64  94 129 164 218 261 323 382
#     4   9  20  37  60  89 122 156 205 260 310 373
#     4   9  18  35  63  92 118 158 207 259 317 376
#
# _framework density 22.422447999999999
#
# number of rings (size 3 to 8) (size 9 to 14) (size 15 to 20)
#    0.000    2.000    1.250    1.500    7.000    3.500 
#    2.250    1.250    0.000    0.000    0.000    0.000 
#    0.000    0.000    0.000    0.000    0.000    0.000 
#
# Total GULP energy -89185.770050 kJ/mol
# GULP energy per Si atom -5574.110628 kJ/mol
# Density = 2.237141 g / cm^3
# Si number density = 22.422448 Si / 1000 Ang^3
#
#
#
# Elastic Constant Matrix: (Units=GPa)
#
#
# Indices 1 2 3 4 5 6 
#
# 1 95.7242 16.4881 -0.5155 -3.0096 8.0208 -4.9622
# 2 16.4881 86.0943 44.5599 -24.3772 15.3659 2.8670
# 3 -0.5155 44.5599 127.7718 -16.2085 26.2905 2.8669
# 4 -3.0096 -24.3772 -16.2085 32.5252 -8.0063 4.3086
# 5 8.0208 15.3659 26.2905 -8.0063 29.2237 -5.3892
# 6 -4.9622 2.8670 2.8669 4.3086 -5.3892 34.4591
#
#
#
# Elastic Compliance Matrix: (Units=1/GPa)
#
#
# Indices 1 2 3 4 5 6 
#
# 1 0.011214 -0.002751 0.001433 -0.001235 -0.002999 0.001410
# 2 -0.002751 0.018024 -0.004337 0.010930 -0.002432 -0.003282
# 3 0.001433 -0.004337 0.011175 0.000636 -0.008314 -0.001742
# 4 -0.001235 0.010930 0.000636 0.040914 0.004197 -0.005599
# 5 -0.002999 -0.002432 -0.008314 0.004197 0.046273 0.007174
# 6 0.001410 -0.003282 -0.001742 -0.005599 0.007174 0.031463
#
#
# Mechanical properties :
#
#
# Convention : Reuss Voigt Hill
#
# Bulk Modulus (GPa) = 34.35776 47.85058 41.10417
# Shear Modulus (GPa) = 27.76654 35.84544 31.80599
#
# Velocity S-wave (km/s) = 3.52282 4.00264 3.77037
# Velocity P-wave (km/s) = 5.64829 6.53822 6.10948
#
# Compressibility (1/GPa) = 0.02910551
#
# Stress axis : x y z
#
# Youngs Moduli (GPa) = 89.17609 55.48026 89.48590
#
# Poissons Ratio (x) = 0.15261 -0.12827
# Poissons Ratio (y) = 0.24530 0.38806
# Poissons Ratio (z) = -0.12783 0.24059
#
# Static dielectric constant tensor:
#      x y z
#    x 1.937320 0.014590 -0.012450 
#    y 0.014590 1.803920 -0.015200 
#    z -0.012450 -0.015200 1.836550 
# 
# From -- ./inp_files/512915.got.cif
#   From: 2010.05.17/outbox.cif.g08.bks.cpg/sg2_257_cif.got.tgz:512915.got - 2010.06.03 11:33:40.
