data_PCOD9007570
_publ_section_title
;
Structure prediction by ZEFSAII (Michael W. Deem and Ramdas Pophale) SiO2 
 PCOD9007570
Probable space group: P -1
;
_chemical_formula_sum "Si O2"
_cell_formula_units_Z 11
_cell_length_a 12.461445
_cell_length_b 12.049057
_cell_length_c 8.014459
_cell_angle_alpha 95.834790
_cell_angle_beta 94.849456
_cell_angle_gamma 23.341217
_cell_volume 474.190280
_symmetry_space_group_name_H-M "P -1"
_symmetry_group_IT_number 2
_symmetry_cell_setting 'triclinic'
loop_
_space_group_symop_operation_xyz
x,y,z
-x,-y,-z
loop_
_atom_site_type_symbol
_atom_site_label
_atom_site_fract_x
_atom_site_fract_y
_atom_site_fract_z
Si Si1 0.514312 0.126309 0.211750
Si Si2 0.774443 0.296133 0.947904
Si Si3 0.619579 0.681132 0.132485
Si Si4 0.500000 0.000000 0.500000
Si Si5 0.056185 0.732716 0.331683
Si Si6 0.097520 0.201408 0.350084
O O1 0.298280 0.413057 0.316578
O O2 0.494721 0.032842 0.300536
O O3 0.801377 0.918650 0.228916
O O4 0.416401 0.211108 0.021097
O O5 0.836024 0.264662 0.757587
O O6 0.500000 0.500000 0.000000
O O7 0.751911 0.440006 0.048402
O O8 0.000000 0.000000 0.000000
O O9 0.831961 0.509646 0.280148
O O10 0.323016 0.945005 0.211502
O O11 0.750559 0.848984 0.530769
O O12 0.979234 0.820134 0.528479
#
# Coordination Sequence:
#
# PCOD9007570 Si02
#       6
#     2   2   2   1   2   2
#     4  10  21  39  62  88 125 163 209 248 302 360
#     4  11  22  41  67  90 117 161 210 247 306 384
#     4  11  23  40  62  93 125 160 201 266 308 342
#     4  10  24  40  64  92 122 174 210 238 296 378
#     4  10  21  40  62  88 125 166 194 253 320 357
#     4  11  23  40  62  90 130 162 205 251 305 359
#
# _framework density 23.197437999999998
#
# number of rings (size 3 to 8) (size 9 to 14) (size 15 to 20)
#    0.000    1.455    0.000    7.636    0.000    8.000 
#    0.000    5.455    0.000    0.000    0.000    0.000 
#    0.000    0.000    0.000    0.000    0.000    0.000 
#
# Total GULP energy -61258.318702 kJ/mol
# GULP energy per Si atom -5568.938064 kJ/mol
# Density = 2.314464 g / cm^3
# Si number density = 23.197438 Si / 1000 Ang^3
#
#
#
# Elastic Constant Matrix: (Units=GPa)
#
#
# Indices 1 2 3 4 5 6 
#
# 1 62.2424 27.5851 45.3584 -6.7322 -32.4463 -4.3240
# 2 27.5851 156.1045 39.5613 -3.1165 -24.4402 -6.9685
# 3 45.3584 39.5613 171.2977 -3.7556 -65.6545 4.2517
# 4 -6.7322 -3.1165 -3.7556 34.9132 -11.2280 -1.4578
# 5 -32.4463 -24.4402 -65.6545 -11.2280 40.6982 1.1601
# 6 -4.3240 -6.9685 4.2517 -1.4578 1.1601 40.7632
#
#
#
# Elastic Compliance Matrix: (Units=1/GPa)
#
#
# Indices 1 2 3 4 5 6 
#
# 1 0.044911 -0.000194 0.015576 0.032867 0.069817 0.002295
# 2 -0.000194 0.007320 0.000784 0.002750 0.006234 0.001070
# 3 0.015576 0.000784 0.025641 0.025484 0.061333 -0.001722
# 4 0.032867 0.002750 0.025484 0.066044 0.087152 0.001180
# 5 0.069817 0.006234 0.061333 0.087152 0.206982 -0.000699
# 6 0.002295 0.001070 -0.001722 0.001180 -0.000699 0.025200
#
#
# Mechanical properties :
#
#
# Convention : Reuss Voigt Hill
#
# Bulk Modulus (GPa) = 9.07415 68.29489 38.68452
# Shear Modulus (GPa) = 13.14054 41.75091 27.44572
#
# Velocity S-wave (km/s) = 2.38263 4.24702 3.44341
# Velocity P-wave (km/s) = 3.38961 7.31807 5.70279
#
# Compressibility (1/GPa) = 0.11020316
#
# Stress axis : x y z
#
# Youngs Moduli (GPa) = 22.26630 136.60701 38.99946
#
# Poissons Ratio (x) = 0.02651 -0.60744
# Poissons Ratio (y) = 0.00432 -0.03057
# Poissons Ratio (z) = -0.34681 -0.10706
#
# Static dielectric constant tensor:
#      x y z
#    x 1.875910 0.048470 0.015880 
#    y 0.048470 1.862300 0.048790 
#    z 0.015880 0.048790 1.927690 
# 
# From -- ./inp_files/133720.got.cif
#   From: 2010.05.17/outbox.cif.g08.bks.cpg/sg2_67_cif.got.tgz:133720.got - 2010.06.03 11:33:40.
