data_PCOD9007805
_publ_section_title
;
Structure prediction by ZEFSAII (Michael W. Deem and Ramdas Pophale) SiO2 
 PCOD9007805
Probable space group: P -1
;
_chemical_formula_sum "Si O2"
_cell_formula_units_Z 16
_cell_length_a 6.086052
_cell_length_b 22.178544
_cell_length_c 10.941859
_cell_angle_alpha 34.060570
_cell_angle_beta 117.405333
_cell_angle_gamma 102.255175
_cell_volume 690.601104
_symmetry_space_group_name_H-M "P -1"
_symmetry_group_IT_number 2
_symmetry_cell_setting 'triclinic'
loop_
_space_group_symop_operation_xyz
x,y,z
-x,-y,-z
loop_
_atom_site_type_symbol
_atom_site_label
_atom_site_fract_x
_atom_site_fract_y
_atom_site_fract_z
Si Si1 0.332782 0.951469 0.412225
Si Si2 0.801798 0.477701 0.149884
Si Si3 0.631194 0.261189 0.067977
Si Si4 0.483894 0.920405 0.947991
Si Si5 0.007899 0.662016 0.810099
Si Si6 0.932943 0.177270 0.060029
Si Si7 0.069547 0.386056 0.627970
Si Si8 0.121556 0.101267 0.729937
O O1 0.442327 0.838657 0.712953
O O2 0.162889 0.910419 0.336497
O O3 0.524412 0.001856 0.302799
O O4 0.142460 0.057416 0.266482
O O5 0.952940 0.398698 0.209239
O O6 0.921921 0.417587 0.407958
O O7 0.500000 0.500000 0.000000
O O8 0.856808 0.597492 0.960310
O O9 0.720298 0.340708 0.051823
O O10 0.889793 0.197216 0.160432
O O11 0.387298 0.335462 0.799674
O O12 0.309777 0.989724 0.898189
O O13 0.352479 0.827031 0.044378
O O14 0.780586 0.881496 0.139839
O O15 0.863063 0.794528 0.523203
O O16 0.984154 0.285565 0.834242
O O17 0.000000 0.500000 0.500000
#
# Coordination Sequence:
#
# PCOD9007805 Si02
#       8
#     2   2   2   2   2   2   2   2
#     4  10  22  42  67 101 136 179 230 274 342 411
#     4  11  26  45  69 100 131 174 233 287 340 402
#     4  11  25  46  68 100 140 185 226 284 340 410
#     4  10  21  39  63 100 139 174 220 278 337 405
#     4  10  24  44  70  95 133 176 227 282 339 400
#     4  11  25  40  68 101 137 181 228 283 342 401
#     4  12  28  46  70 101 137 184 231 284 345 409
#     4   9  21  38  64  98 136 177 215 276 342 403
#
# _framework density 23.168222
#
# number of rings (size 3 to 8) (size 9 to 14) (size 15 to 20)
#    0.000    1.500    0.000    3.000    5.250   11.000 
#    2.250    0.000    0.000    0.000    0.000    0.000 
#    0.000    0.000    0.000    0.000    0.000    0.000 
#
# Total GULP energy -89408.051913 kJ/mol
# GULP energy per Si atom -5588.003245 kJ/mol
# Density = 2.311549 g / cm^3
# Si number density = 23.168222 Si / 1000 Ang^3
#
#
#
# Elastic Constant Matrix: (Units=GPa)
#
#
# Indices 1 2 3 4 5 6 
#
# 1 48.0906 28.2117 28.3151 4.6855 -13.0948 14.5528
# 2 28.2117 139.7790 55.3746 5.6362 -3.7487 23.0374
# 3 28.3151 55.3746 111.8150 12.7660 -10.0540 24.4249
# 4 4.6855 5.6362 12.7660 47.7929 3.7073 -4.7792
# 5 -13.0948 -3.7487 -10.0540 3.7073 36.7750 -9.2955
# 6 14.5528 23.0374 24.4249 -4.7792 -9.2955 35.3636
#
#
#
# Elastic Compliance Matrix: (Units=1/GPa)
#
#
# Indices 1 2 3 4 5 6 
#
# 1 0.028821 -0.003187 -0.003463 -0.002702 0.007822 -0.005702
# 2 -0.003187 0.009622 -0.003447 -0.000064 -0.001867 -0.003076
# 3 -0.003463 -0.003447 0.013249 -0.003436 0.000944 -0.005696
# 4 -0.002702 -0.000064 -0.003436 0.022916 -0.002725 0.005907
# 5 0.007822 -0.001867 0.000944 -0.002725 0.031660 0.005299
# 6 -0.005702 -0.003076 -0.005696 0.005907 0.005299 0.038753
#
#
# Mechanical properties :
#
#
# Convention : Reuss Voigt Hill
#
# Bulk Modulus (GPa) = 31.74723 58.16525 44.95624
# Shear Modulus (GPa) = 28.45541 36.50517 32.48029
#
# Velocity S-wave (km/s) = 3.50838 3.97376 3.74830
# Velocity P-wave (km/s) = 5.49039 6.79812 6.17895
#
# Compressibility (1/GPa) = 0.03149881
#
# Stress axis : x y z
#
# Youngs Moduli (GPa) = 34.69695 103.92503 75.47855
#
# Poissons Ratio (x) = 0.33117 0.26138
# Poissons Ratio (y) = 0.11057 0.26018
# Poissons Ratio (z) = 0.12016 0.35823
#
# Static dielectric constant tensor:
#      x y z
#    x 1.873230 0.022170 0.035790 
#    y 0.022170 1.936390 0.048800 
#    z 0.035790 0.048800 1.874610 
# 
# From -- ./inp_files/371021.got.cif
#   From: 2010.05.17/outbox.cif.g08.bks.cpg/sg2_186_cif.got.tgz:371021.got - 2010.06.03 11:33:40.
