data_PCOD9007248
_publ_section_title
;
Structure prediction by ZEFSAII (Michael W. Deem and Ramdas Pophale) SiO2 
 PCOD9007248
Probable space group: P -1
;
_chemical_formula_sum "Si O2"
_cell_formula_units_Z 13
_cell_length_a 11.896576
_cell_length_b 8.982534
_cell_length_c 9.057973
_cell_angle_alpha 55.735175
_cell_angle_beta 70.531996
_cell_angle_gamma 36.563905
_cell_volume 462.434311
_symmetry_space_group_name_H-M "P -1"
_symmetry_group_IT_number 2
_symmetry_cell_setting 'triclinic'
loop_
_space_group_symop_operation_xyz
x,y,z
-x,-y,-z
loop_
_atom_site_type_symbol
_atom_site_label
_atom_site_fract_x
_atom_site_fract_y
_atom_site_fract_z
Si Si1 0.500000 0.000000 0.500000
Si Si2 0.567109 0.518745 0.108698
Si Si3 0.765393 0.944544 0.586419
Si Si4 0.798602 0.587724 0.017415
Si Si5 0.832152 0.668842 0.293058
Si Si6 0.201162 0.878723 0.266234
Si Si7 0.963684 0.902435 0.207512
O O1 0.586937 0.080131 0.498284
O O2 0.659111 0.842146 0.384685
O O3 0.635373 0.643470 0.001947
O O4 0.773059 0.176357 0.234275
O O5 0.389631 0.716845 0.186155
O O6 0.500000 0.500000 0.000000
O O7 0.751557 0.146720 0.569021
O O8 0.971830 0.676767 0.564414
O O9 0.789819 0.762787 0.809381
O O10 0.773772 0.684840 0.142352
O O11 0.003240 0.232285 0.126951
O O12 0.914178 0.774193 0.221531
O O13 0.150628 0.739044 0.311700
O O14 0.000000 0.000000 0.000000
#
# Coordination Sequence:
#
# PCOD9007248 Si02
#       7
#     1   2   2   2   2   2   2
#     4  12  28  42  64  96 136 176 224 256 322 396
#     4  11  22  32  58  98 139 161 195 268 336 387
#     4  11  24  43  69  93 130 173 221 273 319 382
#     4  10  23  40  69  98 128 167 220 275 326 376
#     4  11  24  45  69  99 131 173 218 269 325 386
#     4  10  21  39  60  96 130 164 206 268 333 380
#     4  11  21  37  63  99 133 164 208 269 333 381
#
# _framework density 28.112100000000002
#
# number of rings (size 3 to 8) (size 9 to 14) (size 15 to 20)
#    0.000    1.231    1.538    6.000    2.154    1.231 
#    0.000    0.769    0.000   13.846    0.000    0.000 
#    0.000    0.000    0.000    0.000    0.000    0.000 
#
# Total GULP energy -72640.392994 kJ/mol
# GULP energy per Si atom -5587.722538 kJ/mol
# Density = 2.804812 g / cm^3
# Si number density = 28.112100 Si / 1000 Ang^3
#
#
#
# Elastic Constant Matrix: (Units=GPa)
#
#
# Indices 1 2 3 4 5 6 
#
# 1 268.7790 41.5162 54.0966 35.8360 6.0705 -1.3141
# 2 41.5162 157.3263 75.8595 29.3569 7.3926 -20.0178
# 3 54.0966 75.8595 83.5784 37.0547 15.6209 6.2218
# 4 35.8360 29.3569 37.0547 68.0270 5.1535 -1.6961
# 5 6.0705 7.3926 15.6209 5.1535 58.7769 17.0306
# 6 -1.3141 -20.0178 6.2218 -1.6961 17.0306 56.4396
#
#
#
# Elastic Compliance Matrix: (Units=1/GPa)
#
#
# Indices 1 2 3 4 5 6 
#
# 1 0.004355 0.000494 -0.002940 -0.000908 0.000200 0.000513
# 2 0.000494 0.013227 -0.013448 0.001520 -0.000087 0.006257
# 3 -0.002940 -0.013448 0.031611 -0.009803 -0.003342 -0.007609
# 4 -0.000908 0.001520 -0.009803 0.019906 0.000138 0.002155
# 5 0.000200 -0.000087 -0.003342 0.000138 0.019483 -0.005532
# 6 0.000513 0.006257 -0.007609 0.002155 -0.005532 0.022522
#
#
# Mechanical properties :
#
#
# Convention : Reuss Voigt Hill
#
# Bulk Modulus (GPa) = 57.45736 94.73647 76.09691
# Shear Modulus (GPa) = 33.62584 59.19610 46.41097
#
# Velocity S-wave (km/s) = 3.46227 4.59379 4.06757
# Velocity P-wave (km/s) = 6.03872 7.86828 7.01341
#
# Compressibility (1/GPa) = 0.01740421
#
# Stress axis : x y z
#
# Youngs Moduli (GPa) = 229.61830 75.60190 31.63421
#
# Poissons Ratio (x) = -0.03731 0.09300
# Poissons Ratio (y) = -0.11333 0.42543
# Poissons Ratio (z) = 0.67502 1.01673
#
# Static dielectric constant tensor:
#      x y z
#    x 2.125650 0.058540 -0.080540 
#    y 0.058540 2.203530 -0.143870 
#    z -0.080540 -0.143870 2.471200 
# 
# From -- ./inp_files/243453.got.cif
#   From: 2010.05.17/outbox.cif.g08.bks.cpg/sg2_122_cif.got.tgz:243453.got - 2010.06.03 11:33:40.
