data_PCOD9007183
_publ_section_title
;
Structure prediction by ZEFSAII (Michael W. Deem and Ramdas Pophale) SiO2 
 PCOD9007183
Probable space group: P -1
;
_chemical_formula_sum "Si O2"
_cell_formula_units_Z 14
_cell_length_a 11.895410
_cell_length_b 9.306467
_cell_length_c 9.600899
_cell_angle_alpha 92.052779
_cell_angle_beta 105.787810
_cell_angle_gamma 36.723519
_cell_volume 580.076486
_symmetry_space_group_name_H-M "P -1"
_symmetry_group_IT_number 2
_symmetry_cell_setting 'triclinic'
loop_
_space_group_symop_operation_xyz
x,y,z
-x,-y,-z
loop_
_atom_site_type_symbol
_atom_site_label
_atom_site_fract_x
_atom_site_fract_y
_atom_site_fract_z
Si Si1 0.516861 0.724963 0.429650
Si Si2 0.577659 0.594955 0.157614
Si Si3 0.753173 0.683691 0.343874
Si Si4 0.584541 0.174418 0.294445
Si Si5 0.108761 0.316406 0.241444
Si Si6 0.815732 0.096782 0.142296
Si Si7 0.861114 0.419426 0.911505
O O1 0.542393 0.586732 0.307970
O O2 0.712828 0.632036 0.468062
O O3 0.482350 0.705415 0.571378
O O4 0.321546 0.021916 0.334784
O O5 0.621736 0.719281 0.190388
O O6 0.772737 0.308306 0.157754
O O7 0.370850 0.767191 0.014388
O O8 0.977086 0.457422 0.343885
O O9 0.659251 0.935247 0.328898
O O10 0.764766 0.074426 0.272045
O O11 0.376045 0.382465 0.139810
O O12 0.136410 0.444586 0.185759
O O13 0.984706 0.348718 0.085539
O O14 0.021434 0.831141 0.132549
#
# Coordination Sequence:
#
# PCOD9007183 Si02
#       7
#     2   2   2   2   2   2   2
#     4  10  23  42  60  91 126 160 199 253 297 371
#     4   9  22  43  63  83 132 157 204 245 307 355
#     4  10  21  39  60  89 121 161 196 252 295 362
#     4  12  24  38  67  91 125 155 206 249 314 340
#     4  11  21  36  65  90 122 159 204 247 311 343
#     4  11  22  43  61  92 122 165 197 257 294 368
#     4  11  22  36  61  97 119 154 208 258 286 370
#
# _framework density 24.134744999999999
#
# number of rings (size 3 to 8) (size 9 to 14) (size 15 to 20)
#    0.857    0.571    4.286    1.286    2.000    3.429 
#    2.571    2.857    0.000    0.000    0.000    0.000 
#    0.000    0.000    0.000    0.000    0.000    0.000 
#
# Total GULP energy -78313.125067 kJ/mol
# GULP energy per Si atom -5593.794648 kJ/mol
# Density = 2.407981 g / cm^3
# Si number density = 24.134745 Si / 1000 Ang^3
#
#
#
# Elastic Constant Matrix: (Units=GPa)
#
#
# Indices 1 2 3 4 5 6 
#
# 1 48.6235 3.2159 14.8895 -2.2611 -22.7390 -11.4728
# 2 3.2159 124.5440 13.7406 12.4981 1.8497 -10.6641
# 3 14.8895 13.7406 90.4443 12.6038 -7.6950 -0.2811
# 4 -2.2611 12.4981 12.6038 31.9168 -6.5822 -3.6534
# 5 -22.7390 1.8497 -7.6950 -6.5822 22.1791 -0.6318
# 6 -11.4728 -10.6641 -0.2811 -3.6534 -0.6318 37.2491
#
#
#
# Elastic Compliance Matrix: (Units=1/GPa)
#
#
# Indices 1 2 3 4 5 6 
#
# 1 0.061202 -0.002419 -0.007270 0.024740 0.068387 0.021689
# 2 -0.002419 0.008767 -0.000752 -0.004123 -0.004660 0.001276
# 3 -0.007270 -0.000752 0.012864 -0.006687 -0.005000 -0.003098
# 4 0.024740 -0.004123 -0.006687 0.046395 0.037487 0.011575
# 5 0.068387 -0.004660 -0.005000 0.037487 0.125707 0.025500
# 6 0.021689 0.001276 -0.003098 0.011575 0.025500 0.035436
#
#
# Mechanical properties :
#
#
# Convention : Reuss Voigt Hill
#
# Bulk Modulus (GPa) = 16.14171 36.36707 26.25439
# Shear Modulus (GPa) = 15.06466 33.72006 24.39236
#
# Velocity S-wave (km/s) = 2.50109 3.74191 3.18256
# Velocity P-wave (km/s) = 3.87857 5.81122 4.94032
#
# Compressibility (1/GPa) = 0.06195129
#
# Stress axis : x y z
#
# Youngs Moduli (GPa) = 16.33939 114.06661 77.73472
#
# Poissons Ratio (x) = 0.27598 0.56511
# Poissons Ratio (y) = 0.03953 0.05842
# Poissons Ratio (z) = 0.11878 0.08573
#
# Static dielectric constant tensor:
#      x y z
#    x 1.940360 -0.018400 -0.011810 
#    y -0.018400 1.862390 0.053090 
#    z -0.011810 0.053090 1.991160 
# 
# From -- ./inp_files/276855.got.cif
#   From: 2010.05.17/outbox.cif.g08.bks.cpg/sg2_139_cif.got.tgz:276855.got - 2010.06.03 11:33:40.
