data_PCOD9007007
_publ_section_title
;
Structure prediction by ZEFSAII (Michael W. Deem and Ramdas Pophale) SiO2 
 PCOD9007007
Probable space group: P -1
;
_chemical_formula_sum "Si O2"
_cell_formula_units_Z 14
_cell_length_a 7.893504
_cell_length_b 17.253727
_cell_length_c 5.323522
_cell_angle_alpha 79.441274
_cell_angle_beta 83.482503
_cell_angle_gamma 46.354331
_cell_volume 515.673439
_symmetry_space_group_name_H-M "P -1"
_symmetry_group_IT_number 2
_symmetry_cell_setting 'triclinic'
loop_
_space_group_symop_operation_xyz
x,y,z
-x,-y,-z
loop_
_atom_site_type_symbol
_atom_site_label
_atom_site_fract_x
_atom_site_fract_y
_atom_site_fract_z
Si Si1 0.363478 0.634618 0.120914
Si Si2 0.821177 0.158383 0.794953
Si Si3 0.263294 0.118555 0.176627
Si Si4 0.850907 0.562144 0.237393
Si Si5 0.711771 0.033766 0.421261
Si Si6 0.189432 0.686804 0.608889
Si Si7 0.407866 0.197698 0.763654
O O1 0.184522 0.768870 0.043265
O O2 0.612532 0.587798 0.204115
O O3 0.753351 0.375719 0.623519
O O4 0.347169 0.607631 0.858966
O O5 0.754766 0.240322 0.528076
O O6 0.627805 0.158183 0.917551
O O7 0.046874 0.041129 0.726993
O O8 0.526989 0.046639 0.274769
O O9 0.079220 0.227396 0.309587
O O10 0.221510 0.040974 0.298344
O O11 0.286900 0.154191 0.884095
O O12 0.772665 0.676659 0.226053
O O13 0.000000 0.500000 0.500000
O O14 0.000000 0.500000 0.000000
O O15 0.546660 0.152081 0.503976
#
# Coordination Sequence:
#
# PCOD9007007 Si02
#       7
#     2   2   2   2   2   2   2
#     4   9  19  38  66  91 123 171 211 261 326 389
#     4   8  20  35  57  95 129 174 210 267 314 398
#     4  10  23  36  60  96 136 181 216 255 319 393
#     4  11  25  44  72  99 127 163 220 284 339 374
#     4  10  21  39  58  95 141 176 218 254 325 390
#     4   9  19  37  63  90 132 174 209 250 325 383
#     4  11  23  37  65  95 132 169 221 274 325 389
#
# _framework density 27.148966999999999
#
# number of rings (size 3 to 8) (size 9 to 14) (size 15 to 20)
#    0.857    1.429    0.000    1.714    4.000    4.000 
#    0.000    0.000    0.000    5.143    0.000    0.000 
#    0.000    0.000    0.000    0.000    0.000    0.000 
#
# Total GULP energy -78084.607552 kJ/mol
# GULP energy per Si atom -5577.471968 kJ/mol
# Density = 2.708717 g / cm^3
# Si number density = 27.148967 Si / 1000 Ang^3
#
#
#
# Elastic Constant Matrix: (Units=GPa)
#
#
# Indices 1 2 3 4 5 6 
#
# 1 91.0670 31.9755 26.2228 -6.3291 -17.2289 -25.9877
# 2 31.9755 153.0701 62.9908 17.3588 -7.0091 -23.9157
# 3 26.2228 62.9908 171.1197 10.6656 5.8536 -26.9490
# 4 -6.3291 17.3588 10.6656 47.5395 -12.8979 -6.5343
# 5 -17.2289 -7.0091 5.8536 -12.8979 36.5465 8.3717
# 6 -25.9877 -23.9157 -26.9490 -6.5343 8.3717 48.2551
#
#
#
# Elastic Compliance Matrix: (Units=1/GPa)
#
#
# Indices 1 2 3 4 5 6 
#
# 1 0.015827 -0.002130 -0.001332 0.006215 0.008046 0.006170
# 2 -0.002130 0.008478 -0.002395 -0.002725 -0.000276 0.001396
# 3 -0.001332 -0.002395 0.007574 -0.001572 -0.003478 0.002716
# 4 0.006215 -0.002725 -0.001572 0.026695 0.011451 0.002747
# 5 0.008046 -0.000276 -0.003478 0.011451 0.036271 -0.002488
# 6 0.006170 0.001396 0.002716 0.002747 -0.002488 0.027058
#
#
# Mechanical properties :
#
#
# Convention : Reuss Voigt Hill
#
# Bulk Modulus (GPa) = 49.59317 73.07056 61.33187
# Shear Modulus (GPa) = 35.62765 46.07274 40.85019
#
# Velocity S-wave (km/s) = 3.62650 4.12398 3.88321
# Velocity P-wave (km/s) = 5.98682 7.04623 6.53802
#
# Compressibility (1/GPa) = 0.02016407
#
# Stress axis : x y z
#
# Youngs Moduli (GPa) = 63.18155 117.95009 132.02325
#
# Poissons Ratio (x) = 0.25129 0.17588
# Poissons Ratio (y) = 0.13461 0.31624
# Poissons Ratio (z) = 0.08417 0.28253
#
# Static dielectric constant tensor:
#      x y z
#    x 2.203960 0.015400 0.105750 
#    y 0.015400 2.169810 -0.002360 
#    z 0.105750 -0.002360 2.210130 
# 
# From -- ./inp_files/47390.got.cif
#   From: 2010.05.17/outbox.cif.g08.bks.cpg/sg2_24_cif.got.tgz:47390.got - 2010.06.03 11:33:40.
