data_PCOD9007196
_publ_section_title
;
Structure prediction by ZEFSAII (Michael W. Deem and Ramdas Pophale) SiO2 
 PCOD9007196
Probable space group: P -1
;
_chemical_formula_sum "Si O2"
_cell_formula_units_Z 13
_cell_length_a 14.241853
_cell_length_b 19.238149
_cell_length_c 17.522666
_cell_angle_alpha 158.593810
_cell_angle_beta 158.739431
_cell_angle_gamma 19.030124
_cell_volume 514.367347
_symmetry_space_group_name_H-M "P -1"
_symmetry_group_IT_number 2
_symmetry_cell_setting 'triclinic'
loop_
_space_group_symop_operation_xyz
x,y,z
-x,-y,-z
loop_
_atom_site_type_symbol
_atom_site_label
_atom_site_fract_x
_atom_site_fract_y
_atom_site_fract_z
Si Si1 0.270597 0.822149 0.112867
Si Si2 0.237549 0.199017 0.084829
Si Si3 0.500000 0.500000 0.500000
Si Si4 0.879969 0.062490 0.386792
Si Si5 0.977529 0.451353 0.298215
Si Si6 0.633138 0.683127 0.930448
Si Si7 0.288872 0.680426 0.810299
O O1 0.608449 0.669776 0.255407
O O2 0.028213 0.759837 0.890723
O O3 0.338031 0.744984 0.996979
O O4 0.068978 0.096542 0.255523
O O5 0.478167 0.236388 0.258780
O O6 0.047145 0.396768 0.205159
O O7 0.050660 0.145382 0.828230
O O8 0.475641 0.952066 0.058588
O O9 0.902272 0.260689 0.573083
O O10 0.474944 0.595688 0.666009
O O11 0.000000 0.000000 0.500000
O O12 0.244247 0.471897 0.558069
O O13 0.534936 0.662618 0.919295
O O14 0.000000 0.500000 0.000000
#
# Coordination Sequence:
#
# PCOD9007196 Si02
#       7
#     2   2   1   2   2   2   2
#     4  10  24  43  67  99 130 173 223 278 333 396
#     4  10  22  38  60  91 132 167 217 275 323 399
#     4  10  22  38  60  92 122 172 226 262 328 406
#     4  10  21  39  60  89 128 175 219 269 333 396
#     4  11  22  42  67  96 133 173 217 280 339 390
#     4  11  23  41  64  95 137 174 217 275 333 399
#     4  11  23  43  69  97 133 174 224 273 332 405
#
# _framework density 25.273765999999998
#
# number of rings (size 3 to 8) (size 9 to 14) (size 15 to 20)
#    0.000    1.538    1.538    2.769    0.000    7.385 
#    0.000    0.000    0.000    0.000    0.000    0.000 
#    0.000    0.000    0.000    0.000    0.000    0.000 
#
# Total GULP energy -72464.224894 kJ/mol
# GULP energy per Si atom -5574.171146 kJ/mol
# Density = 2.521624 g / cm^3
# Si number density = 25.273766 Si / 1000 Ang^3
#
#
#
# Elastic Constant Matrix: (Units=GPa)
#
#
# Indices 1 2 3 4 5 6 
#
# 1 126.9379 -10.2300 16.3424 -14.8459 6.1756 -19.9829
# 2 -10.2300 77.4777 7.7856 -10.9567 1.4851 5.7292
# 3 16.3424 7.7856 92.8959 4.7686 21.4113 -9.4407
# 4 -14.8459 -10.9567 4.7686 22.6627 2.2884 -3.3581
# 5 6.1756 1.4851 21.4113 2.2884 34.5181 -0.8061
# 6 -19.9829 5.7292 -9.4407 -3.3581 -0.8061 40.0263
#
#
#
# Elastic Compliance Matrix: (Units=1/GPa)
#
#
# Indices 1 2 3 4 5 6 
#
# 1 0.010225 0.002454 -0.001629 0.009127 -0.001410 0.005107
# 2 0.002454 0.014792 -0.002117 0.009149 -0.000384 -0.000632
# 3 -0.001629 -0.002117 0.013404 -0.003818 -0.007628 0.002177
# 4 0.009127 0.009149 -0.003818 0.056702 -0.003253 0.007038
# 5 -0.001410 -0.000384 -0.007628 -0.003253 0.034139 -0.002034
# 6 0.005107 -0.000632 0.002177 0.007038 -0.002034 0.028687
#
#
# Mechanical properties :
#
#
# Convention : Reuss Voigt Hill
#
# Bulk Modulus (GPa) = 27.90387 36.12305 32.01346
# Shear Modulus (GPa) = 28.98919 38.33566 33.66242
#
# Velocity S-wave (km/s) = 3.39042 3.89886 3.65350
# Velocity P-wave (km/s) = 5.13724 5.88148 5.52192
#
# Compressibility (1/GPa) = 0.03583732
#
# Stress axis : x y z
#
# Youngs Moduli (GPa) = 97.79678 67.60607 74.60387
#
# Poissons Ratio (x) = -0.16590 0.12153
# Poissons Ratio (y) = -0.23998 0.15792
# Poissons Ratio (z) = 0.15931 0.14311
#
# Static dielectric constant tensor:
#      x y z
#    x 1.646110 -0.370720 -0.695480 
#    y -0.370720 1.625790 -0.796600 
#    z -0.695480 -0.796600 0.793890 
# 
# From -- ./inp_files/133934.got.cif
#   From: 2010.05.17/outbox.cif.g08.bks.cpg/sg2_67_cif.got.tgz:133934.got - 2010.06.03 11:33:40.
