data_PCOD9007305
_publ_section_title
;
Structure prediction by ZEFSAII (Michael W. Deem and Ramdas Pophale) SiO2 
 PCOD9007305
Probable space group: P -1
;
_chemical_formula_sum "Si O2"
_cell_formula_units_Z 16
_cell_length_a 15.575528
_cell_length_b 9.925305
_cell_length_c 7.753161
_cell_angle_alpha 133.900261
_cell_angle_beta 113.543396
_cell_angle_gamma 81.552207
_cell_volume 776.240673
_symmetry_space_group_name_H-M "P -1"
_symmetry_group_IT_number 2
_symmetry_cell_setting 'triclinic'
loop_
_space_group_symop_operation_xyz
x,y,z
-x,-y,-z
loop_
_atom_site_type_symbol
_atom_site_label
_atom_site_fract_x
_atom_site_fract_y
_atom_site_fract_z
Si Si1 0.463455 0.967821 0.244514
Si Si2 0.546247 0.257018 0.285992
Si Si3 0.958918 0.187152 0.790484
Si Si4 0.273985 0.128842 0.292047
Si Si5 0.066765 0.933370 0.850960
Si Si6 0.205631 0.185541 0.658400
Si Si7 0.336240 0.361175 0.233426
Si Si8 0.037196 0.411695 0.708636
O O1 0.500000 0.000000 0.500000
O O2 0.536798 0.090167 0.273716
O O3 0.363021 0.033968 0.235258
O O4 0.442445 0.776559 0.940401
O O5 0.441765 0.310275 0.267407
O O6 0.636155 0.412496 0.558861
O O7 0.041753 0.068014 0.794373
O O8 0.986735 0.306750 0.746112
O O9 0.862937 0.024111 0.564478
O O10 0.952932 0.361850 0.070922
O O11 0.268447 0.182399 0.534453
O O12 0.286843 0.305325 0.327490
O O13 0.175350 0.990502 0.041857
O O14 0.031390 0.709510 0.594563
O O15 0.000000 0.000000 0.000000
O O16 0.136918 0.338353 0.711023
O O17 0.271008 0.250025 0.933250
#
# Coordination Sequence:
#
# PCOD9007305 Si02
#       8
#     2   2   2   2   2   2   2   2
#     4  10  21  41  65  93 128 157 203 256 309 371
#     4   9  21  42  62  91 123 163 198 255 316 370
#     4  10  21  39  62  84 118 165 211 255 311 362
#     4  11  22  39  62  93 118 167 208 246 319 367
#     4  11  20  40  58  82 132 162 197 263 302 358
#     4  11  21  41  60  91 129 160 204 266 306 364
#     4  10  21  40  65  87 124 161 206 252 313 374
#     4  10  21  39  61  87 116 166 214 252 314 363
#
# _framework density 20.612162000000001
#
# number of rings (size 3 to 8) (size 9 to 14) (size 15 to 20)
#    0.000    1.750    2.500    3.750    0.000    1.500 
#   18.000    3.750    0.000    0.000    0.000    0.000 
#    0.000    0.000    0.000    0.000    0.000    0.000 
#
# Total GULP energy -89130.864079 kJ/mol
# GULP energy per Si atom -5570.679005 kJ/mol
# Density = 2.056525 g / cm^3
# Si number density = 20.612162 Si / 1000 Ang^3
#
#
#
# Elastic Constant Matrix: (Units=GPa)
#
#
# Indices 1 2 3 4 5 6 
#
# 1 84.0161 10.4390 25.5679 2.5800 -6.7343 20.4677
# 2 10.4390 41.3740 37.8189 -5.3465 -0.2563 13.4787
# 3 25.5679 37.8189 128.3051 9.7571 1.9440 10.5501
# 4 2.5800 -5.3465 9.7571 34.4466 0.0830 -16.0383
# 5 -6.7343 -0.2563 1.9440 0.0830 38.4502 -9.8134
# 6 20.4677 13.4787 10.5501 -16.0383 -9.8134 26.6845
#
#
#
# Elastic Compliance Matrix: (Units=1/GPa)
#
#
# Indices 1 2 3 4 5 6 
#
# 1 0.017290 0.002666 -0.001728 -0.010049 -0.002141 -0.020752
# 2 0.002666 0.039267 -0.010483 -0.000002 -0.003606 -0.019062
# 3 -0.001728 -0.010483 0.011873 -0.005858 -0.001509 -0.002149
# 4 -0.010049 -0.000002 -0.005858 0.052477 0.009967 0.045231
# 5 -0.002141 -0.003606 -0.001509 0.009967 0.031153 0.021508
# 6 -0.020752 -0.019062 -0.002149 0.045231 0.021508 0.098966
#
#
# Mechanical properties :
#
#
# Convention : Reuss Voigt Hill
#
# Bulk Modulus (GPa) = 20.26771 44.59406 32.43089
# Shear Modulus (GPa) = 17.44817 31.90755 24.67786
#
# Velocity S-wave (km/s) = 2.91262 3.93873 3.46388
# Velocity P-wave (km/s) = 4.60059 6.50896 5.63613
#
# Compressibility (1/GPa) = 0.04933957
#
# Stress axis : x y z
#
# Youngs Moduli (GPa) = 57.83790 25.46663 84.22193
#
# Poissons Ratio (x) = -0.06790 0.14556
# Poissons Ratio (y) = -0.15421 0.88293
# Poissons Ratio (z) = 0.09996 0.26697
#
# Static dielectric constant tensor:
#      x y z
#    x 1.712780 0.008570 -0.048120 
#    y 0.008570 1.776380 0.006590 
#    z -0.048120 0.006590 1.813520 
# 
# From -- ./inp_files/306041.got.cif
#   From: 2010.05.17/outbox.cif.g08.bks.cpg/sg2_154_cif.got.tgz:306041.got - 2010.06.03 11:33:40.
