data_PCOD9007644
_publ_section_title
;
Structure prediction by ZEFSAII (Michael W. Deem and Ramdas Pophale) SiO2 
 PCOD9007644
Probable space group: P -1
;
_chemical_formula_sum "Si O2"
_cell_formula_units_Z 16
_cell_length_a 18.073806
_cell_length_b 27.825140
_cell_length_c 14.968668
_cell_angle_alpha 18.451200
_cell_angle_beta 150.219285
_cell_angle_gamma 161.036919
_cell_volume 742.413680
_symmetry_space_group_name_H-M "P -1"
_symmetry_group_IT_number 2
_symmetry_cell_setting 'triclinic'
loop_
_space_group_symop_operation_xyz
x,y,z
-x,-y,-z
loop_
_atom_site_type_symbol
_atom_site_label
_atom_site_fract_x
_atom_site_fract_y
_atom_site_fract_z
Si Si1 0.751148 0.732343 0.302653
Si Si2 0.298933 0.426418 0.864900
Si Si3 0.797007 0.310071 0.696409
Si Si4 0.661522 0.537801 0.361283
Si Si5 0.018025 0.504521 0.241544
Si Si6 0.349106 0.032759 0.161542
Si Si7 0.250530 0.013358 0.887507
Si Si8 0.885182 0.540879 0.865929
O O1 0.500000 0.500000 0.500000
O O2 0.720515 0.687866 0.243364
O O3 0.913583 0.727466 0.520999
O O4 0.811999 0.953032 0.000476
O O5 0.346500 0.646364 0.528381
O O6 0.294645 0.374287 0.848515
O O7 0.500000 0.500000 0.000000
O O8 0.033557 0.194714 0.035084
O O9 0.911293 0.382775 0.785338
O O10 0.000000 0.500000 0.500000
O O11 0.680090 0.062718 0.976211
O O12 0.799875 0.486499 0.609011
O O13 0.384039 0.273168 0.545303
O O14 0.767219 0.216525 0.492131
O O15 0.996913 0.615702 0.948880
O O16 0.607226 0.274161 0.044441
O O17 0.342483 0.035023 0.043329
O O18 0.000000 0.500000 0.000000
#
# Coordination Sequence:
#
# PCOD9007644 Si02
#       8
#     2   2   2   2   2   2   2   2
#     4  10  21  39  62  90 128 170 206 250 324 374
#     4  10  23  42  61  95 127 156 213 265 302 378
#     4   9  19  40  67  84 124 164 202 257 317 364
#     4  11  21  41  69  84 128 171 202 254 322 371
#     4  11  21  39  65  95 124 163 216 257 309 377
#     4  11  21  40  64  89 128 170 203 257 318 372
#     4  11  20  42  69  87 121 169 212 249 319 372
#     4  11  21  39  61  94 128 159 215 264 297 378
#
# _framework density 21.551328999999999
#
# number of rings (size 3 to 8) (size 9 to 14) (size 15 to 20)
#    0.000    1.500    7.500    0.375    0.000    3.000 
#    9.000    3.750    0.000    0.000    0.000    0.000 
#    0.000    0.000    0.000    0.000    0.000    0.000 
#
# Total GULP energy -89396.556167 kJ/mol
# GULP energy per Si atom -5587.284760 kJ/mol
# Density = 2.150228 g / cm^3
# Si number density = 21.551329 Si / 1000 Ang^3
#
#
#
# Elastic Constant Matrix: (Units=GPa)
#
#
# Indices 1 2 3 4 5 6 
#
# 1 130.5822 40.4487 37.4777 15.6857 6.6475 -35.2106
# 2 40.4487 102.0484 30.8947 25.6086 -8.4495 -21.0643
# 3 37.4777 30.8947 63.7941 11.9257 7.4783 -20.1859
# 4 15.6857 25.6086 11.9257 36.1318 1.0389 -7.4463
# 5 6.6475 -8.4495 7.4783 1.0389 20.5385 -13.5697
# 6 -35.2106 -21.0643 -20.1859 -7.4463 -13.5697 42.9663
#
#
#
# Elastic Compliance Matrix: (Units=1/GPa)
#
#
# Indices 1 2 3 4 5 6 
#
# 1 0.011082 -0.001364 -0.003590 -0.001248 0.001925 0.007118
# 2 -0.001364 0.016889 -0.004990 -0.008498 0.014970 0.008073
# 3 -0.003590 -0.004990 0.022104 -0.001487 -0.007245 0.002450
# 4 -0.001248 -0.008498 -0.001487 0.034559 -0.005347 -0.001587
# 5 0.001925 0.014970 -0.007245 -0.005347 0.076027 0.028597
# 6 0.007118 0.008073 0.002450 -0.001587 0.028597 0.042973
#
#
# Mechanical properties :
#
#
# Convention : Reuss Voigt Hill
#
# Bulk Modulus (GPa) = 33.12631 57.11855 45.12243
# Shear Modulus (GPa) = 21.40570 32.43424 26.91997
#
# Velocity S-wave (km/s) = 3.15499 3.88361 3.53811
# Velocity P-wave (km/s) = 5.35502 6.83161 6.13788
#
# Compressibility (1/GPa) = 0.03018748
#
# Stress axis : x y z
#
# Youngs Moduli (GPa) = 90.23556 59.21097 45.24151
#
# Poissons Ratio (x) = 0.08075 0.16242
# Poissons Ratio (y) = 0.12307 0.22574
# Poissons Ratio (z) = 0.32395 0.29544
#
# Static dielectric constant tensor:
#      x y z
#    x 1.806790 0.040000 -0.009650 
#    y 0.040000 1.696590 0.011400 
#    z -0.009650 0.011400 1.790770 
# 
# From -- ./inp_files/333378.got.cif
#   From: 2010.05.17/outbox.cif.g08.bks.cpg/sg2_167_cif.got.tgz:333378.got - 2010.06.03 11:33:40.
