data_PCOD9007627
_publ_section_title
;
Structure prediction by ZEFSAII (Michael W. Deem and Ramdas Pophale) SiO2 
 PCOD9007627
Probable space group: P -1
;
_chemical_formula_sum "Si O2"
_cell_formula_units_Z 16
_cell_length_a 8.494104
_cell_length_b 26.717484
_cell_length_c 26.791281
_cell_angle_alpha 169.427571
_cell_angle_beta 42.488390
_cell_angle_gamma 136.739864
_cell_volume 753.216074
_symmetry_space_group_name_H-M "P -1"
_symmetry_group_IT_number 2
_symmetry_cell_setting 'triclinic'
loop_
_space_group_symop_operation_xyz
x,y,z
-x,-y,-z
loop_
_atom_site_type_symbol
_atom_site_label
_atom_site_fract_x
_atom_site_fract_y
_atom_site_fract_z
Si Si1 0.147372 0.384026 0.563661
Si Si2 0.613114 0.112597 0.033699
Si Si3 0.246874 0.123388 0.046422
Si Si4 0.591208 0.917868 0.603371
Si Si5 0.378588 0.451112 0.133965
Si Si6 0.921136 0.895319 0.361170
Si Si7 0.387283 0.614460 0.088905
Si Si8 0.482430 0.635356 0.456311
O O1 0.289270 0.432877 0.630635
O O2 0.876692 0.429801 0.681592
O O3 0.228642 0.101219 0.243155
O O4 0.233344 0.613209 0.728770
O O5 0.393293 0.188376 0.125492
O O6 0.500000 0.000000 0.000000
O O7 0.290019 0.389296 0.262771
O O8 0.372185 0.883964 0.754385
O O9 0.000000 0.000000 0.000000
O O10 0.553415 0.695565 0.350498
O O11 0.540213 0.745351 0.495945
O O12 0.852382 0.043186 0.665193
O O13 0.426752 0.175300 0.883671
O O14 0.435851 0.381133 0.994741
O O15 0.709842 0.088954 0.587036
O O16 0.828583 0.586538 0.074216
O O17 0.000000 0.000000 0.500000
O O18 0.500000 0.500000 0.000000
#
# Coordination Sequence:
#
# PCOD9007627 Si02
#       8
#     2   2   2   2   2   2   2   2
#     4  10  23  41  61  89 129 164 202 264 314 378
#     4  10  21  39  62  90 121 162 207 249 318 378
#     4  10  21  39  63  90 124 157 206 262 306 376
#     4  12  25  41  68  94 129 173 216 268 327 387
#     4  12  24  43  63  96 131 166 220 270 320 386
#     4  12  23  46  68  94 134 173 220 276 329 382
#     4  12  26  44  67 100 130 172 228 272 327 391
#     4  10  23  42  60  93 125 165 208 252 326 380
#
# _framework density 21.242245
#
# number of rings (size 3 to 8) (size 9 to 14) (size 15 to 20)
#    0.000    1.000    2.500    3.750    1.750    3.000 
#    4.500    0.000    0.000    0.000    0.000    0.000 
#    0.000    0.000    0.000    0.000    0.000    0.000 
#
# Total GULP energy -89410.700585 kJ/mol
# GULP energy per Si atom -5588.168787 kJ/mol
# Density = 2.119390 g / cm^3
# Si number density = 21.242245 Si / 1000 Ang^3
#
#
#
# Elastic Constant Matrix: (Units=GPa)
#
#
# Indices 1 2 3 4 5 6 
#
# 1 53.3972 31.9935 -0.0433 -5.0526 -12.6446 -8.8799
# 2 31.9935 133.9448 1.5714 7.0659 -21.1514 9.7559
# 3 -0.0433 1.5714 71.5110 14.6792 -13.6002 10.7317
# 4 -5.0526 7.0659 14.6792 36.8544 6.8396 -6.0629
# 5 -12.6446 -21.1514 -13.6002 6.8396 36.2865 -3.7474
# 6 -8.8799 9.7559 10.7317 -6.0629 -3.7474 43.2712
#
#
#
# Elastic Compliance Matrix: (Units=1/GPa)
#
#
# Indices 1 2 3 4 5 6 
#
# 1 0.025432 -0.006256 -0.001413 0.005769 0.004443 0.008173
# 2 -0.006256 0.010436 0.002680 -0.005708 0.005506 -0.004624
# 3 -0.001413 0.002680 0.018980 -0.011093 0.009621 -0.006322
# 4 0.005769 -0.005708 -0.011093 0.037122 -0.011498 0.009428
# 5 0.004443 0.005506 0.009621 -0.011498 0.037982 -0.001038
# 6 0.008173 -0.004624 -0.006322 0.009428 -0.001038 0.028629
#
#
# Mechanical properties :
#
#
# Convention : Reuss Voigt Hill
#
# Bulk Modulus (GPa) = 22.28700 36.21068 29.24884
# Shear Modulus (GPa) = 27.24566 38.30453 32.77509
#
# Velocity S-wave (km/s) = 3.58525 4.25105 3.93226
# Velocity P-wave (km/s) = 5.25864 6.41707 5.86652
#
# Compressibility (1/GPa) = 0.04486921
#
# Stress axis : x y z
#
# Youngs Moduli (GPa) = 39.32085 95.82210 52.68779
#
# Poissons Ratio (x) = 0.59946 0.07444
# Poissons Ratio (y) = 0.24599 -0.14119
# Poissons Ratio (z) = 0.05556 -0.25678
#
# Static dielectric constant tensor:
#      x y z
#    x 1.759880 -0.016170 0.007560 
#    y -0.016170 1.752820 0.027810 
#    z 0.007560 0.027810 1.740890 
# 
# From -- ./inp_files/223338.got.cif
#   From: 2010.05.17/outbox.cif.g08.bks.cpg/sg2_112_cif.got.tgz:223338.got - 2010.06.03 11:33:40.
