data_PCOD9007206
_publ_section_title
;
Structure prediction by ZEFSAII (Michael W. Deem and Ramdas Pophale) SiO2 
 PCOD9007206
Probable space group: P -1
;
_chemical_formula_sum "Si O2"
_cell_formula_units_Z 16
_cell_length_a 7.773223
_cell_length_b 10.112534
_cell_length_c 14.236050
_cell_angle_alpha 134.405616
_cell_angle_beta 65.362346
_cell_angle_gamma 84.487841
_cell_volume 582.894958
_symmetry_space_group_name_H-M "P -1"
_symmetry_group_IT_number 2
_symmetry_cell_setting 'triclinic'
loop_
_space_group_symop_operation_xyz
x,y,z
-x,-y,-z
loop_
_atom_site_type_symbol
_atom_site_label
_atom_site_fract_x
_atom_site_fract_y
_atom_site_fract_z
Si Si1 0.576383 0.722845 0.937003
Si Si2 0.367212 0.454888 0.875622
Si Si3 0.171737 0.218807 0.865509
Si Si4 0.802788 0.989597 0.440585
Si Si5 0.594723 0.730743 0.578055
Si Si6 0.182323 0.071264 0.077546
Si Si7 0.020052 0.734832 0.460578
Si Si8 0.323668 0.640993 0.715797
O O1 0.467388 0.600375 0.950475
O O2 0.736863 0.519354 0.722037
O O3 0.349184 0.974586 0.081523
O O4 0.757428 0.793644 0.939981
O O5 0.284936 0.356080 0.925457
O O6 0.572734 0.222725 0.656901
O O7 0.105923 0.630577 0.975471
O O8 0.211933 0.144554 0.708360
O O9 0.346153 0.976371 0.753565
O O10 0.948558 0.080191 0.413375
O O11 0.944398 0.815014 0.408257
O O12 0.808762 0.739655 0.551787
O O13 0.553413 0.600731 0.600448
O O14 0.622919 0.607099 0.410382
O O15 0.243595 0.832071 0.905969
O O16 0.906490 0.236652 0.237724
#
# Coordination Sequence:
#
# PCOD9007206 Si02
#       8
#     2   2   2   2   2   2   2   2
#     4  10  21  39  63  87 124 161 199 252 298 367
#     4  10  22  39  62  95 120 157 207 249 299 364
#     4  11  23  40  65  93 123 164 202 251 305 365
#     4  10  22  41  64  89 126 165 201 245 308 364
#     4  11  22  40  59  89 125 155 201 256 302 357
#     4  10  21  41  63  88 116 160 207 246 306 361
#     4  10  21  39  60  90 124 162 199 248 305 366
#     4  10  23  39  61  90 118 156 203 257 301 354
#
# _framework density 27.449199
#
# number of rings (size 3 to 8) (size 9 to 14) (size 15 to 20)
#    0.000    1.750    2.500    1.125    3.500    1.000 
#    4.500    6.250    0.000    0.000    0.000    0.000 
#    0.000    0.000    0.000    0.000    0.000    0.000 
#
# Total GULP energy -89281.085050 kJ/mol
# GULP energy per Si atom -5580.067816 kJ/mol
# Density = 2.738672 g / cm^3
# Si number density = 27.449199 Si / 1000 Ang^3
#
#
#
# Elastic Constant Matrix: (Units=GPa)
#
#
# Indices 1 2 3 4 5 6 
#
# 1 102.4877 50.0214 37.6307 -6.1192 -7.0072 50.3342
# 2 50.0214 99.2441 42.3017 2.5216 1.8414 51.8084
# 3 37.6307 42.3017 146.5108 5.3676 -11.1038 11.2227
# 4 -6.1192 2.5216 5.3676 30.2318 12.5827 -1.9719
# 5 -7.0072 1.8414 -11.1038 12.5827 46.7607 -2.5403
# 6 50.3342 51.8084 11.2227 -1.9719 -2.5403 51.9479
#
#
#
# Elastic Compliance Matrix: (Units=1/GPa)
#
#
# Indices 1 2 3 4 5 6 
#
# 1 0.021233 0.002849 -0.004716 0.003532 -0.000211 -0.022272
# 2 0.002849 0.025494 -0.006242 -0.000829 -0.003305 -0.027031
# 3 -0.004716 -0.006242 0.009498 -0.002807 0.003027 0.008784
# 4 0.003532 -0.000829 -0.002807 0.038693 -0.010573 -0.001037
# 5 -0.000211 -0.003305 0.003027 -0.010573 0.025248 0.003679
# 6 -0.022272 -0.027031 0.008784 -0.001037 0.003679 0.066031
#
#
# Mechanical properties :
#
#
# Convention : Reuss Voigt Hill
#
# Bulk Modulus (GPa) = 24.99496 67.57224 46.28360
# Shear Modulus (GPa) = 23.17485 40.34069 31.75777
#
# Velocity S-wave (km/s) = 2.90880 3.83776 3.40511
# Velocity P-wave (km/s) = 4.51743 6.65646 5.68840
#
# Compressibility (1/GPa) = 0.04000807
#
# Stress axis : x y z
#
# Youngs Moduli (GPa) = 47.09603 39.22490 105.28200
#
# Poissons Ratio (x) = -0.11175 0.49646
# Poissons Ratio (y) = -0.13417 0.65718
# Poissons Ratio (z) = 0.22208 0.24485
#
# Static dielectric constant tensor:
#      x y z
#    x 2.222900 -0.078490 0.047930 
#    y -0.078490 2.304120 -0.042020 
#    z 0.047930 -0.042020 2.117310 
# 
# From -- ./inp_files/589619.got.cif
#   From: 2010.05.17/outbox.cif.g08.bks.cpg/sg2_295_cif.got.tgz:589619.got - 2010.06.03 11:33:40.
