data_PCOD9007597
_publ_section_title
;
Structure prediction by ZEFSAII (Michael W. Deem and Ramdas Pophale) SiO2 
 PCOD9007597
Probable space group: P -1
;
_chemical_formula_sum "Si O2"
_cell_formula_units_Z 14
_cell_length_a 14.732113
_cell_length_b 9.665660
_cell_length_c 5.023891
_cell_angle_alpha 82.239462
_cell_angle_beta 109.851895
_cell_angle_gamma 108.806650
_cell_volume 636.681861
_symmetry_space_group_name_H-M "P -1"
_symmetry_group_IT_number 2
_symmetry_cell_setting 'triclinic'
loop_
_space_group_symop_operation_xyz
x,y,z
-x,-y,-z
loop_
_atom_site_type_symbol
_atom_site_label
_atom_site_fract_x
_atom_site_fract_y
_atom_site_fract_z
Si Si1 0.189833 0.898496 0.920049
Si Si2 0.723716 0.361761 0.887699
Si Si3 0.202439 0.453414 0.607307
Si Si4 0.054041 0.883917 0.312363
Si Si5 0.111366 0.212768 0.211151
Si Si6 0.509592 0.401831 0.784873
Si Si7 0.704560 0.788860 0.317369
O O1 0.261784 0.797084 0.049626
O O2 0.105972 0.834460 0.625887
O O3 0.249896 0.059841 0.830709
O O4 0.129873 0.894506 0.135366
O O5 0.804307 0.463768 0.149780
O O6 0.742620 0.429021 0.593281
O O7 0.614400 0.364463 0.878622
O O8 0.111416 0.345590 0.371793
O O9 0.269811 0.345525 0.770472
O O10 0.054291 0.051877 0.309793
O O11 0.944256 0.789163 0.122593
O O12 0.227911 0.211595 0.348492
O O13 0.500000 0.500000 0.500000
O O14 0.413311 0.257237 0.732479
O O15 0.500000 0.500000 0.000000
#
# Coordination Sequence:
#
# PCOD9007597 Si02
#       7
#     2   2   2   2   2   2   2
#     4  11  25  39  60  90 127 158 191 246 309 351
#     4  12  23  42  59  90 127 155 193 250 304 354
#     4  10  22  39  65  85 119 157 201 247 288 350
#     4  10  21  39  62  89 121 158 197 248 299 345
#     4   8  19  38  63  91 115 152 212 246 282 348
#     4  12  21  38  64  89 114 156 201 246 292 347
#     4   9  21  39  63  90 114 155 205 245 283 355
#
# _framework density 21.989004000000001
#
# number of rings (size 3 to 8) (size 9 to 14) (size 15 to 20)
#    0.857    0.857    2.857    0.857    2.000    9.143 
#    0.000    4.286    0.000    7.714    0.000    0.000 
#    0.000    0.000    0.000    0.000    0.000    0.000 
#
# Total GULP energy -78148.565202 kJ/mol
# GULP energy per Si atom -5582.040372 kJ/mol
# Density = 2.193896 g / cm^3
# Si number density = 21.989004 Si / 1000 Ang^3
#
#
#
# Elastic Constant Matrix: (Units=GPa)
#
#
# Indices 1 2 3 4 5 6 
#
# 1 101.9245 42.7889 51.3724 -11.2948 8.5651 5.7962
# 2 42.7889 90.5819 40.9741 -17.9881 9.3535 1.8528
# 3 51.3724 40.9741 121.3296 -8.3539 -17.4594 -3.1185
# 4 -11.2948 -17.9881 -8.3539 36.7562 0.6484 15.1758
# 5 8.5651 9.3535 -17.4594 0.6484 30.6599 0.3305
# 6 5.7962 1.8528 -3.1185 15.1758 0.3305 36.8712
#
#
#
# Elastic Compliance Matrix: (Units=1/GPa)
#
#
# Indices 1 2 3 4 5 6 
#
# 1 0.015566 -0.002786 -0.006541 0.003874 -0.007258 -0.004389
# 2 -0.002786 0.017262 -0.005287 0.008262 -0.007628 -0.004209
# 3 -0.006541 -0.005287 0.014356 -0.003050 0.011640 0.003659
# 4 0.003874 0.008262 -0.003050 0.038984 -0.005978 -0.017274
# 5 -0.007258 -0.007628 0.011640 -0.005978 0.043676 0.004578
# 6 -0.004389 -0.004209 0.003659 -0.017274 0.004578 0.035401
#
#
# Mechanical properties :
#
#
# Convention : Reuss Voigt Hill
#
# Bulk Modulus (GPa) = 55.68855 64.90074 60.29464
# Shear Modulus (GPa) = 24.94299 32.77083 28.85691
#
# Velocity S-wave (km/s) = 3.37165 3.86466 3.62654
# Velocity P-wave (km/s) = 6.36694 7.03515 6.70937
#
# Compressibility (1/GPa) = 0.01795701
#
# Stress axis : x y z
#
# Youngs Moduli (GPa) = 64.24196 57.93171 69.65864
#
# Poissons Ratio (x) = 0.16140 0.45560
# Poissons Ratio (y) = 0.17898 0.36826
# Poissons Ratio (z) = 0.42017 0.30627
#
# Static dielectric constant tensor:
#      x y z
#    x 1.854570 0.025920 -0.012960 
#    y 0.025920 1.839230 0.039350 
#    z -0.012960 0.039350 1.826590 
# 
# From -- ./inp_files/104789.got.cif
#   From: 2010.05.17/outbox.cif.g08.bks.cpg/sg2_53_cif.got.tgz:104789.got - 2010.06.03 11:33:40.
