data_PCOD9007212
_publ_section_title
;
Structure prediction by ZEFSAII (Michael W. Deem and Ramdas Pophale) SiO2 
 PCOD9007212
Probable space group: P -1
;
_chemical_formula_sum "Si O2"
_cell_formula_units_Z 16
_cell_length_a 11.516649
_cell_length_b 9.309160
_cell_length_c 13.871327
_cell_angle_alpha 149.404934
_cell_angle_beta 101.340556
_cell_angle_gamma 73.722074
_cell_volume 723.529879
_symmetry_space_group_name_H-M "P -1"
_symmetry_group_IT_number 2
_symmetry_cell_setting 'triclinic'
loop_
_space_group_symop_operation_xyz
x,y,z
-x,-y,-z
loop_
_atom_site_type_symbol
_atom_site_label
_atom_site_fract_x
_atom_site_fract_y
_atom_site_fract_z
Si Si1 0.638281 0.951995 0.843654
Si Si2 0.067814 0.817402 0.494401
Si Si3 0.108528 0.144461 0.063828
Si Si4 0.600993 0.584930 0.909158
Si Si5 0.263619 0.608733 0.998553
Si Si6 0.996173 0.797912 0.116263
Si Si7 0.553448 0.855185 0.326234
Si Si8 0.345298 0.660618 0.439882
O O1 0.752940 0.971771 0.943670
O O2 0.635818 0.614791 0.646500
O O3 0.503880 0.125907 0.953077
O O4 0.675883 0.115614 0.851266
O O5 0.072261 0.480142 0.284563
O O6 0.208149 0.838044 0.532114
O O7 0.000000 0.000000 0.500000
O O8 0.009400 0.951268 0.661666
O O9 0.107428 0.130129 0.939406
O O10 0.000000 0.000000 0.000000
O O11 0.529440 0.372404 0.829860
O O12 0.643813 0.464927 0.741209
O O13 0.706607 0.558820 0.990571
O O14 0.315203 0.366071 0.786129
O O15 0.122212 0.736371 0.044268
O O16 0.000000 0.500000 0.000000
O O17 0.500000 0.000000 0.500000
O O18 0.564431 0.120800 0.412715
#
# Coordination Sequence:
#
# PCOD9007212 Si02
#       8
#     2   2   2   2   2   2   2   2
#     4  10  21  40  64  90 130 165 205 268 328 380
#     4  11  23  40  67  97 131 172 224 272 321 393
#     4  11  24  44  66  96 136 171 216 279 331 383
#     4  10  21  39  67  89 121 172 212 255 323 391
#     4  11  22  41  65  93 125 167 219 261 317 400
#     4  12  24  42  71  98 128 179 227 264 328 396
#     4   9  19  36  61  86 121 161 206 257 311 383
#     4  10  21  39  60  90 127 159 208 269 319 376
#
# _framework density 22.113807000000001
#
# number of rings (size 3 to 8) (size 9 to 14) (size 15 to 20)
#    0.000    1.500    2.500    3.375    1.750    0.500 
#    0.000    2.500   16.500    0.000    0.000    0.000 
#    0.000    0.000    0.000    0.000    0.000    0.000 
#
# Total GULP energy -89207.231193 kJ/mol
# GULP energy per Si atom -5575.451950 kJ/mol
# Density = 2.206347 g / cm^3
# Si number density = 22.113807 Si / 1000 Ang^3
#
#
#
# Elastic Constant Matrix: (Units=GPa)
#
#
# Indices 1 2 3 4 5 6 
#
# 1 63.4743 13.4113 13.2816 13.6785 -14.0541 6.7868
# 2 13.4113 102.5187 31.4198 13.6612 -10.4790 -12.5728
# 3 13.2816 31.4198 85.8182 2.5664 -7.4164 0.2152
# 4 13.6785 13.6612 2.5664 40.7516 12.8753 3.3065
# 5 -14.0541 -10.4790 -7.4164 12.8753 42.1932 14.5014
# 6 6.7868 -12.5728 0.2152 3.3065 14.5014 45.8662
#
#
#
# Elastic Compliance Matrix: (Units=1/GPa)
#
#
# Indices 1 2 3 4 5 6 
#
# 1 0.021891 -0.000453 -0.001834 -0.010430 0.012267 -0.006481
# 2 -0.000453 0.012340 -0.004084 -0.004803 0.002637 0.002981
# 3 -0.001834 -0.004084 0.013483 0.000958 0.000886 -0.001260
# 4 -0.010430 -0.004803 0.000958 0.034404 -0.015955 0.002787
# 5 0.012267 0.002637 0.000886 -0.015955 0.037525 -0.011810
# 6 -0.006481 0.002981 -0.001260 0.002787 -0.011810 0.027118
#
#
# Mechanical properties :
#
#
# Convention : Reuss Voigt Hill
#
# Bulk Modulus (GPa) = 28.59384 40.89294 34.74339
# Shear Modulus (GPa) = 29.21256 38.67543 33.94400
#
# Velocity S-wave (km/s) = 3.63851 4.18655 3.92212
# Velocity P-wave (km/s) = 5.53264 6.47316 6.02129
#
# Compressibility (1/GPa) = 0.03497257
#
# Stress axis : x y z
#
# Youngs Moduli (GPa) = 45.68175 81.03486 74.16953
#
# Poissons Ratio (x) = 0.03668 0.13602
# Poissons Ratio (y) = 0.02068 0.30290
# Poissons Ratio (z) = 0.08377 0.33094
#
# Static dielectric constant tensor:
#      x y z
#    x 1.805500 -0.012540 0.061510 
#    y -0.012540 1.872040 -0.007280 
#    z 0.061510 -0.007280 1.808010 
# 
# From -- ./inp_files/516468.got.cif
#   From: 2010.05.17/outbox.cif.g08.bks.cpg/sg2_259_cif.got.tgz:516468.got - 2010.06.03 11:33:40.
