data_PCOD9007078
_publ_section_title
;
Structure prediction by ZEFSAII (Michael W. Deem and Ramdas Pophale) SiO2 
 PCOD9007078
Probable space group: P -1
;
_chemical_formula_sum "Si O2"
_cell_formula_units_Z 12
_cell_length_a 20.062051
_cell_length_b 7.556965
_cell_length_c 6.215262
_cell_angle_alpha 86.087791
_cell_angle_beta 96.192882
_cell_angle_gamma 35.057197
_cell_volume 517.473420
_symmetry_space_group_name_H-M "P -1"
_symmetry_group_IT_number 2
_symmetry_cell_setting 'triclinic'
loop_
_space_group_symop_operation_xyz
x,y,z
-x,-y,-z
loop_
_atom_site_type_symbol
_atom_site_label
_atom_site_fract_x
_atom_site_fract_y
_atom_site_fract_z
Si Si1 0.949788 0.306503 0.490751
Si Si2 0.485829 0.772521 0.946343
Si Si3 0.413063 0.262578 0.634662
Si Si4 0.097789 0.256783 0.806552
Si Si5 0.708931 0.999585 0.385306
Si Si6 0.709053 0.233104 0.745952
O O1 0.961355 0.418561 0.282003
O O2 0.806098 0.625559 0.464025
O O3 0.015111 0.275894 0.704313
O O4 0.000000 0.000000 0.500000
O O5 0.606355 0.499491 0.864946
O O6 0.407740 0.118799 0.819027
O O7 0.397648 0.812625 0.830592
O O8 0.523037 0.719872 0.210034
O O9 0.297802 0.588902 0.439164
O O10 0.500000 0.000000 0.500000
O O11 0.207355 0.033090 0.690211
O O12 0.164285 0.083488 0.068884
O O13 0.673263 0.141763 0.597001
#
# Coordination Sequence:
#
# PCOD9007078 Si02
#       6
#     2   2   2   2   2   2
#     4   9  21  45  65  87 122 165 211 270 318 365
#     4  10  21  39  59  93 130 167 206 251 311 383
#     4   9  21  37  57  88 129 168 208 251 304 370
#     4   9  22  42  63  92 123 158 216 264 317 368
#     4  10  22  38  63  90 124 167 208 256 320 370
#     4  11  21  37  61  92 130 164 203 264 306 379
#
# _framework density 23.189596000000002
#
# number of rings (size 3 to 8) (size 9 to 14) (size 15 to 20)
#    1.000    1.333    0.000    1.500    0.000   11.333 
#    3.000    0.833    0.000    0.000    0.000    0.000 
#    0.000    0.000    0.000    0.000    0.000    0.000 
#
# Total GULP energy -66904.690286 kJ/mol
# GULP energy per Si atom -5575.390857 kJ/mol
# Density = 2.313682 g / cm^3
# Si number density = 23.189596 Si / 1000 Ang^3
#
#
#
# Elastic Constant Matrix: (Units=GPa)
#
#
# Indices 1 2 3 4 5 6 
#
# 1 65.8529 30.5045 37.8594 -6.2365 21.2692 16.0501
# 2 30.5045 118.9431 67.3563 -5.8010 4.6698 36.3208
# 3 37.8594 67.3563 181.1383 -25.4619 26.4268 14.6025
# 4 -6.2365 -5.8010 -25.4619 55.3352 4.3545 -6.9606
# 5 21.2692 4.6698 26.4268 4.3545 38.8035 -6.0619
# 6 16.0501 36.3208 14.6025 -6.9606 -6.0619 39.1986
#
#
#
# Elastic Compliance Matrix: (Units=1/GPa)
#
#
# Indices 1 2 3 4 5 6 
#
# 1 0.023539 -0.001912 -0.001259 0.001779 -0.013446 -0.009161
# 2 -0.001912 0.014938 -0.004677 -0.002330 0.000886 -0.011593
# 3 -0.001259 -0.004677 0.008654 0.003928 -0.004835 0.001575
# 4 0.001779 -0.002330 0.003928 0.020602 -0.005242 0.002814
# 5 -0.013446 0.000886 -0.004835 -0.005242 0.038719 0.011542
# 6 -0.009161 -0.011593 0.001575 0.002814 0.011542 0.041701
#
#
# Mechanical properties :
#
#
# Convention : Reuss Voigt Hill
#
# Bulk Modulus (GPa) = 31.81234 70.81942 51.31588
# Shear Modulus (GPa) = 28.68186 42.01506 35.34846
#
# Velocity S-wave (km/s) = 3.52069 4.26115 3.90849
# Velocity P-wave (km/s) = 5.50229 7.40375 6.52268
#
# Compressibility (1/GPa) = 0.03143434
#
# Stress axis : x y z
#
# Youngs Moduli (GPa) = 42.48359 66.94337 115.55872
#
# Poissons Ratio (x) = 0.12800 0.14544
# Poissons Ratio (y) = 0.08123 0.54050
# Poissons Ratio (z) = 0.05347 0.31311
#
# Static dielectric constant tensor:
#      x y z
#    x 1.932220 0.057040 -0.034340 
#    y 0.057040 1.968700 -0.048740 
#    z -0.034340 -0.048740 1.884920 
# 
# From -- ./inp_files/126163.got.cif
#   From: 2010.05.17/outbox.cif.g08.bks.cpg/sg2_64_cif.got.tgz:126163.got - 2010.06.03 11:33:40.
