data_PCOD9007666
_publ_section_title
;
Structure prediction by ZEFSAII (Michael W. Deem and Ramdas Pophale) SiO2 
 PCOD9007666
Probable space group: P -1
;
_chemical_formula_sum "Si O2"
_cell_formula_units_Z 16
_cell_length_a 9.136412
_cell_length_b 19.555028
_cell_length_c 10.637021
_cell_angle_alpha 134.395694
_cell_angle_beta 96.714575
_cell_angle_gamma 48.595553
_cell_volume 778.173823
_symmetry_space_group_name_H-M "P -1"
_symmetry_group_IT_number 2
_symmetry_cell_setting 'triclinic'
loop_
_space_group_symop_operation_xyz
x,y,z
-x,-y,-z
loop_
_atom_site_type_symbol
_atom_site_label
_atom_site_fract_x
_atom_site_fract_y
_atom_site_fract_z
Si Si1 0.230832 0.092671 0.636074
Si Si2 0.714593 0.464687 0.476902
Si Si3 0.262050 0.670625 0.274790
Si Si4 0.272470 0.193887 0.219782
Si Si5 0.857769 0.609758 0.307514
Si Si6 0.046645 0.338308 0.132792
Si Si7 0.345476 0.459835 0.168842
Si Si8 0.613046 0.202794 0.661206
O O1 0.005976 0.219181 0.672636
O O2 0.500000 0.000000 0.500000
O O3 0.255214 0.966797 0.508372
O O4 0.136016 0.196810 0.886593
O O5 0.500000 0.500000 0.500000
O O6 0.640791 0.571879 0.723462
O O7 0.001729 0.280672 0.309459
O O8 0.780610 0.469727 0.352492
O O9 0.320188 0.586945 0.304727
O O10 0.272998 0.779767 0.402857
O O11 0.500000 0.500000 0.000000
O O12 0.272484 0.268296 0.429435
O O13 0.244896 0.256836 0.160345
O O14 0.500000 0.000000 0.000000
O O15 0.652886 0.689450 0.287880
O O16 0.006995 0.439210 0.155541
O O17 0.077975 0.562432 0.221240
O O18 0.563920 0.291743 0.895826
#
# Coordination Sequence:
#
# PCOD9007666 Si02
#       8
#     2   2   2   2   2   2   2   2
#     4  12  24  42  65  95 130 164 208 262 321 370
#     4   9  22  37  66  88 123 166 210 249 310 372
#     4  10  23  40  63  91 125 167 206 261 311 376
#     4   9  20  36  59  89 124 161 204 258 309 361
#     4  11  20  38  62  94 122 168 215 252 308 383
#     4  10  22  38  67  90 126 165 216 251 312 371
#     4  10  21  39  62  91 125 163 217 252 310 377
#     4  11  23  36  64  93 129 160 207 269 318 361
#
# _framework density 20.560960000000001
#
# number of rings (size 3 to 8) (size 9 to 14) (size 15 to 20)
#    0.750    1.000    0.000    4.875    5.250    1.000 
#    0.000    0.000    0.000    1.500    0.000    0.000 
#    0.000    0.000    0.000    0.000    0.000    0.000 
#
# Total GULP energy -89109.639820 kJ/mol
# GULP energy per Si atom -5569.352489 kJ/mol
# Density = 2.051416 g / cm^3
# Si number density = 20.560960 Si / 1000 Ang^3
#
#
#
# Elastic Constant Matrix: (Units=GPa)
#
#
# Indices 1 2 3 4 5 6 
#
# 1 87.9367 11.3728 16.4109 8.8448 7.5647 9.8640
# 2 11.3728 61.1236 32.3464 7.4217 9.5790 7.3544
# 3 16.4109 32.3464 92.8613 -0.0292 23.9526 15.4896
# 4 8.8448 7.4217 -0.0292 33.0204 3.1340 3.4002
# 5 7.5647 9.5790 23.9526 3.1340 24.7754 8.1037
# 6 9.8640 7.3544 15.4896 3.4002 8.1037 42.9463
#
#
#
# Elastic Compliance Matrix: (Units=1/GPa)
#
#
# Indices 1 2 3 4 5 6 
#
# 1 0.012307 -0.000878 -0.001244 -0.002797 -0.001284 -0.001764
# 2 -0.000878 0.020836 -0.006929 -0.004371 -0.000390 -0.000448
# 3 -0.001244 -0.006929 0.017230 0.003419 -0.013207 -0.002521
# 4 -0.002797 -0.004371 0.003419 0.032598 -0.004362 -0.001600
# 5 -0.001284 -0.000390 -0.013207 -0.004362 0.055886 -0.005075
# 6 -0.001764 -0.000448 -0.002521 -0.001600 -0.005075 0.025760
#
#
# Mechanical properties :
#
#
# Convention : Reuss Voigt Hill
#
# Bulk Modulus (GPa) = 30.98783 40.24245 35.61514
# Shear Modulus (GPa) = 25.84285 32.26785 29.05535
#
# Velocity S-wave (km/s) = 3.54911 3.96583 3.76324
# Velocity P-wave (km/s) = 5.64790 6.37065 6.02013
#
# Compressibility (1/GPa) = 0.03227073
#
# Stress axis : x y z
#
# Youngs Moduli (GPa) = 81.25274 47.99369 58.03698
#
# Poissons Ratio (x) = 0.04215 0.07223
# Poissons Ratio (y) = 0.07136 0.40213
# Poissons Ratio (z) = 0.10112 0.33254
#
# Static dielectric constant tensor:
#      x y z
#    x 1.809460 0.015810 -0.022370 
#    y 0.015810 1.773060 -0.033380 
#    z -0.022370 -0.033380 1.746820 
# 
# From -- ./inp_files/404946.got.cif
#   From: 2010.05.17/outbox.cif.g08.bks.cpg/sg2_203_cif.got.tgz:404946.got - 2010.06.03 11:33:40.
