data_PCOD9007069
_publ_section_title
;
Structure prediction by ZEFSAII (Michael W. Deem and Ramdas Pophale) SiO2 
 PCOD9007069
Probable space group: P -1
;
_chemical_formula_sum "Si O2"
_cell_formula_units_Z 14
_cell_length_a 13.658762
_cell_length_b 6.912458
_cell_length_c 12.016911
_cell_angle_alpha 73.941928
_cell_angle_beta 148.894744
_cell_angle_gamma 104.110058
_cell_volume 563.214400
_symmetry_space_group_name_H-M "P -1"
_symmetry_group_IT_number 2
_symmetry_cell_setting 'triclinic'
loop_
_space_group_symop_operation_xyz
x,y,z
-x,-y,-z
loop_
_atom_site_type_symbol
_atom_site_label
_atom_site_fract_x
_atom_site_fract_y
_atom_site_fract_z
Si Si1 0.520249 0.451051 0.819770
Si Si2 0.004131 0.178079 0.066975
Si Si3 0.241616 0.106231 0.698247
Si Si4 0.220331 0.607676 0.360384
Si Si5 0.471002 0.115548 0.128585
Si Si6 0.930212 0.272210 0.219602
Si Si7 0.620714 0.966907 0.512136
O O1 0.376926 0.297675 0.765625
O O2 0.422064 0.506308 0.597354
O O3 0.536255 0.659142 0.869511
O O4 0.724169 0.355445 0.026745
O O5 0.940505 0.142627 0.136694
O O6 0.231167 0.211073 0.297464
O O7 0.864568 0.340033 0.851169
O O8 0.000000 0.000000 0.000000
O O9 0.037374 0.164890 0.442950
O O10 0.340697 0.927095 0.754385
O O11 0.291138 0.077288 0.880108
O O12 0.062217 0.469038 0.287151
O O13 0.253642 0.827708 0.414138
O O14 0.491833 0.965881 0.277886
O O15 0.500000 0.000000 0.500000
#
# Coordination Sequence:
#
# PCOD9007069 Si02
#       7
#     2   2   2   2   2   2   2
#     4  10  23  41  66  98 127 169 219 270 325 392
#     4  10  21  39  59  91 130 169 211 269 321 380
#     4  10  22  43  68  94 131 175 213 270 324 387
#     4   9  22  39  59  91 126 171 206 265 323 376
#     4  10  21  43  67  94 134 171 216 269 326 381
#     4  11  22  42  64  94 133 164 221 269 327 388
#     4  10  21  39  66  93 126 172 218 261 322 387
#
# _framework density 24.857320999999999
#
# number of rings (size 3 to 8) (size 9 to 14) (size 15 to 20)
#    0.000    2.000    1.429    0.857    4.000    3.429 
#    2.571    2.857    0.000    0.000    0.000    0.000 
#    0.000    0.000    0.000    0.000    0.000    0.000 
#
# Total GULP energy -78269.168333 kJ/mol
# GULP energy per Si atom -5590.654881 kJ/mol
# Density = 2.480074 g / cm^3
# Si number density = 24.857321 Si / 1000 Ang^3
#
#
#
# Elastic Constant Matrix: (Units=GPa)
#
#
# Indices 1 2 3 4 5 6 
#
# 1 100.9039 33.3997 98.2253 -11.3777 -17.9532 -15.9368
# 2 33.3997 116.5574 56.1101 -4.2796 3.9443 -23.7747
# 3 98.2253 56.1101 313.7897 -22.5544 -11.7460 -22.9074
# 4 -11.3777 -4.2796 -22.5544 49.1011 0.2799 -0.6812
# 5 -17.9532 3.9443 -11.7460 0.2799 53.3380 -2.6755
# 6 -15.9368 -23.7747 -22.9074 -0.6812 -2.6755 36.4615
#
#
#
# Elastic Compliance Matrix: (Units=1/GPa)
#
#
# Indices 1 2 3 4 5 6 
#
# 1 0.016253 -0.002032 -0.004160 0.001700 0.004874 0.003555
# 2 -0.002032 0.010777 -0.000937 0.000121 -0.001415 0.005448
# 3 -0.004160 -0.000937 0.004772 0.001156 -0.000258 0.000571
# 4 0.001700 0.000121 0.001156 0.021325 0.000806 0.002006
# 5 0.004874 -0.001415 -0.000258 0.000806 0.020562 0.002570
# 6 0.003555 0.005448 0.000571 0.002006 0.002570 0.033117
#
#
# Mechanical properties :
#
#
# Convention : Reuss Voigt Hill
#
# Bulk Modulus (GPa) = 57.00546 100.74679 78.87612
# Shear Modulus (GPa) = 39.39739 50.68118 45.03928
#
# Velocity S-wave (km/s) = 3.98545 4.52030 4.26127
# Velocity P-wave (km/s) = 6.64540 8.23785 7.48410
#
# Compressibility (1/GPa) = 0.01754218
#
# Stress axis : x y z
#
# Youngs Moduli (GPa) = 61.52653 92.79308 209.56252
#
# Poissons Ratio (x) = 0.18857 0.87182
# Poissons Ratio (y) = 0.12503 0.19644
# Poissons Ratio (z) = 0.25596 0.08698
#
# Static dielectric constant tensor:
#      x y z
#    x 1.962800 0.065450 -0.027130 
#    y 0.065450 2.078460 0.020410 
#    z -0.027130 0.020410 2.011510 
# 
# From -- ./inp_files/447390.got.cif
#   From: 2010.05.17/outbox.cif.g08.bks.cpg/sg2_224_cif.got.tgz:447390.got - 2010.06.03 11:33:40.
