data_PCOD9007869
_publ_section_title
;
Structure prediction by ZEFSAII (Michael W. Deem and Ramdas Pophale) SiO2 
 PCOD9007869
Probable space group: P -1
;
_chemical_formula_sum "Si O2"
_cell_formula_units_Z 14
_cell_length_a 17.352974
_cell_length_b 8.650834
_cell_length_c 14.921146
_cell_angle_alpha 125.779916
_cell_angle_beta 23.658782
_cell_angle_gamma 138.552084
_cell_volume 549.481584
_symmetry_space_group_name_H-M "P -1"
_symmetry_group_IT_number 2
_symmetry_cell_setting 'triclinic'
loop_
_space_group_symop_operation_xyz
x,y,z
-x,-y,-z
loop_
_atom_site_type_symbol
_atom_site_label
_atom_site_fract_x
_atom_site_fract_y
_atom_site_fract_z
Si Si1 0.589165 0.774823 0.003469
Si Si2 0.665608 0.399698 0.389593
Si Si3 0.840044 0.922719 0.441357
Si Si4 0.901102 0.368058 0.462113
Si Si5 0.246968 0.205135 0.896186
Si Si6 0.430846 0.689367 0.945503
Si Si7 0.072295 0.345034 0.968348
O O1 0.387103 0.743922 0.275262
O O2 0.500000 0.500000 0.000000
O O3 0.542467 0.817436 0.966527
O O4 0.886087 0.962612 0.773052
O O5 0.712805 0.646748 0.451420
O O6 0.415630 0.191421 0.641332
O O7 0.883872 0.399352 0.188898
O O8 0.686228 0.421863 0.267347
O O9 0.639434 0.874546 0.711885
O O10 0.885032 0.129068 0.397547
O O11 0.000000 0.500000 0.500000
O O12 0.139128 0.577883 0.215872
O O13 0.397226 0.434823 0.884382
O O14 0.058763 0.918604 0.034440
O O15 0.129779 0.288418 0.982840
#
# Coordination Sequence:
#
# PCOD9007869 Si02
#       7
#     2   2   2   2   2   2   2
#     4  11  22  41  61  87 123 161 201 248 305 361
#     4  10  22  39  63  90 125 155 206 251 304 367
#     4  11  22  40  62  90 123 161 204 252 303 361
#     4  10  21  40  58  84 121 160 203 248 302 359
#     4  10  21  40  62  90 123 158 204 250 308 361
#     4  10  22  40  62  89 124 159 203 252 298 364
#     4  10  21  39  63  89 121 161 198 251 312 361
#
# _framework density 25.478562
#
# number of rings (size 3 to 8) (size 9 to 14) (size 15 to 20)
#    0.000    1.714    2.857    2.143    0.000    4.571 
#    7.714    5.714    0.000    0.000    0.000    0.000 
#    0.000    0.000    0.000    0.000    0.000    0.000 
#
# Total GULP energy -78218.603847 kJ/mol
# GULP energy per Si atom -5587.043132 kJ/mol
# Density = 2.542057 g / cm^3
# Si number density = 25.478562 Si / 1000 Ang^3
#
#
#
# Elastic Constant Matrix: (Units=GPa)
#
#
# Indices 1 2 3 4 5 6 
#
# 1 53.7547 1.8235 41.4538 10.4965 -5.6264 -6.7102
# 2 1.8235 79.0363 15.6333 20.5052 -11.9024 -4.7314
# 3 41.4538 15.6333 196.6791 -2.2307 -1.8985 -16.6449
# 4 10.4965 20.5052 -2.2307 50.2835 -11.7552 -2.9067
# 5 -5.6264 -11.9024 -1.8985 -11.7552 33.2859 -4.8930
# 6 -6.7102 -4.7314 -16.6449 -2.9067 -4.8930 28.8498
#
#
#
# Elastic Compliance Matrix: (Units=1/GPa)
#
#
# Indices 1 2 3 4 5 6 
#
# 1 0.024203 0.002513 -0.005065 -0.005356 0.003270 0.003134
# 2 0.002513 0.015127 -0.001564 -0.005678 0.004075 0.002282
# 3 -0.005065 -0.001564 0.006518 0.002154 0.000093 0.002559
# 4 -0.005356 -0.005678 0.002154 0.025077 0.006438 0.002684
# 5 0.003270 0.004075 0.000093 0.006438 0.035530 0.008157
# 6 0.003134 0.002282 0.002559 0.002684 0.008157 0.038896
#
#
# Mechanical properties :
#
#
# Convention : Reuss Voigt Hill
#
# Bulk Modulus (GPa) = 26.58393 49.69905 38.14149
# Shear Modulus (GPa) = 30.09839 40.52115 35.30977
#
# Velocity S-wave (km/s) = 3.44077 3.99231 3.72676
# Velocity P-wave (km/s) = 5.12266 6.38748 5.78972
#
# Compressibility (1/GPa) = 0.03761671
#
# Stress axis : x y z
#
# Youngs Moduli (GPa) = 41.31707 66.10603 153.41743
#
# Poissons Ratio (x) = -0.16613 0.77705
# Poissons Ratio (y) = -0.10383 0.23995
# Poissons Ratio (z) = 0.20927 0.10339
#
# Static dielectric constant tensor:
#      x y z
#    x 2.320170 0.086700 -0.109190 
#    y 0.086700 1.960880 -0.019820 
#    z -0.109190 -0.019820 2.204520 
# 
# From -- ./inp_files/348622.got.cif
#   From: 2010.05.17/outbox.cif.g08.bks.cpg/sg2_175_cif.got.tgz:348622.got - 2010.06.03 11:33:40.
