data_PCOD9007038
_publ_section_title
;
Structure prediction by ZEFSAII (Michael W. Deem and Ramdas Pophale) SiO2 
 PCOD9007038
Probable space group: P -1
;
_chemical_formula_sum "Si O2"
_cell_formula_units_Z 16
_cell_length_a 15.154681
_cell_length_b 11.799232
_cell_length_c 6.484093
_cell_angle_alpha 120.723621
_cell_angle_beta 52.150705
_cell_angle_gamma 94.428251
_cell_volume 737.812605
_symmetry_space_group_name_H-M "P -1"
_symmetry_group_IT_number 2
_symmetry_cell_setting 'triclinic'
loop_
_space_group_symop_operation_xyz
x,y,z
-x,-y,-z
loop_
_atom_site_type_symbol
_atom_site_label
_atom_site_fract_x
_atom_site_fract_y
_atom_site_fract_z
Si Si1 0.112253 0.052723 0.902279
Si Si2 0.810244 0.788423 0.407625
Si Si3 0.548144 0.866243 0.955674
Si Si4 0.362044 0.843957 0.519966
Si Si5 0.435541 0.698431 0.680891
Si Si6 0.036963 0.334942 0.545075
Si Si7 0.177905 0.451106 0.145018
Si Si8 0.373927 0.574055 0.011212
O O1 0.153558 0.094799 0.660060
O O2 0.231204 0.943574 0.732788
O O3 0.070515 0.191340 0.233803
O O4 0.000000 0.000000 0.000000
O O5 0.687898 0.837518 0.760504
O O6 0.917682 0.702181 0.323032
O O7 0.787061 0.690090 0.170772
O O8 0.524886 0.739709 0.744910
O O9 0.464399 0.885584 0.294551
O O10 0.500000 0.000000 0.000000
O O11 0.383085 0.825003 0.715149
O O12 0.377715 0.687054 0.275861
O O13 0.340784 0.666910 0.935432
O O14 0.505051 0.552739 0.331381
O O15 0.105016 0.428058 0.423477
O O16 0.900984 0.426600 0.780558
O O17 0.283784 0.495662 0.117098
#
# Coordination Sequence:
#
# PCOD9007038 Si02
#       8
#     2   2   2   2   2   2   2   2
#     4  11  25  43  60  90 124 155 204 249 294 363
#     4  11  23  41  64  91 121 158 201 248 303 355
#     4  11  23  40  61  91 126 155 198 250 296 359
#     4  11  24  38  63  89 121 165 200 241 302 357
#     4  10  23  39  59  90 122 158 201 243 297 356
#     4  10  24  39  65  90 117 160 204 245 301 353
#     4  10  21  42  62  91 122 153 203 254 292 352
#     4  10  21  39  59  87 124 156 196 250 293 354
#
# _framework density 21.685721999999998
#
# number of rings (size 3 to 8) (size 9 to 14) (size 15 to 20)
#    0.000    1.500    2.500    1.500    3.500    3.000 
#    0.000    0.000    0.000    0.000    0.000    0.000 
#    0.000    0.000    0.000    0.000    0.000    0.000 
#
# Total GULP energy -89368.851264 kJ/mol
# GULP energy per Si atom -5585.553204 kJ/mol
# Density = 2.163636 g / cm^3
# Si number density = 21.685722 Si / 1000 Ang^3
#
#
#
# Elastic Constant Matrix: (Units=GPa)
#
#
# Indices 1 2 3 4 5 6 
#
# 1 58.6493 36.8722 15.7698 -20.3057 -6.4829 1.9841
# 2 36.8722 100.7466 17.9215 -15.5846 -1.9811 -2.4315
# 3 15.7698 17.9215 38.6808 -7.8226 -15.9893 11.0815
# 4 -20.3057 -15.5846 -7.8226 38.0520 4.6584 5.3450
# 5 -6.4829 -1.9811 -15.9893 4.6584 21.6742 0.3990
# 6 1.9841 -2.4315 11.0815 5.3450 0.3990 47.4420
#
#
#
# Elastic Compliance Matrix: (Units=1/GPa)
#
#
# Indices 1 2 3 4 5 6 
#
# 1 0.026687 -0.007472 -0.003891 0.010357 0.002236 -0.001776
# 2 -0.007472 0.013850 -0.006349 0.000751 -0.005859 0.002470
# 3 -0.003891 -0.006349 0.048223 0.002832 0.033443 -0.012027
# 4 0.010357 0.000751 0.002832 0.033604 -0.001878 -0.004826
# 5 0.002236 -0.005859 0.033443 -0.001878 0.071504 -0.008595
# 6 -0.001776 0.002470 -0.012027 -0.004826 -0.008595 0.024705
#
#
# Mechanical properties :
#
#
# Convention : Reuss Voigt Hill
#
# Bulk Modulus (GPa) = 18.74851 37.68930 28.21891
# Shear Modulus (GPa) = 18.39757 29.93452 24.16604
#
# Velocity S-wave (km/s) = 2.91584 3.71938 3.34185
# Velocity P-wave (km/s) = 4.47219 5.98853 5.28503
#
# Compressibility (1/GPa) = 0.05333758
#
# Stress axis : x y z
#
# Youngs Moduli (GPa) = 37.47128 72.20010 20.73702
#
# Poissons Ratio (x) = 0.53947 0.08068
# Poissons Ratio (y) = 0.27998 0.13165
# Poissons Ratio (z) = 0.14579 0.45838
#
# Static dielectric constant tensor:
#      x y z
#    x 1.787460 -0.015360 0.005450 
#    y -0.015360 1.793770 0.001500 
#    z 0.005450 0.001500 1.805580 
# 
# From -- ./inp_files/81107.got.cif
#   From: 2010.05.17/outbox.cif.g08.bks.cpg/sg2_41_cif.got.tgz:81107.got - 2010.06.03 11:33:40.
