data_PCOD9007640
_publ_section_title
;
Structure prediction by ZEFSAII (Michael W. Deem and Ramdas Pophale) SiO2 
 PCOD9007640
Probable space group: P -1
;
_chemical_formula_sum "Si O2"
_cell_formula_units_Z 14
_cell_length_a 5.080002
_cell_length_b 24.310589
_cell_length_c 23.076706
_cell_angle_alpha 12.117569
_cell_angle_beta 55.920407
_cell_angle_gamma 58.316721
_cell_volume 491.290402
_symmetry_space_group_name_H-M "P -1"
_symmetry_group_IT_number 2
_symmetry_cell_setting 'triclinic'
loop_
_space_group_symop_operation_xyz
x,y,z
-x,-y,-z
loop_
_atom_site_type_symbol
_atom_site_label
_atom_site_fract_x
_atom_site_fract_y
_atom_site_fract_z
Si Si1 0.463296 0.779333 0.947139
Si Si2 0.163147 0.709646 0.559929
Si Si3 0.899587 0.008737 0.569375
Si Si4 0.146597 0.605598 0.311218
Si Si5 0.670132 0.892290 0.180983
Si Si6 0.204635 0.515200 0.063983
Si Si7 0.145910 0.053326 0.097462
O O1 0.563587 0.859151 0.787106
O O2 0.091336 0.780270 0.004574
O O3 0.637126 0.026458 0.709022
O O4 0.623629 0.526005 0.209442
O O5 0.835950 0.620561 0.728048
O O6 0.097736 0.797906 0.411913
O O7 0.000000 0.000000 0.500000
O O8 0.936444 0.311558 0.273090
O O9 0.138099 0.817280 0.765702
O O10 0.280520 0.349370 0.536365
O O11 0.000000 0.500000 0.500000
O O12 0.927818 0.763660 0.138348
O O13 0.446424 0.840526 0.047293
O O14 0.343281 0.845879 0.236549
O O15 0.000000 0.000000 0.000000
O O16 0.500000 0.500000 0.000000
#
# Coordination Sequence:
#
# PCOD9007640 Si02
#       7
#     2   2   2   2   2   2   2
#     4  10  24  43  61  95 131 167 220 270 316 385
#     4  10  24  43  61  95 131 167 220 270 316 385
#     4  10  21  39  62  90 127 166 215 275 323 379
#     4  10  24  43  65  98 131 161 214 266 315 384
#     4  10  24  43  65  98 131 161 214 266 315 384
#     4  10  21  39  62  90 127 166 215 275 323 379
#     4  12  24  42  72  90 130 180 210 260 334 384
#
# _framework density 28.496381
#
# number of rings (size 3 to 8) (size 9 to 14) (size 15 to 20)
#    0.000    1.714    0.000    2.571    2.000    9.143 
#    0.000    0.000    0.000    0.000    0.000    0.000 
#    0.000    0.000    0.000    0.000    0.000    0.000 
#
# Total GULP energy -77936.693925 kJ/mol
# GULP energy per Si atom -5566.906709 kJ/mol
# Density = 2.843152 g / cm^3
# Si number density = 28.496381 Si / 1000 Ang^3
#
#
#
# Elastic Constant Matrix: (Units=GPa)
#
#
# Indices 1 2 3 4 5 6 
#
# 1 103.3081 57.9743 86.5590 -4.1315 25.0567 -19.1811
# 2 57.9743 191.1715 78.0940 59.6202 26.2106 -38.7075
# 3 86.5590 78.0940 229.3364 -3.8200 39.0357 -8.5280
# 4 -4.1315 59.6202 -3.8200 97.5126 9.5400 12.8528
# 5 25.0567 26.2106 39.0357 9.5400 63.8491 -8.3555
# 6 -19.1811 -38.7075 -8.5280 12.8528 -8.3555 41.9040
#
#
#
# Elastic Compliance Matrix: (Units=1/GPa)
#
#
# Indices 1 2 3 4 5 6 
#
# 1 0.016349 -0.002795 -0.004679 0.002073 -0.002345 0.002846
# 2 -0.002795 0.013226 -0.003280 -0.010222 0.000980 0.013600
# 3 -0.004679 -0.003280 0.007538 0.003019 -0.002540 -0.005070
# 4 0.002073 -0.010222 0.003019 0.018906 -0.003160 -0.014308
# 5 -0.002345 0.000980 -0.002540 -0.003160 0.018731 0.004019
# 6 0.002846 0.013600 -0.005070 -0.014308 0.004019 0.041888
#
#
# Mechanical properties :
#
#
# Convention : Reuss Voigt Hill
#
# Bulk Modulus (GPa) = 64.08847 107.67451 85.88149
# Shear Modulus (GPa) = 34.88036 60.73237 47.80636
#
# Velocity S-wave (km/s) = 3.50241 4.62153 4.10033
# Velocity P-wave (km/s) = 6.23656 8.14527 7.25397
#
# Compressibility (1/GPa) = 0.01560343
#
# Stress axis : x y z
#
# Youngs Moduli (GPa) = 61.16520 75.61089 132.66836
#
# Poissons Ratio (x) = 0.21133 0.62081
# Poissons Ratio (y) = 0.17096 0.43515
# Poissons Ratio (z) = 0.28622 0.24800
#
# Static dielectric constant tensor:
#      x y z
#    x 2.319530 0.116430 -0.133200 
#    y 0.116430 2.737370 -0.268230 
#    z -0.133200 -0.268230 2.218510 
# 
# From -- ./inp_files/616068.got.cif
#   From: 2010.05.17/outbox.cif.g08.bks.cpg/sg2_309_cif.got.tgz:616068.got - 2010.06.03 11:33:40.
