data_PCOD9007864
_publ_section_title
;
Structure prediction by ZEFSAII (Michael W. Deem and Ramdas Pophale) SiO2 
 PCOD9007864
Probable space group: P -1
;
_chemical_formula_sum "Si O2"
_cell_formula_units_Z 16
_cell_length_a 5.066549
_cell_length_b 17.441416
_cell_length_c 29.228176
_cell_angle_alpha 15.134090
_cell_angle_beta 92.422041
_cell_angle_gamma 91.150847
_cell_volume 671.593100
_symmetry_space_group_name_H-M "P -1"
_symmetry_group_IT_number 2
_symmetry_cell_setting 'triclinic'
loop_
_space_group_symop_operation_xyz
x,y,z
-x,-y,-z
loop_
_atom_site_type_symbol
_atom_site_label
_atom_site_fract_x
_atom_site_fract_y
_atom_site_fract_z
Si Si1 0.963491 0.271067 0.755464
Si Si2 0.321439 0.225872 0.157624
Si Si3 0.096094 0.514643 0.069334
Si Si4 0.818461 0.389108 0.589018
Si Si5 0.404963 0.066130 0.749578
Si Si6 0.524559 0.680150 0.209117
Si Si7 0.563871 0.659387 0.685918
Si Si8 0.909127 0.592296 0.123121
O O1 0.923322 0.453888 0.603029
O O2 0.715824 0.331856 0.751147
O O3 0.216093 0.343063 0.744586
O O4 0.981567 0.927302 0.939491
O O5 0.212278 0.224955 0.208955
O O6 0.495565 0.959715 0.288050
O O7 0.500000 0.500000 0.000000
O O8 0.089191 0.314785 0.068673
O O9 0.959628 0.474889 0.139463
O O10 0.314041 0.746556 0.945897
O O11 0.500000 0.500000 0.500000
O O12 0.669519 0.089429 0.768266
O O13 0.887226 0.725021 0.369806
O O14 0.509559 0.436006 0.310682
O O15 0.500000 0.000000 0.000000
O O16 0.382821 0.467480 0.827546
O O17 0.873184 0.585398 0.740863
O O18 0.500000 0.000000 0.500000
#
# Coordination Sequence:
#
# PCOD9007864 Si02
#       8
#     2   2   2   2   2   2   2   2
#     4  12  25  42  78 110 132 189 248 282 356 430
#     4   9  19  38  60  88 136 174 226 274 329 398
#     4  10  22  38  65 101 123 183 238 277 332 416
#     4  11  25  40  62 101 147 182 224 288 348 409
#     4  10  21  39  63  88 148 182 219 287 343 394
#     4  12  24  49  75 105 140 179 238 309 354 423
#     4  12  28  50  71 103 144 181 220 303 378 420
#     4  12  24  43  78 101 136 177 242 292 348 438
#
# _framework density 23.823948999999999
#
# number of rings (size 3 to 8) (size 9 to 14) (size 15 to 20)
#    0.000    1.000    2.500    3.750   10.500    0.000 
#    2.250    3.750    0.000    0.000    0.000    0.000 
#    0.000    0.000    0.000    0.000    0.000    0.000 
#
# Total GULP energy -89307.146257 kJ/mol
# GULP energy per Si atom -5581.696641 kJ/mol
# Density = 2.376973 g / cm^3
# Si number density = 23.823949 Si / 1000 Ang^3
#
#
#
# Elastic Constant Matrix: (Units=GPa)
#
#
# Indices 1 2 3 4 5 6 
#
# 1 142.3892 65.6147 12.6087 0.7982 -4.5583 9.4183
# 2 65.6147 213.4804 43.6419 -14.6452 9.5106 -16.3255
# 3 12.6087 43.6419 54.4245 -15.6095 21.5301 9.0483
# 4 0.7982 -14.6452 -15.6095 41.1722 -12.6165 0.3006
# 5 -4.5583 9.5106 21.5301 -12.6165 37.1378 -9.9085
# 6 9.4183 -16.3255 9.0483 0.3006 -9.9085 59.0541
#
#
#
# Elastic Compliance Matrix: (Units=1/GPa)
#
#
# Indices 1 2 3 4 5 6 
#
# 1 0.008513 -0.002883 0.000060 -0.000872 0.000917 -0.002006
# 2 -0.002883 0.007170 -0.006676 0.000989 0.003077 0.003976
# 3 0.000060 -0.006676 0.034524 0.004832 -0.019439 -0.010431
# 4 -0.000872 0.000989 0.004832 0.028540 0.006708 0.000652
# 5 0.000917 0.003077 -0.019439 0.006708 0.042684 0.010811
# 6 -0.002006 0.003976 -0.010431 0.000652 0.010811 0.021762
#
#
# Mechanical properties :
#
#
# Convention : Reuss Voigt Hill
#
# Bulk Modulus (GPa) = 32.04237 72.66940 52.35588
# Shear Modulus (GPa) = 28.96974 46.70141 37.83557
#
# Velocity S-wave (km/s) = 3.49089 4.43230 3.98946
# Velocity P-wave (km/s) = 5.45227 7.53409 6.57609
#
# Compressibility (1/GPa) = 0.03120868
#
# Stress axis : x y z
#
# Youngs Moduli (GPa) = 117.46660 139.46947 28.96525
#
# Poissons Ratio (x) = 0.40207 -0.00174
# Poissons Ratio (y) = 0.33864 0.19338
# Poissons Ratio (z) = -0.00705 0.93115
#
# Static dielectric constant tensor:
#      x y z
#    x 1.909970 -0.142510 0.429260 
#    y -0.142510 1.652560 0.872580 
#    z 0.429260 0.872580 -1.176920 
# 
# From -- ./inp_files/615647.got.cif
#   From: 2010.05.17/outbox.cif.g08.bks.cpg/sg2_308_cif.got.tgz:615647.got - 2010.06.03 11:33:40.
