data_PCOD9007006
_publ_section_title
;
Structure prediction by ZEFSAII (Michael W. Deem and Ramdas Pophale) SiO2 
 PCOD9007006
Probable space group: P -1
;
_chemical_formula_sum "Si O2"
_cell_formula_units_Z 14
_cell_length_a 6.349014
_cell_length_b 23.450559
_cell_length_c 6.111771
_cell_angle_alpha 132.285807
_cell_angle_beta 75.850764
_cell_angle_gamma 116.380747
_cell_volume 601.043929
_symmetry_space_group_name_H-M "P -1"
_symmetry_group_IT_number 2
_symmetry_cell_setting 'triclinic'
loop_
_space_group_symop_operation_xyz
x,y,z
-x,-y,-z
loop_
_atom_site_type_symbol
_atom_site_label
_atom_site_fract_x
_atom_site_fract_y
_atom_site_fract_z
Si Si1 0.288052 0.918997 0.558289
Si Si2 0.073800 0.756984 0.888205
Si Si3 0.881745 0.817710 0.718717
Si Si4 0.227339 0.625459 0.696929
Si Si5 0.257763 0.062159 0.661293
Si Si6 0.610231 0.682609 0.113709
Si Si7 0.313887 0.471443 0.275204
O O1 0.549836 0.921443 0.536296
O O2 0.091952 0.888548 0.716062
O O3 0.323001 0.010681 0.702966
O O4 0.192455 0.848377 0.207842
O O5 0.227740 0.702131 0.749029
O O6 0.011160 0.766040 0.678359
O O7 0.825641 0.710630 0.956646
O O8 0.683647 0.760445 0.457322
O O9 0.765805 0.856325 0.027916
O O10 0.318459 0.557694 0.395182
O O11 0.954332 0.574326 0.693931
O O12 0.375500 0.659025 0.968961
O O13 0.000000 0.000000 0.500000
O O14 0.623238 0.602726 0.032818
O O15 0.500000 0.500000 0.500000
#
# Coordination Sequence:
#
# PCOD9007006 Si02
#       7
#     2   2   2   2   2   2   2
#     4  10  24  44  63  94 128 168 221 264 322 395
#     4  10  21  39  58  95 130 164 214 269 318 387
#     4  11  23  43  67  95 133 172 211 273 328 380
#     4   9  17  33  63  89 127 173 209 264 324 373
#     4  11  23  45  67  91 129 171 217 269 323 385
#     4   9  20  38  60  92 130 166 219 264 317 385
#     4   8  15  33  60  90 124 173 211 260 322 371
#
# _framework density 23.292805000000001
#
# number of rings (size 3 to 8) (size 9 to 14) (size 15 to 20)
#    0.000    2.286    1.429    0.429    2.000    0.571 
#   10.286    0.714    0.000   29.143    0.000    0.000 
#    0.000    0.000    0.000    0.000    0.000    0.000 
#
# Total GULP energy -78164.354223 kJ/mol
# GULP energy per Si atom -5583.168159 kJ/mol
# Density = 2.323979 g / cm^3
# Si number density = 23.292805 Si / 1000 Ang^3
#
#
#
# Elastic Constant Matrix: (Units=GPa)
#
#
# Indices 1 2 3 4 5 6 
#
# 1 134.2582 40.9076 18.6638 8.8758 3.8573 11.1368
# 2 40.9076 56.2873 31.5668 11.8864 -12.7159 -26.2037
# 3 18.6638 31.5668 -1.1388 14.8432 3.1215 13.3962
# 4 8.8758 11.8864 14.8432 28.5768 3.5301 -8.5443
# 5 3.8573 -12.7159 3.1215 3.5301 29.6295 12.0223
# 6 11.1368 -26.2037 13.3962 -8.5443 12.0223 43.6242
#
#
#
# Elastic Compliance Matrix: (Units=1/GPa)
#
#
# Indices 1 2 3 4 5 6 
#
# 1 0.010424 -0.006003 -0.007085 0.002312 -0.002236 -0.003022
# 2 -0.006003 0.013118 0.023001 -0.017356 0.007298 -0.003062
# 3 -0.007085 0.023001 -0.015721 0.006647 0.003187 0.020876
# 4 0.002312 -0.017356 0.006647 0.038942 -0.012257 -0.002051
# 5 -0.002236 0.007298 0.003187 -0.012257 0.042400 -0.010110
# 6 -0.003022 -0.003062 0.020876 -0.002051 -0.010110 0.017829
#
#
# Mechanical properties :
#
#
# Convention : Reuss Voigt Hill
#
# Bulk Modulus (GPa) = 36.17093 41.29813 38.73453
# Shear Modulus (GPa) = 51.87674 26.91733 39.39704
#
# Velocity S-wave (km/s) = 4.72440 3.40311 4.11710
# Velocity P-wave (km/s) = 6.73219 5.76281 6.26628
#
# Compressibility (1/GPa) = 0.02764651
#
# Stress axis : x y z
#
# Youngs Moduli (GPa) = 95.92947 76.23354 -63.60921
#
# Poissons Ratio (x) = 0.45760 -0.45070
# Poissons Ratio (y) = 0.57582 1.46306
# Poissons Ratio (z) = 0.67970 -1.75343
#
# Static dielectric constant tensor:
#      x y z
#    x 1.933680 -0.035380 -0.022080 
#    y -0.035380 1.912770 0.039140 
#    z -0.022080 0.039140 1.853260 
# 
# From -- ./inp_files/10384.got.cif
#   From: 2010.05.17/outbox.cif.g08.bks.cpg/sg2_6_cif.got.tgz:10384.got - 2010.06.03 11:33:40.
