data_PCOD9007856
_publ_section_title
;
Structure prediction by ZEFSAII (Michael W. Deem and Ramdas Pophale) SiO2 
 PCOD9007856
Probable space group: P -1
;
_chemical_formula_sum "Si O2"
_cell_formula_units_Z 14
_cell_length_a 8.211668
_cell_length_b 14.495782
_cell_length_c 19.202302
_cell_angle_alpha 143.941235
_cell_angle_beta 145.603630
_cell_angle_gamma 35.392679
_cell_volume 680.452264
_symmetry_space_group_name_H-M "P -1"
_symmetry_group_IT_number 2
_symmetry_cell_setting 'triclinic'
loop_
_space_group_symop_operation_xyz
x,y,z
-x,-y,-z
loop_
_atom_site_type_symbol
_atom_site_label
_atom_site_fract_x
_atom_site_fract_y
_atom_site_fract_z
Si Si1 0.994565 0.006680 0.293731
Si Si2 0.127667 0.405185 0.816029
Si Si3 0.849510 0.146221 0.593842
Si Si4 0.683782 0.355316 0.874350
Si Si5 0.857578 0.737179 0.577171
Si Si6 0.389909 0.369156 0.340056
Si Si7 0.140174 0.550457 0.692545
O O1 0.664636 0.180877 0.298566
O O2 0.188455 0.081084 0.359385
O O3 0.139845 0.938215 0.378991
O O4 0.030804 0.831705 0.160671
O O5 0.427894 0.334169 0.824142
O O6 0.050090 0.257389 0.732381
O O7 0.815647 0.525749 0.734416
O O8 0.196209 0.520142 0.967740
O O9 0.476267 0.254882 0.508669
O O10 0.000000 0.000000 0.500000
O O11 0.475442 0.453572 0.792496
O O12 0.943632 0.599911 0.460925
O O13 0.113310 0.668368 0.687914
O O14 0.500000 0.500000 0.500000
O O15 0.135488 0.342668 0.284278
#
# Coordination Sequence:
#
# PCOD9007856 Si02
#       7
#     2   2   2   2   2   2   2
#     4  12  24  37  64  96 131 160 214 266 310 369
#     4  10  24  44  67  88 132 169 209 251 323 383
#     4  12  24  38  64 100 126 161 209 271 315 365
#     4  10  23  45  65  92 123 176 209 255 311 384
#     4  11  22  37  63  95 123 165 208 262 313 370
#     4  11  21  39  64  93 125 163 204 268 316 367
#     4  10  21  39  63  88 125 167 210 250 323 372
#
# _framework density 20.574551
#
# number of rings (size 3 to 8) (size 9 to 14) (size 15 to 20)
#    0.000    1.143    2.857    3.857    4.000    1.143 
#    0.000    1.429    0.000    6.000    0.000    0.000 
#    0.000    0.000    0.000    0.000    0.000    0.000 
#
# Total GULP energy -78180.179372 kJ/mol
# GULP energy per Si atom -5584.298527 kJ/mol
# Density = 2.052772 g / cm^3
# Si number density = 20.574551 Si / 1000 Ang^3
#
#
#
# Elastic Constant Matrix: (Units=GPa)
#
#
# Indices 1 2 3 4 5 6 
#
# 1 68.0309 41.9906 51.2990 8.9005 -9.5484 4.2794
# 2 41.9906 103.0175 63.1713 11.3909 -9.6108 -9.0711
# 3 51.2990 63.1713 98.0915 7.5258 -9.3435 10.0447
# 4 8.9005 11.3909 7.5258 26.6332 -0.1790 -10.1055
# 5 -9.5484 -9.6108 -9.3435 -0.1790 29.8178 2.1720
# 6 4.2794 -9.0711 10.0447 -10.1055 2.1720 60.4348
#
#
#
# Elastic Compliance Matrix: (Units=1/GPa)
#
#
# Indices 1 2 3 4 5 6 
#
# 1 0.026008 -0.003384 -0.010508 -0.004839 0.004029 -0.001557
# 2 -0.003384 0.017862 -0.009876 -0.002131 0.001263 0.004160
# 3 -0.010508 -0.009876 0.022635 -0.000400 0.000877 -0.004599
# 4 -0.004839 -0.002131 -0.000400 0.042967 -0.002640 0.007369
# 5 0.004029 0.001263 0.000877 -0.002640 0.035637 -0.001964
# 6 -0.001557 0.004160 -0.004599 0.007369 -0.001964 0.019349
#
#
# Mechanical properties :
#
#
# Convention : Reuss Voigt Hill
#
# Bulk Modulus (GPa) = 52.71389 64.67351 58.69370
# Shear Modulus (GPa) = 22.90276 30.88910 26.89593
#
# Velocity S-wave (km/s) = 3.34002 3.87890 3.61950
# Velocity P-wave (km/s) = 6.36796 7.18075 6.78653
#
# Compressibility (1/GPa) = 0.01897033
#
# Stress axis : x y z
#
# Youngs Moduli (GPa) = 38.45044 55.98441 44.17932
#
# Poissons Ratio (x) = 0.18943 0.46422
# Poissons Ratio (y) = 0.13010 0.43631
# Poissons Ratio (z) = 0.40402 0.55290
#
# Static dielectric constant tensor:
#      x y z
#    x 1.831670 -0.011350 0.007870 
#    y -0.011350 1.752280 0.002930 
#    z 0.007870 0.002930 1.688500 
# 
# From -- ./inp_files/184006.got.cif
#   From: 2010.05.17/outbox.cif.g08.bks.cpg/sg2_93_cif.got.tgz:184006.got - 2010.06.03 11:33:40.
