data_PCOD9007809
_publ_section_title
;
Structure prediction by ZEFSAII (Michael W. Deem and Ramdas Pophale) SiO2 
 PCOD9007809
Probable space group: P -1
;
_chemical_formula_sum "Si O2"
_cell_formula_units_Z 16
_cell_length_a 8.483849
_cell_length_b 18.061845
_cell_length_c 10.576974
_cell_angle_alpha 41.100865
_cell_angle_beta 89.866067
_cell_angle_gamma 122.018831
_cell_volume 625.983651
_symmetry_space_group_name_H-M "P -1"
_symmetry_group_IT_number 2
_symmetry_cell_setting 'triclinic'
loop_
_space_group_symop_operation_xyz
x,y,z
-x,-y,-z
loop_
_atom_site_type_symbol
_atom_site_label
_atom_site_fract_x
_atom_site_fract_y
_atom_site_fract_z
Si Si1 0.122260 0.002638 0.711169
Si Si2 0.571632 0.250247 0.573654
Si Si3 0.518129 0.573166 0.220476
Si Si4 0.830473 0.713447 0.620062
Si Si5 0.681273 0.077572 0.774704
Si Si6 0.969507 0.594440 0.959475
Si Si7 0.266527 0.845829 0.863644
Si Si8 0.720538 0.477858 0.485072
O O1 0.183591 0.169198 0.474234
O O2 0.263799 0.063027 0.770933
O O3 0.261767 0.978451 0.669500
O O4 0.808196 0.798098 0.952174
O O5 0.752716 0.250094 0.533008
O O6 0.709567 0.428879 0.263154
O O7 0.611349 0.298936 0.657854
O O8 0.533842 0.463295 0.436199
O O9 0.308430 0.527238 0.359390
O O10 0.424928 0.490592 0.186379
O O11 0.053892 0.843775 0.337809
O O12 0.927379 0.680894 0.765609
O O13 0.512816 0.951759 0.811789
O O14 0.500000 0.000000 0.000000
O O15 0.000000 0.500000 0.000000
O O16 0.213059 0.753288 0.852164
O O17 0.013650 0.672803 0.179735
#
# Coordination Sequence:
#
# PCOD9007809 Si02
#       8
#     2   2   2   2   2   2   2   2
#     4  10  23  43  65 102 131 173 222 279 335 393
#     4  10  21  45  67  92 133 179 221 270 345 391
#     4  10  21  39  63 101 135 168 222 272 338 397
#     4  12  25  43  67 102 138 170 231 279 330 397
#     4  11  24  42  66 102 136 172 223 278 333 408
#     4  11  24  47  70  92 136 185 223 277 330 405
#     4   9  22  45  68  95 134 178 227 267 345 397
#     4   9  18  39  66  92 134 178 214 271 335 405
#
# _framework density 25.559771999999999
#
# number of rings (size 3 to 8) (size 9 to 14) (size 15 to 20)
#    0.000    1.750    2.500    0.750    1.750    4.000 
#    4.500    1.875    0.000    0.000    0.000    0.000 
#    0.000    0.000    0.000    0.000    0.000    0.000 
#
# Total GULP energy -89354.644469 kJ/mol
# GULP energy per Si atom -5584.665279 kJ/mol
# Density = 2.550160 g / cm^3
# Si number density = 25.559772 Si / 1000 Ang^3
#
#
#
# Elastic Constant Matrix: (Units=GPa)
#
#
# Indices 1 2 3 4 5 6 
#
# 1 74.6956 46.5398 29.0271 -13.5156 5.6287 -17.4156
# 2 46.5398 155.9899 46.9254 -33.1967 12.7755 -23.9590
# 3 29.0271 46.9254 75.4754 -3.3831 -5.2595 -9.0722
# 4 -13.5156 -33.1967 -3.3831 42.0659 -1.7266 4.8715
# 5 5.6287 12.7755 -5.2595 -1.7266 34.7047 -6.9888
# 6 -17.4156 -23.9590 -9.0722 4.8715 -6.9888 37.9950
#
#
#
# Elastic Compliance Matrix: (Units=1/GPa)
#
#
# Indices 1 2 3 4 5 6 
#
# 1 0.018774 -0.002538 -0.005012 0.002964 -0.001692 0.005117
# 2 -0.002538 0.011038 -0.005467 0.006969 -0.003540 0.002947
# 3 -0.005012 -0.005467 0.018808 -0.004220 0.005527 0.000304
# 4 0.002964 0.006969 -0.004220 0.029735 -0.002096 0.000547
# 5 -0.001692 -0.003540 0.005527 -0.002096 0.032026 0.004471
# 6 0.005117 0.002947 0.000304 0.000547 0.004471 0.031348
#
#
# Mechanical properties :
#
#
# Convention : Reuss Voigt Hill
#
# Bulk Modulus (GPa) = 44.27504 61.23837 52.75671
# Shear Modulus (GPa) = 28.52389 35.19769 31.86079
#
# Velocity S-wave (km/s) = 3.34424 3.71492 3.53444
# Velocity P-wave (km/s) = 5.68081 6.51243 6.11079
#
# Compressibility (1/GPa) = 0.02258609
#
# Stress axis : x y z
#
# Youngs Moduli (GPa) = 53.26632 90.59524 53.16803
#
# Poissons Ratio (x) = 0.22994 0.26649
# Poissons Ratio (y) = 0.13520 0.29065
# Poissons Ratio (z) = 0.26698 0.49525
#
# Static dielectric constant tensor:
#      x y z
#    x 2.088460 -0.014010 0.040770 
#    y -0.014010 2.023860 0.014200 
#    z 0.040770 0.014200 2.217080 
# 
# From -- ./inp_files/405408.got.cif
#   From: 2010.05.17/outbox.cif.g08.bks.cpg/sg2_203_cif.got.tgz:405408.got - 2010.06.03 11:33:40.
