data_PCOD9007359
_publ_section_title
;
Structure prediction by ZEFSAII (Michael W. Deem and Ramdas Pophale) SiO2 
 PCOD9007359
Probable space group: P -1
;
_chemical_formula_sum "Si O2"
_cell_formula_units_Z 14
_cell_length_a 10.655236
_cell_length_b 13.409779
_cell_length_c 12.039173
_cell_angle_alpha 111.511380
_cell_angle_beta 39.692165
_cell_angle_gamma 136.574323
_cell_volume 679.025177
_symmetry_space_group_name_H-M "P -1"
_symmetry_group_IT_number 2
_symmetry_cell_setting 'triclinic'
loop_
_space_group_symop_operation_xyz
x,y,z
-x,-y,-z
loop_
_atom_site_type_symbol
_atom_site_label
_atom_site_fract_x
_atom_site_fract_y
_atom_site_fract_z
Si Si1 0.220406 0.807377 0.631378
Si Si2 0.701950 0.279807 0.671194
Si Si3 0.945655 0.572636 0.910086
Si Si4 0.862405 0.577106 0.369231
Si Si5 0.127939 0.995073 0.023457
Si Si6 0.167889 0.318840 0.775464
Si Si7 0.629521 0.700668 0.951571
O O1 0.243748 0.717869 0.492949
O O2 0.176925 0.742130 0.755913
O O3 0.903291 0.734201 0.795276
O O4 0.500000 0.000000 0.500000
O O5 0.969991 0.364764 0.604586
O O6 0.557309 0.335569 0.826679
O O7 0.449994 0.091403 0.801558
O O8 0.061537 0.500606 0.780828
O O9 0.906679 0.606741 0.070781
O O10 0.618420 0.440317 0.021437
O O11 0.517672 0.448268 0.575443
O O12 0.955798 0.711290 0.276963
O O13 0.946093 0.828548 0.136362
O O14 0.206474 0.119286 0.110714
O O15 0.000000 0.000000 0.000000
#
# Coordination Sequence:
#
# PCOD9007359 Si02
#       7
#     2   2   2   2   2   2   2
#     4  12  23  34  62  94 124 159 202 253 309 360
#     4   9  22  39  58  90 126 154 205 242 306 366
#     4  11  23  39  62  89 123 161 204 253 301 367
#     4  10  24  42  64  89 117 171 207 245 303 361
#     4  10  21  39  61  89 125 158 195 256 306 352
#     4  11  23  42  66  87 125 159 210 254 295 364
#     4   9  22  38  54  87 124 160 191 247 309 353
#
# _framework density 20.617792999999999
#
# number of rings (size 3 to 8) (size 9 to 14) (size 15 to 20)
#    0.857    0.857    0.000    4.286    4.000    4.000 
#    0.000    0.000    0.000    2.571    0.000    0.000 
#    0.000    0.000    0.000    0.000    0.000    0.000 
#
# Total GULP energy -77994.116598 kJ/mol
# GULP energy per Si atom -5571.008328 kJ/mol
# Density = 2.057087 g / cm^3
# Si number density = 20.617793 Si / 1000 Ang^3
#
#
#
# Elastic Constant Matrix: (Units=GPa)
#
#
# Indices 1 2 3 4 5 6 
#
# 1 127.7110 64.3675 6.7631 -57.3934 -104.6409 -20.4607
# 2 64.3675 88.6187 -2.0489 -35.9411 -49.8420 -6.3546
# 3 6.7631 -2.0489 93.7869 3.6151 29.7764 0.5813
# 4 -57.3934 -35.9411 3.6151 51.7888 35.0556 10.4283
# 5 -104.6409 -49.8420 29.7764 35.0556 164.5258 17.4268
# 6 -20.4607 -6.3546 0.5813 10.4283 17.4268 25.7674
#
#
#
# Elastic Compliance Matrix: (Units=1/GPa)
#
#
# Indices 1 2 3 4 5 6 
#
# 1 0.041252 -0.008209 -0.010323 0.026232 0.019253 0.007327
# 2 -0.008209 0.018770 0.000950 0.004832 -0.000352 -0.003628
# 3 -0.010323 0.000950 0.014015 -0.006675 -0.007326 -0.000623
# 4 0.026232 0.004832 -0.006675 0.046168 0.009855 -0.003178
# 5 0.019253 -0.000352 -0.007326 0.009855 0.017490 -0.000451
# 6 0.007327 -0.003628 -0.000623 -0.003178 -0.000451 0.045338
#
#
# Mechanical properties :
#
#
# Convention : Reuss Voigt Hill
#
# Bulk Modulus (GPa) = 25.72498 49.80889 37.76694
# Shear Modulus (GPa) = 21.63053 64.48541 43.05797
#
# Velocity S-wave (km/s) = 3.24253 5.59861 4.57485
# Velocity P-wave (km/s) = 5.15003 8.12424 6.80169
#
# Compressibility (1/GPa) = 0.03887272
#
# Stress axis : x y z
#
# Youngs Moduli (GPa) = 24.24134 53.27581 71.35328
#
# Poissons Ratio (x) = 0.43733 0.73659
# Poissons Ratio (y) = 0.19899 -0.06778
# Poissons Ratio (z) = 0.25025 -0.05061
#
# Static dielectric constant tensor:
#      x y z
#    x 1.792480 0.004860 0.016360 
#    y 0.004860 1.807260 0.005980 
#    z 0.016360 0.005980 1.759170 
# 
# From -- ./inp_files/432986.got.cif
#   From: 2010.05.17/outbox.cif.g08.bks.cpg/sg2_217_cif.got.tgz:432986.got - 2010.06.03 11:33:40.
