data_PCOD9007958
_publ_section_title
;
Structure prediction by ZEFSAII (Michael W. Deem and Ramdas Pophale) SiO2 
 PCOD9007958
Probable space group: P -1
;
_chemical_formula_sum "Si O2"
_cell_formula_units_Z 16
_cell_length_a 14.627395
_cell_length_b 8.077283
_cell_length_c 6.484554
_cell_angle_alpha 68.596640
_cell_angle_beta 73.572011
_cell_angle_gamma 83.732072
_cell_volume 684.174211
_symmetry_space_group_name_H-M "P -1"
_symmetry_group_IT_number 2
_symmetry_cell_setting 'triclinic'
loop_
_space_group_symop_operation_xyz
x,y,z
-x,-y,-z
loop_
_atom_site_type_symbol
_atom_site_label
_atom_site_fract_x
_atom_site_fract_y
_atom_site_fract_z
Si Si1 0.419094 0.124360 0.082890
Si Si2 0.217125 0.943275 0.315912
Si Si3 0.154977 0.496403 0.065676
Si Si4 0.549687 0.327645 0.146911
Si Si5 0.061710 0.172062 0.445414
Si Si6 0.931798 0.154880 0.888324
Si Si7 0.287410 0.593305 0.300439
Si Si8 0.348331 0.453611 0.714640
O O1 0.467468 0.185248 0.238573
O O2 0.319135 0.030497 0.202131
O O3 0.399970 0.288589 0.865346
O O4 0.500000 0.000000 0.000000
O O5 0.154794 0.935819 0.145297
O O6 0.236657 0.733851 0.422172
O O7 0.160622 0.064444 0.461381
O O8 0.083367 0.330367 0.199768
O O9 0.107748 0.693338 0.001425
O O10 0.209861 0.499368 0.250738
O O11 0.240150 0.459546 0.868623
O O12 0.593770 0.375341 0.316491
O O13 0.500000 0.500000 0.000000
O O14 0.641628 0.303517 0.947280
O O15 0.001807 0.251596 0.635898
O O16 0.000000 0.000000 0.500000
O O17 0.000000 0.000000 0.000000
O O18 0.344338 0.459003 0.470160
#
# Coordination Sequence:
#
# PCOD9007958 Si02
#       8
#     2   2   2   2   2   2   2   2
#     4  11  20  38  63  90 131 170 206 267 320 377
#     4  10  21  40  62  89 130 164 209 271 324 371
#     4  10  21  42  66  93 132 168 210 270 330 377
#     4   9  20  37  60  84 127 165 207 259 310 367
#     4  10  21  41  63  87 126 164 206 267 328 380
#     4  10  23  40  66  95 126 168 217 269 324 391
#     4  10  21  39  63  92 123 171 214 262 316 382
#     4  10  22  39  66  91 125 172 219 254 319 390
#
# _framework density 23.385854999999999
#
# number of rings (size 3 to 8) (size 9 to 14) (size 15 to 20)
#    0.000    2.000    2.500    0.375    1.750    3.000 
#    0.000    4.375    2.750    0.000    0.000    0.000 
#    0.000    0.000    0.000    0.000    0.000    0.000 
#
# Total GULP energy -89220.640878 kJ/mol
# GULP energy per Si atom -5576.290055 kJ/mol
# Density = 2.333263 g / cm^3
# Si number density = 23.385855 Si / 1000 Ang^3
#
#
#
# Elastic Constant Matrix: (Units=GPa)
#
#
# Indices 1 2 3 4 5 6 
#
# 1 145.1040 39.1642 32.4579 -7.9675 -14.7398 2.4619
# 2 39.1642 89.0301 11.6200 -4.5556 -12.6127 -6.9206
# 3 32.4579 11.6200 42.0864 -4.6457 3.8428 4.3837
# 4 -7.9675 -4.5556 -4.6457 21.5753 -8.8086 -10.9425
# 5 -14.7398 -12.6127 3.8428 -8.8086 30.7395 2.2611
# 6 2.4619 -6.9206 4.3837 -10.9425 2.2611 49.2047
#
#
#
# Elastic Compliance Matrix: (Units=1/GPa)
#
#
# Indices 1 2 3 4 5 6 
#
# 1 0.009949 -0.002352 -0.007139 0.004296 0.005893 0.000492
# 2 -0.002352 0.014030 -0.002338 0.005866 0.006359 0.003312
# 3 -0.007139 -0.002338 0.030813 -0.001247 -0.008400 -0.002608
# 4 0.004296 0.005866 -0.001247 0.065194 0.022260 0.014197
# 5 0.005893 0.006359 -0.008400 0.022260 0.045084 0.004226
# 6 0.000492 0.003312 -0.002608 0.014197 0.004226 0.023960
#
#
# Mechanical properties :
#
#
# Convention : Reuss Voigt Hill
#
# Bulk Modulus (GPa) = 32.11823 49.18941 40.65382
# Shear Modulus (GPa) = 22.41484 33.16913 27.79198
#
# Velocity S-wave (km/s) = 3.09929 3.77017 3.45107
# Velocity P-wave (km/s) = 5.15474 6.32707 5.77075
#
# Compressibility (1/GPa) = 0.03113496
#
# Stress axis : x y z
#
# Youngs Moduli (GPa) = 100.50769 71.27411 32.45411
#
# Poissons Ratio (x) = 0.16764 0.23169
# Poissons Ratio (y) = 0.23640 0.07587
# Poissons Ratio (z) = 0.71752 0.16662
#
# Static dielectric constant tensor:
#      x y z
#    x 1.980440 -0.042320 -0.041040 
#    y -0.042320 2.010280 0.054700 
#    z -0.041040 0.054700 1.938410 
# 
# From -- ./inp_files/89818.got.cif
#   From: 2010.05.17/outbox.cif.g08.bks.cpg/sg2_45_cif.got.tgz:89818.got - 2010.06.03 11:33:40.
