data_PCOD9007478
_publ_section_title
;
Structure prediction by ZEFSAII (Michael W. Deem and Ramdas Pophale) SiO2 
 PCOD9007478
Probable space group: P -1
;
_chemical_formula_sum "Si O2"
_cell_formula_units_Z 14
_cell_length_a 7.037924
_cell_length_b 5.410517
_cell_length_c 16.251237
_cell_angle_alpha 126.079429
_cell_angle_beta 107.378390
_cell_angle_gamma 70.677565
_cell_volume 467.572034
_symmetry_space_group_name_H-M "P -1"
_symmetry_group_IT_number 2
_symmetry_cell_setting 'triclinic'
loop_
_space_group_symop_operation_xyz
x,y,z
-x,-y,-z
loop_
_atom_site_type_symbol
_atom_site_label
_atom_site_fract_x
_atom_site_fract_y
_atom_site_fract_z
Si Si1 0.654559 0.124079 0.083745
Si Si2 0.518524 0.755874 0.124849
Si Si3 0.178298 0.699235 0.449023
Si Si4 0.854856 0.865641 0.921506
Si Si5 0.238429 0.669847 0.627845
Si Si6 0.550014 0.931742 0.373693
Si Si7 0.881370 0.239476 0.724748
O O1 0.616179 0.500828 0.154233
O O2 0.372077 0.120750 0.045379
O O3 0.691242 0.605636 0.354495
O O4 0.901778 0.058412 0.054321
O O5 0.668106 0.956353 0.140770
O O6 0.286100 0.946996 0.133429
O O7 0.500000 0.500000 0.000000
O O8 0.195601 0.526456 0.504464
O O9 0.387148 0.830952 0.503189
O O10 0.132417 0.584372 0.331859
O O11 0.000000 0.000000 0.500000
O O12 0.909135 0.495293 0.844355
O O13 0.400521 0.884564 0.666081
O O14 0.046659 0.925838 0.679711
O O15 0.331689 0.864071 0.318697
#
# Coordination Sequence:
#
# PCOD9007478 Si02
#       7
#     2   2   2   2   2   2   2
#     4   8  16  37  60  79 107 157 202 251 312 374
#     4   8  16  37  60  79 107 157 202 251 312 374
#     4   8  19  41  67 101 138 178 221 279 341 411
#     4  10  21  39  61  96 129 169 221 275 333 385
#     4   9  23  44  68 102 140 177 226 278 343 412
#     4  10  22  45  68 100 140 179 223 278 348 405
#     4  11  22  43  66 103 138 180 231 284 334 414
#
# _framework density 29.94191
#
# number of rings (size 3 to 8) (size 9 to 14) (size 15 to 20)
#    0.857    2.286    0.000    0.429    0.000    4.000 
#   15.429   17.143    0.000    0.000    0.000    0.000 
#    0.000    0.000    0.000    0.000    0.000    0.000 
#
# Total GULP energy -78240.024350 kJ/mol
# GULP energy per Si atom -5588.573168 kJ/mol
# Density = 2.987376 g / cm^3
# Si number density = 29.941910 Si / 1000 Ang^3
#
#
#
# Elastic Constant Matrix: (Units=GPa)
#
#
# Indices 1 2 3 4 5 6 
#
# 1 205.5621 70.4152 39.2548 2.2036 24.8071 5.0716
# 2 70.4152 232.2582 62.9721 10.1978 -5.7888 4.3848
# 3 39.2548 62.9721 125.7007 4.7428 -0.1680 4.5679
# 4 2.2036 10.1978 4.7428 58.8753 7.7753 -6.3849
# 5 24.8071 -5.7888 -0.1680 7.7753 44.0682 3.0735
# 6 5.0716 4.3848 4.5679 -6.3849 3.0735 65.6520
#
#
#
# Elastic Compliance Matrix: (Units=1/GPa)
#
#
# Indices 1 2 3 4 5 6 
#
# 1 0.006095 -0.001673 -0.001093 0.000642 -0.003765 -0.000044
# 2 -0.001673 0.005499 -0.002183 -0.000987 0.001849 -0.000269
# 3 -0.001093 -0.002183 0.009426 -0.000457 0.000479 -0.000493
# 4 0.000642 -0.000987 -0.000457 0.017882 -0.003785 0.001964
# 5 -0.003765 0.001849 0.000479 -0.003785 0.025825 -0.001443
# 6 -0.000044 -0.000269 -0.000493 0.001964 -0.001443 0.015546
#
#
# Mechanical properties :
#
#
# Convention : Reuss Voigt Hill
#
# Bulk Modulus (GPa) = 89.90643 100.97833 95.44238
# Shear Modulus (GPa) = 53.26073 59.77770 56.51922
#
# Velocity S-wave (km/s) = 4.22216 4.47302 4.34940
# Velocity P-wave (km/s) = 7.33900 7.77658 7.56096
#
# Compressibility (1/GPa) = 0.01112268
#
# Stress axis : x y z
#
# Youngs Moduli (GPa) = 164.06860 181.84973 106.08779
#
# Poissons Ratio (x) = 0.30418 0.11596
# Poissons Ratio (y) = 0.27444 0.23159
# Poissons Ratio (z) = 0.17934 0.39698
#
# Static dielectric constant tensor:
#      x y z
#    x 3.006230 -0.207070 -0.031860 
#    y -0.207070 2.359030 -0.140170 
#    z -0.031860 -0.140170 2.430790 
# 
# From -- ./inp_files/193981.got.cif
#   From: 2010.05.17/outbox.cif.g08.bks.cpg/sg2_97_cif.got.tgz:193981.got - 2010.06.03 11:33:40.
