data_PCOD9007016
_publ_section_title
;
Structure prediction by ZEFSAII (Michael W. Deem and Ramdas Pophale) SiO2 
 PCOD9007016
Probable space group: P -1
;
_chemical_formula_sum "Si O2"
_cell_formula_units_Z 16
_cell_length_a 7.766303
_cell_length_b 7.805240
_cell_length_c 15.490337
_cell_angle_alpha 95.279272
_cell_angle_beta 116.990663
_cell_angle_gamma 126.171081
_cell_volume 584.843680
_symmetry_space_group_name_H-M "P -1"
_symmetry_group_IT_number 2
_symmetry_cell_setting 'triclinic'
loop_
_space_group_symop_operation_xyz
x,y,z
-x,-y,-z
loop_
_atom_site_type_symbol
_atom_site_label
_atom_site_fract_x
_atom_site_fract_y
_atom_site_fract_z
Si Si1 0.557055 0.941904 0.318910
Si Si2 0.157727 0.234884 0.398455
Si Si3 0.176576 0.419997 0.235710
Si Si4 0.044518 0.767481 0.128538
Si Si5 0.641921 0.272164 0.060528
Si Si6 0.743248 0.343150 0.498163
Si Si7 0.013415 0.252623 0.680086
Si Si8 0.647709 0.719796 0.859225
O O1 0.454720 0.702975 0.328488
O O2 0.320531 0.827062 0.190152
O O3 0.540193 0.093340 0.386479
O O4 0.853088 0.107151 0.353766
O O5 0.159504 0.265235 0.297455
O O6 0.335540 0.509609 0.492847
O O7 0.125186 0.010853 0.401060
O O8 0.198659 0.352169 0.142672
O O9 0.911806 0.375257 0.179147
O O10 0.783272 0.483773 0.030453
O O11 0.978665 0.763738 0.214925
O O12 0.151511 0.004489 0.117942
O O13 0.433410 0.263113 0.064074
O O14 0.500000 0.000000 0.000000
O O15 0.000000 0.500000 0.500000
O O16 0.844132 0.302287 0.602292
O O17 0.335389 0.493554 0.738410
#
# Coordination Sequence:
#
# PCOD9007016 Si02
#       8
#     2   2   2   2   2   2   2   2
#     4  10  21  39  59  83 124 168 212 265 317 374
#     4  11  21  39  61  90 122 167 222 263 314 373
#     4  11  22  40  67  90 121 171 212 255 324 384
#     4  10  21  40  66  87 119 168 210 256 318 385
#     4  10  24  43  66  99 129 157 203 262 322 391
#     4  10  22  38  59  88 131 172 214 272 327 358
#     4  11  22  39  62  90 128 165 220 269 306 375
#     4  11  21  41  65  93 126 164 212 256 314 387
#
# _framework density 27.357738000000001
#
# number of rings (size 3 to 8) (size 9 to 14) (size 15 to 20)
#    0.000    1.500    2.500    4.500    0.000    5.000 
#    2.250    1.875    0.000    0.000    0.000    0.000 
#    0.000    0.000    0.000    0.000    0.000    0.000 
#
# Total GULP energy -89406.542478 kJ/mol
# GULP energy per Si atom -5587.908905 kJ/mol
# Density = 2.729547 g / cm^3
# Si number density = 27.357738 Si / 1000 Ang^3
#
#
#
# Elastic Constant Matrix: (Units=GPa)
#
#
# Indices 1 2 3 4 5 6 
#
# 1 -63.7285 -47.0765 -12.0435 -45.9449 -49.5240 -82.1943
# 2 -47.0765 149.0878 44.5851 17.3451 -17.6493 -30.6191
# 3 -12.0435 44.5851 82.3117 24.4384 -20.6576 -9.1906
# 4 -45.9449 17.3451 24.4384 47.7909 -10.8000 -22.9157
# 5 -49.5240 -17.6493 -20.6576 -10.8000 37.2792 2.6063
# 6 -82.1943 -30.6191 -9.1906 -22.9157 2.6063 20.8944
#
#
#
# Elastic Compliance Matrix: (Units=1/GPa)
#
#
# Indices 1 2 3 4 5 6 
#
# 1 -0.000336 -0.001653 0.000876 -0.004256 -0.001428 -0.007848
# 2 -0.001653 0.007476 -0.003898 -0.002661 -0.001589 0.000016
# 3 0.000876 -0.003898 0.017897 -0.006218 0.007584 -0.002162
# 4 -0.004256 -0.002661 -0.006218 0.018947 -0.004730 -0.002006
# 5 -0.001428 -0.001589 0.007584 -0.004730 0.027936 -0.013282
# 6 -0.007848 0.000016 -0.002162 -0.002006 -0.013282 0.015517
#
#
# Mechanical properties :
#
#
# Convention : Reuss Voigt Hill
#
# Bulk Modulus (GPa) = 63.75810 15.40014 39.57912
# Shear Modulus (GPa) = 49.01084 33.33996 41.17540
#
# Velocity S-wave (km/s) = 4.23718 3.49473 3.88374
# Velocity P-wave (km/s) = 6.87708 4.68247 5.88301
#
# Compressibility (1/GPa) = 0.01568428
#
# Stress axis : x y z
#
# Youngs Moduli (GPa) = -2979.34591 133.76225 55.87579
#
# Poissons Ratio (x) = 0.22117 -0.04892
# Poissons Ratio (y) = -4.92626 0.21783
# Poissons Ratio (z) = 2.60844 0.52147
#
# Static dielectric constant tensor:
#      x y z
#    x 2.095320 -0.006870 0.000530 
#    y -0.006870 2.200760 0.040680 
#    z 0.000530 0.040680 2.279440 
# 
# From -- ./inp_files/557382.got.cif
#   From: 2010.05.17/outbox.cif.g08.bks.cpg/sg2_279_cif.got.tgz:557382.got - 2010.06.03 11:33:40.
