data_PCOD9007428
_publ_section_title
;
Structure prediction by ZEFSAII (Michael W. Deem and Ramdas Pophale) SiO2 
 PCOD9007428
Probable space group: P -1
;
_chemical_formula_sum "Si O2"
_cell_formula_units_Z 16
_cell_length_a 7.398313
_cell_length_b 14.692055
_cell_length_c 15.466005
_cell_angle_alpha 149.873461
_cell_angle_beta 92.158874
_cell_angle_gamma 103.481822
_cell_volume 715.111884
_symmetry_space_group_name_H-M "P -1"
_symmetry_group_IT_number 2
_symmetry_cell_setting 'triclinic'
loop_
_space_group_symop_operation_xyz
x,y,z
-x,-y,-z
loop_
_atom_site_type_symbol
_atom_site_label
_atom_site_fract_x
_atom_site_fract_y
_atom_site_fract_z
Si Si1 0.221345 0.055284 0.587255
Si Si2 0.454785 0.242418 0.442441
Si Si3 0.810123 0.890257 0.171375
Si Si4 0.088986 0.278223 0.377614
Si Si5 0.510329 0.422102 0.774914
Si Si6 0.950720 0.588069 0.696899
Si Si7 0.847627 0.221268 0.961786
Si Si8 0.093797 0.599415 0.176188
O O1 0.217375 0.039205 0.676827
O O2 0.377799 0.293013 0.750319
O O3 0.225178 0.855617 0.385426
O O4 0.000000 0.000000 0.500000
O O5 0.303700 0.284029 0.411944
O O6 0.408437 0.287494 0.575992
O O7 0.705326 0.404980 0.563688
O O8 0.382569 0.994709 0.226937
O O9 0.005451 0.847341 0.144096
O O10 0.591804 0.668656 0.965190
O O11 0.892587 0.070178 0.248321
O O12 0.058611 0.282764 0.278639
O O13 0.079961 0.476885 0.579272
O O14 0.729333 0.433721 0.806132
O O15 0.063387 0.731118 0.900244
O O16 0.892389 0.446509 0.109809
O O17 0.000000 0.500000 0.000000
#
# Coordination Sequence:
#
# PCOD9007428 Si02
#       8
#     2   2   2   2   2   2   2   2
#     4  12  23  38  62  92 130 172 217 273 328 393
#     4  11  22  44  69  99 133 180 223 270 339 396
#     4  10  21  39  61  92 130 169 215 273 333 378
#     4  10  24  43  69 101 132 175 225 279 329 405
#     4  11  23  43  62  95 130 172 225 266 332 406
#     4  11  22  47  68  98 140 173 222 280 337 389
#     4  10  22  42  66  96 134 174 221 274 332 402
#     4  11  22  41  64  91 131 172 217 275 329 392
#
# _framework density 22.374123999999998
#
# number of rings (size 3 to 8) (size 9 to 14) (size 15 to 20)
#    0.000    1.250    2.500    5.625    0.000    2.000 
#    6.750    1.250    0.000    0.000    0.000    0.000 
#    0.000    0.000    0.000    0.000    0.000    0.000 
#
# Total GULP energy -89321.212211 kJ/mol
# GULP energy per Si atom -5582.575763 kJ/mol
# Density = 2.232320 g / cm^3
# Si number density = 22.374124 Si / 1000 Ang^3
#
#
#
# Elastic Constant Matrix: (Units=GPa)
#
#
# Indices 1 2 3 4 5 6 
#
# 1 17.4789 -13.6606 -5.6483 2.1489 6.9105 -6.2101
# 2 -13.6606 126.9450 45.7272 -1.4475 19.2368 0.7296
# 3 -5.6483 45.7272 129.0946 -5.1901 27.3735 0.3144
# 4 2.1489 -1.4475 -5.1901 40.7427 3.0418 4.4726
# 5 6.9105 19.2368 27.3735 3.0418 24.1510 5.7088
# 6 -6.2101 0.7296 0.3144 4.4726 5.7088 29.2364
#
#
#
# Elastic Compliance Matrix: (Units=1/GPa)
#
#
# Indices 1 2 3 4 5 6 
#
# 1 0.120905 0.018979 0.014272 -0.002687 -0.075033 0.040116
# 2 0.018979 0.012455 0.000008 -0.000061 -0.017020 0.007053
# 3 0.014272 0.000008 0.012717 0.001657 -0.020273 0.006600
# 4 -0.002687 -0.000061 0.001657 0.025568 -0.003373 -0.003840
# 5 -0.075033 -0.017020 -0.020273 -0.003373 0.108328 -0.035931
# 6 0.040116 0.007053 0.006600 -0.003840 -0.035931 0.050082
#
#
# Mechanical properties :
#
#
# Convention : Reuss Voigt Hill
#
# Bulk Modulus (GPa) = 4.70381 36.26167 20.48274
# Shear Modulus (GPa) = 14.95207 35.29936 25.12572
#
# Velocity S-wave (km/s) = 2.58791 3.97632 3.35473
# Velocity P-wave (km/s) = 3.32214 6.10931 4.91733
#
# Compressibility (1/GPa) = 0.21259361
#
# Stress axis : x y z
#
# Youngs Moduli (GPa) = 8.27097 80.29073 78.63473
#
# Poissons Ratio (x) = -1.52382 -1.12225
# Poissons Ratio (y) = -0.15697 -0.00063
# Poissons Ratio (z) = -0.11804 -0.00064
#
# Static dielectric constant tensor:
#      x y z
#    x 1.762600 0.061460 0.077610 
#    y 0.061460 1.834460 0.092200 
#    z 0.077610 0.092200 1.872400 
# 
# From -- ./inp_files/217751.got.cif
#   From: 2010.05.17/outbox.cif.g08.bks.cpg/sg2_109_cif.got.tgz:217751.got - 2010.06.03 11:33:40.
