data_PCOD9007176
_publ_section_title
;
Structure prediction by ZEFSAII (Michael W. Deem and Ramdas Pophale) SiO2 
 PCOD9007176
Probable space group: P -1
;
_chemical_formula_sum "Si O2"
_cell_formula_units_Z 16
_cell_length_a 27.660754
_cell_length_b 5.204572
_cell_length_c 5.185468
_cell_angle_alpha 96.328346
_cell_angle_beta 131.371991
_cell_angle_gamma 91.286235
_cell_volume 552.231076
_symmetry_space_group_name_H-M "P -1"
_symmetry_group_IT_number 2
_symmetry_cell_setting 'triclinic'
loop_
_space_group_symop_operation_xyz
x,y,z
-x,-y,-z
loop_
_atom_site_type_symbol
_atom_site_label
_atom_site_fract_x
_atom_site_fract_y
_atom_site_fract_z
Si Si1 0.041263 0.194472 0.974236
Si Si2 0.713716 0.244965 0.350141
Si Si3 0.662052 0.796706 0.746295
Si Si4 0.408064 0.552967 0.149794
Si Si5 0.789928 0.952324 0.960626
Si Si6 0.163671 0.455873 0.314520
Si Si7 0.916173 0.227351 0.321007
Si Si8 0.442572 0.047423 0.993244
O O1 0.984780 0.356027 0.689606
O O2 0.064483 0.012457 0.809516
O O3 0.109658 0.351486 0.322669
O O4 0.000000 0.000000 0.000000
O O5 0.663918 0.453545 0.235957
O O6 0.772797 0.346065 0.378344
O O7 0.749862 0.168161 0.720936
O O8 0.673131 0.993793 0.050094
O O9 0.737143 0.783545 0.933318
O O10 0.621538 0.941314 0.410089
O O11 0.616000 0.538328 0.656778
O O12 0.439143 0.830280 0.180644
O O13 0.449151 0.335609 0.166093
O O14 0.806258 0.771301 0.758475
O O15 0.860474 0.096758 0.307222
O O16 0.119181 0.590660 0.970022
O O17 0.500000 0.000000 0.000000
#
# Coordination Sequence:
#
# PCOD9007176 Si02
#       8
#     2   2   2   2   2   2   2   2
#     4  10  21  39  60  88 131 178 230 299 359 428
#     4  11  23  44  68 106 142 183 248 299 353 442
#     4  12  25  45  79 103 150 194 239 302 373 423
#     4  12  26  50  75 114 151 188 255 297 352 448
#     4  10  22  44  66  99 140 185 235 305 367 431
#     4  10  21  40  67  94 140 177 235 302 355 439
#     4   9  21  38  61  90 129 172 239 287 360 434
#     4  12  29  52  78 111 154 197 241 301 363 431
#
# _framework density 28.973376999999999
#
# number of rings (size 3 to 8) (size 9 to 14) (size 15 to 20)
#    0.000    1.250    2.500    2.250    1.750    7.500 
#    0.000    6.250    0.000    0.000    0.000    0.000 
#    0.000    0.000    0.000    0.000    0.000    0.000 
#
# Total GULP energy -89652.814300 kJ/mol
# GULP energy per Si atom -5603.300894 kJ/mol
# Density = 2.890743 g / cm^3
# Si number density = 28.973377 Si / 1000 Ang^3
#
#
#
# Elastic Constant Matrix: (Units=GPa)
#
#
# Indices 1 2 3 4 5 6 
#
# 1 219.5942 64.7307 30.3038 -7.3949 37.9933 23.6330
# 2 64.7307 165.8144 55.3344 -19.7946 12.3387 18.9679
# 3 30.3038 55.3344 111.7765 -13.2155 14.3343 5.9498
# 4 -7.3949 -19.7946 -13.2155 65.6989 1.1111 7.4356
# 5 37.9933 12.3387 14.3343 1.1111 46.9521 -1.8586
# 6 23.6330 18.9679 5.9498 7.4356 -1.8586 60.0014
#
#
#
# Elastic Compliance Matrix: (Units=1/GPa)
#
#
# Indices 1 2 3 4 5 6 
#
# 1 0.006096 -0.001736 -0.000045 0.000462 -0.004554 -0.002046
# 2 -0.001736 0.008227 -0.003308 0.001820 0.000138 -0.001810
# 3 -0.000045 -0.003308 0.011088 0.001302 -0.002521 -0.000275
# 4 0.000462 0.001820 0.001302 0.016450 -0.001757 -0.002980
# 5 -0.004554 0.000138 -0.002521 -0.001757 0.025878 0.003019
# 6 -0.002046 -0.001810 -0.000275 -0.002980 0.003019 0.018534
#
#
# Mechanical properties :
#
#
# Convention : Reuss Voigt Hill
#
# Bulk Modulus (GPa) = 65.65507 88.65808 77.15657
# Shear Modulus (GPa) = 49.24654 57.65156 53.44905
#
# Velocity S-wave (km/s) = 4.12723 4.46557 4.29973
# Velocity P-wave (km/s) = 6.73957 7.56668 7.16507
#
# Compressibility (1/GPa) = 0.01523112
#
# Stress axis : x y z
#
# Youngs Moduli (GPa) = 164.05063 121.55603 90.18538
#
# Poissons Ratio (x) = 0.21106 0.00409
# Poissons Ratio (y) = 0.28485 0.29833
# Poissons Ratio (z) = 0.00745 0.40211
#
# Static dielectric constant tensor:
#      x y z
#    x 2.274090 0.056550 -0.042670 
#    y 0.056550 2.368640 0.090940 
#    z -0.042670 0.090940 2.281550 
# 
# From -- ./inp_files/125801.got.cif
#   From: 2010.05.17/outbox.cif.g08.bks.cpg/sg2_63_cif.got.tgz:125801.got - 2010.06.03 11:33:40.
