data_PCOD9007592
_publ_section_title
;
Structure prediction by ZEFSAII (Michael W. Deem and Ramdas Pophale) SiO2 
 PCOD9007592
Probable space group: P -1
;
_chemical_formula_sum "Si O2"
_cell_formula_units_Z 16
_cell_length_a 18.073170
_cell_length_b 13.985051
_cell_length_c 9.476261
_cell_angle_alpha 73.646860
_cell_angle_beta 103.848567
_cell_angle_gamma 158.795620
_cell_volume 829.424392
_symmetry_space_group_name_H-M "P -1"
_symmetry_group_IT_number 2
_symmetry_cell_setting 'triclinic'
loop_
_space_group_symop_operation_xyz
x,y,z
-x,-y,-z
loop_
_atom_site_type_symbol
_atom_site_label
_atom_site_fract_x
_atom_site_fract_y
_atom_site_fract_z
Si Si1 0.616748 0.995764 0.463713
Si Si2 0.849273 0.331621 0.869226
Si Si3 0.029586 0.138382 0.537037
Si Si4 0.745818 0.430356 0.736793
Si Si5 0.773783 0.982297 0.618418
Si Si6 0.387003 0.589796 0.734730
Si Si7 0.377757 0.699096 0.949209
Si Si8 0.897349 0.499118 0.287113
O O1 0.477965 0.803618 0.617467
O O2 0.469919 0.838152 0.331489
O O3 0.728286 0.024183 0.482407
O O4 0.770435 0.274137 0.427838
O O5 0.844926 0.441712 0.779070
O O6 0.935782 0.367730 0.768988
O O7 0.617352 0.018528 0.930798
O O8 0.000000 0.500000 0.000000
O O9 0.192250 0.324042 0.662440
O O10 0.823049 0.939303 0.583204
O O11 0.000000 0.000000 0.500000
O O12 0.875864 0.666859 0.609177
O O13 0.707309 0.416902 0.884851
O O14 0.978396 0.263003 0.678102
O O15 0.574237 0.741224 0.727759
O O16 0.350638 0.570870 0.887941
O O17 0.250698 0.632851 0.842408
#
# Coordination Sequence:
#
# PCOD9007592 Si02
#       8
#     2   2   2   2   2   2   2   2
#     4   9  20  36  56  90 124 166 201 241 290 359
#     4  12  22  35  58  91 134 176 195 228 306 371
#     4  11  24  44  68  87 114 158 213 271 312 347
#     4  11  23  40  59  91 129 163 205 254 294 363
#     4  10  21  39  62  89 119 156 210 248 305 362
#     4   9  22  39  59  88 119 160 200 258 303 356
#     4  12  22  38  58  90 134 162 196 245 301 372
#     4  12  20  34  59  91 124 169 204 239 292 370
#
# _framework density 19.290486000000001
#
# number of rings (size 3 to 8) (size 9 to 14) (size 15 to 20)
#    0.750    0.500    5.000    2.250    0.000    2.000 
#    0.000    0.625    0.000    0.750    0.000    0.000 
#    0.000    0.000    0.000    0.000    0.000    0.000 
#
# Total GULP energy -89339.084178 kJ/mol
# GULP energy per Si atom -5583.692761 kJ/mol
# Density = 1.924658 g / cm^3
# Si number density = 19.290486 Si / 1000 Ang^3
#
#
#
# Elastic Constant Matrix: (Units=GPa)
#
#
# Indices 1 2 3 4 5 6 
#
# 1 110.8130 28.9086 17.7357 9.0934 -25.3551 6.8658
# 2 28.9086 53.9302 10.1694 19.3967 1.4374 17.5118
# 3 17.7357 10.1694 58.4365 17.3446 -13.4640 8.4762
# 4 9.0934 19.3967 17.3446 27.5928 11.0203 1.1890
# 5 -25.3551 1.4374 -13.4640 11.0203 28.2978 1.4802
# 6 6.8658 17.5118 8.4762 1.1890 1.4802 25.8275
#
#
#
# Elastic Compliance Matrix: (Units=1/GPa)
#
#
# Indices 1 2 3 4 5 6 
#
# 1 0.016260 -0.001899 0.008204 -0.019487 0.026490 -0.006348
# 2 -0.001899 0.047345 0.021612 -0.056685 0.030230 -0.037812
# 3 0.008204 0.021612 0.051621 -0.073300 0.061133 -0.033905
# 4 -0.019487 -0.056685 -0.073300 0.173911 -0.120668 0.066580
# 5 0.026490 0.030230 0.061133 -0.120668 0.136226 -0.049855
# 6 -0.006348 -0.037812 -0.033905 0.066580 -0.049855 0.076963
#
#
# Mechanical properties :
#
#
# Convention : Reuss Voigt Hill
#
# Bulk Modulus (GPa) = 5.84592 37.42302 21.63447
# Shear Modulus (GPa) = 9.93020 27.43468 18.68244
#
# Velocity S-wave (km/s) = 2.27132 3.77528 3.11542
# Velocity P-wave (km/s) = 3.14890 6.20044 4.91737
#
# Compressibility (1/GPa) = 0.17105939
#
# Stress axis : x y z
#
# Youngs Moduli (GPa) = 61.49960 21.12149 19.37189
#
# Poissons Ratio (x) = 0.04011 -0.15892
# Poissons Ratio (y) = 0.11678 -0.41866
# Poissons Ratio (z) = -0.50452 -0.45647
#
# Static dielectric constant tensor:
#      x y z
#    x 1.684890 0.031790 -0.024670 
#    y 0.031790 1.691100 0.000360 
#    z -0.024670 0.000360 1.671650 
# 
# From -- ./inp_files/465292.got.cif
#   From: 2010.05.17/outbox.cif.g08.bks.cpg/sg2_233_cif.got.tgz:465292.got - 2010.06.03 11:33:40.
