data_PCOD9007530
_publ_section_title
;
Structure prediction by ZEFSAII (Michael W. Deem and Ramdas Pophale) SiO2 
 PCOD9007530
Probable space group: P -1
;
_chemical_formula_sum "Si O2"
_cell_formula_units_Z 16
_cell_length_a 14.241815
_cell_length_b 7.687223
_cell_length_c 14.363476
_cell_angle_alpha 62.156569
_cell_angle_beta 44.530619
_cell_angle_gamma 36.641651
_cell_volume 637.128578
_symmetry_space_group_name_H-M "P -1"
_symmetry_group_IT_number 2
_symmetry_cell_setting 'triclinic'
loop_
_space_group_symop_operation_xyz
x,y,z
-x,-y,-z
loop_
_atom_site_type_symbol
_atom_site_label
_atom_site_fract_x
_atom_site_fract_y
_atom_site_fract_z
Si Si1 0.043469 0.323599 0.306140
Si Si2 0.612397 0.405269 0.041711
Si Si3 0.263083 0.372381 0.999813
Si Si4 0.707578 0.015341 0.399715
Si Si5 0.254091 0.471997 0.663399
Si Si6 0.799007 0.852369 0.568992
Si Si7 0.406773 0.005351 0.803884
Si Si8 0.094295 0.861350 0.853886
O O1 0.953487 0.267022 0.312249
O O2 0.165346 0.106849 0.362716
O O3 0.829545 0.673029 0.397088
O O4 0.171236 0.347002 0.154866
O O5 0.575753 0.653135 0.059313
O O6 0.556373 0.265655 0.168109
O O7 0.500000 0.500000 0.000000
O O8 0.858947 0.126919 0.922847
O O9 0.317844 0.159388 0.930976
O O10 0.121921 0.690910 0.965991
O O11 0.463391 0.274179 0.509002
O O12 0.804575 0.037918 0.245092
O O13 0.766975 0.027838 0.459193
O O14 0.268393 0.238199 0.758577
O O15 0.238434 0.606687 0.736489
O O16 0.000000 0.500000 0.500000
O O17 0.610156 0.911700 0.683576
#
# Coordination Sequence:
#
# PCOD9007530 Si02
#       8
#     2   2   2   2   2   2   2   2
#     4  11  20  37  63  90 123 162 211 256 315 371
#     4  12  25  39  63  98 127 166 211 256 315 381
#     4  11  24  42  66  96 129 167 204 266 321 368
#     4  10  21  39  62  86 126 167 207 256 314 373
#     4  10  22  39  64  93 118 166 217 257 307 376
#     4   9  21  40  64  85 125 174 203 253 319 372
#     4  10  23  42  65  92 129 165 213 259 313 378
#     4  11  23  42  62  91 132 162 203 265 323 366
#
# _framework density 25.112670999999999
#
# number of rings (size 3 to 8) (size 9 to 14) (size 15 to 20)
#    0.000    1.500    1.250    3.375    3.500    5.000 
#    0.000    0.625    0.000    0.000    0.000    0.000 
#    0.000    0.000    0.000    0.000    0.000    0.000 
#
# Total GULP energy -89367.628346 kJ/mol
# GULP energy per Si atom -5585.476772 kJ/mol
# Density = 2.505551 g / cm^3
# Si number density = 25.112671 Si / 1000 Ang^3
#
#
#
# Elastic Constant Matrix: (Units=GPa)
#
#
# Indices 1 2 3 4 5 6 
#
# 1 145.7127 22.2019 36.1199 -9.2266 -1.0222 -26.5432
# 2 22.2019 50.9027 23.5589 -1.7788 -3.5894 -12.4962
# 3 36.1199 23.5589 96.1712 -7.2749 18.8363 -15.7826
# 4 -9.2266 -1.7788 -7.2749 34.9261 -0.7756 12.7876
# 5 -1.0222 -3.5894 18.8363 -0.7756 24.3046 -7.3965
# 6 -26.5432 -12.4962 -15.7826 12.7876 -7.3965 35.3047
#
#
#
# Elastic Compliance Matrix: (Units=1/GPa)
#
#
# Indices 1 2 3 4 5 6 
#
# 1 0.008848 -0.000609 -0.003086 -0.000502 0.004542 0.006191
# 2 -0.000609 0.026391 -0.007371 -0.003541 0.012350 0.009458
# 3 -0.003086 -0.007371 0.016039 0.002416 -0.014051 -0.001578
# 4 -0.000502 -0.003541 0.002416 0.033812 -0.005588 -0.013969
# 5 0.004542 0.012350 -0.014051 -0.005588 0.058686 0.015823
# 6 0.006191 0.009458 -0.001578 -0.013969 0.015823 0.043997
#
#
# Mechanical properties :
#
#
# Convention : Reuss Voigt Hill
#
# Bulk Modulus (GPa) = 34.30799 50.72755 42.51777
# Shear Modulus (GPa) = 22.76660 32.96748 27.86704
#
# Velocity S-wave (km/s) = 3.01421 3.62716 3.33480
# Velocity P-wave (km/s) = 5.07988 6.14700 5.63874
#
# Compressibility (1/GPa) = 0.02914773
#
# Stress axis : x y z
#
# Youngs Moduli (GPa) = 113.01661 37.89126 62.34951
#
# Poissons Ratio (x) = 0.02306 0.19239
# Poissons Ratio (y) = 0.06879 0.45957
# Poissons Ratio (z) = 0.34873 0.27929
#
# Static dielectric constant tensor:
#      x y z
#    x 2.146080 0.011930 0.087770 
#    y 0.011930 2.041010 -0.005470 
#    z 0.087770 -0.005470 1.997530 
# 
# From -- ./inp_files/206887.got.cif
#   From: 2010.05.17/outbox.cif.g08.bks.cpg/sg2_104_cif.got.tgz:206887.got - 2010.06.03 11:33:40.
