data_PCOD9007121
_publ_section_title
;
Structure prediction by ZEFSAII (Michael W. Deem and Ramdas Pophale) SiO2 
 PCOD9007121
Probable space group: P -1
;
_chemical_formula_sum "Si O2"
_cell_formula_units_Z 14
_cell_length_a 6.675093
_cell_length_b 18.708376
_cell_length_c 14.972561
_cell_angle_alpha 30.554472
_cell_angle_beta 110.064851
_cell_angle_gamma 88.552826
_cell_volume 661.488254
_symmetry_space_group_name_H-M "P -1"
_symmetry_group_IT_number 2
_symmetry_cell_setting 'triclinic'
loop_
_space_group_symop_operation_xyz
x,y,z
-x,-y,-z
loop_
_atom_site_type_symbol
_atom_site_label
_atom_site_fract_x
_atom_site_fract_y
_atom_site_fract_z
Si Si1 0.747792 0.961665 0.310892
Si Si2 0.796606 0.484866 0.378757
Si Si3 0.840130 0.233642 0.964846
Si Si4 0.663395 0.627593 0.823693
Si Si5 0.417601 0.033277 0.348654
Si Si6 0.844464 0.785841 0.128575
Si Si7 0.298933 0.534960 0.818126
O O1 0.612594 0.039626 0.305334
O O2 0.017590 0.739225 0.593338
O O3 0.840355 0.070002 0.168574
O O4 0.483244 0.022095 0.144891
O O5 0.850124 0.623322 0.265290
O O6 0.775090 0.483777 0.270926
O O7 0.039905 0.281715 0.681031
O O8 0.487327 0.575982 0.273651
O O9 0.080759 0.204288 0.093952
O O10 0.946833 0.214530 0.901312
O O11 0.494295 0.839858 0.538546
O O12 0.549233 0.540738 0.849289
O O13 0.612844 0.620911 0.928627
O O14 0.000000 0.500000 0.000000
O O15 0.500000 0.000000 0.500000
#
# Coordination Sequence:
#
# PCOD9007121 Si02
#       7
#     2   2   2   2   2   2   2
#     4  10  21  41  58  87 121 152 195 248 287 357
#     4  10  22  39  64  90 116 154 199 244 296 354
#     4  10  21  39  60  85 121 151 195 248 291 346
#     4  11  24  41  57  86 126 157 195 241 290 355
#     4  11  24  37  63  87 116 160 199 242 295 343
#     4   9  21  41  63  89 117 151 199 250 291 345
#     4  11  24  39  60  88 122 158 194 239 301 347
#
# _framework density 21.164397000000001
#
# number of rings (size 3 to 8) (size 9 to 14) (size 15 to 20)
#    0.000    1.714    2.857    0.429    8.000    1.143 
#    0.000    0.714    0.000    0.000    0.000    0.000 
#    0.000    0.000    0.000    0.000    0.000    0.000 
#
# Total GULP energy -78210.588896 kJ/mol
# GULP energy per Si atom -5586.470635 kJ/mol
# Density = 2.111623 g / cm^3
# Si number density = 21.164397 Si / 1000 Ang^3
#
#
#
# Elastic Constant Matrix: (Units=GPa)
#
#
# Indices 1 2 3 4 5 6 
#
# 1 112.6532 15.5293 17.7742 -0.1495 -2.8782 -4.2633
# 2 15.5293 45.9655 3.7664 24.6930 -3.9772 2.0632
# 3 17.7742 3.7664 81.9871 12.9004 -1.2156 0.7219
# 4 -0.1495 24.6930 12.9004 28.8256 -11.6945 1.9655
# 5 -2.8782 -3.9772 -1.2156 -11.6945 35.7596 0.6457
# 6 -4.2633 2.0632 0.7219 1.9655 0.6457 8.7128
#
#
#
# Elastic Compliance Matrix: (Units=1/GPa)
#
#
# Indices 1 2 3 4 5 6 
#
# 1 0.010925 -0.008731 -0.003537 0.009958 0.002950 0.005241
# 2 -0.008731 0.050883 0.007504 -0.051350 -0.011500 -0.004507
# 3 -0.003537 0.007504 0.014857 -0.014501 -0.003666 -0.001196
# 4 0.009958 -0.051350 -0.014501 0.096200 0.026156 -0.005406
# 5 0.002950 -0.011500 -0.003666 0.026156 0.035425 -0.004055
# 6 0.005241 -0.004507 -0.001196 -0.005406 -0.004055 0.120024
#
#
# Mechanical properties :
#
#
# Convention : Reuss Voigt Hill
#
# Bulk Modulus (GPa) = 14.89456 34.97174 24.93315
# Shear Modulus (GPa) = 13.88036 28.22867 21.05452
#
# Velocity S-wave (km/s) = 2.56371 3.65606 3.15748
# Velocity P-wave (km/s) = 3.97697 5.86362 5.00991
#
# Compressibility (1/GPa) = 0.06713859
#
# Stress axis : x y z
#
# Youngs Moduli (GPa) = 91.53059 19.65295 67.30857
#
# Poissons Ratio (x) = 0.17159 0.23805
# Poissons Ratio (y) = 0.79913 -0.50510
# Poissons Ratio (z) = 0.32372 -0.14748
#
# Static dielectric constant tensor:
#      x y z
#    x 1.762080 0.010700 0.002070 
#    y 0.010700 1.750760 0.001620 
#    z 0.002070 0.001620 1.774170 
# 
# From -- ./inp_files/26888.got.cif
#   From: 2010.05.17/outbox.cif.g08.bks.cpg/sg2_14_cif.got.tgz:26888.got - 2010.06.03 11:33:40.
