data_PCOD9007548
_publ_section_title
;
Structure prediction by ZEFSAII (Michael W. Deem and Ramdas Pophale) SiO2 
 PCOD9007548
Probable space group: P -1
;
_chemical_formula_sum "Si O2"
_cell_formula_units_Z 16
_cell_length_a 7.288282
_cell_length_b 16.799805
_cell_length_c 6.446634
_cell_angle_alpha 104.642807
_cell_angle_beta 113.294227
_cell_angle_gamma 76.279293
_cell_volume 693.034539
_symmetry_space_group_name_H-M "P -1"
_symmetry_group_IT_number 2
_symmetry_cell_setting 'triclinic'
loop_
_space_group_symop_operation_xyz
x,y,z
-x,-y,-z
loop_
_atom_site_type_symbol
_atom_site_label
_atom_site_fract_x
_atom_site_fract_y
_atom_site_fract_z
Si Si1 0.090866 0.406371 0.905558
Si Si2 0.833531 0.181250 0.265789
Si Si3 0.201812 0.558220 0.541263
Si Si4 0.181754 0.670712 0.967108
Si Si5 0.389955 0.385192 0.345629
Si Si6 0.562818 0.093597 0.778979
Si Si7 0.833695 0.960014 0.529493
Si Si8 0.555375 0.242247 0.565244
O O1 0.319093 0.390275 0.077776
O O2 0.990182 0.340068 0.951761
O O3 0.000000 0.500000 0.000000
O O4 0.008280 0.403981 0.635959
O O5 0.863361 0.258167 0.181425
O O6 0.732690 0.210523 0.459518
O O7 0.352265 0.060910 0.708624
O O8 0.674040 0.132153 0.042397
O O9 0.214294 0.584067 0.800348
O O10 0.256069 0.460740 0.454487
O O11 0.380854 0.597229 0.534125
O O12 0.367242 0.695021 0.195077
O O13 0.383326 0.296796 0.388601
O O14 0.508509 0.164954 0.626179
O O15 0.723362 0.022416 0.695104
O O16 0.041075 0.120968 0.361264
O O17 0.000000 0.000000 0.500000
#
# Coordination Sequence:
#
# PCOD9007548 Si02
#       8
#     2   2   2   2   2   2   2   2
#     4  10  22  40  58  89 125 167 227 277 326 396
#     4  11  23  44  67  97 137 175 219 280 336 402
#     4  10  21  43  59  87 127 174 229 271 329 393
#     4  11  22  41  65  89 132 177 219 282 329 393
#     4  10  21  39  62  87 127 174 214 278 331 380
#     4  10  25  45  70 104 136 175 227 265 339 413
#     4  11  23  47  74 102 135 178 219 275 332 407
#     4  11  22  45  62  97 137 167 226 283 333 405
#
# _framework density 23.086873000000001
#
# number of rings (size 3 to 8) (size 9 to 14) (size 15 to 20)
#    0.000    1.500    3.750    0.375    1.750    3.000 
#    9.000    0.000    0.000    0.000    0.000    0.000 
#    0.000    0.000    0.000    0.000    0.000    0.000 
#
# Total GULP energy -89444.970580 kJ/mol
# GULP energy per Si atom -5590.310661 kJ/mol
# Density = 2.303433 g / cm^3
# Si number density = 23.086873 Si / 1000 Ang^3
#
#
#
# Elastic Constant Matrix: (Units=GPa)
#
#
# Indices 1 2 3 4 5 6 
#
# 1 109.4957 22.2192 38.4680 1.4414 4.0259 6.4363
# 2 22.2192 79.7536 34.3644 -3.9606 7.1852 -21.3893
# 3 38.4680 34.3644 101.6231 10.5386 12.0605 -24.3600
# 4 1.4414 -3.9606 10.5386 36.3422 0.7864 5.7567
# 5 4.0259 7.1852 12.0605 0.7864 31.4448 -5.8558
# 6 6.4363 -21.3893 -24.3600 5.7567 -5.8558 18.3186
#
#
#
# Elastic Compliance Matrix: (Units=1/GPa)
#
#
# Indices 1 2 3 4 5 6 
#
# 1 0.017714 -0.008574 -0.013302 0.008170 -0.002346 -0.037242
# 2 -0.008574 0.022593 0.005055 -0.004704 0.001185 0.037972
# 3 -0.013302 0.005055 0.026939 -0.014829 0.000101 0.051092
# 4 0.008170 -0.004704 -0.014829 0.037498 -0.002813 -0.040766
# 5 -0.002346 0.001185 0.000101 -0.002813 0.034519 0.014261
# 6 -0.037242 0.037972 0.051092 -0.040766 0.014261 0.197323
#
#
# Mechanical properties :
#
#
# Convention : Reuss Voigt Hill
#
# Bulk Modulus (GPa) = 29.75858 53.44172 41.60015
# Shear Modulus (GPa) = 13.10865 30.27585 21.69225
#
# Velocity S-wave (km/s) = 2.38543 3.62524 3.06860
# Velocity P-wave (km/s) = 4.52823 6.38134 5.53292
#
# Compressibility (1/GPa) = 0.03360376
#
# Stress axis : x y z
#
# Youngs Moduli (GPa) = 56.45343 44.26228 37.12084
#
# Poissons Ratio (x) = 0.37952 0.49377
# Poissons Ratio (y) = 0.48405 -0.18766
# Poissons Ratio (z) = 0.75093 -0.22376
#
# Static dielectric constant tensor:
#      x y z
#    x 1.875630 0.023040 0.017720 
#    y 0.023040 1.868130 -0.003450 
#    z 0.017720 -0.003450 1.890530 
# 
# From -- ./inp_files/53582.got.cif
#   From: 2010.05.17/outbox.cif.g08.bks.cpg/sg2_27_cif.got.tgz:53582.got - 2010.06.03 11:33:40.
