data_PCOD9007128
_publ_section_title
;
Structure prediction by ZEFSAII (Michael W. Deem and Ramdas Pophale) SiO2 
 PCOD9007128
Probable space group: P -1
;
_chemical_formula_sum "Si O2"
_cell_formula_units_Z 14
_cell_length_a 23.415212
_cell_length_b 5.186382
_cell_length_c 20.910824
_cell_angle_alpha 93.749713
_cell_angle_beta 168.161875
_cell_angle_gamma 84.077747
_cell_volume 510.233069
_symmetry_space_group_name_H-M "P -1"
_symmetry_group_IT_number 2
_symmetry_cell_setting 'triclinic'
loop_
_space_group_symop_operation_xyz
x,y,z
-x,-y,-z
loop_
_atom_site_type_symbol
_atom_site_label
_atom_site_fract_x
_atom_site_fract_y
_atom_site_fract_z
Si Si1 0.802469 0.083733 0.385793
Si Si2 0.616327 0.542714 0.313342
Si Si3 0.912710 0.105392 0.186320
Si Si4 0.524007 0.897530 0.394644
Si Si5 0.826533 0.320318 0.667496
Si Si6 0.734039 0.673250 0.748814
Si Si7 0.324659 0.731806 0.879157
O O1 0.964704 0.120140 0.630532
O O2 0.034506 0.863716 0.598721
O O3 0.750186 0.309504 0.277539
O O4 0.535003 0.944567 0.106563
O O5 0.748625 0.325864 0.507109
O O6 0.852460 0.717958 0.563346
O O7 0.353609 0.722761 0.065296
O O8 0.478296 0.503068 0.092091
O O9 0.785863 0.063838 0.976874
O O10 0.676356 0.609709 0.531956
O O11 0.602097 0.890599 0.555123
O O12 0.673943 0.110259 0.529798
O O13 0.135838 0.280599 0.038658
O O14 0.500000 0.500000 0.500000
O O15 0.000000 0.500000 0.000000
#
# Coordination Sequence:
#
# PCOD9007128 Si02
#       7
#     2   2   2   2   2   2   2
#     4   8  13  22  40  67  99 135 176 222 272 326
#     4   9  17  31  50  76 108 144 185 230 280 334
#     4   9  17  31  50  76 108 144 185 230 280 334
#     4  10  21  39  60  86 117 152 192 236 286 340
#     4  10  21  39  60  86 117 152 192 236 286 340
#     4  10  21  40  62  88 118 152 192 236 286 340
#     4   8  13  22  40  67  99 135 176 222 272 326
#
# _framework density 27.438441000000001
#
# number of rings (size 3 to 8) (size 9 to 14) (size 15 to 20)
#    0.000    2.857    0.000    1.286    0.000    0.000 
#    0.000   28.571    0.000    0.857    0.000    0.000 
#    0.000   50.286    0.000    0.000    0.000   12.000 
#
# Total GULP energy -78373.173704 kJ/mol
# GULP energy per Si atom -5598.083836 kJ/mol
# Density = 2.737599 g / cm^3
# Si number density = 27.438441 Si / 1000 Ang^3
#
#
#
# Elastic Constant Matrix: (Units=GPa)
#
#
# Indices 1 2 3 4 5 6 
#
# 1 243.8824 36.8897 45.4594 -9.8517 -49.9548 35.1332
# 2 36.8897 152.0005 61.0903 -19.8433 -25.7355 45.3569
# 3 45.4594 61.0903 187.9797 -25.8852 -12.6480 33.9161
# 4 -9.8517 -19.8433 -25.8852 76.5863 31.3992 -17.7551
# 5 -49.9548 -25.7355 -12.6480 31.3992 76.0153 -11.0055
# 6 35.1332 45.3569 33.9161 -17.7551 -11.0055 55.1128
#
#
#
# Elastic Compliance Matrix: (Units=1/GPa)
#
#
# Indices 1 2 3 4 5 6 
#
# 1 0.005338 0.000345 -0.000854 -0.001749 0.003775 -0.002971
# 2 0.000345 0.009582 -0.001925 -0.000676 0.002467 -0.006646
# 3 -0.000854 -0.001925 0.006602 0.001678 -0.001039 -0.001601
# 4 -0.001749 -0.000676 0.001678 0.017446 -0.007620 0.004738
# 5 0.003775 0.002467 -0.001039 -0.007620 0.019093 -0.002440
# 6 -0.002971 -0.006646 -0.001601 0.004738 -0.002440 0.027532
#
#
# Mechanical properties :
#
#
# Convention : Reuss Voigt Hill
#
# Bulk Modulus (GPa) = 60.04912 96.74903 78.39908
# Shear Modulus (GPa) = 52.07704 70.90443 61.49073
#
# Velocity S-wave (km/s) = 4.36128 5.08895 4.73910
# Velocity P-wave (km/s) = 6.87703 8.35863 7.65377
#
# Compressibility (1/GPa) = 0.01665303
#
# Stress axis : x y z
#
# Youngs Moduli (GPa) = 187.34128 104.36712 151.47283
#
# Poissons Ratio (x) = -0.03601 0.12933
# Poissons Ratio (y) = -0.06464 0.29163
# Poissons Ratio (z) = 0.15995 0.20094
#
# Static dielectric constant tensor:
#      x y z
#    x 2.462910 -0.091520 -0.181630 
#    y -0.091520 2.035120 -0.126050 
#    z -0.181630 -0.126050 2.208430 
# 
# From -- ./inp_files/9252.got.cif
#   From: 2010.05.17/outbox.cif.g08.bks.cpg/sg2_5_cif.got.tgz:9252.got - 2010.06.03 11:33:40.
