data_PCOD9007636
_publ_section_title
;
Structure prediction by ZEFSAII (Michael W. Deem and Ramdas Pophale) SiO2 
 PCOD9007636
Probable space group: P -1
;
_chemical_formula_sum "Si O2"
_cell_formula_units_Z 16
_cell_length_a 24.713012
_cell_length_b 8.957065
_cell_length_c 9.756082
_cell_angle_alpha 31.213431
_cell_angle_beta 48.237581
_cell_angle_gamma 48.537389
_cell_volume 810.532322
_symmetry_space_group_name_H-M "P -1"
_symmetry_group_IT_number 2
_symmetry_cell_setting 'triclinic'
loop_
_space_group_symop_operation_xyz
x,y,z
-x,-y,-z
loop_
_atom_site_type_symbol
_atom_site_label
_atom_site_fract_x
_atom_site_fract_y
_atom_site_fract_z
Si Si1 0.521298 0.151209 0.210652
Si Si2 0.823584 0.832102 0.062153
Si Si3 0.078470 0.452858 0.478273
Si Si4 0.539095 0.150156 0.701359
Si Si5 0.687373 0.854422 0.073909
Si Si6 0.173521 0.868253 0.882395
Si Si7 0.077638 0.765500 0.523961
Si Si8 0.695708 0.185644 0.518261
O O1 0.500000 0.000000 0.500000
O O2 0.475965 0.020120 0.274598
O O3 0.608587 0.058890 0.095095
O O4 0.500000 0.500000 0.000000
O O5 0.749581 0.811996 0.121646
O O6 0.885397 0.518759 0.221143
O O7 0.808335 0.984676 0.119458
O O8 0.860507 0.047761 0.741390
O O9 0.067548 0.631533 0.498092
O O10 0.000000 0.500000 0.500000
O O11 0.106478 0.110585 0.737701
O O12 0.142496 0.577723 0.193941
O O13 0.500000 0.500000 0.500000
O O14 0.625800 0.102824 0.627366
O O15 0.500000 0.000000 0.000000
O O16 0.673251 0.531359 0.324223
O O17 0.712139 0.991859 0.782868
O O18 0.239236 0.835501 0.687129
O O19 0.000000 0.000000 0.500000
#
# Coordination Sequence:
#
# PCOD9007636 Si02
#       8
#     2   2   2   2   2   2   2   2
#     4  12  26  44  67 100 130 172 229 271 330 395
#     4  10  23  42  61  92 130 165 205 266 317 380
#     4  10  21  39  62  90 126 158 207 264 308 378
#     4  12  23  46  68  94 134 173 219 278 331 383
#     4  12  25  44  65  96 134 168 220 275 322 389
#     4  10  23  41  61  93 125 166 210 254 327 383
#     4  10  21  39  63  91 123 164 209 252 319 381
#     4  12  24  43  67  95 129 173 218 270 329 390
#
# _framework density 19.740113000000001
#
# number of rings (size 3 to 8) (size 9 to 14) (size 15 to 20)
#    0.000    1.000    2.500    3.750    1.750    3.000 
#    4.500    0.000    0.000    0.000    0.000    0.000 
#    0.000    0.000    0.000    0.000    0.000    0.000 
#
# Total GULP energy -89354.139849 kJ/mol
# GULP energy per Si atom -5584.633741 kJ/mol
# Density = 1.969518 g / cm^3
# Si number density = 19.740113 Si / 1000 Ang^3
#
#
#
# Elastic Constant Matrix: (Units=GPa)
#
#
# Indices 1 2 3 4 5 6 
#
# 1 143.4321 29.5121 11.1672 -1.8746 0.8705 7.0295
# 2 29.5121 76.6509 10.0533 -4.4381 -1.2077 3.9067
# 3 11.1672 10.0533 96.7999 -12.3235 11.5071 21.9084
# 4 -1.8746 -4.4381 -12.3235 41.1330 2.3116 -4.1639
# 5 0.8705 -1.2077 11.5071 2.3116 28.1741 0.9860
# 6 7.0295 3.9067 21.9084 -4.1639 0.9860 22.8200
#
#
#
# Elastic Compliance Matrix: (Units=1/GPa)
#
#
# Indices 1 2 3 4 5 6 
#
# 1 0.007656 -0.002848 -0.000201 -0.000180 -0.000202 -0.001702
# 2 -0.002848 0.014379 -0.001070 0.000998 0.001074 -0.000421
# 3 -0.000201 -0.001070 0.014458 0.003235 -0.005762 -0.012796
# 4 -0.000180 0.000998 0.003235 0.025738 -0.003442 0.001623
# 5 -0.000202 0.001074 -0.005762 -0.003442 0.038072 0.003138
# 6 -0.001702 -0.000421 -0.012796 0.001623 0.003138 0.056863
#
#
# Mechanical properties :
#
#
# Convention : Reuss Voigt Hill
#
# Bulk Modulus (GPa) = 35.39274 46.48312 40.93793
# Shear Modulus (GPa) = 28.60036 36.16876 32.38456
#
# Velocity S-wave (km/s) = 3.81050 4.28512 4.05476
# Velocity P-wave (km/s) = 6.10968 6.93409 6.53490
#
# Compressibility (1/GPa) = 0.02825438
#
# Stress axis : x y z
#
# Youngs Moduli (GPa) = 130.61818 69.54446 69.16635
#
# Poissons Ratio (x) = 0.19807 0.01391
# Poissons Ratio (y) = 0.37202 0.07402
# Poissons Ratio (z) = 0.02627 0.07442
#
# Static dielectric constant tensor:
#      x y z
#    x 1.678850 -0.001080 0.009030 
#    y -0.001080 1.697540 -0.001200 
#    z 0.009030 -0.001200 1.683280 
# 
# From -- ./inp_files/217574.got.cif
#   From: 2010.05.17/outbox.cif.g08.bks.cpg/sg2_109_cif.got.tgz:217574.got - 2010.06.03 11:33:40.
