data_PCOD9007812
_publ_section_title
;
Structure prediction by ZEFSAII (Michael W. Deem and Ramdas Pophale) SiO2 
 PCOD9007812
Probable space group: P -1
;
_chemical_formula_sum "Si O2"
_cell_formula_units_Z 16
_cell_length_a 9.548018
_cell_length_b 23.303666
_cell_length_c 10.010509
_cell_angle_alpha 31.433508
_cell_angle_beta 116.200772
_cell_angle_gamma 136.446543
_cell_volume 696.723615
_symmetry_space_group_name_H-M "P -1"
_symmetry_group_IT_number 2
_symmetry_cell_setting 'triclinic'
loop_
_space_group_symop_operation_xyz
x,y,z
-x,-y,-z
loop_
_atom_site_type_symbol
_atom_site_label
_atom_site_fract_x
_atom_site_fract_y
_atom_site_fract_z
Si Si1 0.474852 0.360053 0.222555
Si Si2 0.738478 0.272316 0.079721
Si Si3 0.164597 0.244115 0.795793
Si Si4 0.301506 0.160654 0.792352
Si Si5 0.551083 0.392777 0.884434
Si Si6 0.292973 0.891738 0.019961
Si Si7 0.198739 0.587260 0.564503
Si Si8 0.377645 0.980380 0.312741
O O1 0.286478 0.201545 0.555345
O O2 0.709168 0.415824 0.250651
O O3 0.500000 0.500000 0.000000
O O4 0.443567 0.335346 0.101276
O O5 0.505283 0.114993 0.215804
O O6 0.797965 0.198516 0.343370
O O7 0.688806 0.353987 0.982780
O O8 0.945238 0.405092 0.798606
O O9 0.159538 0.151609 0.860254
O O10 0.346678 0.301694 0.871117
O O11 0.272557 0.411969 0.444015
O O12 0.916849 0.140296 0.963817
O O13 0.582939 0.331627 0.598414
O O14 0.282856 0.021188 0.089133
O O15 0.196206 0.716668 0.317555
O O16 0.421051 0.982107 0.754413
O O17 0.500000 0.000000 0.000000
#
# Coordination Sequence:
#
# PCOD9007812 Si02
#       8
#     2   2   2   2   2   2   2   2
#     4  10  21  39  63 103 143 168 228 288 343 414
#     4  11  22  41  70 101 140 185 235 290 339 415
#     4  11  22  42  72 102 139 176 229 289 350 410
#     4   9  20  43  65  98 137 174 230 278 353 411
#     4  11  22  37  71 108 135 176 234 291 342 414
#     4  11  25  45  68 102 136 183 232 288 351 412
#     4   9  22  41  70  99 134 184 231 282 342 417
#     4  10  24  42  65  97 148 182 235 283 347 411
#
# _framework density 22.964631000000001
#
# number of rings (size 3 to 8) (size 9 to 14) (size 15 to 20)
#    0.750    1.000    3.750    0.000    1.750    6.500 
#    0.000    4.375    2.750    0.000    0.000    0.000 
#    0.000    0.000    0.000    0.000    0.000    0.000 
#
# Total GULP energy -89417.622827 kJ/mol
# GULP energy per Si atom -5588.601427 kJ/mol
# Density = 2.291236 g / cm^3
# Si number density = 22.964631 Si / 1000 Ang^3
#
#
#
# Elastic Constant Matrix: (Units=GPa)
#
#
# Indices 1 2 3 4 5 6 
#
# 1 120.4726 11.5413 32.1307 4.9585 -11.6822 -12.6290
# 2 11.5413 56.3840 18.7540 18.8517 -1.4939 -15.1740
# 3 32.1307 18.7540 123.8817 15.2794 -4.5724 2.7679
# 4 4.9585 18.8517 15.2794 31.5250 1.5966 -8.7193
# 5 -11.6822 -1.4939 -4.5724 1.5966 32.5255 -0.5884
# 6 -12.6290 -15.1740 2.7679 -8.7193 -0.5884 33.1894
#
#
#
# Elastic Compliance Matrix: (Units=1/GPa)
#
#
# Indices 1 2 3 4 5 6 
#
# 1 0.009703 -0.000230 -0.002557 0.000817 0.003149 0.004071
# 2 -0.000230 0.024672 -0.002421 -0.011276 0.001417 0.008457
# 3 -0.002557 -0.002421 0.009694 -0.003956 0.000456 -0.003920
# 4 0.000817 -0.011276 -0.003956 0.042195 -0.002734 0.006522
# 5 0.003149 0.001417 0.000456 -0.002734 0.032169 0.001660
# 6 0.004071 0.008457 -0.003920 0.006522 0.001660 0.037615
#
#
# Mechanical properties :
#
#
# Convention : Reuss Voigt Hill
#
# Bulk Modulus (GPa) = 29.71563 47.28782 38.50173
# Shear Modulus (GPa) = 28.13999 35.33547 31.73773
#
# Velocity S-wave (km/s) = 3.50432 3.92687 3.72160
# Velocity P-wave (km/s) = 5.41678 6.41847 5.93878
#
# Compressibility (1/GPa) = 0.03365232
#
# Stress axis : x y z
#
# Youngs Moduli (GPa) = 103.05921 40.53257 103.15257
#
# Poissons Ratio (x) = 0.00931 0.26381
# Poissons Ratio (y) = 0.02368 0.24975
# Poissons Ratio (z) = 0.26357 0.09814
#
# Static dielectric constant tensor:
#      x y z
#    x 1.833450 0.022850 -0.016650 
#    y 0.022850 1.893900 -0.006710 
#    z -0.016650 -0.006710 1.878550 
# 
# From -- ./inp_files/406536.got.cif
#   From: 2010.05.17/outbox.cif.g08.bks.cpg/sg2_204_cif.got.tgz:406536.got - 2010.06.03 11:33:40.
