data_PCOD9007578
_publ_section_title
;
Structure prediction by ZEFSAII (Michael W. Deem and Ramdas Pophale) SiO2 
 PCOD9007578
Probable space group: P -1
;
_chemical_formula_sum "Si O2"
_cell_formula_units_Z 16
_cell_length_a 7.567788
_cell_length_b 19.958456
_cell_length_c 11.592456
_cell_angle_alpha 30.255491
_cell_angle_beta 122.696886
_cell_angle_gamma 123.826844
_cell_volume 725.482007
_symmetry_space_group_name_H-M "P -1"
_symmetry_group_IT_number 2
_symmetry_cell_setting 'triclinic'
loop_
_space_group_symop_operation_xyz
x,y,z
-x,-y,-z
loop_
_atom_site_type_symbol
_atom_site_label
_atom_site_fract_x
_atom_site_fract_y
_atom_site_fract_z
Si Si1 0.462546 0.572556 0.202806
Si Si2 0.897402 0.104401 0.881470
Si Si3 0.157241 0.408734 0.508767
Si Si4 0.564372 0.217369 0.459152
Si Si5 0.751849 0.516221 0.178397
Si Si6 0.073266 0.195380 0.291491
Si Si7 0.967225 0.940251 0.755747
Si Si8 0.523170 0.160057 0.273123
O O1 0.262057 0.460580 0.345151
O O2 0.653534 0.568849 0.365169
O O3 0.571903 0.551327 0.149817
O O4 0.382403 0.715930 0.963297
O O5 0.674753 0.124528 0.718624
O O6 0.052917 0.250802 0.702756
O O7 0.896239 0.067959 0.070201
O O8 0.000000 0.000000 0.000000
O O9 0.964440 0.483294 0.362212
O O10 0.639354 0.374706 0.288727
O O11 0.309337 0.164449 0.444224
O O12 0.623536 0.206061 0.363900
O O13 0.854552 0.642967 0.942995
O O14 0.963008 0.125465 0.239316
O O15 0.945387 0.096549 0.491325
O O16 0.732318 0.842484 0.831185
O O17 0.500000 0.000000 0.500000
#
# Coordination Sequence:
#
# PCOD9007578 Si02
#       8
#     2   2   2   2   2   2   2   2
#     4  11  22  42  69  94 133 171 220 271 325 388
#     4  11  22  42  61  89 134 169 210 273 322 389
#     4  10  24  41  63 103 122 176 225 258 331 398
#     4  10  23  39  64  95 126 174 213 263 341 385
#     4  11  21  42  67  91 139 164 213 277 329 384
#     4  10  21  39  63  94 123 170 217 265 321 392
#     4  10  21  39  62  88 126 166 222 257 318 386
#     4  11  22  40  66  92 128 176 216 270 322 381
#
# _framework density 22.054303999999998
#
# number of rings (size 3 to 8) (size 9 to 14) (size 15 to 20)
#    0.000    1.500    3.750    1.500    1.750    2.500 
#    0.000    2.500    0.000    0.000    0.000    0.000 
#    0.000    0.000    0.000    0.000    0.000    0.000 
#
# Total GULP energy -89155.945314 kJ/mol
# GULP energy per Si atom -5572.246582 kJ/mol
# Density = 2.200411 g / cm^3
# Si number density = 22.054304 Si / 1000 Ang^3
#
#
#
# Elastic Constant Matrix: (Units=GPa)
#
#
# Indices 1 2 3 4 5 6 
#
# 1 59.0060 21.2511 29.7800 -5.7213 -10.6394 -3.4139
# 2 21.2511 84.6718 52.0841 15.5470 9.9519 -4.7467
# 3 29.7800 52.0841 154.3691 -0.0441 -7.4739 -13.3738
# 4 -5.7213 15.5470 -0.0441 47.8529 4.7578 1.4343
# 5 -10.6394 9.9519 -7.4739 4.7578 34.1442 -9.8196
# 6 -3.4139 -4.7467 -13.3738 1.4343 -9.8196 15.7453
#
#
#
# Elastic Compliance Matrix: (Units=1/GPa)
#
#
# Indices 1 2 3 4 5 6 
#
# 1 0.022498 -0.006521 -0.000886 0.003492 0.010675 0.008499
# 2 -0.006521 0.019203 -0.006301 -0.005812 -0.010147 -0.006775
# 3 -0.000886 -0.006301 0.010000 0.000980 0.006615 0.010438
# 4 0.003492 -0.005812 0.000980 0.023406 -0.001127 -0.002998
# 5 0.010675 -0.010147 0.006615 -0.001127 0.047046 0.034317
# 6 0.008499 -0.006775 0.010438 -0.002998 0.034317 0.093852
#
#
# Mechanical properties :
#
#
# Convention : Reuss Voigt Hill
#
# Bulk Modulus (GPa) = 41.17774 56.03080 48.60427
# Shear Modulus (GPa) = 19.87956 32.54393 26.21175
#
# Velocity S-wave (km/s) = 3.00558 3.84556 3.45122
# Velocity P-wave (km/s) = 5.54583 6.72151 6.16178
#
# Compressibility (1/GPa) = 0.02428497
#
# Stress axis : x y z
#
# Youngs Moduli (GPa) = 44.44809 52.07547 100.00357
#
# Poissons Ratio (x) = 0.33959 0.08859
# Poissons Ratio (y) = 0.28985 0.63012
# Poissons Ratio (z) = 0.03938 0.32813
#
# Static dielectric constant tensor:
#      x y z
#    x 1.958680 -0.015060 0.032820 
#    y -0.015060 1.785670 -0.007640 
#    z 0.032820 -0.007640 1.881140 
# 
# From -- ./inp_files/404594.got.cif
#   From: 2010.05.17/outbox.cif.g08.bks.cpg/sg2_203_cif.got.tgz:404594.got - 2010.06.03 11:33:40.
