data_PCOD9007642
_publ_section_title
;
Structure prediction by ZEFSAII (Michael W. Deem and Ramdas Pophale) SiO2 
 PCOD9007642
Probable space group: P -1
;
_chemical_formula_sum "Si O2"
_cell_formula_units_Z 16
_cell_length_a 8.858855
_cell_length_b 20.505215
_cell_length_c 9.554783
_cell_angle_alpha 140.576258
_cell_angle_beta 120.912375
_cell_angle_gamma 43.771046
_cell_volume 758.648529
_symmetry_space_group_name_H-M "P -1"
_symmetry_group_IT_number 2
_symmetry_cell_setting 'triclinic'
loop_
_space_group_symop_operation_xyz
x,y,z
-x,-y,-z
loop_
_atom_site_type_symbol
_atom_site_label
_atom_site_fract_x
_atom_site_fract_y
_atom_site_fract_z
Si Si1 0.297688 0.191992 0.109340
Si Si2 0.037962 0.820626 0.227020
Si Si3 0.734984 0.918058 0.809380
Si Si4 0.572369 0.428282 0.267489
Si Si5 0.457405 0.404363 0.888316
Si Si6 0.752140 0.572306 0.451394
Si Si7 0.886775 0.121809 0.924283
Si Si8 0.742345 0.950012 0.570166
O O1 0.257756 0.171543 0.217364
O O2 0.363556 0.287634 0.302673
O O3 0.079494 0.239874 0.996692
O O4 0.492019 0.051137 0.913532
O O5 0.298815 0.729254 0.222091
O O6 0.010527 0.911967 0.239720
O O7 0.911807 0.878091 0.406048
O O8 0.802220 0.866513 0.599664
O O9 0.907045 0.942853 0.983583
O O10 0.500000 0.500000 0.500000
O O11 0.670137 0.493476 0.343294
O O12 0.407702 0.437431 0.085199
O O13 0.744455 0.275738 0.122999
O O14 0.292175 0.410261 0.708609
O O15 0.500000 0.500000 0.000000
O O16 0.000000 0.500000 0.500000
O O17 0.746209 0.070486 0.800924
O O18 0.500000 0.000000 0.500000
#
# Coordination Sequence:
#
# PCOD9007642 Si02
#       8
#     2   2   2   2   2   2   2   2
#     4  10  21  39  62  90 128 166 209 258 318 378
#     4  10  21  41  63  89 131 170 207 257 324 389
#     4  10  22  38  58  89 129 163 209 253 320 378
#     4  10  23  42  66  94 126 167 214 266 318 380
#     4   9  20  39  61  91 122 167 213 249 314 386
#     4  11  22  40  68  91 125 169 217 261 316 379
#     4  10  23  42  61  88 132 169 209 252 328 391
#     4  12  24  38  61  96 127 161 214 270 312 367
#
# _framework density 21.090135
#
# number of rings (size 3 to 8) (size 9 to 14) (size 15 to 20)
#    0.000    1.750    1.250    3.750    3.500    4.000 
#    0.000    0.625    0.000    0.000    0.000    0.000 
#    0.000    0.000    0.000    0.000    0.000    0.000 
#
# Total GULP energy -89185.805714 kJ/mol
# GULP energy per Si atom -5574.112857 kJ/mol
# Density = 2.104213 g / cm^3
# Si number density = 21.090135 Si / 1000 Ang^3
#
#
#
# Elastic Constant Matrix: (Units=GPa)
#
#
# Indices 1 2 3 4 5 6 
#
# 1 72.6476 24.9959 38.4901 -16.6502 -4.8331 5.5874
# 2 24.9959 77.5551 45.3527 -32.5504 -9.1364 -5.9899
# 3 38.4901 45.3527 105.0223 -22.5775 -15.7637 2.9097
# 4 -16.6502 -32.5504 -22.5775 45.6050 9.7252 8.0021
# 5 -4.8331 -9.1364 -15.7637 9.7252 52.1760 -9.1491
# 6 5.5874 -5.9899 2.9097 8.0021 -9.1491 26.2156
#
#
#
# Elastic Compliance Matrix: (Units=1/GPa)
#
#
# Indices 1 2 3 4 5 6 
#
# 1 0.018432 -0.001759 -0.005203 0.004336 -0.001993 -0.005772
# 2 -0.001759 0.022404 -0.006603 0.011585 0.000083 0.002719
# 3 -0.005203 -0.006603 0.014779 0.000388 0.002531 -0.001275
# 4 0.004336 0.011585 0.000388 0.035200 -0.005968 -0.011148
# 5 -0.001993 0.000083 0.002531 -0.005968 0.022604 0.009873
# 6 -0.005772 0.002719 -0.001275 -0.011148 0.009873 0.046987
#
#
# Mechanical properties :
#
#
# Convention : Reuss Voigt Hill
#
# Bulk Modulus (GPa) = 35.10476 52.54471 43.82473
# Shear Modulus (GPa) = 25.37686 34.55841 29.96764
#
# Velocity S-wave (km/s) = 3.47256 4.05236 3.77361
# Velocity P-wave (km/s) = 5.72359 6.84572 6.30965
#
# Compressibility (1/GPa) = 0.02848617
#
# Stress axis : x y z
#
# Youngs Moduli (GPa) = 54.25389 44.63441 67.66560
#
# Poissons Ratio (x) = 0.07850 0.35204
# Poissons Ratio (y) = 0.09542 0.44678
# Poissons Ratio (z) = 0.28227 0.29471
#
# Static dielectric constant tensor:
#      x y z
#    x 1.746240 -0.021790 -0.009670 
#    y -0.021790 1.714510 0.000160 
#    z -0.009670 0.000160 1.853110 
# 
# From -- ./inp_files/224274.got.cif
#   From: 2010.05.17/outbox.cif.g08.bks.cpg/sg2_113_cif.got.tgz:224274.got - 2010.06.03 11:33:40.
