data_PCOD9007031
_publ_section_title
;
Structure prediction by ZEFSAII (Michael W. Deem and Ramdas Pophale) SiO2 
 PCOD9007031
Probable space group: P -1
;
_chemical_formula_sum "Si O2"
_cell_formula_units_Z 16
_cell_length_a 13.938146
_cell_length_b 13.538993
_cell_length_c 8.252754
_cell_angle_alpha 119.806162
_cell_angle_beta 67.771959
_cell_angle_gamma 148.682599
_cell_volume 698.680497
_symmetry_space_group_name_H-M "P -1"
_symmetry_group_IT_number 2
_symmetry_cell_setting 'triclinic'
loop_
_space_group_symop_operation_xyz
x,y,z
-x,-y,-z
loop_
_atom_site_type_symbol
_atom_site_label
_atom_site_fract_x
_atom_site_fract_y
_atom_site_fract_z
Si Si1 0.602472 0.598668 0.799887
Si Si2 0.076415 0.610442 0.252192
Si Si3 0.446722 0.862062 0.286480
Si Si4 0.784874 0.557392 0.836515
Si Si5 0.905477 0.964183 0.693465
Si Si6 0.830532 0.143241 0.323851
Si Si7 0.750671 0.831391 0.210816
Si Si8 0.007070 0.309453 0.913514
O O1 0.698076 0.577994 0.807977
O O2 0.389802 0.365373 0.743459
O O3 0.709145 0.731131 0.678847
O O4 0.651406 0.736336 0.019752
O O5 0.291114 0.775938 0.200204
O O6 0.099823 0.685293 0.476136
O O7 0.987141 0.626841 0.213126
O O8 0.974119 0.396407 0.112695
O O9 0.337601 0.664929 0.292700
O O10 0.500000 0.000000 0.500000
O O11 0.647850 0.001744 0.218132
O O12 0.996122 0.742561 0.794878
O O13 0.804452 0.571188 0.030918
O O14 0.887579 0.084951 0.797744
O O15 0.052901 0.054831 0.810508
O O16 0.000000 0.000000 0.500000
O O17 0.779013 0.991161 0.353227
#
# Coordination Sequence:
#
# PCOD9007031 Si02
#       8
#     2   2   2   2   2   2   2   2
#     4  11  23  39  62  98 123 165 207 253 316 372
#     4   9  21  39  60  84 123 163 203 248 307 368
#     4   9  20  36  58  90 120 155 204 254 300 356
#     4  11  20  37  64  89 124 155 206 259 309 371
#     4  12  24  40  65  94 129 166 202 255 317 377
#     4  11  20  36  66  93 116 160 204 256 313 362
#     4  11  22  39  67  93 128 160 205 260 311 373
#     4  10  21  39  59  86 124 163 199 250 309 364
#
# _framework density 22.900310999999999
#
# number of rings (size 3 to 8) (size 9 to 14) (size 15 to 20)
#    0.000    1.500    3.750    1.875    0.000    5.000 
#    0.000    0.625    0.000    4.500    0.000    0.000 
#    0.000    0.000    0.000    0.000    0.000    0.000 
#
# Total GULP energy -89108.211493 kJ/mol
# GULP energy per Si atom -5569.263218 kJ/mol
# Density = 2.284819 g / cm^3
# Si number density = 22.900311 Si / 1000 Ang^3
#
#
#
# Elastic Constant Matrix: (Units=GPa)
#
#
# Indices 1 2 3 4 5 6 
#
# 1 107.7095 31.0328 13.9285 7.7689 -6.2432 -12.3386
# 2 31.0328 133.5659 28.9150 6.4837 -10.7535 -2.1646
# 3 13.9285 28.9150 72.4692 5.1332 -11.8550 -17.7309
# 4 7.7689 6.4837 5.1332 24.9477 -3.2278 -7.3362
# 5 -6.2432 -10.7535 -11.8550 -3.2278 24.3372 3.0139
# 6 -12.3386 -2.1646 -17.7309 -7.3362 3.0139 44.2107
#
#
#
# Elastic Compliance Matrix: (Units=1/GPa)
#
#
# Indices 1 2 3 4 5 6 
#
# 1 0.010394 -0.002145 -0.000275 -0.001805 0.001059 0.002314
# 2 -0.002145 0.008852 -0.003156 -0.001260 0.001875 -0.001768
# 3 -0.000275 -0.003156 0.017731 -0.000024 0.006371 0.006442
# 4 -0.001805 -0.001260 -0.000024 0.043355 0.003932 0.006351
# 5 0.001059 0.001875 0.006371 0.003932 0.045756 0.000476
# 6 0.002314 -0.001768 0.006442 0.006351 0.000476 0.026783
#
#
# Mechanical properties :
#
#
# Convention : Reuss Voigt Hill
#
# Bulk Modulus (GPa) = 38.72120 51.27745 44.99933
# Shear Modulus (GPa) = 28.96333 34.69033 31.82683
#
# Velocity S-wave (km/s) = 3.56020 3.89632 3.73205
# Velocity P-wave (km/s) = 5.81767 6.53314 6.18576
#
# Compressibility (1/GPa) = 0.02582564
#
# Stress axis : x y z
#
# Youngs Moduli (GPa) = 96.20476 112.96683 56.39821
#
# Poissons Ratio (x) = 0.24234 0.01549
# Poissons Ratio (y) = 0.20638 0.17800
# Poissons Ratio (z) = 0.02642 0.35655
#
# Static dielectric constant tensor:
#      x y z
#    x 1.951480 0.023890 -0.055470 
#    y 0.023890 1.882250 -0.004590 
#    z -0.055470 -0.004590 1.978400 
# 
# From -- ./inp_files/315749.got.cif
#   From: 2010.05.17/outbox.cif.g08.bks.cpg/sg2_158_cif.got.tgz:315749.got - 2010.06.03 11:33:40.
