data_PCOD9007096
_publ_section_title
;
Structure prediction by ZEFSAII (Michael W. Deem and Ramdas Pophale) SiO2 
 PCOD9007096
Probable space group: P -1
;
_chemical_formula_sum "Si O2"
_cell_formula_units_Z 16
_cell_length_a 8.446755
_cell_length_b 16.775299
_cell_length_c 5.101367
_cell_angle_alpha 106.287566
_cell_angle_beta 119.934661
_cell_angle_gamma 73.660516
_cell_volume 592.527595
_symmetry_space_group_name_H-M "P -1"
_symmetry_group_IT_number 2
_symmetry_cell_setting 'triclinic'
loop_
_space_group_symop_operation_xyz
x,y,z
-x,-y,-z
loop_
_atom_site_type_symbol
_atom_site_label
_atom_site_fract_x
_atom_site_fract_y
_atom_site_fract_z
Si Si1 0.754678 0.610562 0.300663
Si Si2 0.579100 0.413882 0.636583
Si Si3 0.805145 0.773967 0.737555
Si Si4 0.979378 0.605819 0.969310
Si Si5 0.445346 0.125985 0.002942
Si Si6 0.317235 0.754712 0.736805
Si Si7 0.676883 0.007562 0.470324
Si Si8 0.864506 0.161698 0.869108
O O1 0.551686 0.596669 0.227334
O O2 0.887228 0.571177 0.609551
O O3 0.861283 0.581290 0.094983
O O4 0.770195 0.710120 0.423650
O O5 0.500000 0.500000 0.500000
O O6 0.798283 0.410621 0.865098
O O7 0.579551 0.334438 0.366623
O O8 0.614074 0.815705 0.743650
O O9 0.913377 0.706570 0.972654
O O10 0.917122 0.850913 0.907324
O O11 0.282093 0.088644 0.691062
O O12 0.545950 0.186948 0.973493
O O13 0.604883 0.055286 0.185750
O O14 0.208199 0.801366 0.439869
O O15 0.185990 0.761085 0.886801
O O16 0.802952 0.069578 0.755771
O O17 0.500000 0.000000 0.500000
#
# Coordination Sequence:
#
# PCOD9007096 Si02
#       8
#     2   2   2   2   2   2   2   2
#     4  10  24  46  70 102 145 187 242 295 360 421
#     4  12  26  46  77 111 144 192 243 299 370 429
#     4  10  22  41  65  98 131 185 230 289 342 426
#     4  10  24  47  70 104 146 185 246 298 351 433
#     4  10  21  39  65  89 134 174 225 277 347 411
#     4  11  21  44  63  95 125 181 225 273 340 421
#     4  10  21  39  60 100 130 173 225 291 339 412
#     4  11  23  39  72  88 135 176 223 280 345 409
#
# _framework density 27.002963000000001
#
# number of rings (size 3 to 8) (size 9 to 14) (size 15 to 20)
#    0.750    0.750    3.750    0.750    0.000    5.500 
#    0.000    5.000    0.000    0.000    0.000    0.000 
#    0.000    0.000    0.000    0.000    0.000    0.000 
#
# Total GULP energy -89220.785112 kJ/mol
# GULP energy per Si atom -5576.299069 kJ/mol
# Density = 2.694150 g / cm^3
# Si number density = 27.002963 Si / 1000 Ang^3
#
#
#
# Elastic Constant Matrix: (Units=GPa)
#
#
# Indices 1 2 3 4 5 6 
#
# 1 131.1054 1.5901 62.9150 1.3014 -8.3933 15.6428
# 2 1.5901 40.6613 43.4399 20.2995 16.0567 17.8102
# 3 62.9150 43.4399 108.6864 -10.0570 -17.7437 11.2167
# 4 1.3014 20.2995 -10.0570 51.4706 9.5133 9.4216
# 5 -8.3933 16.0567 -17.7437 9.5133 48.2814 3.2763
# 6 15.6428 17.8102 11.2167 9.4216 3.2763 41.5530
#
#
#
# Elastic Compliance Matrix: (Units=1/GPa)
#
#
# Indices 1 2 3 4 5 6 
#
# 1 -0.002938 -0.044308 0.023181 0.017048 0.018809 0.008491
# 2 -0.044308 -0.142357 0.094272 0.058231 0.060486 0.034277
# 3 0.023181 0.094272 -0.048586 -0.035957 -0.036396 -0.024995
# 4 0.017048 0.058231 -0.035957 -0.002378 -0.027863 -0.018934
# 5 0.018809 0.060486 -0.036396 -0.027863 -0.002891 -0.016636
# 6 0.008491 0.034277 -0.024995 -0.018934 -0.016636 0.018529
#
#
# Mechanical properties :
#
#
# Convention : Reuss Voigt Hill
#
# Bulk Modulus (GPa) = -21.01219 55.14924 17.06853
# Shear Modulus (GPa) = -14.58684 39.76155 12.58735
#
# Velocity S-wave (km/s) = -2.32673 3.84146 2.16139
# Velocity P-wave (km/s) = 3.87512 6.33589 3.54450
#
# Compressibility (1/GPa) = -0.04759143
#
# Stress axis : x y z
#
# Youngs Moduli (GPa) = -340.40471 -7.02457 -20.58195
#
# Poissons Ratio (x) = -0.31124 0.47712
# Poissons Ratio (y) = -15.08265 1.94029
# Poissons Ratio (z) = 7.89105 0.66222
#
# Static dielectric constant tensor:
#      x y z
#    x 2.676980 -0.037760 0.036550 
#    y -0.037760 2.205080 0.020850 
#    z 0.036550 0.020850 2.153110 
# 
# From -- ./inp_files/48647.got.cif
#   From: 2010.05.17/outbox.cif.g08.bks.cpg/sg2_25_cif.got.tgz:48647.got - 2010.06.03 11:33:40.
