data_PCOD9007423
_publ_section_title
;
Structure prediction by ZEFSAII (Michael W. Deem and Ramdas Pophale) SiO2 
 PCOD9007423
Probable space group: P -1
;
_chemical_formula_sum "Si O2"
_cell_formula_units_Z 12
_cell_length_a 7.134713
_cell_length_b 7.390763
_cell_length_c 13.408251
_cell_angle_alpha 106.300077
_cell_angle_beta 69.722395
_cell_angle_gamma 55.799354
_cell_volume 433.436979
_symmetry_space_group_name_H-M "P -1"
_symmetry_group_IT_number 2
_symmetry_cell_setting 'triclinic'
loop_
_space_group_symop_operation_xyz
x,y,z
-x,-y,-z
loop_
_atom_site_type_symbol
_atom_site_label
_atom_site_fract_x
_atom_site_fract_y
_atom_site_fract_z
Si Si1 0.513986 0.842098 0.188972
Si Si2 0.222002 0.741999 0.991247
Si Si3 0.941515 0.028381 0.298279
Si Si4 0.267489 0.195574 0.636461
Si Si5 0.658419 0.727002 0.832987
Si Si6 0.351216 0.298839 0.406566
O O1 0.700638 0.524347 0.095386
O O2 0.581705 0.916719 0.290753
O O3 0.531653 0.950215 0.100646
O O4 0.170742 0.023470 0.293011
O O5 0.509098 0.672797 0.918905
O O6 0.000000 0.000000 0.000000
O O7 0.081891 0.858305 0.143147
O O8 0.598907 0.294937 0.381287
O O9 0.931356 0.856225 0.346904
O O10 0.999317 0.529046 0.762783
O O11 0.610875 0.811196 0.494627
O O12 0.634705 0.681848 0.715290
O O13 0.000000 0.500000 0.500000
#
# Coordination Sequence:
#
# PCOD9007423 Si02
#       6
#     2   2   2   2   2   2
#     4  10  22  39  60  93 132 155 209 250 301 390
#     4  12  20  37  64  92 131 165 195 252 319 364
#     4  10  21  39  61  92 127 160 211 250 299 387
#     4  10  21  43  66  85 124 166 207 264 306 350
#     4  10  22  40  63  94 123 165 202 249 321 359
#     4   8  21  41  57  95 123 154 217 242 301 386
#
# _framework density 27.685687000000001
#
# number of rings (size 3 to 8) (size 9 to 14) (size 15 to 20)
#    2.000    0.000    3.333    0.500    0.000    5.333 
#    0.000    1.667    0.000    0.000    0.000    0.000 
#    0.000    0.000    0.000    0.000    0.000    0.000 
#
# Total GULP energy -66853.683586 kJ/mol
# GULP energy per Si atom -5571.140299 kJ/mol
# Density = 2.762267 g / cm^3
# Si number density = 27.685687 Si / 1000 Ang^3
#
#
#
# Elastic Constant Matrix: (Units=GPa)
#
#
# Indices 1 2 3 4 5 6 
#
# 1 125.4504 48.7434 64.2253 14.3275 -1.1133 -12.7197
# 2 48.7434 172.3628 49.4900 27.0042 -14.1483 -20.4896
# 3 64.2253 49.4900 162.0213 -2.2158 -11.4168 6.7687
# 4 14.3275 27.0042 -2.2158 51.4498 3.5118 -16.3054
# 5 -1.1133 -14.1483 -11.4168 3.5118 57.3118 11.9680
# 6 -12.7197 -20.4896 6.7687 -16.3054 11.9680 54.8402
#
#
#
# Elastic Compliance Matrix: (Units=1/GPa)
#
#
# Indices 1 2 3 4 5 6 
#
# 1 0.011100 -0.001527 -0.004150 -0.001636 -0.001374 0.002330
# 2 -0.001527 0.007507 -0.001692 -0.003242 0.001395 0.001391
# 3 -0.004150 -0.001692 0.008579 0.001484 0.001657 -0.002574
# 4 -0.001636 -0.003242 0.001484 0.023783 -0.003248 0.006006
# 5 -0.001374 0.001395 0.001657 -0.003248 0.019380 -0.005197
# 6 0.002330 0.001391 -0.002574 0.006006 -0.005197 0.022533
#
#
# Mechanical properties :
#
#
# Convention : Reuss Voigt Hill
#
# Bulk Modulus (GPa) = 80.33676 87.19466 83.76571
# Shear Modulus (GPa) = 44.73490 52.54541 48.64015
#
# Velocity S-wave (km/s) = 4.02408 4.36125 4.19605
# Velocity P-wave (km/s) = 7.11838 7.54477 7.33467
#
# Compressibility (1/GPa) = 0.01244760
#
# Stress axis : x y z
#
# Youngs Moduli (GPa) = 90.08819 133.20622 116.56883
#
# Poissons Ratio (x) = 0.20340 0.48379
# Poissons Ratio (y) = 0.13756 0.19723
# Poissons Ratio (z) = 0.37389 0.22538
#
# Static dielectric constant tensor:
#      x y z
#    x 2.155840 0.073450 0.109100 
#    y 0.073450 2.330720 0.302520 
#    z 0.109100 0.302520 2.309520 
# 
# From -- ./inp_files/554446.got.cif
#   From: 2010.05.17/outbox.cif.g08.bks.cpg/sg2_278_cif.got.tgz:554446.got - 2010.06.03 11:33:40.
