data_PCOD9007193
_publ_section_title
;
Structure prediction by ZEFSAII (Michael W. Deem and Ramdas Pophale) SiO2 
 PCOD9007193
Probable space group: P -1
;
_chemical_formula_sum "Si O2"
_cell_formula_units_Z 16
_cell_length_a 23.135503
_cell_length_b 5.872494
_cell_length_c 5.319232
_cell_angle_alpha 86.813738
_cell_angle_beta 61.031114
_cell_angle_gamma 86.007864
_cell_volume 630.534727
_symmetry_space_group_name_H-M "P -1"
_symmetry_group_IT_number 2
_symmetry_cell_setting 'triclinic'
loop_
_space_group_symop_operation_xyz
x,y,z
-x,-y,-z
loop_
_atom_site_type_symbol
_atom_site_label
_atom_site_fract_x
_atom_site_fract_y
_atom_site_fract_z
Si Si1 0.685910 0.657549 0.692868
Si Si2 0.405596 0.123186 0.785555
Si Si3 0.165052 0.067161 0.347010
Si Si4 0.203034 0.669659 0.674997
Si Si5 0.288215 0.971498 0.790140
Si Si6 0.077585 0.755419 0.229040
Si Si7 0.953334 0.636041 0.286455
Si Si8 0.552620 0.683344 0.815254
O O1 0.755663 0.530130 0.536355
O O2 0.692095 0.894904 0.512799
O O3 0.625055 0.549996 0.680397
O O4 0.653421 0.688128 0.032555
O O5 0.356718 0.930324 0.804800
O O6 0.451031 0.201061 0.457789
O O7 0.442393 0.132442 0.976542
O O8 0.117447 0.233580 0.604699
O O9 0.192587 0.871411 0.485936
O O10 0.115213 0.962375 0.256078
O O11 0.230313 0.124365 0.048880
O O12 0.249535 0.752974 0.797931
O O13 0.130377 0.635311 0.933952
O O14 0.063804 0.560550 0.469687
O O15 0.006157 0.817523 0.259640
O O16 0.000000 0.500000 0.000000
O O17 0.500000 0.500000 0.000000
#
# Coordination Sequence:
#
# PCOD9007193 Si02
#       8
#     2   2   2   2   2   2   2   2
#     4   9  21  37  60  91 124 162 207 258 312 374
#     4   9  19  34  62  90 127 165 213 260 310 368
#     4  11  24  38  61  87 119 160 205 258 320 381
#     4  11  23  39  61  92 122 159 205 261 319 380
#     4  10  21  39  60  89 125 166 205 260 316 376
#     4  10  24  41  60  83 118 157 204 256 318 384
#     4  11  24  42  61  84 116 158 206 261 316 379
#     4   9  18  35  63  95 126 171 215 256 310 373
#
# _framework density 25.375285999999999
#
# number of rings (size 3 to 8) (size 9 to 14) (size 15 to 20)
#    0.750    1.250    0.000    3.000    0.000   14.000 
#    0.000    0.000    0.000    3.750    0.000    0.000 
#    0.000    0.000    0.000    0.000    0.000    0.000 
#
# Total GULP energy -89253.260627 kJ/mol
# GULP energy per Si atom -5578.328789 kJ/mol
# Density = 2.531753 g / cm^3
# Si number density = 25.375286 Si / 1000 Ang^3
#
#
#
# Elastic Constant Matrix: (Units=GPa)
#
#
# Indices 1 2 3 4 5 6 
#
# 1 89.8806 13.9246 34.8008 -10.4827 -14.9313 19.9884
# 2 13.9246 24.0887 19.7112 13.5695 -2.4593 2.5163
# 3 34.8008 19.7112 178.2987 3.5578 -16.3824 5.1918
# 4 -10.4827 13.5695 3.5578 34.2584 6.5753 -5.2627
# 5 -14.9313 -2.4593 -16.3824 6.5753 46.7943 -3.0717
# 6 19.9884 2.5163 5.1918 -5.2627 -3.0717 39.2280
#
#
#
# Elastic Compliance Matrix: (Units=1/GPa)
#
#
# Indices 1 2 3 4 5 6 
#
# 1 0.016368 -0.012082 -0.001633 0.008577 0.002416 -0.006009
# 2 -0.012082 0.070707 -0.004521 -0.032031 0.002656 -0.001870
# 3 -0.001633 -0.004521 0.006545 0.000388 0.001506 0.000426
# 4 0.008577 -0.032031 0.000388 0.045953 -0.005045 0.003403
# 5 0.002416 0.002656 0.001506 -0.005045 0.023488 -0.000439
# 6 -0.006009 -0.001870 0.000426 0.003403 -0.000439 0.029040
#
#
# Mechanical properties :
#
#
# Convention : Reuss Voigt Hill
#
# Bulk Modulus (GPa) = 17.49849 47.68236 32.59043
# Shear Modulus (GPa) = 20.19195 38.97823 29.58509
#
# Velocity S-wave (km/s) = 2.82393 3.92353 3.41823
# Velocity P-wave (km/s) = 4.18851 6.27352 5.33389
#
# Compressibility (1/GPa) = 0.05714778
#
# Stress axis : x y z
#
# Youngs Moduli (GPa) = 61.09401 14.14285 152.77920
#
# Poissons Ratio (x) = 0.17088 0.24952
# Poissons Ratio (y) = 0.73816 0.69069
# Poissons Ratio (z) = 0.09978 0.06394
#
# Static dielectric constant tensor:
#      x y z
#    x 2.098440 0.053590 0.079470 
#    y 0.053590 1.995520 -0.012210 
#    z 0.079470 -0.012210 1.812450 
# 
# From -- ./inp_files/121516.got.cif
#   From: 2010.05.17/outbox.cif.g08.bks.cpg/sg2_61_cif.got.tgz:121516.got - 2010.06.03 11:33:40.
