data_PCOD9007071
_publ_section_title
;
Structure prediction by ZEFSAII (Michael W. Deem and Ramdas Pophale) SiO2 
 PCOD9007071
Probable space group: P -1
;
_chemical_formula_sum "Si O2"
_cell_formula_units_Z 15
_cell_length_a 13.290971
_cell_length_b 8.174948
_cell_length_c 8.515756
_cell_angle_alpha 129.944855
_cell_angle_beta 99.952162
_cell_angle_gamma 65.222797
_cell_volume 637.876249
_symmetry_space_group_name_H-M "P -1"
_symmetry_group_IT_number 2
_symmetry_cell_setting 'triclinic'
loop_
_space_group_symop_operation_xyz
x,y,z
-x,-y,-z
loop_
_atom_site_type_symbol
_atom_site_label
_atom_site_fract_x
_atom_site_fract_y
_atom_site_fract_z
Si Si1 0.674431 0.358105 0.946345
Si Si2 0.434867 0.339026 0.339508
Si Si3 0.062115 0.652128 0.269046
Si Si4 0.495186 0.173772 0.894512
Si Si5 0.883134 0.995776 0.917094
Si Si6 0.000000 0.500000 0.500000
Si Si7 0.746561 0.230835 0.540860
Si Si8 0.163244 0.179900 0.883095
O O1 0.600717 0.237819 0.933626
O O2 0.683735 0.284117 0.720960
O O3 0.798859 0.240597 0.975099
O O4 0.606928 0.636091 0.113994
O O5 0.500000 0.500000 0.500000
O O6 0.307501 0.533536 0.432890
O O7 0.469892 0.099436 0.297120
O O8 0.459930 0.242646 0.108744
O O9 0.124459 0.816668 0.427027
O O10 0.025232 0.560389 0.360353
O O11 0.959748 0.749614 0.181559
O O12 0.161741 0.429257 0.075819
O O13 0.913824 0.777156 0.674512
O O14 0.828477 0.951854 0.033174
O O15 0.000000 0.000000 0.000000
O O16 0.745703 0.003043 0.317004
#
# Coordination Sequence:
#
# PCOD9007071 Si02
#       8
#     2   2   2   2   2   1   2   2
#     4  10  22  42  69  95 135 177 220 269 344 388
#     4  10  23  41  69  97 126 166 223 273 338 397
#     4  10  21  39  59  91 130 177 213 269 324 385
#     4   9  22  46  66  94 133 173 215 284 327 400
#     4  11  22  38  62  94 130 173 217 273 324 393
#     4  10  22  38  60  90 134 176 226 262 324 390
#     4  11  22  38  63  93 126 173 210 267 331 391
#     4  10  22  36  59  90 129 166 218 263 318 388
#
# _framework density 23.515533000000001
#
# number of rings (size 3 to 8) (size 9 to 14) (size 15 to 20)
#    0.000    1.867    0.000    2.800    5.600    2.133 
#    0.000   10.000    0.000    0.000    0.000    0.000 
#    0.000    0.000    0.000    0.000    0.000    0.000 
#
# Total GULP energy -83565.724457 kJ/mol
# GULP energy per Si atom -5571.048297 kJ/mol
# Density = 2.346201 g / cm^3
# Si number density = 23.515533 Si / 1000 Ang^3
#
#
#
# Elastic Constant Matrix: (Units=GPa)
#
#
# Indices 1 2 3 4 5 6 
#
# 1 40.0152 24.3898 1.4205 10.9578 -0.2172 -18.6977
# 2 24.3898 134.7174 27.2136 23.5435 -0.8095 -13.7978
# 3 1.4205 27.2136 77.5067 24.2827 -9.4169 -2.6060
# 4 10.9578 23.5435 24.2827 30.1605 4.8243 -2.2541
# 5 -0.2172 -0.8095 -9.4169 4.8243 29.5938 0.2906
# 6 -18.6977 -13.7978 -2.6060 -2.2541 0.2906 35.6050
#
#
#
# Elastic Compliance Matrix: (Units=1/GPa)
#
#
# Indices 1 2 3 4 5 6 
#
# 1 0.040796 -0.003863 0.007185 -0.016954 0.005054 0.019338
# 2 -0.003863 0.009383 -0.001721 -0.004510 0.000404 0.001192
# 3 0.007185 -0.001721 0.020686 -0.019223 0.009689 0.003324
# 4 -0.016954 -0.004510 -0.019223 0.060284 -0.016112 -0.008110
# 5 0.005054 0.000404 0.009689 -0.016112 0.039527 0.002177
# 6 0.019338 0.001192 0.003324 -0.008110 0.002177 0.038415
#
#
# Mechanical properties :
#
#
# Convention : Reuss Voigt Hill
#
# Bulk Modulus (GPa) = 13.50167 39.80967 26.65567
# Shear Modulus (GPa) = 21.68436 32.35287 27.01862
#
# Velocity S-wave (km/s) = 3.03995 3.71321 3.39332
# Velocity P-wave (km/s) = 4.25157 5.94557 5.16844
#
# Compressibility (1/GPa) = 0.07406494
#
# Stress axis : x y z
#
# Youngs Moduli (GPa) = 24.51205 106.57662 48.34131
#
# Poissons Ratio (x) = 0.41175 -0.34731
# Poissons Ratio (y) = 0.09470 0.08321
# Poissons Ratio (z) = -0.17611 0.18346
#
# Static dielectric constant tensor:
#      x y z
#    x 1.924550 -0.015870 0.007750 
#    y -0.015870 1.958530 -0.002250 
#    z 0.007750 -0.002250 1.887870 
# 
# From -- ./inp_files/293514.got.cif
#   From: 2010.05.17/outbox.cif.g08.bks.cpg/sg2_147_cif.got.tgz:293514.got - 2010.06.03 11:33:40.
