data_PCOD9007052
_publ_section_title
;
Structure prediction by ZEFSAII (Michael W. Deem and Ramdas Pophale) SiO2 
 PCOD9007052
Probable space group: P -1
;
_chemical_formula_sum "Si O2"
_cell_formula_units_Z 16
_cell_length_a 14.007481
_cell_length_b 13.319901
_cell_length_c 8.336078
_cell_angle_alpha 32.621469
_cell_angle_beta 125.265979
_cell_angle_gamma 119.153453
_cell_volume 684.583183
_symmetry_space_group_name_H-M "P -1"
_symmetry_group_IT_number 2
_symmetry_cell_setting 'triclinic'
loop_
_space_group_symop_operation_xyz
x,y,z
-x,-y,-z
loop_
_atom_site_type_symbol
_atom_site_label
_atom_site_fract_x
_atom_site_fract_y
_atom_site_fract_z
Si Si1 0.714383 0.481819 0.764942
Si Si2 0.161731 0.142143 0.596501
Si Si3 0.137126 0.962153 0.154790
Si Si4 0.513409 0.187127 0.443297
Si Si5 0.360857 0.488381 0.699407
Si Si6 0.347846 0.885580 0.637695
Si Si7 0.103040 0.800620 0.822057
Si Si8 0.115546 0.606122 0.425196
O O1 0.765211 0.674121 0.622576
O O2 0.642536 0.530615 0.469309
O O3 0.650990 0.330157 0.018359
O O4 0.824917 0.359464 0.978024
O O5 0.021356 0.170963 0.417763
O O6 0.179358 0.983048 0.693341
O O7 0.182279 0.078141 0.887237
O O8 0.219368 0.977195 0.369877
O O9 0.149025 0.744867 0.412765
O O10 0.000000 0.000000 0.000000
O O11 0.582297 0.310896 0.472119
O O12 0.602995 0.109376 0.502857
O O13 0.433159 0.014950 0.651221
O O14 0.430918 0.330192 0.072946
O O15 0.227867 0.490851 0.633283
O O16 0.078309 0.731447 0.070626
O O17 0.000000 0.500000 0.500000
#
# Coordination Sequence:
#
# PCOD9007052 Si02
#       8
#     2   2   2   2   2   2   2   2
#     4  11  23  39  66  94 127 165 215 271 324 378
#     4  10  21  39  59  88 134 174 209 258 315 395
#     4  11  23  37  61  96 127 166 211 257 322 386
#     4  10  23  45  68  85 131 167 221 271 310 392
#     4  10  22  45  65  94 125 174 212 264 333 373
#     4  11  24  42  65  99 122 170 219 268 322 378
#     4   9  21  39  57  91 134 174 206 257 325 378
#     4  10  22  36  63  95 128 164 210 263 317 389
#
# _framework density 23.371887000000001
#
# number of rings (size 3 to 8) (size 9 to 14) (size 15 to 20)
#    0.000    1.750    1.250    1.875    7.000    1.000 
#    4.500    0.000    0.000    0.000    0.000    0.000 
#    0.000    0.000    0.000    0.000    0.000    0.000 
#
# Total GULP energy -89449.118951 kJ/mol
# GULP energy per Si atom -5590.569934 kJ/mol
# Density = 2.331869 g / cm^3
# Si number density = 23.371887 Si / 1000 Ang^3
#
#
#
# Elastic Constant Matrix: (Units=GPa)
#
#
# Indices 1 2 3 4 5 6 
#
# 1 52.3886 21.3538 20.0916 2.4379 -2.9116 20.8558
# 2 21.3538 132.4130 45.5783 -24.4474 -19.2972 25.8443
# 3 20.0916 45.5783 70.0593 -6.9510 -2.4490 17.8964
# 4 2.4379 -24.4474 -6.9510 42.5648 10.1070 -6.2626
# 5 -2.9116 -19.2972 -2.4490 10.1070 30.1259 -3.6950
# 6 20.8558 25.8443 17.8964 -6.2626 -3.6950 31.1673
#
#
#
# Elastic Compliance Matrix: (Units=1/GPa)
#
#
# Indices 1 2 3 4 5 6 
#
# 1 0.027844 -0.000685 -0.003726 -0.005481 0.001725 -0.016821
# 2 -0.000685 0.012151 -0.005896 0.004099 0.005276 -0.004783
# 3 -0.003726 -0.005896 0.020259 0.000202 -0.003119 -0.004580
# 4 -0.005481 0.004099 0.000202 0.028569 -0.006849 0.005081
# 5 0.001725 0.005276 -0.003119 -0.006849 0.038720 -0.000524
# 6 -0.016821 -0.004783 -0.004580 0.005081 -0.000524 0.050895
#
#
# Mechanical properties :
#
#
# Convention : Reuss Voigt Hill
#
# Bulk Modulus (GPa) = 25.22721 47.65648 36.44185
# Shear Modulus (GPa) = 23.55544 31.96077 27.75810
#
# Velocity S-wave (km/s) = 3.17812 3.70197 3.45000
# Velocity P-wave (km/s) = 4.92793 6.22154 5.61213
#
# Compressibility (1/GPa) = 0.03963973
#
# Stress axis : x y z
#
# Youngs Moduli (GPa) = 35.91479 82.29565 49.36167
#
# Poissons Ratio (x) = 0.05640 0.18391
# Poissons Ratio (y) = 0.02461 0.29103
# Poissons Ratio (z) = 0.13381 0.48520
#
# Static dielectric constant tensor:
#      x y z
#    x 1.899970 0.055270 -0.006990 
#    y 0.055270 1.987270 -0.027340 
#    z -0.006990 -0.027340 1.896080 
# 
# From -- ./inp_files/215180.got.cif
#   From: 2010.05.17/outbox.cif.g08.bks.cpg/sg2_108_cif.got.tgz:215180.got - 2010.06.03 11:33:40.
