data_PCOD9007985
_publ_section_title
;
Structure prediction by ZEFSAII (Michael W. Deem and Ramdas Pophale) SiO2 
 PCOD9007985
Probable space group: P -1
;
_chemical_formula_sum "Si O2"
_cell_formula_units_Z 14
_cell_length_a 5.038450
_cell_length_b 11.410626
_cell_length_c 20.019114
_cell_angle_alpha 147.096678
_cell_angle_beta 84.733214
_cell_angle_gamma 89.229557
_cell_volume 613.797624
_symmetry_space_group_name_H-M "P -1"
_symmetry_group_IT_number 2
_symmetry_cell_setting 'triclinic'
loop_
_space_group_symop_operation_xyz
x,y,z
-x,-y,-z
loop_
_atom_site_type_symbol
_atom_site_label
_atom_site_fract_x
_atom_site_fract_y
_atom_site_fract_z
Si Si1 0.413404 0.878293 0.878981
Si Si2 0.112117 0.771058 0.318950
Si Si3 0.435246 0.989599 0.616152
Si Si4 0.254734 0.574478 0.362639
Si Si5 0.729604 0.484093 0.930353
Si Si6 0.062155 0.173671 0.223846
Si Si7 0.164026 0.116294 0.813551
O O1 0.508861 0.617498 0.760479
O O2 0.111448 0.904887 0.870787
O O3 0.623247 0.929816 0.841332
O O4 0.500000 0.000000 0.000000
O O5 0.280659 0.967915 0.397955
O O6 0.122172 0.692004 0.356277
O O7 0.285043 0.581856 0.177702
O O8 0.805711 0.847345 0.338055
O O9 0.407462 0.045121 0.722258
O O10 0.372114 0.749759 0.488391
O O11 0.063460 0.432289 0.338862
O O12 0.950485 0.283647 0.855588
O O13 0.500000 0.500000 0.000000
O O14 0.804289 0.724069 0.049141
O O15 0.943898 0.092558 0.255144
#
# Coordination Sequence:
#
# PCOD9007985 Si02
#       7
#     2   2   2   2   2   2   2
#     4  10  24  42  61  94 127 166 206 254 313 373
#     4  11  24  39  67  93 125 166 210 266 308 372
#     4  11  24  42  64  92 126 169 210 261 308 374
#     4  10  26  41  66  92 129 165 213 252 323 368
#     4  10  21  39  63  93 123 164 209 259 316 364
#     4  10  25  40  64  94 125 167 204 264 307 379
#     4  10  23  41  62  93 129 162 214 258 314 372
#
# _framework density 22.808819
#
# number of rings (size 3 to 8) (size 9 to 14) (size 15 to 20)
#    0.857    0.857    1.429    1.286    8.000    0.571 
#    0.000    0.714    0.000    0.000    0.000    0.000 
#    0.000    0.000    0.000    0.000    0.000    0.000 
#
# Total GULP energy -78086.781099 kJ/mol
# GULP energy per Si atom -5577.627221 kJ/mol
# Density = 2.275691 g / cm^3
# Si number density = 22.808819 Si / 1000 Ang^3
#
#
#
# Elastic Constant Matrix: (Units=GPa)
#
#
# Indices 1 2 3 4 5 6 
#
# 1 63.4655 6.1766 5.2210 1.7452 6.3680 1.2771
# 2 6.1766 101.3543 37.2619 16.9917 4.8787 23.1326
# 3 5.2210 37.2619 127.1769 -5.0518 9.2532 -4.0931
# 4 1.7452 16.9917 -5.0518 18.1883 9.3246 7.6252
# 5 6.3680 4.8787 9.2532 9.3246 33.4681 -2.8601
# 6 1.2771 23.1326 -4.0931 7.6252 -2.8601 20.3113
#
#
#
# Elastic Compliance Matrix: (Units=1/GPa)
#
#
# Indices 1 2 3 4 5 6 
#
# 1 0.016169 -0.000676 -0.000209 0.001278 -0.003383 -0.001245
# 2 -0.000676 0.018167 -0.006411 -0.012028 0.001128 -0.017266
# 3 -0.000209 -0.006411 0.010550 0.008507 -0.003825 0.005708
# 4 0.001278 -0.012028 0.008507 0.093174 -0.028827 -0.023706
# 5 -0.003383 0.001128 -0.003825 -0.028827 0.040704 0.014711
# 6 -0.001245 -0.017266 0.005708 -0.023706 0.014711 0.081097
#
#
# Mechanical properties :
#
#
# Convention : Reuss Voigt Hill
#
# Bulk Modulus (GPa) = 33.00861 43.25728 38.13295
# Shear Modulus (GPa) = 17.57157 30.61603 24.09380
#
# Velocity S-wave (km/s) = 2.77859 3.66770 3.25366
# Velocity P-wave (km/s) = 4.97970 6.07802 5.55607
#
# Compressibility (1/GPa) = 0.03029512
#
# Stress axis : x y z
#
# Youngs Moduli (GPa) = 61.84720 55.04467 94.78826
#
# Poissons Ratio (x) = 0.03719 0.01981
# Poissons Ratio (y) = 0.04179 0.60765
# Poissons Ratio (z) = 0.01293 0.35287
#
# Static dielectric constant tensor:
#      x y z
#    x 1.891740 0.010990 0.021240 
#    y 0.010990 1.849700 -0.010000 
#    z 0.021240 -0.010000 1.894260 
# 
# From -- ./inp_files/70354.got.cif
#   From: 2010.05.17/outbox.cif.g08.bks.cpg/sg2_36_cif.got.tgz:70354.got - 2010.06.03 11:33:40.
