data_PCOD9007171
_publ_section_title
;
Structure prediction by ZEFSAII (Michael W. Deem and Ramdas Pophale) SiO2 
 PCOD9007171
Probable space group: P -1
;
_chemical_formula_sum "Si O2"
_cell_formula_units_Z 14
_cell_length_a 5.308018
_cell_length_b 14.979709
_cell_length_c 13.380036
_cell_angle_alpha 136.228941
_cell_angle_beta 76.599078
_cell_angle_gamma 87.828157
_cell_volume 681.816001
_symmetry_space_group_name_H-M "P -1"
_symmetry_group_IT_number 2
_symmetry_cell_setting 'triclinic'
loop_
_space_group_symop_operation_xyz
x,y,z
-x,-y,-z
loop_
_atom_site_type_symbol
_atom_site_label
_atom_site_fract_x
_atom_site_fract_y
_atom_site_fract_z
Si Si1 0.947712 0.217148 0.539729
Si Si2 0.185688 0.728059 0.001367
Si Si3 0.576226 0.833676 0.394509
Si Si4 0.434567 0.127953 0.799008
Si Si5 0.613497 0.903628 0.754501
Si Si6 0.486559 0.449721 0.847734
Si Si7 0.749550 0.112415 0.062596
O O1 0.714699 0.143852 0.506593
O O2 0.781129 0.371244 0.708738
O O3 0.170029 0.159083 0.558078
O O4 0.115151 0.189159 0.398689
O O5 0.333788 0.812630 0.128292
O O6 0.865080 0.767607 0.081222
O O7 0.330350 0.573604 0.892469
O O8 0.209018 0.771897 0.919686
O O9 0.526843 0.902074 0.346076
O O10 0.649453 0.670766 0.233012
O O11 0.439830 0.997377 0.758825
O O12 0.456013 0.828827 0.779751
O O13 0.655660 0.017803 0.916462
O O14 0.500000 0.500000 0.000000
O O15 0.000000 0.000000 0.000000
#
# Coordination Sequence:
#
# PCOD9007171 Si02
#       7
#     2   2   2   2   2   2   2
#     4  10  24  38  58  89 124 165 185 250 292 359
#     4  11  22  35  63  90 118 151 209 240 301 339
#     4  10  22  37  56  90 123 160 195 229 306 344
#     4  11  21  36  60  90 116 162 191 252 288 362
#     4  10  23  40  61  87 123 148 209 245 310 341
#     4  10  21  39  60  88 125 161 195 241 284 365
#     4  10  21  41  64  88 110 161 198 263 290 355
#
# _framework density 20.533397999999998
#
# number of rings (size 3 to 8) (size 9 to 14) (size 15 to 20)
#    0.857    0.857    2.857    1.714    4.000    2.286 
#    0.000    0.714    0.000    1.714    0.000    0.000 
#    0.000    0.000    0.000    0.000    0.000    0.000 
#
# Total GULP energy -78055.014172 kJ/mol
# GULP energy per Si atom -5575.358155 kJ/mol
# Density = 2.048666 g / cm^3
# Si number density = 20.533398 Si / 1000 Ang^3
#
#
#
# Elastic Constant Matrix: (Units=GPa)
#
#
# Indices 1 2 3 4 5 6 
#
# 1 72.5694 24.1127 23.3792 -5.3072 -3.9595 -18.0336
# 2 24.1127 121.5544 43.1697 -18.6217 -20.2642 -24.5498
# 3 23.3792 43.1697 103.0142 -19.2759 -30.0999 -6.7610
# 4 -5.3072 -18.6217 -19.2759 35.1667 -0.1767 -6.9667
# 5 -3.9595 -20.2642 -30.0999 -0.1767 49.1190 -1.9586
# 6 -18.0336 -24.5498 -6.7610 -6.9667 -1.9586 27.3924
#
#
#
# Elastic Compliance Matrix: (Units=1/GPa)
#
#
# Indices 1 2 3 4 5 6 
#
# 1 0.017925 0.000743 -0.002500 0.004307 0.000753 0.012998
# 2 0.000743 0.014333 -0.001610 0.009995 0.005656 0.015884
# 3 -0.002500 -0.001610 0.015104 0.007729 0.008546 0.003216
# 4 0.004307 0.009995 0.007729 0.043732 0.010383 0.025565
# 5 0.000753 0.005656 0.008546 0.010383 0.028520 0.012354
# 6 0.012998 0.015884 0.003216 0.025565 0.012354 0.067478
#
#
# Mechanical properties :
#
#
# Convention : Reuss Voigt Hill
#
# Bulk Modulus (GPa) = 24.61423 53.16236 38.88829
# Shear Modulus (GPa) = 24.11171 36.10072 30.10621
#
# Velocity S-wave (km/s) = 3.43048 4.19757 3.83326
# Velocity P-wave (km/s) = 5.26349 7.03134 6.21064
#
# Compressibility (1/GPa) = 0.04062691
#
# Stress axis : x y z
#
# Youngs Moduli (GPa) = 55.78861 69.76848 66.20837
#
# Poissons Ratio (x) = -0.05182 0.16554
# Poissons Ratio (y) = -0.04144 0.10659
# Poissons Ratio (z) = 0.13949 0.11232
#
# Static dielectric constant tensor:
#      x y z
#    x 1.804620 0.010140 0.020200 
#    y 0.010140 1.803110 0.011250 
#    z 0.020200 0.011250 1.833050 
# 
# From -- ./inp_files/66730.got.cif
#   From: 2010.05.17/outbox.cif.g08.bks.cpg/sg2_34_cif.got.tgz:66730.got - 2010.06.03 11:33:40.
