data_PCOD9007954
_publ_section_title
;
Structure prediction by ZEFSAII (Michael W. Deem and Ramdas Pophale) SiO2 
 PCOD9007954
Probable space group: P -1
;
_chemical_formula_sum "Si O2"
_cell_formula_units_Z 16
_cell_length_a 11.807726
_cell_length_b 9.801176
_cell_length_c 8.979898
_cell_angle_alpha 75.225763
_cell_angle_beta 64.369777
_cell_angle_gamma 57.989061
_cell_volume 794.062530
_symmetry_space_group_name_H-M "P -1"
_symmetry_group_IT_number 2
_symmetry_cell_setting 'triclinic'
loop_
_space_group_symop_operation_xyz
x,y,z
-x,-y,-z
loop_
_atom_site_type_symbol
_atom_site_label
_atom_site_fract_x
_atom_site_fract_y
_atom_site_fract_z
Si Si1 0.756576 0.128632 0.621851
Si Si2 0.395415 0.303779 0.289177
Si Si3 0.144624 0.622862 0.438972
Si Si4 0.602362 0.351199 0.379129
Si Si5 0.409101 0.916671 0.017186
Si Si6 0.840842 0.740155 0.965982
Si Si7 0.171775 0.549953 0.797634
Si Si8 0.166016 0.226309 0.382568
O O1 0.841508 0.215699 0.613738
O O2 0.697344 0.206391 0.475079
O O3 0.835508 0.938616 0.607008
O O4 0.631474 0.159872 0.800405
O O5 0.266196 0.487287 0.306000
O O6 0.502900 0.306117 0.349800
O O7 0.495440 0.219109 0.115510
O O8 0.304906 0.208386 0.394336
O O9 0.172657 0.560965 0.613060
O O10 0.983510 0.663917 0.482629
O O11 0.500000 0.500000 0.500000
O O12 0.709866 0.403559 0.224738
O O13 0.500000 0.000000 0.000000
O O14 0.262443 0.070274 0.998059
O O15 0.826141 0.712025 0.805506
O O16 0.010592 0.676179 0.906854
O O17 0.799577 0.624809 0.116396
#
# Coordination Sequence:
#
# PCOD9007954 Si02
#       8
#     2   2   2   2   2   2   2   2
#     4  10  21  42  64  88 123 164 202 248 313 354
#     4  12  23  40  61  94 122 166 200 256 303 362
#     4  10  21  39  63  92 122 157 207 253 303 362
#     4  11  23  40  61  91 127 159 202 252 305 366
#     4  11  23  40  61  91 127 159 202 252 305 366
#     4   9  19  39  65  86 118 164 204 247 301 362
#     4   9  19  39  65  86 118 164 204 247 301 362
#     4  10  21  39  63  92 122 157 207 253 303 362
#
# _framework density 20.149543999999999
#
# number of rings (size 3 to 8) (size 9 to 14) (size 15 to 20)
#    0.000    1.750    5.000    0.750    1.750    2.000 
#    4.500    0.625    0.000    0.000    0.000    0.000 
#    0.000    0.000    0.000    0.000    0.000    0.000 
#
# Total GULP energy -89246.307406 kJ/mol
# GULP energy per Si atom -5577.894213 kJ/mol
# Density = 2.010368 g / cm^3
# Si number density = 20.149544 Si / 1000 Ang^3
#
#
#
# Elastic Constant Matrix: (Units=GPa)
#
#
# Indices 1 2 3 4 5 6 
#
# 1 72.1802 33.4401 52.0085 18.3803 -29.7672 5.6194
# 2 33.4401 83.0909 31.5411 16.3169 -14.2047 16.2711
# 3 52.0085 31.5411 65.3062 0.2079 -27.1698 15.1947
# 4 18.3803 16.3169 0.2079 40.0114 1.3038 -5.4346
# 5 -29.7672 -14.2047 -27.1698 1.3038 26.8605 2.2919
# 6 5.6194 16.2711 15.1947 -5.4346 2.2919 28.3929
#
#
#
# Elastic Compliance Matrix: (Units=1/GPa)
#
#
# Indices 1 2 3 4 5 6 
#
# 1 0.057274 0.000661 -0.030763 -0.027999 0.034352 -0.003383
# 2 0.000661 0.018713 -0.002985 -0.009828 0.009099 -0.011873
# 3 -0.030763 -0.002985 0.054901 0.011513 0.021102 -0.021082
# 4 -0.027999 -0.009828 0.011513 0.044875 -0.028113 0.015871
# 5 0.034352 0.009099 0.021102 -0.028113 0.105998 -0.037244
# 6 -0.003383 -0.011873 -0.021082 0.015871 -0.037244 0.060020
#
#
# Mechanical properties :
#
#
# Convention : Reuss Voigt Hill
#
# Bulk Modulus (GPa) = 15.45271 50.50631 32.97951
# Shear Modulus (GPa) = 11.64079 25.95880 18.79979
#
# Velocity S-wave (km/s) = 2.40619 3.59319 3.05784
# Velocity P-wave (km/s) = 3.92496 6.50652 5.37309
#
# Compressibility (1/GPa) = 0.06471357
#
# Stress axis : x y z
#
# Youngs Moduli (GPa) = 17.46006 53.44001 18.21473
#
# Poissons Ratio (x) = -0.03532 0.56034
# Poissons Ratio (y) = -0.01154 0.05436
# Poissons Ratio (z) = 0.53712 0.15949
#
# Static dielectric constant tensor:
#      x y z
#    x 1.738050 -0.056500 0.011810 
#    y -0.056500 1.559860 0.101300 
#    z 0.011810 0.101300 1.653590 
# 
# From -- ./inp_files/242885.got.cif
#   From: 2010.05.17/outbox.cif.g08.bks.cpg/sg2_122_cif.got.tgz:242885.got - 2010.06.03 11:33:40.
