data_PCOD9007126
_publ_section_title
;
Structure prediction by ZEFSAII (Michael W. Deem and Ramdas Pophale) SiO2 
 PCOD9007126
Probable space group: P -1
;
_chemical_formula_sum "Si O2"
_cell_formula_units_Z 16
_cell_length_a 12.217454
_cell_length_b 9.109846
_cell_length_c 11.838654
_cell_angle_alpha 42.922772
_cell_angle_beta 86.342756
_cell_angle_gamma 68.161692
_cell_volume 786.267527
_symmetry_space_group_name_H-M "P -1"
_symmetry_group_IT_number 2
_symmetry_cell_setting 'triclinic'
loop_
_space_group_symop_operation_xyz
x,y,z
-x,-y,-z
loop_
_atom_site_type_symbol
_atom_site_label
_atom_site_fract_x
_atom_site_fract_y
_atom_site_fract_z
Si Si1 0.959356 0.342881 0.822637
Si Si2 0.143468 0.101148 0.130381
Si Si3 0.913319 0.821993 0.669800
Si Si4 0.776599 0.450435 0.593139
Si Si5 0.171044 0.818557 0.708606
Si Si6 0.665937 0.730578 0.047702
Si Si7 0.164727 0.153707 0.727206
Si Si8 0.595987 0.851924 0.235424
O O1 0.064393 0.193890 0.806311
O O2 0.952784 0.601950 0.703779
O O3 0.826112 0.398606 0.748260
O O4 0.012779 0.201257 0.016179
O O5 0.195365 0.812212 0.307183
O O6 0.134750 0.222954 0.183572
O O7 0.232066 0.173610 0.011525
O O8 0.035053 0.840071 0.688702
O O9 0.814010 0.060590 0.476390
O O10 0.855678 0.576344 0.463361
O O11 0.639498 0.656344 0.445915
O O12 0.165024 0.987279 0.718114
O O13 0.272352 0.534848 0.864606
O O14 0.544813 0.935757 0.876410
O O15 0.626072 0.718296 0.186630
O O16 0.307448 0.038396 0.825868
#
# Coordination Sequence:
#
# PCOD9007126 Si02
#       8
#     2   2   2   2   2   2   2   2
#     4  12  21  39  59  90 122 153 196 238 293 351
#     4  12  23  37  57  91 123 151 189 245 299 345
#     4  11  23  36  58  91 122 155 191 237 302 345
#     4  10  22  37  58  85 120 153 192 234 294 349
#     4  11  22  37  62  87 119 156 195 241 284 351
#     4  11  22  40  63  88 115 151 202 246 287 341
#     4  10  21  39  60  86 112 160 197 237 286 345
#     4   9  21  42  63  85 110 158 205 239 282 345
#
# _framework density 20.349305999999999
#
# number of rings (size 3 to 8) (size 9 to 14) (size 15 to 20)
#    0.750    0.500    3.750    2.625    3.500    1.000 
#    0.000    0.000    0.000    3.000    0.000    0.000 
#    0.000    0.000    0.000    0.000    0.000    0.000 
#
# Total GULP energy -89193.442056 kJ/mol
# GULP energy per Si atom -5574.590129 kJ/mol
# Density = 2.030299 g / cm^3
# Si number density = 20.349306 Si / 1000 Ang^3
#
#
#
# Elastic Constant Matrix: (Units=GPa)
#
#
# Indices 1 2 3 4 5 6 
#
# 1 32.7924 18.2140 26.6121 -8.6845 16.7616 9.8721
# 2 18.2140 108.2782 47.5107 -6.5194 5.7623 18.2066
# 3 26.6121 47.5107 117.4408 -11.7727 27.3958 0.8692
# 4 -8.6845 -6.5194 -11.7727 32.3929 7.0645 -4.5894
# 5 16.7616 5.7623 27.3958 7.0645 36.7667 1.8988
# 6 9.8721 18.2066 0.8692 -4.5894 1.8988 22.7134
#
#
#
# Elastic Compliance Matrix: (Units=1/GPa)
#
#
# Indices 1 2 3 4 5 6 
#
# 1 0.057871 -0.002464 -0.004568 0.016270 -0.024808 -0.017642
# 2 -0.002464 0.013812 -0.006334 -0.002738 0.004758 -0.010709
# 3 -0.004568 -0.006334 0.014940 0.006260 -0.009702 0.008567
# 4 0.016270 -0.002738 0.006260 0.042031 -0.019989 0.005047
# 5 -0.024808 0.004758 -0.009702 -0.019989 0.048873 -0.000785
# 6 -0.017642 -0.010709 0.008567 0.005047 -0.000785 0.061036
#
#
# Mechanical properties :
#
#
# Convention : Reuss Voigt Hill
#
# Bulk Modulus (GPa) = 16.69732 49.24276 32.97004
# Shear Modulus (GPa) = 17.52787 29.45293 23.49040
#
# Velocity S-wave (km/s) = 2.93806 3.80856 3.40127
# Velocity P-wave (km/s) = 4.44216 6.60238 5.62691
#
# Compressibility (1/GPa) = 0.05988984
#
# Stress axis : x y z
#
# Youngs Moduli (GPa) = 17.27980 72.40097 66.93482
#
# Poissons Ratio (x) = 0.17840 0.30577
# Poissons Ratio (y) = 0.04258 0.42398
# Poissons Ratio (z) = 0.07894 0.45861
#
# Static dielectric constant tensor:
#      x y z
#    x 1.721500 0.008780 -0.005840 
#    y 0.008780 1.728730 0.026290 
#    z -0.005840 0.026290 1.810380 
# 
# From -- ./inp_files/375670.got.cif
#   From: 2010.05.17/outbox.cif.g08.bks.cpg/sg2_188_cif.got.tgz:375670.got - 2010.06.03 11:33:40.
