data_PCOD9007509
_publ_section_title
;
Structure prediction by ZEFSAII (Michael W. Deem and Ramdas Pophale) SiO2 
 PCOD9007509
Probable space group: P -1
;
_chemical_formula_sum "Si O2"
_cell_formula_units_Z 16
_cell_length_a 9.510639
_cell_length_b 13.093449
_cell_length_c 5.590425
_cell_angle_alpha 80.687468
_cell_angle_beta 84.838484
_cell_angle_gamma 116.383185
_cell_volume 605.024435
_symmetry_space_group_name_H-M "P -1"
_symmetry_group_IT_number 2
_symmetry_cell_setting 'triclinic'
loop_
_space_group_symop_operation_xyz
x,y,z
-x,-y,-z
loop_
_atom_site_type_symbol
_atom_site_label
_atom_site_fract_x
_atom_site_fract_y
_atom_site_fract_z
Si Si1 0.416085 0.864252 0.501006
Si Si2 0.811764 0.188216 0.842358
Si Si3 0.464081 0.361529 0.815370
Si Si4 0.113691 0.645126 0.839520
Si Si5 0.083904 0.267065 0.382192
Si Si6 0.688917 0.809190 0.448851
Si Si7 0.345006 0.546931 0.756238
Si Si8 0.086122 0.953096 0.827300
O O1 0.355743 0.846199 0.244578
O O2 0.249678 0.773056 0.679501
O O3 0.535727 0.814232 0.568760
O O4 0.500000 0.000000 0.500000
O O5 0.958934 0.206780 0.639401
O O6 0.877436 0.316560 0.902456
O O7 0.788134 0.076918 0.044861
O O8 0.351652 0.227018 0.810054
O O9 0.352260 0.425162 0.822195
O O10 0.577260 0.408100 0.539707
O O11 0.561534 0.388390 0.036472
O O12 0.180915 0.556602 0.793330
O O13 0.951902 0.629604 0.743709
O O14 0.255345 0.282479 0.424472
O O15 0.029831 0.171067 0.219238
O O16 0.826511 0.940991 0.409564
O O17 0.000000 0.000000 0.000000
#
# Coordination Sequence:
#
# PCOD9007509 Si02
#       8
#     2   2   2   2   2   2   2   2
#     4  11  23  35  55  90 122 154 206 272 308 373
#     4  10  21  40  54  81 122 166 210 241 323 383
#     4  10  23  40  68 101 127 162 211 279 321 388
#     4  10  21  39  62  83 118 172 204 252 326 389
#     4  10  23  39  57  88 126 169 209 252 319 386
#     4  12  22  39  61  94 125 159 218 267 315 374
#     4  10  21  44  67  95 131 165 211 262 347 378
#     4  11  23  37  59  84 121 179 205 255 313 385
#
# _framework density 26.445212000000001
#
# number of rings (size 3 to 8) (size 9 to 14) (size 15 to 20)
#    0.000    1.500    2.500    3.375    3.500    4.000 
#    0.000    0.625    0.000    0.750    0.000    0.000 
#    0.000    0.000    0.000    0.000    0.000    0.000 
#
# Total GULP energy -89407.117996 kJ/mol
# GULP energy per Si atom -5587.944875 kJ/mol
# Density = 2.638502 g / cm^3
# Si number density = 26.445212 Si / 1000 Ang^3
#
#
#
# Elastic Constant Matrix: (Units=GPa)
#
#
# Indices 1 2 3 4 5 6 
#
# 1 187.8664 32.8469 47.3152 3.7083 17.8238 -44.8456
# 2 32.8469 102.8382 29.3644 3.7546 6.6643 -19.6224
# 3 47.3152 29.3644 79.1765 6.5363 7.6912 -12.3896
# 4 3.7083 3.7546 6.5363 39.0191 -4.6502 0.4259
# 5 17.8238 6.6643 7.6912 -4.6502 40.4611 6.1852
# 6 -44.8456 -19.6224 -12.3896 0.4259 6.1852 47.1271
#
#
#
# Elastic Compliance Matrix: (Units=1/GPa)
#
#
# Indices 1 2 3 4 5 6 
#
# 1 0.008442 0.000057 -0.003357 -0.000851 -0.004373 0.007756
# 2 0.000057 0.011664 -0.003420 -0.000846 -0.002049 0.004288
# 3 -0.003357 -0.003420 0.016181 -0.002211 -0.001261 -0.000179
# 4 -0.000851 -0.000846 -0.002211 0.026713 0.004396 -0.002562
# 5 -0.004373 -0.002049 -0.001261 0.004396 0.029132 -0.009209
# 6 0.007756 0.004288 -0.000179 -0.002562 -0.009209 0.031570
#
#
# Mechanical properties :
#
#
# Convention : Reuss Voigt Hill
#
# Bulk Modulus (GPa) = 43.76995 65.43712 54.60354
# Shear Modulus (GPa) = 34.54051 42.67843 38.60947
#
# Velocity S-wave (km/s) = 3.61794 4.02163 3.82511
# Velocity P-wave (km/s) = 5.83436 6.80902 6.34045
#
# Compressibility (1/GPa) = 0.02284672
#
# Stress axis : x y z
#
# Youngs Moduli (GPa) = 118.46193 85.73162 61.79932
#
# Poissons Ratio (x) = -0.00485 0.20745
# Poissons Ratio (y) = -0.00670 0.21135
# Poissons Ratio (z) = 0.39766 0.29320
#
# Static dielectric constant tensor:
#      x y z
#    x 2.088180 0.052450 0.032550 
#    y 0.052450 2.089590 -0.040340 
#    z 0.032550 -0.040340 2.286480 
# 
# From -- ./inp_files/38788.got.cif
#   From: 2010.05.17/outbox.cif.g08.bks.cpg/sg2_20_cif.got.tgz:38788.got - 2010.06.03 11:33:40.
