data_PCOD9007345
_publ_section_title
;
Structure prediction by ZEFSAII (Michael W. Deem and Ramdas Pophale) SiO2 
 PCOD9007345
Probable space group: P -1
;
_chemical_formula_sum "Si O2"
_cell_formula_units_Z 16
_cell_length_a 8.530518
_cell_length_b 17.221455
_cell_length_c 11.505730
_cell_angle_alpha 75.552825
_cell_angle_beta 39.435349
_cell_angle_gamma 101.417310
_cell_volume 803.145051
_symmetry_space_group_name_H-M "P -1"
_symmetry_group_IT_number 2
_symmetry_cell_setting 'triclinic'
loop_
_space_group_symop_operation_xyz
x,y,z
-x,-y,-z
loop_
_atom_site_type_symbol
_atom_site_label
_atom_site_fract_x
_atom_site_fract_y
_atom_site_fract_z
Si Si1 0.642691 0.068341 0.009865
Si Si2 0.722559 0.878234 0.405580
Si Si3 0.615611 0.336440 0.226839
Si Si4 0.692572 0.120151 0.547862
Si Si5 0.690994 0.482559 0.732330
Si Si6 0.881486 0.933253 0.711151
Si Si7 0.362590 0.506024 0.696799
Si Si8 0.212641 0.335373 0.257200
O O1 0.496341 0.127214 0.060385
O O2 0.494998 0.982516 0.227556
O O3 0.018578 0.134446 0.779055
O O4 0.500000 0.000000 0.000000
O O5 0.461660 0.771446 0.660779
O O6 0.547252 0.893830 0.403386
O O7 0.933156 0.980290 0.326786
O O8 0.567918 0.387164 0.344923
O O9 0.384211 0.317642 0.263750
O O10 0.979865 0.420691 0.947084
O O11 0.995350 0.131158 0.325056
O O12 0.861593 0.227642 0.477398
O O13 0.503481 0.482654 0.731041
O O14 0.805503 0.578694 0.714246
O O15 0.000000 0.500000 0.500000
O O16 0.435678 0.382686 0.996640
O O17 0.000000 0.000000 0.500000
O O18 0.500000 0.500000 0.500000
#
# Coordination Sequence:
#
# PCOD9007345 Si02
#       8
#     2   2   2   2   2   2   2   2
#     4   9  19  37  58  80 115 154 194 238 290 354
#     4  11  21  37  59  88 119 154 196 247 298 350
#     4  10  21  39  62  85 120 159 198 242 304 360
#     4  11  21  37  59  88 118 155 195 249 297 350
#     4  10  21  39  61  89 119 153 199 250 299 358
#     4   9  19  37  58  80 115 154 193 237 289 354
#     4  10  21  39  61  89 118 154 199 249 299 359
#     4  10  21  39  62  85 120 161 196 243 304 359
#
# _framework density 19.921681
#
# number of rings (size 3 to 8) (size 9 to 14) (size 15 to 20)
#    0.000    2.000    0.000    4.500    0.000    3.000 
#   15.750    0.000    0.000    0.000    0.000    0.000 
#    0.000    0.000    0.000    0.000    0.000    0.000 
#
# Total GULP energy -89208.747252 kJ/mol
# GULP energy per Si atom -5575.546703 kJ/mol
# Density = 1.987634 g / cm^3
# Si number density = 19.921681 Si / 1000 Ang^3
#
#
#
# Elastic Constant Matrix: (Units=GPa)
#
#
# Indices 1 2 3 4 5 6 
#
# 1 132.6129 34.1471 27.4061 5.2437 -16.7586 -5.2304
# 2 34.1471 49.8909 19.0005 7.3224 -0.0719 3.1495
# 3 27.4061 19.0005 44.8572 6.7286 -1.6633 6.1799
# 4 5.2437 7.3224 6.7286 36.4601 -2.5717 -3.9474
# 5 -16.7586 -0.0719 -1.6633 -2.5717 27.7337 5.4972
# 6 -5.2304 3.1495 6.1799 -3.9474 5.4972 24.5207
#
#
#
# Elastic Compliance Matrix: (Units=1/GPa)
#
#
# Indices 1 2 3 4 5 6 
#
# 1 0.010828 -0.006090 -0.004436 0.001228 0.005757 0.003117
# 2 -0.006090 0.027694 -0.007173 -0.003939 -0.003845 -0.002821
# 3 -0.004436 -0.007173 0.029846 -0.004306 0.000340 -0.008316
# 4 0.001228 -0.003939 -0.004306 0.029646 0.001998 0.006178
# 5 0.005757 -0.003845 0.000340 0.001998 0.041173 -0.007273
# 6 0.003117 -0.002821 -0.008316 0.006178 -0.007273 0.046530
#
#
# Mechanical properties :
#
#
# Convention : Reuss Voigt Hill
#
# Bulk Modulus (GPa) = 30.33086 43.16319 36.74702
# Shear Modulus (GPa) = 21.54205 27.53005 24.53605
#
# Velocity S-wave (km/s) = 3.29194 3.72144 3.51326
# Velocity P-wave (km/s) = 5.45043 6.33869 5.91127
#
# Compressibility (1/GPa) = 0.03296972
#
# Stress axis : x y z
#
# Youngs Moduli (GPa) = 92.35731 36.10833 33.50589
#
# Poissons Ratio (x) = 0.21990 0.14862
# Poissons Ratio (y) = 0.56247 0.24034
# Poissons Ratio (z) = 0.40967 0.25901
#
# Static dielectric constant tensor:
#      x y z
#    x 1.662670 -0.016330 0.012510 
#    y -0.016330 1.746990 0.067600 
#    z 0.012510 0.067600 1.705450 
# 
# From -- ./inp_files/402054.got.cif
#   From: 2010.05.17/outbox.cif.g08.bks.cpg/sg2_202_cif.got.tgz:402054.got - 2010.06.03 11:33:40.
