data_PCOD9007770
_publ_section_title
;
Structure prediction by ZEFSAII (Michael W. Deem and Ramdas Pophale) SiO2 
 PCOD9007770
Probable space group: P -1
;
_chemical_formula_sum "Si O2"
_cell_formula_units_Z 16
_cell_length_a 12.097232
_cell_length_b 19.011203
_cell_length_c 9.923329
_cell_angle_alpha 26.804316
_cell_angle_beta 126.123393
_cell_angle_gamma 126.872400
_cell_volume 814.025014
_symmetry_space_group_name_H-M "P -1"
_symmetry_group_IT_number 2
_symmetry_cell_setting 'triclinic'
loop_
_space_group_symop_operation_xyz
x,y,z
-x,-y,-z
loop_
_atom_site_type_symbol
_atom_site_label
_atom_site_fract_x
_atom_site_fract_y
_atom_site_fract_z
Si Si1 0.611929 0.921222 0.355111
Si Si2 0.916477 0.933554 0.187731
Si Si3 0.118568 0.591367 0.132820
Si Si4 0.896649 0.043133 0.466706
Si Si5 0.305516 0.871650 0.196694
Si Si6 0.352789 0.409929 0.105969
Si Si7 0.828527 0.553519 0.846711
Si Si8 0.833635 0.470493 0.433864
O O1 0.454076 0.889129 0.348658
O O2 0.629349 0.766831 0.548745
O O3 0.737700 0.951851 0.497825
O O4 0.648172 0.062102 0.032629
O O5 0.868138 0.739428 0.504048
O O6 0.029984 0.987927 0.291624
O O7 0.790762 0.023960 0.976967
O O8 0.000000 0.000000 0.000000
O O9 0.197606 0.561450 0.104269
O O10 0.188141 0.529223 0.420668
O O11 0.110059 0.770868 0.858703
O O12 0.958941 0.519977 0.089215
O O13 0.000000 0.000000 0.500000
O O14 0.227015 0.693259 0.410341
O O15 0.299691 0.473259 0.096822
O O16 0.500000 0.500000 0.000000
O O17 0.236040 0.407333 0.910369
O O18 0.000000 0.500000 0.500000
#
# Coordination Sequence:
#
# PCOD9007770 Si02
#       8
#     2   2   2   2   2   2   2   2
#     4  11  22  41  68  89 132 172 215 273 323 388
#     4  11  24  39  66  97 128 166 222 274 327 392
#     4  10  21  39  62  96 126 167 212 269 330 382
#     4  11  20  40  67  96 125 170 226 266 320 387
#     4  11  23  41  66  95 126 172 221 266 332 386
#     4  12  24  42  64  97 133 173 218 266 332 393
#     4  10  22  42  62  90 137 172 204 271 344 381
#     4  12  24  37  67 101 127 162 234 276 308 393
#
# _framework density 19.655415000000001
#
# number of rings (size 3 to 8) (size 9 to 14) (size 15 to 20)
#    0.000    1.000    6.250    0.750    3.500    1.000 
#    0.000    1.250    0.000    0.000    0.000    0.000 
#    0.000    0.000    0.000    0.000    0.000    0.000 
#
# Total GULP energy -89193.861627 kJ/mol
# GULP energy per Si atom -5574.616352 kJ/mol
# Density = 1.961068 g / cm^3
# Si number density = 19.655415 Si / 1000 Ang^3
#
#
#
# Elastic Constant Matrix: (Units=GPa)
#
#
# Indices 1 2 3 4 5 6 
#
# 1 126.1728 57.0831 31.5487 20.2604 2.5326 2.5891
# 2 57.0831 92.6453 22.4516 12.5580 0.5172 -2.0533
# 3 31.5487 22.4516 61.5248 10.4314 1.4179 -3.2897
# 4 20.2604 12.5580 10.4314 30.4099 -0.0120 -3.8820
# 5 2.5326 0.5172 1.4179 -0.0120 32.3395 6.2469
# 6 2.5891 -2.0533 -3.2897 -3.8820 6.2469 41.0480
#
#
#
# Elastic Compliance Matrix: (Units=1/GPa)
#
#
# Indices 1 2 3 4 5 6 
#
# 1 0.012382 -0.006206 -0.003363 -0.004757 -0.000386 -0.001752
# 2 -0.006206 0.015339 -0.002144 -0.001358 0.000173 0.000832
# 3 -0.003363 -0.002144 0.019427 -0.003350 -0.000840 0.001473
# 4 -0.004757 -0.001358 -0.003350 0.038223 -0.000140 0.003600
# 5 -0.000386 0.000173 -0.000840 -0.000140 0.031934 -0.004907
# 6 -0.001752 0.000832 0.001473 0.003600 -0.004907 0.025719
#
#
# Mechanical properties :
#
#
# Convention : Reuss Voigt Hill
#
# Bulk Modulus (GPa) = 42.15685 55.83441 48.99563
# Shear Modulus (GPa) = 28.67695 32.04345 30.36020
#
# Velocity S-wave (km/s) = 3.82381 4.04203 3.93443
# Velocity P-wave (km/s) = 6.40233 7.08889 6.75434
#
# Compressibility (1/GPa) = 0.02372094
#
# Stress axis : x y z
#
# Youngs Moduli (GPa) = 80.76460 65.19406 51.47577
#
# Poissons Ratio (x) = 0.40459 0.17310
# Poissons Ratio (y) = 0.50122 0.11039
# Poissons Ratio (z) = 0.27159 0.13981
#
# Static dielectric constant tensor:
#      x y z
#    x 1.702160 0.027570 -0.016220 
#    y 0.027570 1.700740 -0.008300 
#    z -0.016220 -0.008300 1.769250 
# 
# From -- ./inp_files/277262.got.cif
#   From: 2010.05.17/outbox.cif.g08.bks.cpg/sg2_139_cif.got.tgz:277262.got - 2010.06.03 11:33:40.
