data_PCOD9007588
_publ_section_title
;
Structure prediction by ZEFSAII (Michael W. Deem and Ramdas Pophale) SiO2 
 PCOD9007588
Probable space group: P -1
;
_chemical_formula_sum "Si O2"
_cell_formula_units_Z 14
_cell_length_a 9.576826
_cell_length_b 9.672597
_cell_length_c 11.398611
_cell_angle_alpha 60.947333
_cell_angle_beta 57.602228
_cell_angle_gamma 48.271996
_cell_volume 651.274995
_symmetry_space_group_name_H-M "P -1"
_symmetry_group_IT_number 2
_symmetry_cell_setting 'triclinic'
loop_
_space_group_symop_operation_xyz
x,y,z
-x,-y,-z
loop_
_atom_site_type_symbol
_atom_site_label
_atom_site_fract_x
_atom_site_fract_y
_atom_site_fract_z
Si Si1 0.575079 0.486671 0.604745
Si Si2 0.243799 0.480376 0.893993
Si Si3 0.271424 0.671189 0.011488
Si Si4 0.842448 0.922842 0.139392
Si Si5 0.175686 0.180964 0.075332
Si Si6 0.790843 0.076151 0.623137
Si Si7 0.448926 0.149255 0.564688
O O1 0.500000 0.500000 0.500000
O O2 0.402067 0.515379 0.754208
O O3 0.743103 0.268262 0.627451
O O4 0.624642 0.642784 0.536809
O O5 0.032633 0.627579 0.870864
O O6 0.208632 0.555057 0.010144
O O7 0.309212 0.264703 0.953228
O O8 0.072571 0.793606 0.131345
O O9 0.500000 0.500000 0.000000
O O10 0.258383 0.852839 0.882780
O O11 0.715109 0.850591 0.282557
O O12 0.838651 0.903310 0.007025
O O13 0.224087 0.044455 0.217528
O O14 0.635842 0.100232 0.582696
O O15 0.000000 0.000000 0.500000
O O16 0.500000 0.000000 0.500000
#
# Coordination Sequence:
#
# PCOD9007588 Si02
#       7
#     2   2   2   2   2   2   2
#     4  10  21  39  62  88 128 176 212 266 337 390
#     4  10  21  39  64  91 129 168 211 282 330 388
#     4  10  23  40  63  98 133 169 216 272 341 407
#     4  10  23  43  67  96 134 178 214 289 335 390
#     4  10  21  39  65  98 124 164 227 274 328 391
#     4  11  25  41  66  98 134 178 226 275 330 413
#     4  11  24  45  68  93 139 179 223 278 343 403
#
# _framework density 21.496293999999999
#
# number of rings (size 3 to 8) (size 9 to 14) (size 15 to 20)
#    0.000    1.714    0.000    4.286    4.000    5.714 
#    0.000    0.714    0.000    0.000    0.000    0.000 
#    0.000    0.000    0.000    0.000    0.000    0.000 
#
# Total GULP energy -77971.045157 kJ/mol
# GULP energy per Si atom -5569.360368 kJ/mol
# Density = 2.144737 g / cm^3
# Si number density = 21.496294 Si / 1000 Ang^3
#
#
#
# Elastic Constant Matrix: (Units=GPa)
#
#
# Indices 1 2 3 4 5 6 
#
# 1 88.5323 58.3155 39.6743 -9.6112 -22.4148 4.9995
# 2 58.3155 156.4397 57.0007 -22.1952 -14.8889 8.5629
# 3 39.6743 57.0007 111.6471 -10.1553 -27.5107 0.0285
# 4 -9.6112 -22.1952 -10.1553 37.3447 2.7711 -10.1865
# 5 -22.4148 -14.8889 -27.5107 2.7711 45.5553 4.0971
# 6 4.9995 8.5629 0.0285 -10.1865 4.0971 48.3372
#
#
#
# Elastic Compliance Matrix: (Units=1/GPa)
#
#
# Indices 1 2 3 4 5 6 
#
# 1 0.017007 -0.004946 -0.002137 0.000078 0.005577 -0.001338
# 2 -0.004946 0.009838 -0.003271 0.003697 -0.001388 -0.000333
# 3 -0.002137 -0.003271 0.012814 0.000709 0.005532 0.000473
# 4 0.000078 0.003697 0.000709 0.030851 -0.000733 0.005900
# 5 0.005577 -0.001388 0.005532 -0.000733 0.027883 -0.002852
# 6 -0.001338 -0.000333 0.000473 0.005900 -0.002852 0.022370
#
#
# Mechanical properties :
#
#
# Convention : Reuss Voigt Hill
#
# Bulk Modulus (GPa) = 52.76770 74.06666 63.41718
# Shear Modulus (GPa) = 33.83224 39.68935 36.76080
#
# Velocity S-wave (km/s) = 3.97150 4.30156 4.13982
# Velocity P-wave (km/s) = 6.75508 7.69426 7.23991
#
# Compressibility (1/GPa) = 0.01895099
#
# Stress axis : x y z
#
# Youngs Moduli (GPa) = 58.80077 101.64250 78.04189
#
# Poissons Ratio (x) = 0.50272 0.16675
# Poissons Ratio (y) = 0.29083 0.25528
# Poissons Ratio (z) = 0.12564 0.33249
#
# Static dielectric constant tensor:
#      x y z
#    x 1.804440 -0.078020 -0.005060 
#    y -0.078020 1.894650 -0.000590 
#    z -0.005060 -0.000590 1.823250 
# 
# From -- ./inp_files/381222.got.cif
#   From: 2010.05.17/outbox.cif.g08.bks.cpg/sg2_191_cif.got.tgz:381222.got - 2010.06.03 11:33:40.
