data_PCOD9007475
_publ_section_title
;
Structure prediction by ZEFSAII (Michael W. Deem and Ramdas Pophale) SiO2 
 PCOD9007475
Probable space group: P -1
;
_chemical_formula_sum "Si O2"
_cell_formula_units_Z 16
_cell_length_a 9.135890
_cell_length_b 18.177475
_cell_length_c 8.190922
_cell_angle_alpha 134.185815
_cell_angle_beta 88.430802
_cell_angle_gamma 121.379876
_cell_volume 696.515596
_symmetry_space_group_name_H-M "P -1"
_symmetry_group_IT_number 2
_symmetry_cell_setting 'triclinic'
loop_
_space_group_symop_operation_xyz
x,y,z
-x,-y,-z
loop_
_atom_site_type_symbol
_atom_site_label
_atom_site_fract_x
_atom_site_fract_y
_atom_site_fract_z
Si Si1 0.455192 0.856854 0.798351
Si Si2 0.904312 0.561163 0.136485
Si Si3 0.170390 0.504722 0.581933
Si Si4 0.602993 0.514093 0.854123
Si Si5 0.692563 0.150325 0.888809
Si Si6 0.901250 0.753637 0.979286
Si Si7 0.390012 0.260166 0.228017
Si Si8 0.697265 0.177018 0.578051
O O1 0.613883 0.850281 0.848507
O O2 0.398658 0.800566 0.527293
O O3 0.285478 0.783638 0.834392
O O4 0.500000 0.000000 0.000000
O O5 0.839420 0.522825 0.266572
O O6 0.078974 0.733411 0.365447
O O7 0.749583 0.499057 0.896758
O O8 0.000000 0.500000 0.000000
O O9 0.138962 0.378082 0.302897
O O10 0.406836 0.648024 0.750157
O O11 0.000000 0.500000 0.500000
O O12 0.749279 0.670812 0.010723
O O13 0.445456 0.383440 0.534543
O O14 0.500000 0.500000 0.000000
O O15 0.722440 0.229405 0.843616
O O16 0.458584 0.994182 0.659582
O O17 0.853148 0.134843 0.837558
O O18 0.814987 0.805988 0.959902
#
# Coordination Sequence:
#
# PCOD9007475 Si02
#       8
#     2   2   2   2   2   2   2   2
#     4  10  22  42  67  92 122 170 223 276 320 377
#     4  12  22  34  60  96 128 159 210 271 320 379
#     4  11  22  37  61  94 130 172 215 263 324 394
#     4  11  22  38  57  93 134 171 203 261 329 397
#     4  10  21  40  69  87 126 172 215 274 319 378
#     4  11  21  40  61  91 129 173 210 257 337 397
#     4  11  23  40  62  94 134 170 213 268 333 401
#     4  10  21  39  61  96 123 160 224 269 312 379
#
# _framework density 22.971489999999999
#
# number of rings (size 3 to 8) (size 9 to 14) (size 15 to 20)
#    0.000    1.250    1.250    7.500    1.750    0.000 
#    2.250    2.500    0.000    9.750    0.000    0.000 
#    0.000    0.000    0.000    0.000    0.000    0.000 
#
# Total GULP energy -89114.960912 kJ/mol
# GULP energy per Si atom -5569.685057 kJ/mol
# Density = 2.291921 g / cm^3
# Si number density = 22.971490 Si / 1000 Ang^3
#
#
#
# Elastic Constant Matrix: (Units=GPa)
#
#
# Indices 1 2 3 4 5 6 
#
# 1 109.8418 24.3258 3.2306 -6.1879 11.8334 -26.7205
# 2 24.3258 146.2226 30.8665 -30.7365 -1.9086 -5.4768
# 3 3.2306 30.8665 27.4372 -3.9903 13.6863 -3.6480
# 4 -6.1879 -30.7365 -3.9903 53.3451 -2.8153 -0.1460
# 5 11.8334 -1.9086 13.6863 -2.8153 22.1986 -9.8826
# 6 -26.7205 -5.4768 -3.6480 -0.1460 -9.8826 43.6103
#
#
#
# Elastic Compliance Matrix: (Units=1/GPa)
#
#
# Indices 1 2 3 4 5 6 
#
# 1 0.011997 -0.003776 0.008160 -0.000656 -0.009420 0.005422
# 2 -0.003776 0.014543 -0.024752 0.007170 0.020359 0.002080
# 3 0.008160 -0.024752 0.095712 -0.009831 -0.069339 -0.005848
# 4 -0.000656 0.007170 -0.009831 0.022646 0.010888 0.002219
# 5 -0.009420 0.020359 -0.069339 0.010888 0.102271 0.014197
# 6 0.005422 0.002080 -0.005848 0.002219 0.014197 0.029249
#
#
# Mechanical properties :
#
#
# Convention : Reuss Voigt Hill
#
# Bulk Modulus (GPa) = 12.26759 44.48306 28.37533
# Shear Modulus (GPa) = 14.52105 38.83604 26.67855
#
# Velocity S-wave (km/s) = 2.51695 4.11617 3.41159
# Velocity P-wave (km/s) = 3.71466 6.48051 5.28184
#
# Compressibility (1/GPa) = 0.08151558
#
# Stress axis : x y z
#
# Youngs Moduli (GPa) = 83.35260 68.76186 10.44798
#
# Poissons Ratio (x) = 0.25966 -0.08526
# Poissons Ratio (y) = 0.31476 0.25861
# Poissons Ratio (z) = -0.68017 1.70202
#
# Static dielectric constant tensor:
#      x y z
#    x 1.848570 0.026650 0.025550 
#    y 0.026650 1.961010 0.046830 
#    z 0.025550 0.046830 2.091130 
# 
# From -- ./inp_files/218631.got.cif
#   From: 2010.05.17/outbox.cif.g08.bks.cpg/sg2_110_cif.got.tgz:218631.got - 2010.06.03 11:33:40.
