data_PCOD9007204
_publ_section_title
;
Structure prediction by ZEFSAII (Michael W. Deem and Ramdas Pophale) SiO2 
 PCOD9007204
Probable space group: P -1
;
_chemical_formula_sum "Si O2"
_cell_formula_units_Z 14
_cell_length_a 6.581532
_cell_length_b 15.000240
_cell_length_c 15.481868
_cell_angle_alpha 153.352965
_cell_angle_beta 91.510362
_cell_angle_gamma 77.789174
_cell_volume 622.134483
_symmetry_space_group_name_H-M "P -1"
_symmetry_group_IT_number 2
_symmetry_cell_setting 'triclinic'
loop_
_space_group_symop_operation_xyz
x,y,z
-x,-y,-z
loop_
_atom_site_type_symbol
_atom_site_label
_atom_site_fract_x
_atom_site_fract_y
_atom_site_fract_z
Si Si1 0.347312 0.754240 0.809703
Si Si2 0.930288 0.953575 0.096431
Si Si3 0.673017 0.270741 0.891085
Si Si4 0.265098 0.363559 0.391621
Si Si5 0.840854 0.420017 0.874525
Si Si6 0.943985 0.471213 0.182596
Si Si7 0.819239 0.845980 0.638293
O O1 0.344764 0.527081 0.582968
O O2 0.605429 0.710039 0.761196
O O3 0.220557 0.933759 0.889368
O O4 0.186058 0.825440 0.951925
O O5 0.949007 0.141993 0.319199
O O6 0.889093 0.771302 0.992226
O O7 0.813813 0.232844 0.770240
O O8 0.708973 0.053955 0.755609
O O9 0.412813 0.398382 0.977389
O O10 0.761878 0.419289 0.079910
O O11 0.306760 0.163227 0.282862
O O12 0.000000 0.500000 0.500000
O O13 0.942406 0.404725 0.767496
O O14 0.000000 0.500000 0.000000
O O15 0.850655 0.629824 0.399798
#
# Coordination Sequence:
#
# PCOD9007204 Si02
#       7
#     2   2   2   2   2   2   2
#     4  10  22  40  61  82 125 165 207 263 295 354
#     4  10  21  41  60  91 120 163 215 248 305 361
#     4   9  21  41  63  91 119 155 201 241 301 372
#     4  11  22  41  60  88 123 166 210 249 303 359
#     4   9  19  42  67  87 121 157 192 247 305 363
#     4  10  21  39  60  90 124 154 197 252 298 363
#     4  11  22  39  60  91 124 156 204 250 300 364
#
# _framework density 22.503171999999999
#
# number of rings (size 3 to 8) (size 9 to 14) (size 15 to 20)
#    0.000    2.000    2.857    0.000    2.000    1.143 
#    7.714    6.429    0.000    0.000    0.000    0.000 
#    0.000    0.000    0.000    0.000    0.000    0.000 
#
# Total GULP energy -78063.671909 kJ/mol
# GULP energy per Si atom -5575.976565 kJ/mol
# Density = 2.245195 g / cm^3
# Si number density = 22.503172 Si / 1000 Ang^3
#
#
#
# Elastic Constant Matrix: (Units=GPa)
#
#
# Indices 1 2 3 4 5 6 
#
# 1 84.6787 35.0328 16.0186 7.0195 -8.0375 10.0583
# 2 35.0328 117.9337 -0.7576 12.5595 -2.3050 18.9141
# 3 16.0186 -0.7576 52.8227 3.9124 17.1573 9.8718
# 4 7.0195 12.5595 3.9124 31.2960 9.3362 -0.2989
# 5 -8.0375 -2.3050 17.1573 9.3362 34.6398 -2.0078
# 6 10.0583 18.9141 9.8718 -0.2989 -2.0078 35.8885
#
#
#
# Elastic Compliance Matrix: (Units=1/GPa)
#
#
# Indices 1 2 3 4 5 6 
#
# 1 0.015973 -0.004320 -0.007276 -0.003302 0.007925 0.000217
# 2 -0.004320 0.011030 0.003162 -0.003548 -0.001201 -0.005569
# 3 -0.007276 0.003162 0.027848 0.001632 -0.016185 -0.008179
# 4 -0.003302 -0.003548 0.001632 0.037449 -0.011788 0.001999
# 5 0.007925 -0.001201 -0.016185 -0.011788 0.042118 0.005122
# 6 0.000217 -0.005569 -0.008179 0.001999 0.005122 0.033291
#
#
# Mechanical properties :
#
#
# Convention : Reuss Voigt Hill
#
# Bulk Modulus (GPa) = 26.32750 39.55809 32.94279
# Shear Modulus (GPa) = 25.35001 34.04095 29.69548
#
# Velocity S-wave (km/s) = 3.35999 3.89359 3.63659
# Velocity P-wave (km/s) = 5.17471 6.15064 5.68366
#
# Compressibility (1/GPa) = 0.03798310
#
# Stress axis : x y z
#
# Youngs Moduli (GPa) = 62.60532 90.65803 35.90951
#
# Poissons Ratio (x) = 0.39164 0.26128
# Poissons Ratio (y) = 0.27045 -0.11354
# Poissons Ratio (z) = 0.45552 -0.28666
#
# Static dielectric constant tensor:
#      x y z
#    x 1.896300 0.033590 -0.014750 
#    y 0.033590 1.893410 -0.032280 
#    z -0.014750 -0.032280 1.868550 
# 
# From -- ./inp_files/484630.got.cif
#   From: 2010.05.17/outbox.cif.g08.bks.cpg/sg2_243_cif.got.tgz:484630.got - 2010.06.03 11:33:40.
