data_PCOD9007682
_publ_section_title
;
Structure prediction by ZEFSAII (Michael W. Deem and Ramdas Pophale) SiO2 
 PCOD9007682
Probable space group: P -1
;
_chemical_formula_sum "Si O2"
_cell_formula_units_Z 15
_cell_length_a 10.438391
_cell_length_b 13.339551
_cell_length_c 11.750904
_cell_angle_alpha 143.244974
_cell_angle_beta 68.842499
_cell_angle_gamma 84.239569
_cell_volume 653.840498
_symmetry_space_group_name_H-M "P -1"
_symmetry_group_IT_number 2
_symmetry_cell_setting 'triclinic'
loop_
_space_group_symop_operation_xyz
x,y,z
-x,-y,-z
loop_
_atom_site_type_symbol
_atom_site_label
_atom_site_fract_x
_atom_site_fract_y
_atom_site_fract_z
Si Si1 0.135948 0.525007 0.035803
Si Si2 0.216640 0.702407 0.979833
Si Si3 0.734601 0.811682 0.028857
Si Si4 0.479955 0.753075 0.673545
Si Si5 0.098521 0.959595 0.047088
Si Si6 0.545685 0.157617 0.983584
Si Si7 0.931572 0.681773 0.478870
Si Si8 0.500000 0.000000 0.500000
O O1 0.137235 0.688605 0.106310
O O2 0.347017 0.267882 0.742523
O O3 0.054307 0.630236 0.282654
O O4 0.000000 0.500000 0.000000
O O5 0.356078 0.450040 0.645896
O O6 0.056481 0.882194 0.100062
O O7 0.338340 0.771070 0.018724
O O8 0.959608 0.574797 0.743353
O O9 0.613834 0.748228 0.972026
O O10 0.656532 0.006156 0.136629
O O11 0.659826 0.916101 0.273106
O O12 0.323858 0.745073 0.752067
O O13 0.540411 0.762684 0.788951
O O14 0.063540 0.177513 0.300172
O O15 0.000000 0.000000 0.000000
O O16 0.711598 0.872692 0.679158
#
# Coordination Sequence:
#
# PCOD9007682 Si02
#       8
#     2   2   2   2   2   2   2   1
#     4  11  22  42  66  88 127 166 205 264 310 365
#     4  10  22  41  64  90 123 164 211 253 310 378
#     4  11  21  39  64  87 127 165 199 261 307 359
#     4  10  21  39  62  92 121 162 213 246 307 384
#     4  10  23  40  62  94 129 163 203 262 316 367
#     4  10  22  40  60  91 124 160 205 257 313 362
#     4   9  23  38  59  94 123 156 218 250 300 379
#     4  10  22  40  58  96 122 156 214 250 302 382
#
# _framework density 22.941375000000001
#
# number of rings (size 3 to 8) (size 9 to 14) (size 15 to 20)
#    0.000    2.133    1.333    2.800    3.733    6.400 
#    0.000    4.000    0.000    0.000    0.000    0.000 
#    0.000    0.000    0.000    0.000    0.000    0.000 
#
# Total GULP energy -83523.493858 kJ/mol
# GULP energy per Si atom -5568.232924 kJ/mol
# Density = 2.288916 g / cm^3
# Si number density = 22.941375 Si / 1000 Ang^3
#
#
#
# Elastic Constant Matrix: (Units=GPa)
#
#
# Indices 1 2 3 4 5 6 
#
# 1 47.8407 3.8008 -1.1325 0.1175 1.8045 -0.9641
# 2 3.8008 121.5946 -9.8248 4.7507 6.5183 7.9438
# 3 -1.1325 -9.8248 104.5382 5.1919 -11.3604 -6.0420
# 4 0.1175 4.7507 5.1919 31.7700 -1.4986 -1.9680
# 5 1.8045 6.5183 -11.3604 -1.4986 18.3704 6.3151
# 6 -0.9641 7.9438 -6.0420 -1.9680 6.3151 28.5080
#
#
#
# Elastic Compliance Matrix: (Units=1/GPa)
#
#
# Indices 1 2 3 4 5 6 
#
# 1 0.021069 -0.000625 -0.000003 -0.000007 -0.002332 0.001402
# 2 -0.000625 0.008589 0.000537 -0.001590 -0.002116 -0.001942
# 3 -0.000003 0.000537 0.010365 -0.001457 0.005879 0.000644
# 4 -0.000007 -0.001590 -0.001457 0.032151 0.001599 0.001999
# 5 -0.002332 -0.002116 0.005879 0.001599 0.063365 -0.012169
# 6 0.001402 -0.001942 0.000644 0.001999 -0.012169 0.038637
#
#
# Mechanical properties :
#
#
# Convention : Reuss Voigt Hill
#
# Bulk Modulus (GPa) = 25.09913 28.85118 26.97516
# Shear Modulus (GPa) = 26.64715 34.47167 30.55941
#
# Velocity S-wave (km/s) = 3.41182 3.88054 3.65371
# Velocity P-wave (km/s) = 5.14636 5.71677 5.43905
#
# Compressibility (1/GPa) = 0.03984202
#
# Stress axis : x y z
#
# Youngs Moduli (GPa) = 47.46416 116.42235 96.48023
#
# Poissons Ratio (x) = 0.07277 0.00024
# Poissons Ratio (y) = 0.02967 -0.05183
# Poissons Ratio (z) = 0.00012 -0.06255
#
# Static dielectric constant tensor:
#      x y z
#    x 1.921520 0.039140 0.020960 
#    y 0.039140 1.912170 0.045250 
#    z 0.020960 0.045250 1.877300 
# 
# From -- ./inp_files/211666.got.cif
#   From: 2010.05.17/outbox.cif.g08.bks.cpg/sg2_106_cif.got.tgz:211666.got - 2010.06.03 11:33:40.
