data_PCOD9007886
_publ_section_title
;
Structure prediction by ZEFSAII (Michael W. Deem and Ramdas Pophale) SiO2 
 PCOD9007886
Probable space group: P -1
;
_chemical_formula_sum "Si O2"
_cell_formula_units_Z 12
_cell_length_a 8.418630
_cell_length_b 19.403845
_cell_length_c 6.568895
_cell_angle_alpha 144.328498
_cell_angle_beta 123.183868
_cell_angle_gamma 61.781590
_cell_volume 522.816461
_symmetry_space_group_name_H-M "P -1"
_symmetry_group_IT_number 2
_symmetry_cell_setting 'triclinic'
loop_
_space_group_symop_operation_xyz
x,y,z
-x,-y,-z
loop_
_atom_site_type_symbol
_atom_site_label
_atom_site_fract_x
_atom_site_fract_y
_atom_site_fract_z
Si Si1 0.370966 0.533317 0.179038
Si Si2 0.635333 0.663563 0.994303
Si Si3 0.481910 0.861417 0.130993
Si Si4 0.162162 0.160060 0.946054
Si Si5 0.067826 0.927820 0.072377
Si Si6 0.986690 0.372250 0.079683
O O1 0.480748 0.600930 0.593509
O O2 0.333620 0.405515 0.941232
O O3 0.500000 0.500000 0.000000
O O4 0.196609 0.611077 0.150554
O O5 0.834031 0.647345 0.984820
O O6 0.563007 0.798625 0.242741
O O7 0.622057 0.817644 0.934685
O O8 0.255189 0.849169 0.944951
O O9 0.500000 0.000000 0.500000
O O10 0.092160 0.142543 0.088172
O O11 0.129628 0.032577 0.516460
O O12 0.017154 0.263335 0.997776
O O13 0.000000 0.000000 0.000000
O O14 0.000000 0.500000 0.500000
#
# Coordination Sequence:
#
# PCOD9007886 Si02
#       6
#     2   2   2   2   2   2
#     4  11  23  39  63  92 120 167 206 249 310 366
#     4  10  23  42  62  91 126 160 208 255 306 368
#     4   9  20  41  61  87 125 156 199 259 305 363
#     4   9  22  41  59  88 123 155 201 254 302 369
#     4  10  21  39  63  90 115 158 203 249 309 363
#     4  11  22  42  62  89 129 162 203 256 309 366
#
# _framework density 22.952604000000001
#
# number of rings (size 3 to 8) (size 9 to 14) (size 15 to 20)
#    0.000    2.000    1.667    0.500    4.667    0.667 
#    9.000    0.000    0.000    0.000    0.000    0.000 
#    0.000    0.000    0.000    0.000    0.000    0.000 
#
# Total GULP energy -66930.221003 kJ/mol
# GULP energy per Si atom -5577.518417 kJ/mol
# Density = 2.290036 g / cm^3
# Si number density = 22.952604 Si / 1000 Ang^3
#
#
#
# Elastic Constant Matrix: (Units=GPa)
#
#
# Indices 1 2 3 4 5 6 
#
# 1 152.2541 106.5950 3.9552 -12.5665 -7.4754 0.2148
# 2 106.5950 208.5458 27.5348 14.3820 -13.8732 -2.6635
# 3 3.9552 27.5348 54.7514 11.2437 -0.5725 -7.9529
# 4 -12.5665 14.3820 11.2437 39.5110 -1.7497 1.4396
# 5 -7.4754 -13.8732 -0.5725 -1.7497 12.8223 -3.0189
# 6 0.2148 -2.6635 -7.9529 1.4396 -3.0189 60.8606
#
#
#
# Elastic Compliance Matrix: (Units=1/GPa)
#
#
# Indices 1 2 3 4 5 6 
#
# 1 0.011517 -0.006402 0.001185 0.005690 0.000552 -0.000273
# 2 -0.006402 0.009150 -0.003155 -0.004238 0.005539 0.000386
# 3 0.001185 -0.003155 0.021084 -0.004650 -0.001795 0.002634
# 4 0.005690 -0.004238 -0.004650 0.030139 0.002305 -0.001412
# 5 0.000552 0.005539 -0.001795 0.002305 0.085525 0.004194
# 6 -0.000273 0.000386 0.002634 -0.001412 0.004194 0.017034
#
#
# Mechanical properties :
#
#
# Convention : Reuss Voigt Hill
#
# Bulk Modulus (GPa) = 39.98883 76.85792 58.42338
# Shear Modulus (GPa) = 25.05920 41.13654 33.09787
#
# Velocity S-wave (km/s) = 3.30779 4.23808 3.80150
# Velocity P-wave (km/s) = 5.66117 7.58331 6.69161
#
# Compressibility (1/GPa) = 0.02500698
#
# Stress axis : x y z
#
# Youngs Moduli (GPa) = 86.83114 109.29384 47.42934
#
# Poissons Ratio (x) = 0.69972 -0.05622
# Poissons Ratio (y) = 0.55591 0.14963
# Poissons Ratio (z) = -0.10292 0.34479
#
# Static dielectric constant tensor:
#      x y z
#    x 1.852120 0.052250 0.084050 
#    y 0.052250 2.149230 -0.016210 
#    z 0.084050 -0.016210 1.903530 
# 
# From -- ./inp_files/26664.got.cif
#   From: 2010.05.17/outbox.cif.g08.bks.cpg/sg2_14_cif.got.tgz:26664.got - 2010.06.03 11:33:40.
