data_PCOD9007065
_publ_section_title
;
Structure prediction by ZEFSAII (Michael W. Deem and Ramdas Pophale) SiO2 
 PCOD9007065
Probable space group: P -1
;
_chemical_formula_sum "Si O2"
_cell_formula_units_Z 16
_cell_length_a 18.768097
_cell_length_b 5.814452
_cell_length_c 9.467030
_cell_angle_alpha 128.565350
_cell_angle_beta 58.560492
_cell_angle_gamma 95.504868
_cell_volume 647.222424
_symmetry_space_group_name_H-M "P -1"
_symmetry_group_IT_number 2
_symmetry_cell_setting 'triclinic'
loop_
_space_group_symop_operation_xyz
x,y,z
-x,-y,-z
loop_
_atom_site_type_symbol
_atom_site_label
_atom_site_fract_x
_atom_site_fract_y
_atom_site_fract_z
Si Si1 0.119401 0.083217 0.991084
Si Si2 0.385459 0.082759 0.782350
Si Si3 0.512108 0.462796 0.140769
Si Si4 0.638525 0.749651 0.813759
Si Si5 0.269573 0.772961 0.913126
Si Si6 0.229461 0.027534 0.355526
Si Si7 0.267052 0.119663 0.646586
Si Si8 0.952073 0.491668 0.194749
O O1 0.186290 0.054546 0.042202
O O2 0.029411 0.381014 0.190411
O O3 0.180016 0.099970 0.802549
O O4 0.088626 0.784755 0.889748
O O5 0.459674 0.245391 0.729953
O O6 0.337570 0.085063 0.684966
O O7 0.353185 0.277881 0.036516
O O8 0.364619 0.781287 0.760482
O O9 0.416643 0.442896 0.275466
O O10 0.500000 0.500000 0.000000
O O11 0.580162 0.117449 0.978044
O O12 0.734281 0.702562 0.636033
O O13 0.254861 0.789967 0.104923
O O14 0.254779 0.471580 0.750132
O O15 0.280167 0.928142 0.414730
O O16 0.126025 0.188614 0.559866
O O17 0.000000 0.500000 0.000000
#
# Coordination Sequence:
#
# PCOD9007065 Si02
#       8
#     2   2   2   2   2   2   2   2
#     4  10  21  40  63  85 122 170 198 252 318 352
#     4   9  18  33  59  86 117 163 194 242 302 354
#     4   9  17  36  62  89 126 159 196 249 306 359
#     4   9  19  36  59  93 122 158 205 248 301 363
#     4  10  21  39  59  91 122 159 212 251 303 357
#     4  11  22  39  64  91 120 163 206 257 299 363
#     4  11  21  41  60  89 129 159 203 254 304 356
#     4  11  21  41  64  87 125 161 205 255 311 356
#
# _framework density 24.721022000000001
#
# number of rings (size 3 to 8) (size 9 to 14) (size 15 to 20)
#    0.000    2.000    2.500    1.500    0.000    0.500 
#   13.500    3.125    0.000    7.500    0.000    0.000 
#    0.000    0.000    0.000    0.000    0.000    0.000 
#
# Total GULP energy -89072.043380 kJ/mol
# GULP energy per Si atom -5567.002711 kJ/mol
# Density = 2.466476 g / cm^3
# Si number density = 24.721022 Si / 1000 Ang^3
#
#
#
# Elastic Constant Matrix: (Units=GPa)
#
#
# Indices 1 2 3 4 5 6 
#
# 1 106.8329 32.7785 29.1026 1.7500 21.1968 -5.5501
# 2 32.7785 89.4798 26.7823 1.8936 7.4539 26.0525
# 3 29.1026 26.7823 86.3236 20.3343 28.3272 -0.8768
# 4 1.7500 1.8936 20.3343 22.3147 -1.1369 -4.6457
# 5 21.1968 7.4539 28.3272 -1.1369 36.1260 -20.0012
# 6 -5.5501 26.0525 -0.8768 -4.6457 -20.0012 61.0315
#
#
#
# Elastic Compliance Matrix: (Units=1/GPa)
#
#
# Indices 1 2 3 4 5 6 
#
# 1 0.011895 -0.003994 -0.001751 0.001133 -0.003872 0.001579
# 2 -0.003994 0.016209 -0.002076 -0.001224 -0.004290 -0.008811
# 3 -0.001751 -0.002076 0.028657 -0.029310 -0.027539 -0.010117
# 4 0.001133 -0.001224 -0.029310 0.076926 0.034629 0.017408
# 5 -0.003872 -0.004290 -0.027539 0.034629 0.067901 0.025972
# 6 0.001579 -0.008811 -0.010117 0.017408 0.025972 0.029981
#
#
# Mechanical properties :
#
#
# Convention : Reuss Voigt Hill
#
# Bulk Modulus (GPa) = 24.32021 51.10701 37.71361
# Shear Modulus (GPa) = 19.16323 36.82597 27.99460
#
# Velocity S-wave (km/s) = 2.78723 3.86380 3.36880
# Velocity P-wave (km/s) = 4.49638 6.37367 5.51548
#
# Compressibility (1/GPa) = 0.04111807
#
# Stress axis : x y z
#
# Youngs Moduli (GPa) = 84.07106 61.69459 34.89554
#
# Poissons Ratio (x) = 0.24643 0.06111
# Poissons Ratio (y) = 0.33580 0.07244
# Poissons Ratio (z) = 0.14722 0.12807
#
# Static dielectric constant tensor:
#      x y z
#    x 2.010840 -0.031240 -0.059310 
#    y -0.031240 2.070730 -0.008320 
#    z -0.059310 -0.008320 1.938520 
# 
# From -- ./inp_files/340610.got.cif
#   From: 2010.05.17/outbox.cif.g08.bks.cpg/sg2_171_cif.got.tgz:340610.got - 2010.06.03 11:33:40.
