data_PCOD9007876
_publ_section_title
;
Structure prediction by ZEFSAII (Michael W. Deem and Ramdas Pophale) SiO2 
 PCOD9007876
Probable space group: P -1
;
_chemical_formula_sum "Si O2"
_cell_formula_units_Z 14
_cell_length_a 7.784965
_cell_length_b 9.096084
_cell_length_c 21.552139
_cell_angle_alpha 150.308911
_cell_angle_beta 43.768609
_cell_angle_gamma 131.150568
_cell_volume 520.818728
_symmetry_space_group_name_H-M "P -1"
_symmetry_group_IT_number 2
_symmetry_cell_setting 'triclinic'
loop_
_space_group_symop_operation_xyz
x,y,z
-x,-y,-z
loop_
_atom_site_type_symbol
_atom_site_label
_atom_site_fract_x
_atom_site_fract_y
_atom_site_fract_z
Si Si1 0.232140 0.689889 0.476367
Si Si2 0.285904 0.541620 0.969489
Si Si3 0.282007 0.108134 0.720090
Si Si4 0.027891 0.181355 0.621744
Si Si5 0.352200 0.697147 0.659066
Si Si6 0.532734 0.159315 0.183944
Si Si7 0.041422 0.486094 0.128836
O O1 0.396030 0.458592 0.315449
O O2 0.000000 0.500000 0.500000
O O3 0.383324 0.877947 0.560410
O O4 0.135883 0.930296 0.544159
O O5 0.428701 0.383260 0.818781
O O6 0.000000 0.500000 0.000000
O O7 0.241900 0.386552 0.991727
O O8 0.407178 0.871642 0.075147
O O9 0.082264 0.255830 0.783736
O O10 0.212300 0.905094 0.724623
O O11 0.176740 0.474174 0.663294
O O12 0.854250 0.345970 0.775587
O O13 0.000000 0.000000 0.500000
O O14 0.500000 0.500000 0.500000
O O15 0.500495 0.855893 0.737308
O O16 0.817117 0.238759 0.114764
#
# Coordination Sequence:
#
# PCOD9007876 Si02
#       7
#     2   2   2   2   2   2   2
#     4  11  21  38  65  94 124 165 210 264 320 371
#     4  10  22  42  65  90 127 169 211 260 315 374
#     4  10  21  39  63  89 126 168 209 254 317 375
#     4  10  22  36  59  93 128 158 209 262 317 371
#     4  11  23  37  62  93 128 165 205 263 315 370
#     4  11  23  40  65  93 128 163 214 264 315 378
#     4   9  22  40  64  91 127 165 215 258 313 379
#
# _framework density 26.880754
#
# number of rings (size 3 to 8) (size 9 to 14) (size 15 to 20)
#    0.000    1.714    1.429    3.429    4.000    4.571 
#    0.000    2.857    3.143    1.714    0.000    0.000 
#    0.000    0.000    0.000    0.000    0.000    0.000 
#
# Total GULP energy -78034.489369 kJ/mol
# GULP energy per Si atom -5573.892098 kJ/mol
# Density = 2.681957 g / cm^3
# Si number density = 26.880754 Si / 1000 Ang^3
#
#
#
# Elastic Constant Matrix: (Units=GPa)
#
#
# Indices 1 2 3 4 5 6 
#
# 1 124.9867 37.9593 51.7211 10.8057 34.1780 -31.9655
# 2 37.9593 140.5710 34.9633 5.5258 19.7091 -8.2368
# 3 51.7211 34.9633 213.4212 2.5299 72.2873 -4.5816
# 4 10.8057 5.5258 2.5299 43.6575 -8.8098 13.5866
# 5 34.1780 19.7091 72.2873 -8.8098 66.4548 0.3372
# 6 -31.9655 -8.2368 -4.5816 13.5866 0.3372 47.4241
#
#
#
# Elastic Compliance Matrix: (Units=1/GPa)
#
#
# Indices 1 2 3 4 5 6 
#
# 1 0.014680 -0.001729 -0.000171 -0.008821 -0.008082 0.012163
# 2 -0.001729 0.007910 -0.000513 -0.000879 -0.001018 0.000418
# 3 -0.000171 -0.000513 0.007759 -0.002474 -0.008535 0.001315
# 4 -0.008821 -0.000879 -0.002474 0.032654 0.011897 -0.015777
# 5 -0.008082 -0.001018 -0.008535 0.011897 0.030419 -0.010073
# 6 0.012163 0.000418 0.001315 -0.015777 -0.010073 0.034075
#
#
# Mechanical properties :
#
#
# Convention : Reuss Voigt Hill
#
# Bulk Modulus (GPa) = 39.17969 80.91849 60.04909
# Shear Modulus (GPa) = 35.50346 55.12961 45.31654
#
# Velocity S-wave (km/s) = 3.63819 4.53359 4.11035
# Velocity P-wave (km/s) = 5.67940 7.58767 6.70180
#
# Compressibility (1/GPa) = 0.02552342
#
# Stress axis : x y z
#
# Youngs Moduli (GPa) = 68.11963 126.42246 128.87467
#
# Poissons Ratio (x) = 0.21858 0.02207
# Poissons Ratio (y) = 0.11778 0.06609
# Poissons Ratio (z) = 0.01167 0.06483
#
# Static dielectric constant tensor:
#      x y z
#    x 2.077080 0.094930 -0.266180 
#    y 0.094930 2.094210 -0.009510 
#    z -0.266180 -0.009510 1.863160 
# 
# From -- ./inp_files/381679.got.cif
#   From: 2010.05.17/outbox.cif.g08.bks.cpg/sg2_191_cif.got.tgz:381679.got - 2010.06.03 11:33:40.
