data_PCOD9007418
_publ_section_title
;
Structure prediction by ZEFSAII (Michael W. Deem and Ramdas Pophale) SiO2 
 PCOD9007418
Probable space group: P -1
;
_chemical_formula_sum "Si O2"
_cell_formula_units_Z 16
_cell_length_a 8.904706
_cell_length_b 8.785707
_cell_length_c 10.491966
_cell_angle_alpha 109.910343
_cell_angle_beta 115.269044
_cell_angle_gamma 75.216950
_cell_volume 692.075687
_symmetry_space_group_name_H-M "P -1"
_symmetry_group_IT_number 2
_symmetry_cell_setting 'triclinic'
loop_
_space_group_symop_operation_xyz
x,y,z
-x,-y,-z
loop_
_atom_site_type_symbol
_atom_site_label
_atom_site_fract_x
_atom_site_fract_y
_atom_site_fract_z
Si Si1 0.726253 0.974550 0.453476
Si Si2 0.392083 0.811253 0.287098
Si Si3 0.137431 0.377807 0.859088
Si Si4 0.436254 0.484932 0.615384
Si Si5 0.721516 0.886860 0.979051
Si Si6 0.869974 0.650811 0.453155
Si Si7 0.920543 0.261307 0.950126
Si Si8 0.641079 0.152191 0.229061
O O1 0.564955 0.879236 0.337570
O O2 0.878751 0.843712 0.519468
O O3 0.670302 0.100501 0.580024
O O4 0.750822 0.067558 0.359391
O O5 0.428753 0.618018 0.274617
O O6 0.239492 0.833939 0.139606
O O7 0.277471 0.256488 0.951425
O O8 0.155700 0.367604 0.712673
O O9 0.971623 0.309706 0.837034
O O10 0.123179 0.566492 0.946604
O O11 0.500000 0.500000 0.500000
O O12 0.288683 0.373396 0.524824
O O13 0.363778 0.654769 0.702537
O O14 0.903086 0.835842 0.966935
O O15 0.703755 0.058223 0.096515
O O16 0.554993 0.874952 0.835185
O O17 0.000000 0.500000 0.500000
#
# Coordination Sequence:
#
# PCOD9007418 Si02
#       8
#     2   2   2   2   2   2   2   2
#     4  10  21  41  60  87 129 164 206 260 319 361
#     4  10  21  39  61  92 122 166 210 259 309 379
#     4   9  19  40  62  92 125 159 213 257 313 371
#     4  11  24  38  62  93 123 164 218 248 313 378
#     4   9  20  36  63  88 120 164 205 249 315 373
#     4  11  25  42  62  94 130 166 210 268 314 367
#     4   9  19  38  65  90 121 165 213 249 321 367
#     4  11  20  39  62  89 125 164 207 259 307 380
#
# _framework density 23.118859
#
# number of rings (size 3 to 8) (size 9 to 14) (size 15 to 20)
#    0.750    1.250    2.500    0.750    1.750    1.000 
#    4.500    4.375    0.000    0.000    0.000    0.000 
#    0.000    0.000    0.000    0.000    0.000    0.000 
#
# Total GULP energy -89247.242829 kJ/mol
# GULP energy per Si atom -5577.952677 kJ/mol
# Density = 2.306624 g / cm^3
# Si number density = 23.118859 Si / 1000 Ang^3
#
#
#
# Elastic Constant Matrix: (Units=GPa)
#
#
# Indices 1 2 3 4 5 6 
#
# 1 63.7939 6.9943 14.2550 0.2644 3.5032 -3.0154
# 2 6.9943 150.9597 27.7836 0.0221 0.0409 -18.1827
# 3 14.2550 27.7836 17.8766 2.3036 -9.9754 1.6120
# 4 0.2644 0.0221 2.3036 39.3451 0.0087 -1.9910
# 5 3.5032 0.0409 -9.9754 0.0087 31.4687 -2.6438
# 6 -3.0154 -18.1827 1.6120 -1.9910 -2.6438 24.6821
#
#
#
# Elastic Compliance Matrix: (Units=1/GPa)
#
#
# Indices 1 2 3 4 5 6 
#
# 1 0.025715 0.007948 -0.042861 0.002860 -0.015590 0.010357
# 2 0.007948 0.014695 -0.037190 0.002787 -0.011584 0.013209
# 3 -0.042861 -0.037190 0.187025 -0.012646 0.060803 -0.039356
# 4 0.002860 0.002787 -0.012646 0.026386 -0.003923 0.004936
# 5 -0.015590 -0.011584 0.060803 -0.003923 0.052034 -0.009152
# 6 0.010357 0.013209 -0.039356 0.004936 -0.009152 0.053500
#
#
# Mechanical properties :
#
#
# Convention : Reuss Voigt Hill
#
# Bulk Modulus (GPa) = 12.01504 36.74399 24.37952
# Shear Modulus (GPa) = 9.41081 31.33900 20.37490
#
# Velocity S-wave (km/s) = 2.01977 3.68579 2.97191
# Velocity P-wave (km/s) = 3.26307 5.83450 4.72700
#
# Compressibility (1/GPa) = 0.08322902
#
# Stress axis : x y z
#
# Youngs Moduli (GPa) = 38.88744 68.05249 5.34688
#
# Poissons Ratio (x) = -0.54089 0.22917
# Poissons Ratio (y) = -0.30908 0.19885
# Poissons Ratio (z) = 1.66674 2.53090
#
# Static dielectric constant tensor:
#      x y z
#    x 1.897960 -0.006750 0.050990 
#    y -0.006750 1.960750 -0.035010 
#    z 0.050990 -0.035010 1.821930 
# 
# From -- ./inp_files/380073.got.cif
#   From: 2010.05.17/outbox.cif.g08.bks.cpg/sg2_191_cif.got.tgz:380073.got - 2010.06.03 11:33:40.
