data_PCOD9007501
_publ_section_title
;
Structure prediction by ZEFSAII (Michael W. Deem and Ramdas Pophale) SiO2 
 PCOD9007501
Probable space group: P -1
;
_chemical_formula_sum "Si O2"
_cell_formula_units_Z 16
_cell_length_a 5.080206
_cell_length_b 16.644611
_cell_length_c 10.383360
_cell_angle_alpha 111.419750
_cell_angle_beta 92.179682
_cell_angle_gamma 115.339787
_cell_volume 718.737368
_symmetry_space_group_name_H-M "P -1"
_symmetry_group_IT_number 2
_symmetry_cell_setting 'triclinic'
loop_
_space_group_symop_operation_xyz
x,y,z
-x,-y,-z
loop_
_atom_site_type_symbol
_atom_site_label
_atom_site_fract_x
_atom_site_fract_y
_atom_site_fract_z
Si Si1 0.717201 0.195811 0.375583
Si Si2 0.908189 0.686712 0.031614
Si Si3 0.980024 0.920384 0.770101
Si Si4 0.264466 0.711073 0.825773
Si Si5 0.637314 0.445079 0.384943
Si Si6 0.140353 0.614955 0.385445
Si Si7 0.861495 0.868286 0.032267
Si Si8 0.722146 0.397273 0.891997
O O1 0.362378 0.146075 0.318204
O O2 0.853644 0.258665 0.284217
O O3 0.824323 0.276991 0.535918
O O4 0.822058 0.113985 0.329901
O O5 0.155113 0.680547 0.123471
O O6 0.986138 0.649219 0.877046
O O7 0.948364 0.794049 0.062494
O O8 0.578774 0.627074 0.050888
O O9 0.008893 0.900266 0.911175
O O10 0.064097 0.033678 0.831817
O O11 0.447363 0.654003 0.755693
O O12 0.507805 0.806924 0.959194
O O13 0.500000 0.500000 0.500000
O O14 0.773897 0.412609 0.490879
O O15 0.807252 0.525800 0.323897
O O16 0.322578 0.607222 0.264585
O O17 0.000000 0.500000 0.000000
#
# Coordination Sequence:
#
# PCOD9007501 Si02
#       8
#     2   2   2   2   2   2   2   2
#     4  10  22  38  64  94 133 166 209 269 330 393
#     4  12  24  43  66  95 133 175 216 272 320 385
#     4  10  22  37  65 101 133 167 208 272 340 390
#     4  10  21  39  62 102 129 170 214 264 336 384
#     4  10  23  40  68  94 129 167 214 277 325 397
#     4  10  25  43  61  96 126 174 220 267 329 384
#     4  10  22  37  67  98 139 163 215 269 334 388
#     4  12  28  45  66  93 131 182 227 268 314 386
#
# _framework density 22.261261000000001
#
# number of rings (size 3 to 8) (size 9 to 14) (size 15 to 20)
#    0.000    1.500    2.500    1.125    8.750    3.500 
#    0.000    0.000    0.000    4.500    0.000    0.000 
#    0.000    0.000    0.000    0.000    0.000    0.000 
#
# Total GULP energy -89204.172760 kJ/mol
# GULP energy per Si atom -5575.260797 kJ/mol
# Density = 2.221059 g / cm^3
# Si number density = 22.261261 Si / 1000 Ang^3
#
#
#
# Elastic Constant Matrix: (Units=GPa)
#
#
# Indices 1 2 3 4 5 6 
#
# 1 75.7896 11.4087 12.2086 -0.6105 -21.3692 -4.0903
# 2 11.4087 75.4064 28.8269 17.9412 -7.9683 -5.3775
# 3 12.2086 28.8269 79.2370 16.2142 -14.3839 12.2159
# 4 -0.6105 17.9412 16.2142 40.5987 -8.2490 -10.2942
# 5 -21.3692 -7.9683 -14.3839 -8.2490 22.0318 0.6531
# 6 -4.0903 -5.3775 12.2159 -10.2942 0.6531 33.6478
#
#
#
# Elastic Compliance Matrix: (Units=1/GPa)
#
#
# Indices 1 2 3 4 5 6 
#
# 1 0.019513 -0.001851 -0.000581 0.006420 0.020166 0.003860
# 2 -0.001851 0.016895 -0.005586 -0.004724 -0.001192 0.003081
# 3 -0.000581 -0.005586 0.018895 -0.005988 0.007801 -0.009807
# 4 0.006420 -0.004724 -0.005988 0.035146 0.013391 0.012692
# 5 0.020166 -0.001192 0.007801 0.013391 0.074563 0.002078
# 6 0.003860 0.003081 -0.009807 0.012692 0.002078 0.038084
#
#
# Mechanical properties :
#
#
# Convention : Reuss Voigt Hill
#
# Bulk Modulus (GPa) = 25.46686 37.25793 31.36240
# Shear Modulus (GPa) = 21.53125 31.12159 26.32642
#
# Velocity S-wave (km/s) = 3.11337 3.74306 3.44264
# Velocity P-wave (km/s) = 4.93851 5.95430 5.47004
#
# Compressibility (1/GPa) = 0.03926672
#
# Stress axis : x y z
#
# Youngs Moduli (GPa) = 51.24899 59.19030 52.92287
#
# Poissons Ratio (x) = 0.10958 0.03074
# Poissons Ratio (y) = 0.09488 0.29562
# Poissons Ratio (z) = 0.02977 0.33063
#
# Static dielectric constant tensor:
#      x y z
#    x 0.332800 -0.523330 -1.264500 
#    y -0.523330 1.689070 -0.420160 
#    z -1.264500 -0.420160 0.852650 
# 
# From -- ./inp_files/111370.got.cif
#   From: 2010.05.17/outbox.cif.g08.bks.cpg/sg2_56_cif.got.tgz:111370.got - 2010.06.03 11:33:40.
