data_PCOD9007615
_publ_section_title
;
Structure prediction by ZEFSAII (Michael W. Deem and Ramdas Pophale) SiO2 
 PCOD9007615
Probable space group: P -1
;
_chemical_formula_sum "Si O2"
_cell_formula_units_Z 16
_cell_length_a 26.033165
_cell_length_b 26.641266
_cell_length_c 12.748997
_cell_angle_alpha 148.792731
_cell_angle_beta 32.384720
_cell_angle_gamma 169.095011
_cell_volume 865.757586
_symmetry_space_group_name_H-M "P -1"
_symmetry_group_IT_number 2
_symmetry_cell_setting 'triclinic'
loop_
_space_group_symop_operation_xyz
x,y,z
-x,-y,-z
loop_
_atom_site_type_symbol
_atom_site_label
_atom_site_fract_x
_atom_site_fract_y
_atom_site_fract_z
Si Si1 0.299579 0.185199 0.870826
Si Si2 0.563488 0.953454 0.259229
Si Si3 0.943503 0.655377 0.283673
Si Si4 0.406476 0.101791 0.670819
Si Si5 0.267558 0.376702 0.267161
Si Si6 0.988366 0.610757 0.913895
Si Si7 0.102639 0.503737 0.594991
Si Si8 0.535215 0.148543 0.205089
O O1 0.382937 0.186922 0.817485
O O2 0.483536 0.349320 0.742300
O O3 0.329631 0.325567 0.103625
O O4 0.989749 0.873617 0.814626
O O5 0.638881 0.956495 0.232237
O O6 0.298918 0.667080 0.143661
O O7 0.500000 0.000000 0.500000
O O8 0.794639 0.176511 0.172291
O O9 0.815656 0.631345 0.509942
O O10 0.721328 0.362589 0.171583
O O11 0.233637 0.907604 0.288721
O O12 0.996036 0.700209 0.149303
O O13 0.705801 0.345306 0.562343
O O14 0.177783 0.820120 0.503795
O O15 0.044113 0.562036 0.790746
O O16 0.286248 0.655502 0.650933
O O17 0.500000 0.000000 0.000000
#
# Coordination Sequence:
#
# PCOD9007615 Si02
#       8
#     2   2   2   2   2   2   2   2
#     4  10  21  39  62  90 113 146 191 242 290 345
#     4  12  23  40  57  79 113 157 201 244 283 329
#     4  12  24  39  57  82 121 161 189 228 292 348
#     4  12  23  36  61  83 113 148 195 248 289 328
#     4  10  21  40  62  86 119 148 187 234 293 356
#     4  12  24  38  55  80 115 158 196 232 282 342
#     4  12  22  35  55  83 117 152 188 230 287 347
#     4  12  24  35  53  84 121 155 187 225 275 356
#
# _framework density 18.480924000000002
#
# number of rings (size 3 to 8) (size 9 to 14) (size 15 to 20)
#    0.000    0.500    3.750    6.750    1.750    0.000 
#    0.000    0.000    0.000    1.500    0.000    0.000 
#    0.000    0.000    0.000    0.000    0.000    0.000 
#
# Total GULP energy -89504.883285 kJ/mol
# GULP energy per Si atom -5594.055205 kJ/mol
# Density = 1.843886 g / cm^3
# Si number density = 18.480924 Si / 1000 Ang^3
#
#
#
# Elastic Constant Matrix: (Units=GPa)
#
#
# Indices 1 2 3 4 5 6 
#
# 1 78.0397 8.4372 53.3419 -6.5692 -3.2741 -6.9296
# 2 8.4372 102.3317 21.2022 -14.6558 0.4389 -3.1502
# 3 53.3419 21.2022 119.8599 -20.3629 -2.1945 -8.4198
# 4 -6.5692 -14.6558 -20.3629 27.4258 -2.0648 7.6474
# 5 -3.2741 0.4389 -2.1945 -2.0648 30.5885 0.9813
# 6 -6.9296 -3.1502 -8.4198 7.6474 0.9813 32.5958
#
#
#
# Elastic Compliance Matrix: (Units=1/GPa)
#
#
# Indices 1 2 3 4 5 6 
#
# 1 0.018711 -0.000056 -0.008551 -0.002453 0.001151 0.002305
# 2 -0.000056 0.010703 -0.001036 0.005068 0.000122 -0.000438
# 3 -0.008551 -0.001036 0.013622 0.007614 0.000597 -0.000204
# 4 -0.002453 0.005068 0.007614 0.047085 0.003685 -0.009223
# 5 0.001151 0.000122 0.000597 0.003685 0.033152 -0.001452
# 6 0.002305 -0.000438 -0.000204 -0.009223 -0.001452 0.033281
#
#
# Mechanical properties :
#
#
# Convention : Reuss Voigt Hill
#
# Bulk Modulus (GPa) = 42.10455 51.79932 46.95194
# Shear Modulus (GPa) = 27.20976 32.60536 29.90756
#
# Velocity S-wave (km/s) = 3.84124 4.20488 4.02717
# Velocity P-wave (km/s) = 6.51964 7.18777 6.86184
#
# Compressibility (1/GPa) = 0.02375040
#
# Stress axis : x y z
#
# Youngs Moduli (GPa) = 53.44357 93.42936 73.41085
#
# Poissons Ratio (x) = 0.00527 0.62774
# Poissons Ratio (y) = 0.00301 0.07603
# Poissons Ratio (z) = 0.45700 0.09676
#
# Static dielectric constant tensor:
#      x y z
#    x 1.632260 -0.015430 0.004040 
#    y -0.015430 1.643380 -0.007980 
#    z 0.004040 -0.007980 1.655980 
# 
# From -- ./inp_files/454262.got.cif
#   From: 2010.05.17/outbox.cif.g08.bks.cpg/sg2_228_cif.got.tgz:454262.got - 2010.06.03 11:33:40.
