data_PCOD9007736
_publ_section_title
;
Structure prediction by ZEFSAII (Michael W. Deem and Ramdas Pophale) SiO2 
 PCOD9007736
Probable space group: P -1
;
_chemical_formula_sum "Si O2"
_cell_formula_units_Z 16
_cell_length_a 11.986026
_cell_length_b 12.121549
_cell_length_c 11.953275
_cell_angle_alpha 29.781179
_cell_angle_beta 75.113219
_cell_angle_gamma 59.444461
_cell_volume 670.294610
_symmetry_space_group_name_H-M "P -1"
_symmetry_group_IT_number 2
_symmetry_cell_setting 'triclinic'
loop_
_space_group_symop_operation_xyz
x,y,z
-x,-y,-z
loop_
_atom_site_type_symbol
_atom_site_label
_atom_site_fract_x
_atom_site_fract_y
_atom_site_fract_z
Si Si1 0.370812 0.250610 0.975765
Si Si2 0.142902 0.811521 0.206097
Si Si3 0.595891 0.192229 0.789941
Si Si4 0.057393 0.000342 0.709437
Si Si5 0.708645 0.530954 0.723232
Si Si6 0.456125 0.529282 0.857185
Si Si7 0.113853 0.567702 0.904679
Si Si8 0.245199 0.132616 0.438370
O O1 0.481369 0.212593 0.886183
O O2 0.440284 0.300410 0.019100
O O3 0.202385 0.501150 0.826006
O O4 0.365266 0.002632 0.156544
O O5 0.255580 0.887358 0.122203
O O6 0.228907 0.524523 0.368781
O O7 0.083842 0.826934 0.330429
O O8 0.000000 0.000000 0.000000
O O9 0.500000 0.500000 0.500000
O O10 0.110937 0.180578 0.497500
O O11 0.177944 0.737618 0.989841
O O12 0.048349 0.855634 0.729984
O O13 0.570130 0.535936 0.751135
O O14 0.676355 0.805933 0.543362
O O15 0.312567 0.839026 0.622538
O O16 0.500000 0.500000 0.000000
O O17 0.225251 0.332484 0.170571
O O18 0.000000 0.500000 0.000000
#
# Coordination Sequence:
#
# PCOD9007736 Si02
#       8
#     2   2   2   2   2   2   2   2
#     4  11  25  45  70  99 140 182 225 289 348 412
#     4  10  22  43  69  94 137 182 232 286 337 410
#     4  11  26  46  70 103 141 184 232 280 351 422
#     4  10  21  41  59  95 130 168 226 279 337 406
#     4  10  21  39  62  93 133 173 217 284 341 399
#     4  12  21  41  68  99 137 172 229 288 345 409
#     4  11  24  42  65  91 130 175 225 280 340 409
#     4  11  23  38  63  97 128 169 223 280 349 401
#
# _framework density 23.870101999999999
#
# number of rings (size 3 to 8) (size 9 to 14) (size 15 to 20)
#    0.000    1.250    3.750    1.875    1.750    3.000 
#    0.000    2.500    0.000    0.000    0.000    0.000 
#    0.000    0.000    0.000    0.000    0.000    0.000 
#
# Total GULP energy -89153.292005 kJ/mol
# GULP energy per Si atom -5572.080750 kJ/mol
# Density = 2.381577 g / cm^3
# Si number density = 23.870102 Si / 1000 Ang^3
#
#
#
# Elastic Constant Matrix: (Units=GPa)
#
#
# Indices 1 2 3 4 5 6 
#
# 1 143.3231 66.7934 17.1235 -5.4562 -28.0241 1.0206
# 2 66.7934 193.7280 35.4523 -3.9327 -7.5838 -1.5905
# 3 17.1235 35.4523 42.2177 4.8080 -5.0361 12.2941
# 4 -5.4562 -3.9327 4.8080 26.0638 -2.7993 -22.4240
# 5 -28.0241 -7.5838 -5.0361 -2.7993 22.3657 -1.3336
# 6 1.0206 -1.5905 12.2941 -22.4240 -1.3336 59.6918
#
#
#
# Elastic Compliance Matrix: (Units=1/GPa)
#
#
# Indices 1 2 3 4 5 6 
#
# 1 0.011523 -0.002884 -0.002141 0.006326 0.013941 0.002855
# 2 -0.002884 0.007426 -0.006716 0.004316 -0.001876 0.003210
# 3 -0.002141 -0.006716 0.037453 -0.022411 -0.000303 -0.016282
# 4 0.006326 0.004316 -0.022411 0.074518 0.015635 0.032966
# 5 0.013941 -0.001876 -0.000303 0.015635 0.063853 0.007074
# 6 0.002855 0.003210 -0.016282 0.032966 0.007074 0.032685
#
#
# Mechanical properties :
#
#
# Convention : Reuss Voigt Hill
#
# Bulk Modulus (GPa) = 30.37675 68.66746 49.52211
# Shear Modulus (GPa) = 19.09034 38.95090 29.02062
#
# Velocity S-wave (km/s) = 2.83107 4.04392 3.49058
# Velocity P-wave (km/s) = 4.84150 7.11576 6.08581
#
# Compressibility (1/GPa) = 0.03291991
#
# Stress axis : x y z
#
# Youngs Moduli (GPa) = 86.78167 134.66843 26.70037
#
# Poissons Ratio (x) = 0.38832 0.05717
# Poissons Ratio (y) = 0.25024 0.17932
# Poissons Ratio (z) = 0.18581 0.90445
#
# Static dielectric constant tensor:
#      x y z
#    x -1.009810 -0.806010 0.557560 
#    y -0.806010 1.762510 0.099680 
#    z 0.557560 0.099680 1.959200 
# 
# From -- ./inp_files/427227.got.cif
#   From: 2010.05.17/outbox.cif.g08.bks.cpg/sg2_214_cif.got.tgz:427227.got - 2010.06.03 11:33:40.
