data_PCOD9007302
_publ_section_title
;
Structure prediction by ZEFSAII (Michael W. Deem and Ramdas Pophale) SiO2 
 PCOD9007302
Probable space group: P -1
;
_chemical_formula_sum "Si O2"
_cell_formula_units_Z 16
_cell_length_a 16.397006
_cell_length_b 9.369238
_cell_length_c 5.147264
_cell_angle_alpha 94.069992
_cell_angle_beta 91.002130
_cell_angle_gamma 112.770917
_cell_volume 726.420626
_symmetry_space_group_name_H-M "P -1"
_symmetry_group_IT_number 2
_symmetry_cell_setting 'triclinic'
loop_
_space_group_symop_operation_xyz
x,y,z
-x,-y,-z
loop_
_atom_site_type_symbol
_atom_site_label
_atom_site_fract_x
_atom_site_fract_y
_atom_site_fract_z
Si Si1 0.139014 0.709827 0.618275
Si Si2 0.841931 0.690746 0.906480
Si Si3 0.947275 0.636239 0.576639
Si Si4 0.730238 0.852323 0.634891
Si Si5 0.741111 0.167605 0.860547
Si Si6 0.598639 0.525095 0.431227
Si Si7 0.334721 0.587929 0.070328
Si Si8 0.098742 0.106261 0.591963
O O1 0.092780 0.521450 0.599001
O O2 0.205951 0.753518 0.387687
O O3 0.049112 0.737768 0.556928
O O4 0.189617 0.789064 0.890695
O O5 0.919677 0.611431 0.868155
O O6 0.767869 0.767930 0.836823
O O7 0.765721 0.533303 0.000033
O O8 0.900186 0.833493 0.114501
O O9 0.883157 0.735718 0.567093
O O10 0.657330 0.710796 0.459670
O O11 0.818659 0.936595 0.473254
O O12 0.703255 0.983904 0.774885
O O13 0.670227 0.243614 0.922300
O O14 0.500000 0.500000 0.500000
O O15 0.637592 0.447228 0.647036
O O16 0.606304 0.448149 0.149253
O O17 0.000000 0.000000 0.500000
#
# Coordination Sequence:
#
# PCOD9007302 Si02
#       8
#     2   2   2   2   2   2   2   2
#     4  11  25  38  59  88 129 179 222 270 317 377
#     4  10  21  39  61  86 127 177 225 270 316 379
#     4  10  23  36  55  86 121 177 236 274 308 369
#     4  10  25  39  62  96 131 169 216 272 324 382
#     4  12  25  41  64  93 132 169 213 264 334 376
#     4  11  24  47  75 101 126 165 212 263 325 399
#     4  11  22  44  70  98 127 169 210 261 322 397
#     4  11  22  36  60  86 130 176 227 269 321 366
#
# _framework density 22.025804999999998
#
# number of rings (size 3 to 8) (size 9 to 14) (size 15 to 20)
#    0.000    1.250    2.500    2.625    8.750    2.000 
#    0.000    1.250    0.000    0.000    0.000    0.000 
#    0.000    0.000    0.000    0.000    0.000    0.000 
#
# Total GULP energy -89096.839135 kJ/mol
# GULP energy per Si atom -5568.552446 kJ/mol
# Density = 2.197567 g / cm^3
# Si number density = 22.025805 Si / 1000 Ang^3
#
#
#
# Elastic Constant Matrix: (Units=GPa)
#
#
# Indices 1 2 3 4 5 6 
#
# 1 70.7302 28.3973 -11.1443 10.3729 -22.4371 -0.7605
# 2 28.3973 89.8210 5.9088 17.1500 -11.0556 -22.1984
# 3 -11.1443 5.9088 54.5361 -1.5728 -13.4161 -2.6633
# 4 10.3729 17.1500 -1.5728 24.5887 -9.3240 -7.7689
# 5 -22.4371 -11.0556 -13.4161 -9.3240 34.3671 2.4931
# 6 -0.7605 -22.1984 -2.6633 -7.7689 2.4931 31.5032
#
#
#
# Elastic Compliance Matrix: (Units=1/GPa)
#
#
# Indices 1 2 3 4 5 6 
#
# 1 0.024214 -0.007527 0.009933 0.000836 0.017860 -0.005087
# 2 -0.007527 0.017215 -0.004019 -0.007282 -0.003654 0.010102
# 3 0.009933 -0.004019 0.025108 0.006521 0.016776 -0.000189
# 4 0.000836 -0.007282 0.006521 0.053806 0.014800 0.007538
# 5 0.017860 -0.003654 0.016776 0.014800 0.050223 -0.001050
# 6 -0.005087 0.010102 -0.000189 0.007538 -0.001050 0.040664
#
#
# Mechanical properties :
#
#
# Convention : Reuss Voigt Hill
#
# Bulk Modulus (GPa) = 15.79537 29.04567 22.42052
# Shear Modulus (GPa) = 21.22609 30.88681 26.05645
#
# Velocity S-wave (km/s) = 3.10771 3.74879 3.44320
# Velocity P-wave (km/s) = 4.47928 5.65276 5.09989
#
# Compressibility (1/GPa) = 0.06330968
#
# Stress axis : x y z
#
# Youngs Moduli (GPa) = 41.29895 58.08987 39.82870
#
# Poissons Ratio (x) = 0.43725 -0.39562
# Poissons Ratio (y) = 0.31087 0.16007
# Poissons Ratio (z) = -0.41022 0.23346
#
# Static dielectric constant tensor:
#      x y z
#    x 1.838360 -0.060160 -0.001530 
#    y -0.060160 1.942180 -0.100470 
#    z -0.001530 -0.100470 1.930750 
# 
# From -- ./inp_files/52950.got.cif
#   From: 2010.05.17/outbox.cif.g08.bks.cpg/sg2_27_cif.got.tgz:52950.got - 2010.06.03 11:33:40.
