data_PCOD9007347
_publ_section_title
;
Structure prediction by ZEFSAII (Michael W. Deem and Ramdas Pophale) SiO2 
 PCOD9007347
Probable space group: P -1
;
_chemical_formula_sum "Si O2"
_cell_formula_units_Z 14
_cell_length_a 12.542313
_cell_length_b 8.533836
_cell_length_c 9.086478
_cell_angle_alpha 120.427235
_cell_angle_beta 107.995572
_cell_angle_gamma 43.306277
_cell_volume 572.276477
_symmetry_space_group_name_H-M "P -1"
_symmetry_group_IT_number 2
_symmetry_cell_setting 'triclinic'
loop_
_space_group_symop_operation_xyz
x,y,z
-x,-y,-z
loop_
_atom_site_type_symbol
_atom_site_label
_atom_site_fract_x
_atom_site_fract_y
_atom_site_fract_z
Si Si1 0.209479 0.601848 0.176940
Si Si2 0.584397 0.909782 0.335075
Si Si3 0.080780 0.840714 0.627527
Si Si4 0.479933 0.698471 0.980336
Si Si5 0.096395 0.637285 0.821184
Si Si6 0.937460 0.481233 0.732013
Si Si7 0.731620 0.034144 0.254813
O O1 0.380277 0.480818 0.164564
O O2 0.203574 0.421832 0.178984
O O3 0.143197 0.636363 0.003989
O O4 0.083903 0.872108 0.331751
O O5 0.760362 0.643452 0.312741
O O6 0.500000 0.000000 0.500000
O O7 0.612686 0.066046 0.330814
O O8 0.510235 0.842566 0.161989
O O9 0.087455 0.814805 0.793951
O O10 0.069577 0.651874 0.468661
O O11 0.224823 0.803710 0.622528
O O12 0.331328 0.892936 0.904101
O O13 0.500000 0.500000 0.000000
O O14 0.946181 0.677545 0.778597
O O15 0.099264 0.256496 0.785271
#
# Coordination Sequence:
#
# PCOD9007347 Si02
#       7
#     2   2   2   2   2   2   2
#     4  10  21  39  61  89 121 160 205 251 309 374
#     4  10  23  42  63  94 128 163 207 257 312 370
#     4  11  22  41  64  92 124 163 208 258 307 362
#     4  11  24  42  65  94 126 164 210 255 309 375
#     4  10  21  39  62  91 123 159 207 258 308 369
#     4  10  22  40  62  90 123 162 208 258 308 362
#     4  10  21  41  64  88 125 165 205 255 308 368
#
# _framework density 24.463701
#
# number of rings (size 3 to 8) (size 9 to 14) (size 15 to 20)
#    0.000    1.714    0.000    5.143    0.000    6.857 
#    0.000   10.000    0.000    0.000    0.000    0.000 
#    0.000    0.000    0.000    0.000    0.000    0.000 
#
# Total GULP energy -78237.041322 kJ/mol
# GULP energy per Si atom -5588.360094 kJ/mol
# Density = 2.440802 g / cm^3
# Si number density = 24.463701 Si / 1000 Ang^3
#
#
#
# Elastic Constant Matrix: (Units=GPa)
#
#
# Indices 1 2 3 4 5 6 
#
# 1 163.6856 47.4445 45.8713 -14.0813 -14.1104 17.9189
# 2 47.4445 60.8246 34.1554 -10.6031 -2.5244 14.9557
# 3 45.8713 34.1554 94.8926 -18.1969 -4.1738 -5.9977
# 4 -14.0813 -10.6031 -18.1969 27.4155 -0.9620 -6.4748
# 5 -14.1104 -2.5244 -4.1738 -0.9620 43.2782 -3.6274
# 6 17.9189 14.9557 -5.9977 -6.4748 -3.6274 27.1323
#
#
#
# Elastic Compliance Matrix: (Units=1/GPa)
#
#
# Indices 1 2 3 4 5 6 
#
# 1 0.008710 -0.004165 -0.002830 0.000164 0.002011 -0.003774
# 2 -0.004165 0.028664 -0.009618 -0.001221 -0.001959 -0.015729
# 3 -0.002830 -0.009618 0.018298 0.010314 0.001675 0.013901
# 4 0.000164 -0.001221 0.010314 0.046436 0.003212 0.014356
# 5 0.002011 -0.001959 0.001675 0.003212 0.024227 0.004127
# 6 -0.003774 -0.015729 0.013901 0.014356 0.004127 0.055070
#
#
# Mechanical properties :
#
#
# Convention : Reuss Voigt Hill
#
# Bulk Modulus (GPa) = 44.55176 63.81614 54.18395
# Shear Modulus (GPa) = 22.51101 32.36064 27.43582
#
# Velocity S-wave (km/s) = 3.03674 3.64098 3.35250
# Velocity P-wave (km/s) = 5.52690 6.61954 6.09774
#
# Compressibility (1/GPa) = 0.02244580
#
# Stress axis : x y z
#
# Youngs Moduli (GPa) = 114.80737 34.88730 54.64959
#
# Poissons Ratio (x) = 0.14530 0.15467
# Poissons Ratio (y) = 0.47816 0.52563
# Poissons Ratio (z) = 0.32493 0.33555
#
# Static dielectric constant tensor:
#      x y z
#    x 2.000740 0.027090 -0.015520 
#    y 0.027090 2.027010 0.021710 
#    z -0.015520 0.021710 1.960200 
# 
# From -- ./inp_files/185662.got.cif
#   From: 2010.05.17/outbox.cif.g08.bks.cpg/sg2_93_cif.got.tgz:185662.got - 2010.06.03 11:33:40.
