data_PCOD9007858
_publ_section_title
;
Structure prediction by ZEFSAII (Michael W. Deem and Ramdas Pophale) SiO2 
 PCOD9007858
Probable space group: P -1
;
_chemical_formula_sum "Si O2"
_cell_formula_units_Z 12
_cell_length_a 12.318938
_cell_length_b 17.725615
_cell_length_c 15.138033
_cell_angle_alpha 21.453842
_cell_angle_beta 28.645721
_cell_angle_gamma 30.304866
_cell_volume 558.783735
_symmetry_space_group_name_H-M "P -1"
_symmetry_group_IT_number 2
_symmetry_cell_setting 'triclinic'
loop_
_space_group_symop_operation_xyz
x,y,z
-x,-y,-z
loop_
_atom_site_type_symbol
_atom_site_label
_atom_site_fract_x
_atom_site_fract_y
_atom_site_fract_z
Si Si1 0.642776 0.814844 0.330373
Si Si2 0.829028 0.511184 0.227909
Si Si3 0.312433 0.011257 0.699260
Si Si4 0.843588 0.238922 0.335951
Si Si5 0.351809 0.770272 0.211124
Si Si6 0.184224 0.664687 0.273412
O O1 0.602367 0.919101 0.342857
O O2 0.402137 0.783825 0.497999
O O3 0.815334 0.579403 0.472277
O O4 0.722199 0.977395 0.029828
O O5 0.841563 0.364842 0.291789
O O6 0.587217 0.697100 0.181621
O O7 0.818394 0.351757 0.488086
O O8 0.033800 0.627540 0.962496
O O9 0.061167 0.186038 0.676792
O O10 0.500000 0.000000 0.500000
O O11 0.250573 0.786046 0.008541
O O12 0.000000 0.000000 0.500000
O O13 0.380339 0.672260 0.199190
#
# Coordination Sequence:
#
# PCOD9007858 Si02
#       6
#     2   2   2   2   2   2
#     4  11  22  40  68  94 130 168 217 265 317 380
#     4  10  22  38  59  90 130 171 208 252 312 374
#     4  10  24  44  69  92 128 166 213 271 337 381
#     4  11  22  37  59  92 129 167 213 259 307 376
#     4  10  21  39  63  88 127 171 207 258 315 371
#     4  10  22  43  65  97 128 165 214 273 320 386
#
# _framework density 21.475214000000001
#
# number of rings (size 3 to 8) (size 9 to 14) (size 15 to 20)
#    0.000    1.667    3.333    0.500    0.000    5.333 
#    0.000    3.333    0.000    0.000    0.000    0.000 
#    0.000    0.000    0.000    0.000    0.000    0.000 
#
# Total GULP energy -66974.357027 kJ/mol
# GULP energy per Si atom -5581.196419 kJ/mol
# Density = 2.142634 g / cm^3
# Si number density = 21.475214 Si / 1000 Ang^3
#
#
#
# Elastic Constant Matrix: (Units=GPa)
#
#
# Indices 1 2 3 4 5 6 
#
# 1 60.2695 9.8373 40.5183 -9.3856 8.2030 -12.8744
# 2 9.8373 75.1381 79.0560 -15.9168 20.8281 -9.2631
# 3 40.5183 79.0560 226.1286 -22.6670 29.4000 -0.4302
# 4 -9.3856 -15.9168 -22.6670 37.9974 2.8544 1.3481
# 5 8.2030 20.8281 29.4000 2.8544 37.1318 1.6305
# 6 -12.8744 -9.2631 -0.4302 1.3481 1.6305 19.3018
#
#
#
# Elastic Compliance Matrix: (Units=1/GPa)
#
#
# Indices 1 2 3 4 5 6 
#
# 1 0.025927 0.009258 -0.006239 0.006345 -0.007424 0.021781
# 2 0.009258 0.030473 -0.009597 0.009572 -0.013199 0.021032
# 3 -0.006239 -0.009597 0.008866 0.000024 0.000116 -0.008581
# 4 0.006345 0.009572 0.000024 0.032368 -0.009602 0.007377
# 5 -0.007424 -0.013199 0.000116 -0.009602 0.037225 -0.013758
# 6 0.021781 0.021032 -0.008581 0.007377 -0.013758 0.076886
#
#
# Mechanical properties :
#
#
# Convention : Reuss Voigt Hill
#
# Bulk Modulus (GPa) = 19.19035 68.92884 44.05959
# Shear Modulus (GPa) = 20.63785 34.36115 27.49950
#
# Velocity S-wave (km/s) = 3.10338 4.00439 3.58232
# Velocity P-wave (km/s) = 4.66869 7.31756 6.13773
#
# Compressibility (1/GPa) = 0.05210951
#
# Stress axis : x y z
#
# Youngs Moduli (GPa) = 38.56957 32.81550 112.78646
#
# Poissons Ratio (x) = -0.30380 0.70373
# Poissons Ratio (y) = -0.35707 1.08240
# Poissons Ratio (z) = 0.24065 0.31493
#
# Static dielectric constant tensor:
#      x y z
#    x 1.808620 -0.026340 0.018120 
#    y -0.026340 1.825820 -0.004160 
#    z 0.018120 -0.004160 1.801410 
# 
# From -- ./inp_files/49807.got.cif
#   From: 2010.05.17/outbox.cif.g08.bks.cpg/sg2_25_cif.got.tgz:49807.got - 2010.06.03 11:33:40.
