data_PCOD9007955
_publ_section_title
;
Structure prediction by ZEFSAII (Michael W. Deem and Ramdas Pophale) SiO2 
 PCOD9007955
Probable space group: P -1
;
_chemical_formula_sum "Si O2"
_cell_formula_units_Z 14
_cell_length_a 19.382288
_cell_length_b 8.228552
_cell_length_c 12.769965
_cell_angle_alpha 118.474154
_cell_angle_beta 26.301720
_cell_angle_gamma 130.892806
_cell_volume 644.272321
_symmetry_space_group_name_H-M "P -1"
_symmetry_group_IT_number 2
_symmetry_cell_setting 'triclinic'
loop_
_space_group_symop_operation_xyz
x,y,z
-x,-y,-z
loop_
_atom_site_type_symbol
_atom_site_label
_atom_site_fract_x
_atom_site_fract_y
_atom_site_fract_z
Si Si1 0.909045 0.606304 0.787602
Si Si2 0.279270 0.858561 0.224889
Si Si3 0.503457 0.032745 0.629434
Si Si4 0.199454 0.219848 0.382005
Si Si5 0.192581 0.551941 0.898705
Si Si6 0.228261 0.174442 0.110592
Si Si7 0.825648 0.508785 0.331595
O O1 0.794308 0.347518 0.820107
O O2 0.820790 0.723931 0.886383
O O3 0.127895 0.738396 0.489933
O O4 0.893734 0.611119 0.934497
O O5 0.256579 0.047936 0.267886
O O6 0.500000 0.000000 0.000000
O O7 0.719031 0.242645 0.423779
O O8 0.500000 0.000000 0.500000
O O9 0.393628 0.774144 0.735574
O O10 0.380124 0.124954 0.859658
O O11 0.273509 0.327503 0.199723
O O12 0.258895 0.393390 0.448473
O O13 0.968456 0.061274 0.657962
O O14 0.209714 0.468763 0.735801
O O15 0.048228 0.620866 0.085788
#
# Coordination Sequence:
#
# PCOD9007955 Si02
#       7
#     2   2   2   2   2   2   2
#     4  10  23  40  62  88 127 163 194 257 319 350
#     4  10  23  40  61  93 125 158 204 252 310 370
#     4  10  21  39  64  89 120 161 209 250 299 366
#     4  10  21  39  66  88 121 162 204 254 303 368
#     4  10  21  42  61  87 127 159 206 256 301 369
#     4  10  21  39  63  92 122 159 204 252 308 367
#     4  10  22  37  67  89 115 166 213 246 304 364
#
# _framework density 21.729939999999999
#
# number of rings (size 3 to 8) (size 9 to 14) (size 15 to 20)
#    0.000    2.000    1.429    0.857    8.000    2.857 
#    0.000    5.714    3.143    0.000    0.000    0.000 
#    0.000    0.000    0.000    0.000    0.000    0.000 
#
# Total GULP energy -78097.627292 kJ/mol
# GULP energy per Si atom -5578.401949 kJ/mol
# Density = 2.168048 g / cm^3
# Si number density = 21.729940 Si / 1000 Ang^3
#
#
#
# Elastic Constant Matrix: (Units=GPa)
#
#
# Indices 1 2 3 4 5 6 
#
# 1 114.6363 25.8013 45.6260 3.4467 41.6205 8.1643
# 2 25.8013 52.4709 6.4556 -3.2604 8.5380 20.8769
# 3 45.6260 6.4556 74.0911 1.1049 16.4111 10.1072
# 4 3.4467 -3.2604 1.1049 38.6400 11.8983 3.1011
# 5 41.6205 8.5380 16.4111 11.8983 41.9000 -4.1678
# 6 8.1643 20.8769 10.1072 3.1011 -4.1678 18.4302
#
#
#
# Elastic Compliance Matrix: (Units=1/GPa)
#
#
# Indices 1 2 3 4 5 6 
#
# 1 0.018403 -0.003201 -0.006720 0.003812 -0.016600 -0.005236
# 2 -0.003201 0.055523 0.013367 0.019018 -0.026529 -0.078005
# 3 -0.006720 0.013367 0.022157 0.006126 -0.009195 -0.027426
# 4 0.003812 0.019018 0.006126 0.037624 -0.024573 -0.038478
# 5 -0.016600 -0.026529 -0.009195 -0.024573 0.062377 0.060688
# 6 -0.005236 -0.078005 -0.027426 -0.038478 0.060688 0.180178
#
#
# Mechanical properties :
#
#
# Convention : Reuss Voigt Hill
#
# Bulk Modulus (GPa) = 9.71102 44.10710 26.90906
# Shear Modulus (GPa) = 12.38560 30.68175 21.53367
#
# Velocity S-wave (km/s) = 2.39001 3.76168 3.15138
# Velocity P-wave (km/s) = 3.47777 6.26170 5.06477
#
# Compressibility (1/GPa) = 0.10297575
#
# Stress axis : x y z
#
# Youngs Moduli (GPa) = 54.33795 18.01065 45.13258
#
# Poissons Ratio (x) = 0.05766 0.30328
# Poissons Ratio (y) = 0.17395 -0.60330
# Poissons Ratio (z) = 0.36514 -0.24075
#
# Static dielectric constant tensor:
#      x y z
#    x 1.809760 0.067920 0.012460 
#    y 0.067920 1.863530 -0.058600 
#    z 0.012460 -0.058600 1.833760 
# 
# From -- ./inp_files/428588.got.cif
#   From: 2010.05.17/outbox.cif.g08.bks.cpg/sg2_215_cif.got.tgz:428588.got - 2010.06.03 11:33:40.
