data_PCOD9007593
_publ_section_title
;
Structure prediction by ZEFSAII (Michael W. Deem and Ramdas Pophale) SiO2 
 PCOD9007593
Probable space group: P -1
;
_chemical_formula_sum "Si O2"
_cell_formula_units_Z 16
_cell_length_a 12.387942
_cell_length_b 8.009508
_cell_length_c 10.643646
_cell_angle_alpha 70.995701
_cell_angle_beta 35.766925
_cell_angle_gamma 72.770316
_cell_volume 582.643012
_symmetry_space_group_name_H-M "P -1"
_symmetry_group_IT_number 2
_symmetry_cell_setting 'triclinic'
loop_
_space_group_symop_operation_xyz
x,y,z
-x,-y,-z
loop_
_atom_site_type_symbol
_atom_site_label
_atom_site_fract_x
_atom_site_fract_y
_atom_site_fract_z
Si Si1 0.793261 0.846347 0.336064
Si Si2 0.089043 0.347303 0.149270
Si Si3 0.301140 0.559113 0.408280
Si Si4 0.369183 0.517702 0.736785
Si Si5 0.208093 0.944067 0.188766
Si Si6 0.760988 0.126724 0.098267
Si Si7 0.769818 0.922212 0.610376
Si Si8 0.208813 0.468990 0.260462
O O1 0.736785 0.647616 0.468841
O O2 0.731040 0.959537 0.491931
O O3 0.725689 0.944130 0.248843
O O4 0.016954 0.851198 0.117845
O O5 0.173630 0.151199 0.135477
O O6 0.168971 0.478125 0.148244
O O7 0.872026 0.342843 0.381425
O O8 0.174395 0.429135 0.925133
O O9 0.501266 0.593305 0.259990
O O10 0.304260 0.582543 0.248573
O O11 0.500000 0.500000 0.500000
O O12 0.333659 0.717397 0.767895
O O13 0.290645 0.947684 0.250847
O O14 0.995081 0.889371 0.415677
O O15 0.295745 0.863975 0.997448
O O16 0.706106 0.728243 0.749108
O O17 0.000000 0.500000 0.500000
#
# Coordination Sequence:
#
# PCOD9007593 Si02
#       8
#     2   2   2   2   2   2   2   2
#     4   9  18  36  66  90 119 161 211 253 312 369
#     4  10  21  42  65  92 127 161 207 262 311 370
#     4  10  21  40  66  92 122 169 201 258 322 370
#     4  12  28  42  59  90 129 166 216 260 306 375
#     4   9  18  33  65  92 121 162 200 256 315 366
#     4  10  21  39  62  89 119 165 210 255 307 376
#     4   8  15  31  57  99 119 148 210 248 306 381
#     4   8  16  33  66  95 120 157 203 254 309 375
#
# _framework density 27.461072000000001
#
# number of rings (size 3 to 8) (size 9 to 14) (size 15 to 20)
#    0.000    2.500    1.250    0.000    3.500    4.500 
#    0.000    0.000    2.750    2.250    0.000    0.000 
#    0.000    0.000    0.000    0.000    0.000    0.000 
#
# Total GULP energy -89458.706839 kJ/mol
# GULP energy per Si atom -5591.169177 kJ/mol
# Density = 2.739857 g / cm^3
# Si number density = 27.461072 Si / 1000 Ang^3
#
#
#
# Elastic Constant Matrix: (Units=GPa)
#
#
# Indices 1 2 3 4 5 6 
#
# 1 84.0163 7.5466 34.4672 11.4097 14.0285 -12.6699
# 2 7.5466 105.3690 41.7866 8.8435 18.4605 13.9788
# 3 34.4672 41.7866 156.2526 9.3768 8.8171 0.1510
# 4 11.4097 8.8435 9.3768 37.0586 3.5217 16.8757
# 5 14.0285 18.4605 8.8171 3.5217 43.5445 2.7099
# 6 -12.6699 13.9788 0.1510 16.8757 2.7099 33.5827
#
#
#
# Elastic Compliance Matrix: (Units=1/GPa)
#
#
# Indices 1 2 3 4 5 6 
#
# 1 0.016860 0.000063 -0.002924 -0.009175 -0.004831 0.011348
# 2 0.000063 0.012032 -0.003017 0.000498 -0.004247 -0.004879
# 3 -0.002924 -0.003017 0.007850 -0.000594 0.000657 0.000363
# 4 -0.009175 0.000498 -0.000594 0.040779 0.001076 -0.024245
# 5 -0.004831 -0.004247 0.000657 0.001076 0.026271 -0.002718
# 6 0.011348 -0.004879 0.000363 -0.024245 -0.002718 0.048490
#
#
# Mechanical properties :
#
#
# Convention : Reuss Voigt Hill
#
# Bulk Modulus (GPa) = 40.02258 57.02652 48.52455
# Shear Modulus (GPa) = 29.00800 40.29299 34.65050
#
# Velocity S-wave (km/s) = 3.25365 3.83466 3.55604
# Velocity P-wave (km/s) = 5.35919 6.35748 5.87956
#
# Compressibility (1/GPa) = 0.02498589
#
# Stress axis : x y z
#
# Youngs Moduli (GPa) = 59.31161 83.11223 127.39040
#
# Poissons Ratio (x) = -0.00522 0.37245
# Poissons Ratio (y) = -0.00372 0.38435
# Poissons Ratio (z) = 0.17341 0.25076
#
# Static dielectric constant tensor:
#      x y z
#    x 2.937800 -0.240300 0.542710 
#    y -0.240300 2.259480 -0.176600 
#    z 0.542710 -0.176600 2.475060 
# 
# From -- ./inp_files/404790.got.cif
#   From: 2010.05.17/outbox.cif.g08.bks.cpg/sg2_203_cif.got.tgz:404790.got - 2010.06.03 11:33:40.
