data_PCOD9007935
_publ_section_title
;
Structure prediction by ZEFSAII (Michael W. Deem and Ramdas Pophale) SiO2 
 PCOD9007935
Probable space group: P -1
;
_chemical_formula_sum "Si O2"
_cell_formula_units_Z 12
_cell_length_a 9.973301
_cell_length_b 16.645974
_cell_length_c 19.542691
_cell_angle_alpha 159.972985
_cell_angle_beta 33.286131
_cell_angle_gamma 147.169010
_cell_volume 583.209610
_symmetry_space_group_name_H-M "P -1"
_symmetry_group_IT_number 2
_symmetry_cell_setting 'triclinic'
loop_
_space_group_symop_operation_xyz
x,y,z
-x,-y,-z
loop_
_atom_site_type_symbol
_atom_site_label
_atom_site_fract_x
_atom_site_fract_y
_atom_site_fract_z
Si Si1 0.791924 0.025100 0.414529
Si Si2 0.005403 0.681878 0.705116
Si Si3 0.686447 0.792550 0.039272
Si Si4 0.077075 0.342650 0.040706
Si Si5 0.764796 0.454768 0.370418
Si Si6 0.818103 0.118536 0.630959
O O1 0.774273 0.975847 0.463486
O O2 0.999596 0.291808 0.528855
O O3 0.500000 0.000000 0.500000
O O4 0.889378 0.842260 0.179135
O O5 0.209977 0.655519 0.654153
O O6 0.000000 0.500000 0.500000
O O7 0.086526 0.953651 0.856940
O O8 0.745020 0.645790 0.831390
O O9 0.434661 0.878351 0.217600
O O10 0.709468 0.651181 0.986420
O O11 0.080607 0.596296 0.206132
O O12 0.826770 0.281743 0.146594
O O13 0.500000 0.500000 0.500000
O O14 0.000000 0.000000 0.500000
#
# Coordination Sequence:
#
# PCOD9007935 Si02
#       6
#     2   2   2   2   2   2
#     4  11  23  41  72  96 122 176 225 251 316 401
#     4  10  22  38  64  92 120 172 218 258 305 394
#     4  10  21  39  63  91 127 165 216 260 319 378
#     4  10  22  42  67  92 125 176 216 259 318 394
#     4  10  24  42  63  96 138 165 207 274 327 364
#     4  11  25  40  64  96 134 161 209 282 326 363
#
# _framework density 20.575793999999998
#
# number of rings (size 3 to 8) (size 9 to 14) (size 15 to 20)
#    0.000    1.667    1.667    1.500    9.333    1.333 
#    3.000    0.000    0.000    0.000    0.000    0.000 
#    0.000    0.000    0.000    0.000    0.000    0.000 
#
# Total GULP energy -66912.692313 kJ/mol
# GULP energy per Si atom -5576.057693 kJ/mol
# Density = 2.052896 g / cm^3
# Si number density = 20.575794 Si / 1000 Ang^3
#
#
#
# Elastic Constant Matrix: (Units=GPa)
#
#
# Indices 1 2 3 4 5 6 
#
# 1 149.6524 55.9447 83.7573 -25.1351 -22.1404 -15.0606
# 2 55.9447 79.3316 48.1592 -10.8293 -11.1730 -12.4899
# 3 83.7573 48.1592 174.1126 -42.0865 3.8008 -16.3454
# 4 -25.1351 -10.8293 -42.0865 46.9690 -5.5481 -0.2579
# 5 -22.1404 -11.1730 3.8008 -5.5481 52.3753 -11.6543
# 6 -15.0606 -12.4899 -16.3454 -0.2579 -11.6543 30.8208
#
#
#
# Elastic Compliance Matrix: (Units=1/GPa)
#
#
# Indices 1 2 3 4 5 6 
#
# 1 0.012168 -0.004482 -0.003614 0.002942 0.005742 0.004409
# 2 -0.004482 0.018656 -0.002572 0.000036 0.003458 0.005314
# 3 -0.003614 -0.002572 0.009886 0.006137 -0.001737 0.001830
# 4 0.002942 0.000036 0.006137 0.029054 0.005443 0.007008
# 5 0.005742 0.003458 -0.001737 0.005443 0.025880 0.013118
# 6 0.004409 0.005314 0.001830 0.007008 0.013118 0.042743
#
#
# Mechanical properties :
#
#
# Convention : Reuss Voigt Hill
#
# Bulk Modulus (GPa) = 51.61604 86.53546 69.07575
# Shear Modulus (GPa) = 30.08783 40.38205 35.23494
#
# Velocity S-wave (km/s) = 3.82814 4.43493 4.14266
# Velocity P-wave (km/s) = 6.68430 8.26880 7.51841
#
# Compressibility (1/GPa) = 0.01937382
#
# Stress axis : x y z
#
# Youngs Moduli (GPa) = 82.18391 53.60170 101.15100
#
# Poissons Ratio (x) = 0.24027 0.36553
# Poissons Ratio (y) = 0.36839 0.26016
# Poissons Ratio (z) = 0.29699 0.13786
#
# Static dielectric constant tensor:
#      x y z
#    x 1.457010 0.241440 -0.008150 
#    y 0.241440 1.606260 0.013980 
#    z -0.008150 0.013980 1.765790 
# 
# From -- ./inp_files/160968.got.cif
#   From: 2010.05.17/outbox.cif.g08.bks.cpg/sg2_81_cif.got.tgz:160968.got - 2010.06.03 11:33:40.
