data_PCOD9007354
_publ_section_title
;
Structure prediction by ZEFSAII (Michael W. Deem and Ramdas Pophale) SiO2 
 PCOD9007354
Probable space group: P -1
;
_chemical_formula_sum "Si O2"
_cell_formula_units_Z 14
_cell_length_a 8.588858
_cell_length_b 18.632885
_cell_length_c 15.664150
_cell_angle_alpha 21.862438
_cell_angle_beta 128.120293
_cell_angle_gamma 138.267100
_cell_volume 592.041682
_symmetry_space_group_name_H-M "P -1"
_symmetry_group_IT_number 2
_symmetry_cell_setting 'triclinic'
loop_
_space_group_symop_operation_xyz
x,y,z
-x,-y,-z
loop_
_atom_site_type_symbol
_atom_site_label
_atom_site_fract_x
_atom_site_fract_y
_atom_site_fract_z
Si Si1 0.631565 0.944946 0.409229
Si Si2 0.563890 0.559630 0.055856
Si Si3 0.837208 0.090203 0.773753
Si Si4 0.775573 0.293548 0.209303
Si Si5 0.737277 0.372325 0.680468
Si Si6 0.216434 0.034625 0.918075
Si Si7 0.975701 0.367955 0.928928
O O1 0.587971 0.693097 0.667053
O O2 0.378456 0.907525 0.341624
O O3 0.710149 0.049694 0.416641
O O4 0.832967 0.145686 0.190914
O O5 0.500000 0.500000 0.000000
O O6 0.459817 0.704956 0.887192
O O7 0.845177 0.656274 0.042997
O O8 0.063175 0.360825 0.577098
O O9 0.746539 0.936582 0.998853
O O10 0.965610 0.005688 0.850317
O O11 0.000000 0.500000 0.000000
O O12 0.868436 0.387710 0.232468
O O13 0.450681 0.258308 0.701512
O O14 0.779033 0.188652 0.854910
O O15 0.794724 0.372908 0.799237
#
# Coordination Sequence:
#
# PCOD9007354 Si02
#       7
#     2   2   2   2   2   2   2
#     4  11  22  40  63  88 127 163 195 252 304 349
#     4  10  22  40  62  87 120 161 202 249 292 363
#     4  11  22  40  64  91 121 159 204 251 300 363
#     4   9  22  40  61  90 121 160 200 246 295 363
#     4  11  21  42  62  90 123 158 202 254 303 357
#     4  10  24  40  64  88 121 162 202 252 307 356
#     4  10  21  39  61  89 124 156 205 246 293 368
#
# _framework density 23.646984
#
# number of rings (size 3 to 8) (size 9 to 14) (size 15 to 20)
#    0.000    1.714    2.857    0.857    2.000    7.429 
#    0.000    4.286    0.000    0.000    0.000    0.000 
#    0.000    0.000    0.000    0.000    0.000    0.000 
#
# Total GULP energy -78242.227315 kJ/mol
# GULP energy per Si atom -5588.730522 kJ/mol
# Density = 2.359316 g / cm^3
# Si number density = 23.646984 Si / 1000 Ang^3
#
#
#
# Elastic Constant Matrix: (Units=GPa)
#
#
# Indices 1 2 3 4 5 6 
#
# 1 68.1199 18.3274 11.0873 -26.6244 -0.2719 10.2936
# 2 18.3274 47.0027 -9.3404 -0.1114 -4.1933 4.8648
# 3 11.0873 -9.3404 69.9806 -16.0766 -15.0350 3.7780
# 4 -26.6244 -0.1114 -16.0766 27.6983 3.0734 -2.7332
# 5 -0.2719 -4.1933 -15.0350 3.0734 31.9985 -10.2421
# 6 10.2936 4.8648 3.7780 -2.7332 -10.2421 28.3905
#
#
#
# Elastic Compliance Matrix: (Units=1/GPa)
#
#
# Indices 1 2 3 4 5 6 
#
# 1 0.030494 -0.011739 -0.000896 0.028684 -0.007267 -0.008786
# 2 -0.011739 0.027353 0.004864 -0.009056 0.006801 0.000504
# 3 -0.000896 0.004864 0.019120 0.009360 0.009074 0.001121
# 4 0.028684 -0.009056 0.009360 0.069097 -0.004842 -0.005189
# 5 -0.007267 0.006801 0.009074 -0.004842 0.041541 0.014782
# 6 -0.008786 0.000504 0.001121 -0.005189 0.014782 0.043006
#
#
# Mechanical properties :
#
#
# Convention : Reuss Voigt Hill
#
# Bulk Modulus (GPa) = 16.27989 25.02797 20.65393
# Shear Modulus (GPa) = 18.75284 28.61938 23.68611
#
# Velocity S-wave (km/s) = 2.81914 3.48268 3.16833
# Velocity P-wave (km/s) = 4.18285 5.17485 4.70506
#
# Compressibility (1/GPa) = 0.06142549
#
# Stress axis : x y z
#
# Youngs Moduli (GPa) = 32.79358 36.55963 52.30125
#
# Poissons Ratio (x) = 0.42918 0.04684
# Poissons Ratio (y) = 0.38497 -0.25441
# Poissons Ratio (z) = 0.02937 -0.17784
#
# Static dielectric constant tensor:
#      x y z
#    x 1.917780 0.040950 -0.000110 
#    y 0.040950 1.956970 -0.039550 
#    z -0.000110 -0.039550 1.878530 
# 
# From -- ./inp_files/55241.got.cif
#   From: 2010.05.17/outbox.cif.g08.bks.cpg/sg2_28_cif.got.tgz:55241.got - 2010.06.03 11:33:40.
