data_PCOD9007766
_publ_section_title
;
Structure prediction by ZEFSAII (Michael W. Deem and Ramdas Pophale) SiO2 
 PCOD9007766
Probable space group: P -1
;
_chemical_formula_sum "Si O2"
_cell_formula_units_Z 14
_cell_length_a 10.350486
_cell_length_b 18.740521
_cell_length_c 6.604303
_cell_angle_alpha 126.349768
_cell_angle_beta 135.729675
_cell_angle_gamma 43.383126
_cell_volume 607.203916
_symmetry_space_group_name_H-M "P -1"
_symmetry_group_IT_number 2
_symmetry_cell_setting 'triclinic'
loop_
_space_group_symop_operation_xyz
x,y,z
-x,-y,-z
loop_
_atom_site_type_symbol
_atom_site_label
_atom_site_fract_x
_atom_site_fract_y
_atom_site_fract_z
Si Si1 0.469913 0.940821 0.175698
Si Si2 0.157585 0.123069 0.822704
Si Si3 0.106814 0.579049 0.358978
Si Si4 0.242291 0.817438 0.807335
Si Si5 0.123786 0.748927 0.934930
Si Si6 0.421328 0.418864 0.744398
Si Si7 0.668976 0.596874 0.940041
O O1 0.694295 0.874377 0.185779
O O2 0.500000 0.000000 0.500000
O O3 0.376826 0.873428 0.043440
O O4 0.301121 0.019364 0.946047
O O5 0.947856 0.135815 0.494974
O O6 0.064198 0.210671 0.041419
O O7 0.117486 0.668107 0.637097
O O8 0.232461 0.474261 0.462976
O O9 0.254388 0.522985 0.232817
O O10 0.857839 0.614985 0.109488
O O11 0.130548 0.829864 0.923804
O O12 0.426660 0.692837 0.773236
O O13 0.352313 0.690916 0.216546
O O14 0.500000 0.500000 0.000000
O O15 0.325398 0.402957 0.812296
#
# Coordination Sequence:
#
# PCOD9007766 Si02
#       7
#     2   2   2   2   2   2   2
#     4  11  27  49  74 100 135 174 222 284 348 414
#     4  11  25  46  71 103 133 180 218 282 346 408
#     4  10  21  39  62  95 136 181 227 269 327 386
#     4  11  25  45  70 103 137 176 228 279 340 404
#     4  10  23  40  69  98 137 180 225 280 330 398
#     4   9  19  37  56  89 127 177 219 267 320 383
#     4  10  22  38  63  95 134 181 224 275 325 391
#
# _framework density 23.056504
#
# number of rings (size 3 to 8) (size 9 to 14) (size 15 to 20)
#    0.000    1.714    0.000    2.571    4.000   12.000 
#   10.286    0.000    0.000    0.000    0.000    0.000 
#    0.000    0.000    0.000    0.000    0.000    0.000 
#
# Total GULP energy -78138.597980 kJ/mol
# GULP energy per Si atom -5581.328427 kJ/mol
# Density = 2.300403 g / cm^3
# Si number density = 23.056504 Si / 1000 Ang^3
#
#
#
# Elastic Constant Matrix: (Units=GPa)
#
#
# Indices 1 2 3 4 5 6 
#
# 1 113.3906 39.8163 55.9813 14.1407 6.3232 -12.9766
# 2 39.8163 48.3456 29.0049 -0.3905 7.7328 -9.4072
# 3 55.9813 29.0049 105.4796 -3.1705 13.0178 0.0877
# 4 14.1407 -0.3905 -3.1705 35.4505 1.6434 0.1964
# 5 6.3232 7.7328 13.0178 1.6434 26.4628 0.0157
# 6 -12.9766 -9.4072 0.0877 0.1964 0.0157 41.6312
#
#
#
# Elastic Compliance Matrix: (Units=1/GPa)
#
#
# Indices 1 2 3 4 5 6 
#
# 1 0.016645 -0.009527 -0.006762 -0.007486 0.002596 0.003084
# 2 -0.009527 0.032093 -0.002916 0.004144 -0.005927 0.004271
# 3 -0.006762 -0.002916 0.014615 0.004219 -0.004982 -0.002816
# 4 -0.007486 0.004144 0.004219 0.031787 -0.003471 -0.001555
# 5 0.002596 -0.005927 -0.004982 -0.003471 0.041567 -0.000519
# 6 0.003084 0.004271 -0.002816 -0.001555 -0.000519 0.025960
#
#
# Mechanical properties :
#
#
# Convention : Reuss Voigt Hill
#
# Bulk Modulus (GPa) = 40.09275 57.42453 48.75864
# Shear Modulus (GPa) = 23.87874 30.20312 27.04093
#
# Velocity S-wave (km/s) = 3.22166 3.62326 3.42835
# Velocity P-wave (km/s) = 5.59155 6.51645 6.07164
#
# Compressibility (1/GPa) = 0.02494217
#
# Stress axis : x y z
#
# Youngs Moduli (GPa) = 60.07959 31.15986 68.42151
#
# Poissons Ratio (x) = 0.29685 0.46267
# Poissons Ratio (y) = 0.57237 0.19953
# Poissons Ratio (z) = 0.40626 0.09087
#
# Static dielectric constant tensor:
#      x y z
#    x 1.881760 -0.050280 -0.035250 
#    y -0.050280 1.926360 0.011230 
#    z -0.035250 0.011230 1.873980 
# 
# From -- ./inp_files/48702.got.cif
#   From: 2010.05.17/outbox.cif.g08.bks.cpg/sg2_25_cif.got.tgz:48702.got - 2010.06.03 11:33:40.
