data_PCOD9007455
_publ_section_title
;
Structure prediction by ZEFSAII (Michael W. Deem and Ramdas Pophale) SiO2 
 PCOD9007455
Probable space group: P -1
;
_chemical_formula_sum "Si O2"
_cell_formula_units_Z 16
_cell_length_a 25.692002
_cell_length_b 16.312177
_cell_length_c 23.262428
_cell_angle_alpha 161.748025
_cell_angle_beta 16.172294
_cell_angle_gamma 154.027841
_cell_volume 840.804613
_symmetry_space_group_name_H-M "P -1"
_symmetry_group_IT_number 2
_symmetry_cell_setting 'triclinic'
loop_
_space_group_symop_operation_xyz
x,y,z
-x,-y,-z
loop_
_atom_site_type_symbol
_atom_site_label
_atom_site_fract_x
_atom_site_fract_y
_atom_site_fract_z
Si Si1 0.302639 0.661189 0.073899
Si Si2 0.571561 0.545211 0.390746
Si Si3 0.244689 0.485056 0.517404
Si Si4 0.041049 0.365136 0.427059
Si Si5 0.700608 0.067516 0.857068
Si Si6 0.004993 0.686106 0.794009
Si Si7 0.788081 0.190569 0.118956
Si Si8 0.176185 0.039602 0.562947
O O1 0.226109 0.780638 0.173412
O O2 0.189572 0.426318 0.057729
O O3 0.260869 0.910899 0.328345
O O4 0.526928 0.558785 0.762943
O O5 0.500000 0.500000 0.500000
O O6 0.397620 0.644457 0.599744
O O7 0.697753 0.775561 0.416411
O O8 0.673720 0.273799 0.074966
O O9 0.145916 0.573586 0.621044
O O10 0.180979 0.699457 0.777407
O O11 0.198215 0.209671 0.410152
O O12 0.063266 0.552568 0.581842
O O13 0.000000 0.500000 0.500000
O O14 0.861934 0.213826 0.528895
O O15 0.214060 0.122978 0.082016
O O16 0.500000 0.000000 0.000000
O O17 0.000000 0.000000 0.000000
O O18 0.963036 0.202422 0.897292
#
# Coordination Sequence:
#
# PCOD9007455 Si02
#       8
#     2   2   2   2   2   2   2   2
#     4  10  22  43  64  95 133 162 210 265 311 384
#     4  12  23  38  64  93 132 171 209 254 316 378
#     4  11  23  42  67  91 132 169 210 257 322 377
#     4   9  21  45  64  88 128 159 208 269 310 368
#     4  10  21  39  61  94 132 168 203 260 312 376
#     4  11  25  42  69  95 124 169 215 264 320 376
#     4  10  23  41  62  93 128 163 213 256 313 372
#     4   9  24  39  65  92 129 162 216 256 317 371
#
# _framework density 19.029391
#
# number of rings (size 3 to 8) (size 9 to 14) (size 15 to 20)
#    0.750    1.000    2.500    2.250    5.250    1.500 
#    0.000    0.625    0.000    0.000    0.000    0.000 
#    0.000    0.000    0.000    0.000    0.000    0.000 
#
# Total GULP energy -89159.498704 kJ/mol
# GULP energy per Si atom -5572.468669 kJ/mol
# Density = 1.898608 g / cm^3
# Si number density = 19.029391 Si / 1000 Ang^3
#
#
#
# Elastic Constant Matrix: (Units=GPa)
#
#
# Indices 1 2 3 4 5 6 
#
# 1 96.9513 21.0694 15.5164 26.0601 15.3480 -13.0217
# 2 21.0694 71.6323 22.9686 27.5164 6.5807 8.6436
# 3 15.5164 22.9686 78.0320 23.9196 22.6149 3.4653
# 4 26.0601 27.5164 23.9196 37.7150 6.1814 0.8427
# 5 15.3480 6.5807 22.6149 6.1814 47.6292 2.6491
# 6 -13.0217 8.6436 3.4653 0.8427 2.6491 36.1684
#
#
#
# Elastic Compliance Matrix: (Units=1/GPa)
#
#
# Indices 1 2 3 4 5 6 
#
# 1 0.014327 -0.001464 0.001330 -0.009120 -0.004191 0.005900
# 2 -0.001464 0.020395 -0.001698 -0.012744 0.000391 -0.004970
# 3 0.001330 -0.001698 0.018340 -0.010066 -0.007591 -0.000082
# 4 -0.009120 -0.012744 -0.010066 0.047973 0.003288 -0.000632
# 5 -0.004191 0.000391 -0.007591 0.003288 0.025627 -0.002828
# 6 0.005900 -0.004970 -0.000082 -0.000632 -0.002828 0.031190
#
#
# Mechanical properties :
#
#
# Convention : Reuss Voigt Hill
#
# Bulk Modulus (GPa) = 20.24404 40.63603 30.44004
# Shear Modulus (GPa) = 28.09286 36.77327 32.43307
#
# Velocity S-wave (km/s) = 3.84642 4.40073 4.13288
# Velocity P-wave (km/s) = 5.51253 6.87187 6.22939
#
# Compressibility (1/GPa) = 0.04939725
#
# Stress axis : x y z
#
# Youngs Moduli (GPa) = 69.79820 49.03277 54.52652
#
# Poissons Ratio (x) = 0.07180 -0.07253
# Poissons Ratio (y) = 0.10220 0.09258
# Poissons Ratio (z) = -0.09284 0.08326
#
# Static dielectric constant tensor:
#      x y z
#    x 1.636070 -0.001740 0.001510 
#    y -0.001740 1.699750 -0.028710 
#    z 0.001510 -0.028710 1.694660 
# 
# From -- ./inp_files/602137.got.cif
#   From: 2010.05.17/outbox.cif.g08.bks.cpg/sg2_302_cif.got.tgz:602137.got - 2010.06.03 11:33:40.
