data_PCOD9007888
_publ_section_title
;
Structure prediction by ZEFSAII (Michael W. Deem and Ramdas Pophale) SiO2 
 PCOD9007888
Probable space group: P -1
;
_chemical_formula_sum "Si O2"
_cell_formula_units_Z 12
_cell_length_a 9.955148
_cell_length_b 7.905184
_cell_length_c 14.798407
_cell_angle_alpha 143.922537
_cell_angle_beta 36.995404
_cell_angle_gamma 134.007897
_cell_volume 408.679293
_symmetry_space_group_name_H-M "P -1"
_symmetry_group_IT_number 2
_symmetry_cell_setting 'triclinic'
loop_
_space_group_symop_operation_xyz
x,y,z
-x,-y,-z
loop_
_atom_site_type_symbol
_atom_site_label
_atom_site_fract_x
_atom_site_fract_y
_atom_site_fract_z
Si Si1 0.581641 0.113452 0.866114
Si Si2 0.845659 0.078154 0.201155
Si Si3 0.049537 0.695364 0.378443
Si Si4 0.648902 0.472770 0.246031
Si Si5 0.408540 0.630458 0.282296
Si Si6 0.055795 0.878842 0.188217
O O1 0.726456 0.327729 0.812376
O O2 0.761117 0.980321 0.777417
O O3 0.441221 0.817204 0.776339
O O4 0.435779 0.316984 0.088065
O O5 0.863118 0.425849 0.341592
O O6 0.604418 0.875998 0.244732
O O7 0.961235 0.012130 0.206851
O O8 0.000000 0.000000 0.000000
O O9 0.158678 0.691243 0.417744
O O10 0.000000 0.000000 0.500000
O O11 0.463814 0.620869 0.354899
O O12 0.842105 0.707660 0.282971
O O13 0.789677 0.349936 0.035379
#
# Coordination Sequence:
#
# PCOD9007888 Si02
#       6
#     2   2   2   2   2   2
#     4  11  20  36  64  92 117 159 200 254 297 355
#     4  11  22  39  65  92 121 159 201 252 299 360
#     4  12  27  41  58  90 129 164 201 251 306 357
#     4   9  18  32  59  92 122 147 194 258 301 347
#     4  10  21  39  63  90 119 160 205 247 301 362
#     4   9  19  34  58  96 122 145 198 257 300 350
#
# _framework density 29.362877999999998
#
# number of rings (size 3 to 8) (size 9 to 14) (size 15 to 20)
#    0.000    1.667    1.667    5.500    2.333    0.667 
#    0.000    3.333    0.000    4.000    0.000    0.000 
#    0.000    0.000    0.000    0.000    0.000    0.000 
#
# Total GULP energy -67223.032110 kJ/mol
# GULP energy per Si atom -5601.919342 kJ/mol
# Density = 2.929605 g / cm^3
# Si number density = 29.362878 Si / 1000 Ang^3
#
#
#
# Elastic Constant Matrix: (Units=GPa)
#
#
# Indices 1 2 3 4 5 6 
#
# 1 120.5703 52.2816 33.8778 11.9107 -24.0353 -3.9008
# 2 52.2816 224.5558 34.1568 27.3067 13.5496 13.6970
# 3 33.8778 34.1568 105.8327 24.3470 -20.1546 7.0584
# 4 11.9107 27.3067 24.3470 50.6452 -7.7474 9.2563
# 5 -24.0353 13.5496 -20.1546 -7.7474 50.8807 -0.6360
# 6 -3.9008 13.6970 7.0584 9.2563 -0.6360 63.7295
#
#
#
# Elastic Compliance Matrix: (Units=1/GPa)
#
#
# Indices 1 2 3 4 5 6 
#
# 1 0.011072 -0.002748 -0.001812 0.000290 0.005307 0.001480
# 2 -0.002748 0.005825 -0.001089 -0.002347 -0.003651 -0.000995
# 3 -0.001812 -0.001089 0.012048 -0.004127 0.003571 -0.000576
# 4 0.000290 -0.002347 -0.004127 0.023790 0.002719 -0.002449
# 5 0.005307 -0.003651 0.003571 0.002719 0.024968 0.000568
# 6 0.001480 -0.000995 -0.000576 -0.002449 0.000568 0.016421
#
#
# Mechanical properties :
#
#
# Convention : Reuss Voigt Hill
#
# Bulk Modulus (GPa) = 56.66750 76.84346 66.75548
# Shear Modulus (GPa) = 44.92140 55.09394 50.00767
#
# Velocity S-wave (km/s) = 3.91560 4.33634 4.13133
# Velocity P-wave (km/s) = 6.30741 7.16233 6.74842
#
# Compressibility (1/GPa) = 0.01764680
#
# Stress axis : x y z
#
# Youngs Moduli (GPa) = 90.32036 171.67062 82.99843
#
# Poissons Ratio (x) = 0.47173 0.15040
# Poissons Ratio (y) = 0.24819 0.09040
# Poissons Ratio (z) = 0.16367 0.18699
#
# Static dielectric constant tensor:
#      x y z
#    x 2.349230 -0.039730 0.048780 
#    y -0.039730 2.256160 -0.043640 
#    z 0.048780 -0.043640 2.371240 
# 
# From -- ./inp_files/187554.got.cif
#   From: 2010.05.17/outbox.cif.g08.bks.cpg/sg2_94_cif.got.tgz:187554.got - 2010.06.03 11:33:40.
