data_PCOD9007865
_publ_section_title
;
Structure prediction by ZEFSAII (Michael W. Deem and Ramdas Pophale) SiO2 
 PCOD9007865
Probable space group: P -1
;
_chemical_formula_sum "Si O2"
_cell_formula_units_Z 14
_cell_length_a 8.736368
_cell_length_b 5.637076
_cell_length_c 16.724654
_cell_angle_alpha 101.924509
_cell_angle_beta 134.693770
_cell_angle_gamma 85.055179
_cell_volume 570.803433
_symmetry_space_group_name_H-M "P -1"
_symmetry_group_IT_number 2
_symmetry_cell_setting 'triclinic'
loop_
_space_group_symop_operation_xyz
x,y,z
-x,-y,-z
loop_
_atom_site_type_symbol
_atom_site_label
_atom_site_fract_x
_atom_site_fract_y
_atom_site_fract_z
Si Si1 0.183243 0.214892 0.067326
Si Si2 0.346660 0.163925 0.404897
Si Si3 0.462397 0.088925 0.845193
Si Si4 0.880516 0.210687 0.220107
Si Si5 0.867202 0.469202 0.067789
Si Si6 0.691717 0.409301 0.452433
Si Si7 0.162139 0.369356 0.641125
O O1 0.095397 0.419633 0.105535
O O2 0.414735 0.127259 0.163368
O O3 0.180842 0.284922 0.977685
O O4 0.000000 0.000000 0.000000
O O5 0.477074 0.235610 0.377222
O O6 0.313888 0.402077 0.462732
O O7 0.099053 0.071162 0.290190
O O8 0.500000 0.000000 0.500000
O O9 0.296338 0.198693 0.732047
O O10 0.325112 0.983255 0.862696
O O11 0.657010 0.290069 0.951997
O O12 0.887833 0.402245 0.163063
O O13 0.857404 0.376808 0.301553
O O14 0.718385 0.567213 0.393461
O O15 0.911703 0.272490 0.528824
#
# Coordination Sequence:
#
# PCOD9007865 Si02
#       7
#     2   2   2   2   2   2   2
#     4   9  21  39  60  83 113 158 202 243 296 348
#     4  10  21  39  63  89 117 152 199 247 299 357
#     4  11  22  38  60  88 120 159 202 244 295 354
#     4  11  24  37  59  90 120 161 200 240 300 358
#     4  10  22  41  59  85 125 157 197 251 295 351
#     4   9  21  41  60  86 121 154 192 251 306 350
#     4  10  22  39  60  87 121 156 198 246 300 359
#
# _framework density 24.52683
#
# number of rings (size 3 to 8) (size 9 to 14) (size 15 to 20)
#    0.000    2.000    0.000    2.143    0.000   11.429 
#    0.000    4.286    0.000    0.000    0.000    0.000 
#    0.000    0.000    0.000    0.000    0.000    0.000 
#
# Total GULP energy -78250.175601 kJ/mol
# GULP energy per Si atom -5589.298257 kJ/mol
# Density = 2.447101 g / cm^3
# Si number density = 24.526830 Si / 1000 Ang^3
#
#
#
# Elastic Constant Matrix: (Units=GPa)
#
#
# Indices 1 2 3 4 5 6 
#
# 1 183.8618 45.7437 59.6582 -12.2851 19.4876 34.3880
# 2 45.7437 50.3106 29.3343 -25.9733 25.2058 14.5003
# 3 59.6582 29.3343 76.9968 -20.9856 21.0757 9.8650
# 4 -12.2851 -25.9733 -20.9856 30.2197 -5.2432 3.7159
# 5 19.4876 25.2058 21.0757 -5.2432 49.5357 -3.0242
# 6 34.3880 14.5003 9.8650 3.7159 -3.0242 35.0250
#
#
#
# Elastic Compliance Matrix: (Units=1/GPa)
#
#
# Indices 1 2 3 4 5 6 
#
# 1 0.009620 -0.010777 -0.006497 -0.009041 0.003390 -0.001902
# 2 -0.010777 0.125726 0.014726 0.111520 -0.058010 -0.062458
# 3 -0.006497 0.014726 0.024468 0.026003 -0.013237 -0.010512
# 4 -0.009041 0.111520 0.026003 0.142005 -0.053146 -0.064272
# 5 0.003390 -0.058010 -0.013237 -0.053146 0.050479 0.034413
# 6 -0.001902 -0.062458 -0.010512 -0.064272 0.034413 0.069027
#
#
# Mechanical properties :
#
#
# Convention : Reuss Voigt Hill
#
# Bulk Modulus (GPa) = 6.46325 64.51576 35.48950
# Shear Modulus (GPa) = 10.46039 34.71826 22.58932
#
# Velocity S-wave (km/s) = 2.06740 3.76642 3.03810
# Velocity P-wave (km/s) = 2.88786 6.72873 5.17762
#
# Compressibility (1/GPa) = 0.15472091
#
# Stress axis : x y z
#
# Youngs Moduli (GPa) = 103.94571 7.95379 40.86962
#
# Poissons Ratio (x) = 0.08572 0.26551
# Poissons Ratio (y) = 1.12019 -0.60186
# Poissons Ratio (z) = 0.67529 -0.11713
#
# Static dielectric constant tensor:
#      x y z
#    x 1.930750 -0.036460 -0.004050 
#    y -0.036460 2.014310 0.032930 
#    z -0.004050 0.032930 1.979260 
# 
# From -- ./inp_files/46236.got.cif
#   From: 2010.05.17/outbox.cif.g08.bks.cpg/sg2_24_cif.got.tgz:46236.got - 2010.06.03 11:33:40.
