data_PCOD9007327
_publ_section_title
;
Structure prediction by ZEFSAII (Michael W. Deem and Ramdas Pophale) SiO2 
 PCOD9007327
Probable space group: P -1
;
_chemical_formula_sum "Si O2"
_cell_formula_units_Z 10
_cell_length_a 6.436163
_cell_length_b 14.166106
_cell_length_c 5.015674
_cell_angle_alpha 84.657904
_cell_angle_beta 127.521558
_cell_angle_gamma 104.181876
_cell_volume 350.708655
_symmetry_space_group_name_H-M "P -1"
_symmetry_group_IT_number 2
_symmetry_cell_setting 'triclinic'
loop_
_space_group_symop_operation_xyz
x,y,z
-x,-y,-z
loop_
_atom_site_type_symbol
_atom_site_label
_atom_site_fract_x
_atom_site_fract_y
_atom_site_fract_z
Si Si1 0.287796 0.574830 0.495740
Si Si2 0.112816 0.819360 0.640073
Si Si3 0.574225 0.220133 0.611181
Si Si4 0.255741 0.382072 0.720791
Si Si5 0.777670 0.980849 0.602979
O O1 0.421748 0.666046 0.387502
O O2 0.264991 0.459870 0.465360
O O3 0.987458 0.589072 0.304902
O O4 0.472814 0.596364 0.900247
O O5 0.343272 0.796577 0.623630
O O6 0.139627 0.933971 0.575043
O O7 0.861553 0.732645 0.383442
O O8 0.198767 0.800687 0.009611
O O9 0.312257 0.134816 0.494975
O O10 0.500000 0.000000 0.500000
O O11 0.000000 0.000000 0.000000
#
# Coordination Sequence:
#
# PCOD9007327 Si02
#       5
#     2   2   2   2   2
#     4   9  18  35  58  85 117 154 196 242 293 349
#     4  10  21  39  61  88 120 156 198 244 296 352
#     4  10  21  39  61  88 120 156 198 244 296 352
#     4   9  18  35  58  85 117 154 196 242 293 349
#     4  10  21  40  62  88 120 156 198 244 296 352
#
# _framework density 28.513695999999999
#
# number of rings (size 3 to 8) (size 9 to 14) (size 15 to 20)
#    0.000    2.400    0.000    1.800    0.000    0.800 
#    0.000   40.000    0.000   21.600    0.000    0.000 
#    0.000    0.000    0.000    0.000    0.000    0.000 
#
# Total GULP energy -56055.995407 kJ/mol
# GULP energy per Si atom -5605.599541 kJ/mol
# Density = 2.844880 g / cm^3
# Si number density = 28.513696 Si / 1000 Ang^3
#
#
#
# Elastic Constant Matrix: (Units=GPa)
#
#
# Indices 1 2 3 4 5 6 
#
# 1 72.3317 60.8657 6.3407 -7.7352 13.1322 13.5466
# 2 60.8657 296.5558 48.9510 -41.2304 12.2093 -7.5735
# 3 6.3407 48.9510 155.1396 -4.6378 23.4345 -15.8019
# 4 -7.7352 -41.2304 -4.6378 66.8857 11.2886 7.9831
# 5 13.1322 12.2093 23.4345 11.2886 32.6715 -4.9949
# 6 13.5466 -7.5735 -15.8019 7.9831 -4.9949 90.6978
#
#
#
# Elastic Compliance Matrix: (Units=1/GPa)
#
#
# Indices 1 2 3 4 5 6 
#
# 1 0.019190 -0.003630 0.001345 0.001943 -0.008539 -0.003576
# 2 -0.003630 0.004656 -0.001173 0.002336 -0.000168 0.000512
# 3 0.001345 -0.001173 0.007738 0.000880 -0.005857 0.000649
# 4 0.001943 0.002336 0.000880 0.018436 -0.008970 -0.002059
# 5 -0.008539 -0.000168 -0.005857 -0.008970 0.041914 0.003339
# 6 -0.003576 0.000512 0.000649 -0.002059 0.003339 0.012081
#
#
# Mechanical properties :
#
#
# Convention : Reuss Voigt Hill
#
# Bulk Modulus (GPa) = 40.54081 84.03801 62.28941
# Shear Modulus (GPa) = 41.96257 65.24232 53.60245
#
# Velocity S-wave (km/s) = 3.84039 4.78860 4.34047
# Velocity P-wave (km/s) = 5.82354 7.75314 6.85656
#
# Compressibility (1/GPa) = 0.02466651
#
# Stress axis : x y z
#
# Youngs Moduli (GPa) = 52.11042 214.79812 129.22794
#
# Poissons Ratio (x) = 0.77977 -0.17379
# Poissons Ratio (y) = 0.18917 0.15162
# Poissons Ratio (z) = -0.07008 0.25202
#
# Static dielectric constant tensor:
#      x y z
#    x 2.661790 -0.148800 -0.002980 
#    y -0.148800 2.302050 -0.019810 
#    z -0.002980 -0.019810 1.996390 
# 
# From -- ./inp_files/2811.got.cif
#   From: 2010.05.17/outbox.cif.g08.bks.cpg/sg2_2_cif.got.tgz:2811.got - 2010.06.03 11:33:40.
