data_PCOD9007502
_publ_section_title
;
Structure prediction by ZEFSAII (Michael W. Deem and Ramdas Pophale) SiO2 
 PCOD9007502
Probable space group: P -1
;
_chemical_formula_sum "Si O2"
_cell_formula_units_Z 14
_cell_length_a 12.558687
_cell_length_b 5.302411
_cell_length_c 10.520826
_cell_angle_alpha 96.498990
_cell_angle_beta 104.278896
_cell_angle_gamma 57.740593
_cell_volume 574.003369
_symmetry_space_group_name_H-M "P -1"
_symmetry_group_IT_number 2
_symmetry_cell_setting 'triclinic'
loop_
_space_group_symop_operation_xyz
x,y,z
-x,-y,-z
loop_
_atom_site_type_symbol
_atom_site_label
_atom_site_fract_x
_atom_site_fract_y
_atom_site_fract_z
Si Si1 0.148668 0.352092 0.071035
Si Si2 0.278793 0.440343 0.331848
Si Si3 0.765167 0.171723 0.276946
Si Si4 0.480929 0.821445 0.787248
Si Si5 0.817542 0.941803 0.691935
Si Si6 0.918015 0.486699 0.360478
Si Si7 0.664711 0.593653 0.056315
O O1 0.170059 0.549975 0.193044
O O2 0.205962 0.058416 0.162365
O O3 0.238303 0.329655 0.980809
O O4 0.000000 0.500000 0.000000
O O5 0.417688 0.243783 0.297378
O O6 0.242393 0.245226 0.393168
O O7 0.252241 0.752356 0.386479
O O8 0.623735 0.259432 0.287269
O O9 0.829534 0.351185 0.359110
O O10 0.742521 0.275706 0.128641
O O11 0.849124 0.817713 0.301568
O O12 0.409987 0.156908 0.841909
O O13 0.564594 0.626216 0.921849
O O14 0.970645 0.756943 0.712522
O O15 0.000000 0.500000 0.500000
#
# Coordination Sequence:
#
# PCOD9007502 Si02
#       7
#     2   2   2   2   2   2   2
#     4   9  20  34  56  88 133 170 211 247 316 384
#     4   9  22  37  61  88 130 174 204 254 316 382
#     4  12  24  42  68 101 131 168 218 274 324 390
#     4  10  22  39  65 100 142 176 219 244 324 393
#     4  10  22  42  60  88 124 170 209 265 333 375
#     4  12  27  47  71  95 123 167 227 289 336 377
#     4  10  21  39  62 103 140 180 209 258 312 398
#
# _framework density 24.390101000000001
#
# number of rings (size 3 to 8) (size 9 to 14) (size 15 to 20)
#    0.857    0.857    1.429    2.571    2.000    2.857 
#    0.000    0.000    0.000    5.143    0.000    0.000 
#    0.000    0.000    0.000    0.000    0.000    0.000 
#
# Total GULP energy -78175.751925 kJ/mol
# GULP energy per Si atom -5583.982280 kJ/mol
# Density = 2.433459 g / cm^3
# Si number density = 24.390101 Si / 1000 Ang^3
#
#
#
# Elastic Constant Matrix: (Units=GPa)
#
#
# Indices 1 2 3 4 5 6 
#
# 1 191.3332 66.8801 25.3840 3.7654 1.5127 4.2351
# 2 66.8801 134.6690 28.2972 -14.9562 -4.6319 18.5530
# 3 25.3840 28.2972 49.3433 -6.4362 8.8469 -0.0673
# 4 3.7654 -14.9562 -6.4362 18.5177 5.2703 -2.5430
# 5 1.5127 -4.6319 8.8469 5.2703 28.4595 0.2049
# 6 4.2351 18.5530 -0.0673 -2.5430 0.2049 39.2492
#
#
#
# Elastic Compliance Matrix: (Units=1/GPa)
#
#
# Indices 1 2 3 4 5 6 
#
# 1 0.006857 -0.003557 -0.002294 -0.005189 0.000726 0.000598
# 2 -0.003557 0.011617 -0.004242 0.007408 0.002060 -0.004646
# 3 -0.002294 -0.004242 0.027134 0.009978 -0.010873 0.003002
# 4 -0.005189 0.007408 0.009978 0.068822 -0.014377 0.001610
# 5 0.000726 0.002060 -0.010873 -0.014377 0.041493 -0.002219
# 6 0.000598 -0.004646 0.003002 0.001610 -0.002219 0.027731
#
#
# Mechanical properties :
#
#
# Convention : Reuss Voigt Hill
#
# Bulk Modulus (GPa) = 39.33521 68.49646 53.91583
# Shear Modulus (GPa) = 23.55015 34.23088 28.89052
#
# Velocity S-wave (km/s) = 3.11072 3.75036 3.44542
# Velocity P-wave (km/s) = 5.39116 6.84823 6.16291
#
# Compressibility (1/GPa) = 0.02542252
#
# Stress axis : x y z
#
# Youngs Moduli (GPa) = 145.82766 86.08068 36.85442
#
# Poissons Ratio (x) = 0.30621 0.08455
# Poissons Ratio (y) = 0.51874 0.15632
# Poissons Ratio (z) = 0.33454 0.36512
#
# Static dielectric constant tensor:
#      x y z
#    x 1.954310 0.062230 0.005740 
#    y 0.062230 2.046020 0.018310 
#    z 0.005740 0.018310 1.967690 
# 
# From -- ./inp_files/409173.got.cif
#   From: 2010.05.17/outbox.cif.g08.bks.cpg/sg2_205_cif.got.tgz:409173.got - 2010.06.03 11:33:40.
