data_PCOD9007628
_publ_section_title
;
Structure prediction by ZEFSAII (Michael W. Deem and Ramdas Pophale) SiO2 
 PCOD9007628
Probable space group: P -1
;
_chemical_formula_sum "Si O2"
_cell_formula_units_Z 16
_cell_length_a 8.058494
_cell_length_b 21.286619
_cell_length_c 9.202661
_cell_angle_alpha 56.557003
_cell_angle_beta 32.647992
_cell_angle_gamma 59.601744
_cell_volume 707.525875
_symmetry_space_group_name_H-M "P -1"
_symmetry_group_IT_number 2
_symmetry_cell_setting 'triclinic'
loop_
_space_group_symop_operation_xyz
x,y,z
-x,-y,-z
loop_
_atom_site_type_symbol
_atom_site_label
_atom_site_fract_x
_atom_site_fract_y
_atom_site_fract_z
Si Si1 0.056809 0.031086 0.075983
Si Si2 0.376877 0.430981 0.767903
Si Si3 0.328855 0.569518 0.127011
Si Si4 0.743735 0.808373 0.203607
Si Si5 0.028287 0.807299 0.682264
Si Si6 0.215339 0.342475 0.450456
Si Si7 0.897556 0.343322 0.364912
Si Si8 0.727841 0.968363 0.648110
O O1 0.105603 0.119201 0.936808
O O2 0.386310 0.987928 0.936580
O O3 0.000000 0.000000 0.000000
O O4 0.774238 0.010717 0.409260
O O5 0.500000 0.500000 0.500000
O O6 0.539275 0.361243 0.644022
O O7 0.522170 0.434611 0.816932
O O8 0.031277 0.409974 0.083917
O O9 0.440176 0.639186 0.863727
O O10 0.500000 0.500000 0.000000
O O11 0.967954 0.591129 0.400620
O O12 0.378281 0.827754 0.422259
O O13 0.792131 0.736608 0.364404
O O14 0.895048 0.790297 0.959339
O O15 0.035299 0.735258 0.664997
O O16 0.816398 0.879010 0.684772
O O17 0.056865 0.342402 0.407953
O O18 0.000000 0.000000 0.500000
#
# Coordination Sequence:
#
# PCOD9007628 Si02
#       8
#     2   2   2   2   2   2   2   2
#     4  12  26  44  67 100 131 171 226 272 329 395
#     4  10  21  39  63  90 125 160 207 265 311 376
#     4  10  21  39  62  90 121 164 208 252 320 379
#     4  12  24  43  63  96 131 167 218 271 321 387
#     4  12  25  41  68  94 129 172 217 267 326 389
#     4  10  23  41  61  89 129 164 204 265 317 376
#     4  10  23  42  60  93 125 166 211 254 327 381
#     4  12  23  46  68  94 134 174 218 276 331 384
#
# _framework density 22.614015999999999
#
# number of rings (size 3 to 8) (size 9 to 14) (size 15 to 20)
#    0.000    1.000    2.500    3.750    1.750    3.000 
#    4.500    0.000    0.000    0.000    0.000    0.000 
#    0.000    0.000    0.000    0.000    0.000    0.000 
#
# Total GULP energy -89410.312074 kJ/mol
# GULP energy per Si atom -5588.144505 kJ/mol
# Density = 2.256255 g / cm^3
# Si number density = 22.614016 Si / 1000 Ang^3
#
#
#
# Elastic Constant Matrix: (Units=GPa)
#
#
# Indices 1 2 3 4 5 6 
#
# 1 22.7385 16.0595 22.9093 2.6055 -1.4726 6.0901
# 2 16.0595 138.9683 38.1557 -4.0416 23.4666 8.4526
# 3 22.9093 38.1557 151.4052 3.6236 12.1364 -1.1277
# 4 2.6055 -4.0416 3.6236 42.2595 -6.8603 5.9663
# 5 -1.4726 23.4666 12.1364 -6.8603 26.4636 5.3392
# 6 6.0901 8.4526 -1.1277 5.9663 5.3392 25.8302
#
#
#
# Elastic Compliance Matrix: (Units=1/GPa)
#
#
# Indices 1 2 3 4 5 6 
#
# 1 0.063965 -0.006658 -0.009593 0.001578 0.017774 -0.017360
# 2 -0.006658 0.009604 -0.000721 -0.000031 -0.008600 0.000180
# 3 -0.009593 -0.000721 0.008728 -0.001685 -0.005211 0.004345
# 4 0.001578 -0.000031 -0.001685 0.026443 0.009457 -0.008498
# 5 0.017774 -0.008600 -0.005211 0.009457 0.054272 -0.015006
# 6 -0.017360 0.000180 0.004345 -0.008498 -0.015006 0.048003
#
#
# Mechanical properties :
#
#
# Convention : Reuss Voigt Hill
#
# Bulk Modulus (GPa) = 20.68099 51.92899 36.30499
# Shear Modulus (GPa) = 19.15155 34.64316 26.89735
#
# Velocity S-wave (km/s) = 2.91329 3.91824 3.45252
# Velocity P-wave (km/s) = 4.52564 6.59418 5.65529
#
# Compressibility (1/GPa) = 0.04835357
#
# Stress axis : x y z
#
# Youngs Moduli (GPa) = 15.63361 104.12642 114.56827
#
# Poissons Ratio (x) = 0.69324 1.09900
# Poissons Ratio (y) = 0.10408 0.08265
# Poissons Ratio (z) = 0.14997 0.07512
#
# Static dielectric constant tensor:
#      x y z
#    x 1.813750 -0.018660 -0.018960 
#    y -0.018660 1.856270 -0.009110 
#    z -0.018960 -0.009110 1.809920 
# 
# From -- ./inp_files/223339.got.cif
#   From: 2010.05.17/outbox.cif.g08.bks.cpg/sg2_112_cif.got.tgz:223339.got - 2010.06.03 11:33:40.
