data_PCOD9007259
_publ_section_title
;
Structure prediction by ZEFSAII (Michael W. Deem and Ramdas Pophale) SiO2 
 PCOD9007259
Probable space group: P -1
;
_chemical_formula_sum "Si O2"
_cell_formula_units_Z 16
_cell_length_a 19.359729
_cell_length_b 8.512330
_cell_length_c 6.731572
_cell_angle_alpha 142.310093
_cell_angle_beta 98.393049
_cell_angle_gamma 83.278071
_cell_volume 670.970005
_symmetry_space_group_name_H-M "P -1"
_symmetry_group_IT_number 2
_symmetry_cell_setting 'triclinic'
loop_
_space_group_symop_operation_xyz
x,y,z
-x,-y,-z
loop_
_atom_site_type_symbol
_atom_site_label
_atom_site_fract_x
_atom_site_fract_y
_atom_site_fract_z
Si Si1 0.475242 0.250630 0.355975
Si Si2 0.977807 0.249818 0.617892
Si Si3 0.401841 0.784419 0.359039
Si Si4 0.776762 0.742625 0.258848
Si Si5 0.269152 0.757217 0.502226
Si Si6 0.356139 0.285273 0.603227
Si Si7 0.147640 0.707615 0.655534
Si Si8 0.898065 0.791505 0.633871
O O1 0.500000 0.500000 0.500000
O O2 0.518718 0.248150 0.576650
O O3 0.393327 0.252795 0.375005
O O4 0.500000 0.000000 0.000000
O O5 0.896948 0.250112 0.522390
O O6 0.021451 0.239851 0.420606
O O7 0.000000 0.000000 0.500000
O O8 0.000000 0.500000 0.000000
O O9 0.352499 0.758482 0.508333
O O10 0.386166 0.058351 0.528916
O O11 0.378475 0.560771 0.975821
O O12 0.726726 0.741684 0.432065
O O13 0.855398 0.746185 0.367944
O O14 0.757538 0.987258 0.363568
O O15 0.757465 0.490255 0.876921
O O16 0.229906 0.738436 0.676329
O O17 0.127098 0.427850 0.445735
O O18 0.122549 0.928654 0.015904
#
# Coordination Sequence:
#
# PCOD9007259 Si02
#       8
#     2   2   2   2   2   2   2   2
#     4  12  24  36  56  86 118 146 186 240 292 336
#     4  12  24  42  64  84 114 156 198 234 272 336
#     4  10  21  39  61  81 111 153 195 231 275 340
#     4  10  21  39  61  85 112 151 195 231 275 340
#     4  10  21  39  61  85 112 151 195 231 275 340
#     4  10  21  39  61  81 111 153 195 231 275 340
#     4  12  24  39  60  89 121 149 184 237 292 336
#     4  12  24  39  60  89 121 149 184 237 292 336
#
# _framework density 23.846073000000001
#
# number of rings (size 3 to 8) (size 9 to 14) (size 15 to 20)
#    0.000    1.000    0.000    7.500    0.000    2.000 
#    0.000    0.000    0.000    0.000    0.000    0.000 
#    0.000    0.000    0.000    0.000    0.000    0.000 
#
# Total GULP energy -89614.462281 kJ/mol
# GULP energy per Si atom -5600.903893 kJ/mol
# Density = 2.379180 g / cm^3
# Si number density = 23.846073 Si / 1000 Ang^3
#
#
#
# Elastic Constant Matrix: (Units=GPa)
#
#
# Indices 1 2 3 4 5 6 
#
# 1 94.1914 7.0204 8.8060 2.2020 -27.0945 30.5391
# 2 7.0204 82.5506 -16.0597 16.8124 -0.9778 6.2624
# 3 8.8060 -16.0597 80.6088 16.0483 -8.0235 7.7610
# 4 2.2020 16.8124 16.0483 27.7051 6.5466 -6.1674
# 5 -27.0945 -0.9778 -8.0235 6.5466 43.7186 -15.6694
# 6 30.5391 6.2624 7.7610 -6.1674 -15.6694 44.0673
#
#
#
# Elastic Compliance Matrix: (Units=1/GPa)
#
#
# Indices 1 2 3 4 5 6 
#
# 1 0.015904 0.001175 0.001564 -0.006864 0.007730 -0.009676
# 2 0.001175 0.017486 0.007643 -0.017163 0.002941 -0.006002
# 3 0.001564 0.007643 0.018431 -0.017992 0.005012 -0.006152
# 4 -0.006864 -0.017163 -0.017992 0.063671 -0.012109 0.014970
# 5 0.007730 0.002941 0.005012 -0.012109 0.031481 0.002842
# 6 -0.009676 -0.006002 -0.006152 0.014970 0.002842 0.034440
#
#
# Mechanical properties :
#
#
# Convention : Reuss Voigt Hill
#
# Bulk Modulus (GPa) = 13.77675 28.54269 21.15972
# Shear Modulus (GPa) = 27.04984 40.27047 33.66015
#
# Velocity S-wave (km/s) = 3.37167 4.11392 3.76115
# Velocity P-wave (km/s) = 4.57684 5.87889 5.26824
#
# Compressibility (1/GPa) = 0.07258607
#
# Stress axis : x y z
#
# Youngs Moduli (GPa) = 62.87713 57.18758 54.25742
#
# Poissons Ratio (x) = -0.06721 -0.08487
# Poissons Ratio (y) = -0.07390 -0.41469
# Poissons Ratio (z) = -0.09836 -0.43708
#
# Static dielectric constant tensor:
#      x y z
#    x 1.852910 -0.002620 -0.023010 
#    y -0.002620 1.759640 -0.000970 
#    z -0.023010 -0.000970 1.853290 
# 
# From -- ./inp_files/11019.got.cif
#   From: 2010.05.17/outbox.cif.g08.bks.cpg/sg2_6_cif.got.tgz:11019.got - 2010.06.03 11:33:40.
