data_PCOD9007798
_publ_section_title
;
Structure prediction by ZEFSAII (Michael W. Deem and Ramdas Pophale) SiO2 
 PCOD9007798
Probable space group: P -1
;
_chemical_formula_sum "Si O2"
_cell_formula_units_Z 16
_cell_length_a 11.539329
_cell_length_b 13.847961
_cell_length_c 11.726234
_cell_angle_alpha 59.427876
_cell_angle_beta 85.722687
_cell_angle_gamma 136.238606
_cell_volume 747.961187
_symmetry_space_group_name_H-M "P -1"
_symmetry_group_IT_number 2
_symmetry_cell_setting 'triclinic'
loop_
_space_group_symop_operation_xyz
x,y,z
-x,-y,-z
loop_
_atom_site_type_symbol
_atom_site_label
_atom_site_fract_x
_atom_site_fract_y
_atom_site_fract_z
Si Si1 0.400717 0.848530 0.488987
Si Si2 0.006830 0.686164 0.538399
Si Si3 0.778218 0.652387 0.739487
Si Si4 0.506171 0.139022 0.898797
Si Si5 0.420695 0.176971 0.125665
Si Si6 0.777532 0.031958 0.195480
Si Si7 0.753580 0.834451 0.491191
Si Si8 0.683403 0.414815 0.190239
O O1 0.219440 0.773963 0.477865
O O2 0.621984 0.985737 0.314478
O O3 0.250738 0.618690 0.697144
O O4 0.500000 0.000000 0.500000
O O5 0.930140 0.671677 0.676085
O O6 0.766073 0.416829 0.669364
O O7 0.135333 0.902325 0.338328
O O8 0.721565 0.676758 0.616128
O O9 0.523942 0.391689 0.972417
O O10 0.968078 0.888231 0.658238
O O11 0.304124 0.011240 0.900753
O O12 0.469961 0.157478 0.015846
O O13 0.500000 0.000000 0.000000
O O14 0.583942 0.276393 0.162757
O O15 0.713412 0.854611 0.358199
O O16 0.072092 0.304869 0.021181
O O17 0.553485 0.720959 0.659901
#
# Coordination Sequence:
#
# PCOD9007798 Si02
#       8
#     2   2   2   2   2   2   2   2
#     4  11  22  35  61  93 123 159 204 262 317 367
#     4  11  22  42  62  90 132 166 212 256 320 372
#     4  10  21  39  63 100 124 158 211 267 321 368
#     4  11  26  42  61  91 129 177 211 251 308 384
#     4  11  22  38  63  92 124 163 208 257 316 369
#     4  11  24  42  61  92 129 167 210 256 313 375
#     4  10  21  39  67  95 127 160 209 268 319 369
#     4  11  22  38  64  97 125 159 210 264 318 373
#
# _framework density 21.391486
#
# number of rings (size 3 to 8) (size 9 to 14) (size 15 to 20)
#    0.000    1.250    3.750    2.250    1.750    7.000 
#    0.000    2.500    0.000    4.500    0.000    0.000 
#    0.000    0.000    0.000    0.000    0.000    0.000 
#
# Total GULP energy -89252.990136 kJ/mol
# GULP energy per Si atom -5578.311883 kJ/mol
# Density = 2.134280 g / cm^3
# Si number density = 21.391486 Si / 1000 Ang^3
#
#
#
# Elastic Constant Matrix: (Units=GPa)
#
#
# Indices 1 2 3 4 5 6 
#
# 1 52.0366 9.9361 23.0195 4.8826 15.3668 16.4659
# 2 9.9361 79.0576 37.5548 -2.6195 2.5261 10.2702
# 3 23.0195 37.5548 138.8827 -10.3569 20.7876 5.6089
# 4 4.8826 -2.6195 -10.3569 37.3486 -2.4053 3.4115
# 5 15.3668 2.5261 20.7876 -2.4053 31.5174 3.5446
# 6 16.4659 10.2702 5.6089 3.4115 3.5446 18.7830
#
#
#
# Elastic Compliance Matrix: (Units=1/GPa)
#
#
# Indices 1 2 3 4 5 6 
#
# 1 0.031841 0.000950 -0.003141 -0.003410 -0.011000 -0.024800
# 2 0.000950 0.015654 -0.004311 0.000706 0.002151 -0.008639
# 3 -0.003141 -0.004311 0.009635 0.002237 -0.004610 0.002697
# 4 -0.003410 0.000706 0.002237 0.028407 0.002719 -0.003737
# 5 -0.011000 0.002151 -0.004610 0.002719 0.039964 0.001808
# 6 -0.024800 -0.008639 0.002697 -0.003737 0.001808 0.079236
#
#
# Mechanical properties :
#
#
# Convention : Reuss Voigt Hill
#
# Bulk Modulus (GPa) = 22.66187 45.66642 34.16414
# Shear Modulus (GPa) = 21.51012 30.82757 26.16884
#
# Velocity S-wave (km/s) = 3.17447 3.80032 3.50141
# Velocity P-wave (km/s) = 4.90441 6.37580 5.68789
#
# Compressibility (1/GPa) = 0.04412699
#
# Stress axis : x y z
#
# Youngs Moduli (GPa) = 31.40609 63.87984 103.79320
#
# Poissons Ratio (x) = -0.06071 0.32600
# Poissons Ratio (y) = -0.02985 0.44745
# Poissons Ratio (z) = 0.09864 0.27538
#
# Static dielectric constant tensor:
#      x y z
#    x 1.839290 -0.010970 0.029510 
#    y -0.010970 1.747480 -0.000020 
#    z 0.029510 -0.000020 1.846430 
# 
# From -- ./inp_files/433823.got.cif
#   From: 2010.05.17/outbox.cif.g08.bks.cpg/sg2_217_cif.got.tgz:433823.got - 2010.06.03 11:33:40.
