data_PCOD9007693
_publ_section_title
;
Structure prediction by ZEFSAII (Michael W. Deem and Ramdas Pophale) SiO2 
 PCOD9007693
Probable space group: P -1
;
_chemical_formula_sum "Si O2"
_cell_formula_units_Z 16
_cell_length_a 9.608024
_cell_length_b 8.815126
_cell_length_c 14.632090
_cell_angle_alpha 97.235288
_cell_angle_beta 107.956180
_cell_angle_gamma 134.687612
_cell_volume 722.551332
_symmetry_space_group_name_H-M "P -1"
_symmetry_group_IT_number 2
_symmetry_cell_setting 'triclinic'
loop_
_space_group_symop_operation_xyz
x,y,z
-x,-y,-z
loop_
_atom_site_type_symbol
_atom_site_label
_atom_site_fract_x
_atom_site_fract_y
_atom_site_fract_z
Si Si1 0.639529 0.554689 0.763228
Si Si2 0.350120 0.799702 0.777400
Si Si3 0.121464 0.038898 0.657889
Si Si4 0.159916 0.780445 0.558033
Si Si5 0.732908 0.717304 0.004371
Si Si6 0.219450 0.995873 0.202378
Si Si7 0.911802 0.201771 0.645666
Si Si8 0.869286 0.118366 0.158274
O O1 0.378117 0.275095 0.681998
O O2 0.851160 0.619451 0.777116
O O3 0.673836 0.747291 0.736614
O O4 0.682916 0.628978 0.884362
O O5 0.325460 0.879557 0.685145
O O6 0.149283 0.502168 0.715410
O O7 0.287438 0.862623 0.851912
O O8 0.607543 0.939401 0.830762
O O9 0.988142 0.088735 0.637349
O O10 0.011386 0.807976 0.561679
O O11 0.152173 0.006150 0.765408
O O12 0.000000 0.500000 0.500000
O O13 0.243757 0.877930 0.479332
O O14 0.955927 0.807492 0.096404
O O15 0.796445 0.948007 0.048090
O O16 0.500000 0.500000 0.000000
O O17 0.204709 0.890219 0.285468
#
# Coordination Sequence:
#
# PCOD9007693 Si02
#       8
#     2   2   2   2   2   2   2   2
#     4  11  21  39  66  92 122 167 213 257 312 370
#     4  10  23  40  61  90 134 166 204 258 323 363
#     4  11  19  38  68  91 124 165 219 254 305 375
#     4   9  22  40  63  93 130 169 200 261 322 368
#     4  11  21  41  67  93 125 164 214 258 309 374
#     4  11  22  38  65  92 127 170 206 261 306 370
#     4  11  20  40  63  94 126 164 216 258 308 372
#     4  10  21  39  62  92 125 169 203 259 313 364
#
# _framework density 22.143754000000001
#
# number of rings (size 3 to 8) (size 9 to 14) (size 15 to 20)
#    0.000    1.500    5.000    1.875    0.000    2.500 
#    0.000    8.750    0.000    0.000    0.000    0.000 
#    0.000    0.000    0.000    0.000    0.000    0.000 
#
# Total GULP energy -89354.887501 kJ/mol
# GULP energy per Si atom -5584.680469 kJ/mol
# Density = 2.209335 g / cm^3
# Si number density = 22.143754 Si / 1000 Ang^3
#
#
#
# Elastic Constant Matrix: (Units=GPa)
#
#
# Indices 1 2 3 4 5 6 
#
# 1 141.4306 23.9659 7.2129 5.2847 -13.8304 15.2186
# 2 23.9659 83.3547 10.1548 -19.7455 -2.5340 12.8787
# 3 7.2129 10.1548 58.3066 -20.8113 -7.1877 -5.2569
# 4 5.2847 -19.7455 -20.8113 34.5744 -2.5995 -2.4012
# 5 -13.8304 -2.5340 -7.1877 -2.5995 10.8714 1.5693
# 6 15.2186 12.8787 -5.2569 -2.4012 1.5693 42.8720
#
#
#
# Elastic Compliance Matrix: (Units=1/GPa)
#
#
# Indices 1 2 3 4 5 6 
#
# 1 0.008915 -0.002290 -0.000597 -0.002471 0.010264 -0.003064
# 2 -0.002290 0.015548 0.001516 0.010264 0.004639 -0.003267
# 3 -0.000597 0.001516 0.026566 0.018768 0.021171 0.003290
# 4 -0.002471 0.010264 0.018768 0.048320 0.022928 0.001962
# 5 0.010264 0.004639 0.021171 0.022928 0.126438 -0.005785
# 6 -0.003064 -0.003267 0.003290 0.001962 -0.005785 0.026119
#
#
# Mechanical properties :
#
#
# Convention : Reuss Voigt Hill
#
# Bulk Modulus (GPa) = 20.70955 40.63989 30.67472
# Shear Modulus (GPa) = 18.46767 33.78078 26.12422
#
# Velocity S-wave (km/s) = 2.89102 3.91003 3.43848
# Velocity P-wave (km/s) = 4.52953 6.22712 5.44489
#
# Compressibility (1/GPa) = 0.04828691
#
# Stress axis : x y z
#
# Youngs Moduli (GPa) = 112.17160 64.31759 37.64230
#
# Poissons Ratio (x) = 0.14731 0.02247
# Poissons Ratio (y) = 0.25692 -0.05708
# Poissons Ratio (z) = 0.06694 -0.09753
#
# Static dielectric constant tensor:
#      x y z
#    x 1.835740 -0.006810 -0.002290 
#    y -0.006810 1.835390 -0.007670 
#    z -0.002290 -0.007670 1.851980 
# 
# From -- ./inp_files/342418.got.cif
#   From: 2010.05.17/outbox.cif.g08.bks.cpg/sg2_172_cif.got.tgz:342418.got - 2010.06.03 11:33:40.
