data_PCOD9007087
_publ_section_title
;
Structure prediction by ZEFSAII (Michael W. Deem and Ramdas Pophale) SiO2 
 PCOD9007087
Probable space group: P -1
;
_chemical_formula_sum "Si O2"
_cell_formula_units_Z 16
_cell_length_a 14.398079
_cell_length_b 8.587053
_cell_length_c 17.479452
_cell_angle_alpha 139.893938
_cell_angle_beta 27.644941
_cell_angle_gamma 123.763080
_cell_volume 589.925181
_symmetry_space_group_name_H-M "P -1"
_symmetry_group_IT_number 2
_symmetry_cell_setting 'triclinic'
loop_
_space_group_symop_operation_xyz
x,y,z
-x,-y,-z
loop_
_atom_site_type_symbol
_atom_site_label
_atom_site_fract_x
_atom_site_fract_y
_atom_site_fract_z
Si Si1 0.094362 0.449405 0.997962
Si Si2 0.668012 0.391249 0.908007
Si Si3 0.073124 0.005883 0.230483
Si Si4 0.509188 0.714063 0.444861
Si Si5 0.003749 0.981634 0.886170
Si Si6 0.449824 0.054221 0.757248
Si Si7 0.522734 0.794963 0.759048
Si Si8 0.888900 0.789037 0.571100
O O1 0.351685 0.267163 0.723510
O O2 0.978410 0.268480 0.045987
O O3 0.069242 0.726635 0.155696
O O4 0.000000 0.500000 0.000000
O O5 0.909740 0.338090 0.680921
O O6 0.725065 0.100773 0.792552
O O7 0.500000 0.500000 0.000000
O O8 0.578021 0.647279 0.124912
O O9 0.976928 0.044960 0.230495
O O10 0.997041 0.216334 0.432905
O O11 0.318278 0.983634 0.028440
O O12 0.575309 0.399617 0.280912
O O13 0.249631 0.809180 0.667460
O O14 0.560681 0.848474 0.531737
O O15 0.796925 0.924393 0.040001
O O16 0.574722 0.938260 0.702383
O O17 0.722241 0.659855 0.620957
#
# Coordination Sequence:
#
# PCOD9007087 Si02
#       8
#     2   2   2   2   2   2   2   2
#     4   9  20  39  58  90 131 162 214 260 312 391
#     4  11  25  45  64  97 129 168 223 267 309 394
#     4   9  21  40  65  90 126 174 207 263 326 378
#     4  11  22  38  65  97 129 171 208 266 332 378
#     4  10  21  39  59  95 129 160 216 267 307 393
#     4  11  23  42  66  93 132 169 213 268 327 382
#     4  10  21  42  64  96 130 162 219 267 316 392
#     4  11  23  44  68  91 133 173 210 269 325 373
#
# _framework density 27.122084999999998
#
# number of rings (size 3 to 8) (size 9 to 14) (size 15 to 20)
#    0.000    1.750    1.250    3.000    1.750    2.000 
#    6.750    3.125    0.000    0.000    0.000    0.000 
#    0.000    0.000    0.000    0.000    0.000    0.000 
#
# Total GULP energy -89415.493825 kJ/mol
# GULP energy per Si atom -5588.468364 kJ/mol
# Density = 2.706035 g / cm^3
# Si number density = 27.122085 Si / 1000 Ang^3
#
#
#
# Elastic Constant Matrix: (Units=GPa)
#
#
# Indices 1 2 3 4 5 6 
#
# 1 120.4530 8.4010 17.9740 3.8708 20.0237 16.6563
# 2 8.4010 72.6950 22.2268 11.4127 8.3488 17.9716
# 3 17.9740 22.2268 70.0173 7.1378 12.3877 12.7470
# 4 3.8708 11.4127 7.1378 46.6307 14.5023 -0.4008
# 5 20.0237 8.3488 12.3877 14.5023 50.1783 7.3417
# 6 16.6563 17.9716 12.7470 -0.4008 7.3417 26.7260
#
#
#
# Elastic Compliance Matrix: (Units=1/GPa)
#
#
# Indices 1 2 3 4 5 6 
#
# 1 0.009635 0.000894 -0.001301 0.000047 -0.002928 -0.005181
# 2 0.000894 0.018131 -0.003584 -0.004170 0.000355 -0.011200
# 3 -0.001301 -0.003584 0.017024 -0.000982 -0.002172 -0.004317
# 4 0.000047 -0.004170 -0.000982 0.024862 -0.007082 0.005562
# 5 -0.002928 0.000355 -0.002172 -0.007082 0.024227 -0.004139
# 6 -0.005181 -0.011200 -0.004317 0.005562 -0.004139 0.051457
#
#
# Mechanical properties :
#
#
# Convention : Reuss Voigt Hill
#
# Bulk Modulus (GPa) = 27.16700 40.04099 33.60400
# Shear Modulus (GPa) = 30.19540 39.01123 34.60332
#
# Velocity S-wave (km/s) = 3.34026 3.79668 3.57576
# Velocity P-wave (km/s) = 4.99146 5.83224 5.42816
#
# Compressibility (1/GPa) = 0.03680936
#
# Stress axis : x y z
#
# Youngs Moduli (GPa) = 103.78394 55.15307 58.73989
#
# Poissons Ratio (x) = -0.04930 0.07641
# Poissons Ratio (y) = -0.09278 0.21052
# Poissons Ratio (z) = 0.13500 0.19767
#
# Static dielectric constant tensor:
#      x y z
#    x 2.177290 -0.051880 -0.029300 
#    y -0.051880 2.214220 0.105150 
#    z -0.029300 0.105150 2.087950 
# 
# From -- ./inp_files/598025.got.cif
#   From: 2010.05.17/outbox.cif.g08.bks.cpg/sg2_300_cif.got.tgz:598025.got - 2010.06.03 11:33:40.
