data_PCOD9007211
_publ_section_title
;
Structure prediction by ZEFSAII (Michael W. Deem and Ramdas Pophale) SiO2 
 PCOD9007211
Probable space group: P -1
;
_chemical_formula_sum "Si O2"
_cell_formula_units_Z 12
_cell_length_a 11.476462
_cell_length_b 12.967275
_cell_length_c 5.419588
_cell_angle_alpha 91.637780
_cell_angle_beta 89.689179
_cell_angle_gamma 148.170269
_cell_volume 424.917843
_symmetry_space_group_name_H-M "P -1"
_symmetry_group_IT_number 2
_symmetry_cell_setting 'triclinic'
loop_
_space_group_symop_operation_xyz
x,y,z
-x,-y,-z
loop_
_atom_site_type_symbol
_atom_site_label
_atom_site_fract_x
_atom_site_fract_y
_atom_site_fract_z
Si Si1 0.107447 0.220443 0.233881
Si Si2 0.869162 0.258207 0.496164
Si Si3 0.017455 0.925122 0.256594
Si Si4 0.448039 0.794182 0.379860
Si Si5 0.118676 0.480493 0.007511
Si Si6 0.465324 0.370695 0.652819
O O1 0.319774 0.446357 0.165716
O O2 0.011643 0.353438 0.251676
O O3 0.941681 0.101610 0.998790
O O4 0.159839 0.136382 0.271595
O O5 0.753406 0.286294 0.519191
O O6 0.000498 0.154060 0.500369
O O7 0.656481 0.023713 0.446247
O O8 0.028822 0.365395 0.743325
O O9 0.768580 0.786767 0.227947
O O10 0.500867 0.717544 0.469759
O O11 0.370566 0.704143 0.094061
O O12 0.000000 0.500000 0.000000
O O13 0.500000 0.500000 0.500000
#
# Coordination Sequence:
#
# PCOD9007211 Si02
#       6
#     2   2   2   2   2   2
#     4   9  18  35  56  76 109 154 199 246 294 349
#     4  10  23  43  67  98 130 165 216 271 326 387
#     4   9  18  35  55  77 109 151 198 247 295 352
#     4  10  22  40  67  96 130 173 213 266 329 384
#     4  10  21  42  68  98 131 165 215 271 326 387
#     4  10  21  39  60  90 126 166 212 258 312 381
#
# _framework density 28.240755
#
# number of rings (size 3 to 8) (size 9 to 14) (size 15 to 20)
#    0.000    2.333    0.000    2.500    0.000    8.667 
#    0.000   35.000    0.000    0.000    0.000    0.000 
#    0.000    0.000    0.000    0.000    0.000    0.000 
#
# Total GULP energy -66919.544955 kJ/mol
# GULP energy per Si atom -5576.628746 kJ/mol
# Density = 2.817648 g / cm^3
# Si number density = 28.240755 Si / 1000 Ang^3
#
#
#
# Elastic Constant Matrix: (Units=GPa)
#
#
# Indices 1 2 3 4 5 6 
#
# 1 156.0590 45.1216 40.1496 21.2367 -2.0186 -12.4319
# 2 45.1216 177.3161 62.3369 29.2651 -12.6275 -20.8801
# 3 40.1496 62.3369 219.4566 7.6164 -31.3712 -8.9423
# 4 21.2367 29.2651 7.6164 55.5093 -10.4079 -3.5837
# 5 -2.0186 -12.6275 -31.3712 -10.4079 48.4775 17.7937
# 6 -12.4319 -20.8801 -8.9423 -3.5837 17.7937 58.9562
#
#
#
# Elastic Compliance Matrix: (Units=1/GPa)
#
#
# Indices 1 2 3 4 5 6 
#
# 1 0.007422 -0.001046 -0.001171 -0.002364 -0.001742 0.001399
# 2 -0.001046 0.007253 -0.001782 -0.003186 -0.000768 0.002116
# 3 -0.001171 -0.001782 0.005743 0.001255 0.003877 -0.001101
# 4 -0.002364 -0.003186 0.001255 0.021268 0.005064 -0.001672
# 5 -0.001742 -0.000768 0.003877 0.005064 0.026830 -0.007841
# 6 0.001399 0.002116 -0.001101 -0.001672 -0.007841 0.020104
#
#
# Mechanical properties :
#
#
# Convention : Reuss Voigt Hill
#
# Bulk Modulus (GPa) = 80.51467 94.22755 87.37111
# Shear Modulus (GPa) = 49.62440 59.60352 54.61396
#
# Velocity S-wave (km/s) = 4.19643 4.59906 4.40235
# Velocity P-wave (km/s) = 7.21471 7.85111 7.53963
#
# Compressibility (1/GPa) = 0.01242010
#
# Stress axis : x y z
#
# Youngs Moduli (GPa) = 134.73288 137.88131 174.13227
#
# Poissons Ratio (x) = 0.14428 0.20384
# Poissons Ratio (y) = 0.14098 0.31025
# Poissons Ratio (z) = 0.15772 0.24566
#
# Static dielectric constant tensor:
#      x y z
#    x 2.339760 -0.132060 0.023690 
#    y -0.132060 2.506380 0.232120 
#    z 0.023690 0.232120 2.464370 
# 
# From -- ./inp_files/93455.got.cif
#   From: 2010.05.17/outbox.cif.g08.bks.cpg/sg2_47_cif.got.tgz:93455.got - 2010.06.03 11:33:40.
