data_PCOD9007483
_publ_section_title
;
Structure prediction by ZEFSAII (Michael W. Deem and Ramdas Pophale) SiO2 
 PCOD9007483
Probable space group: P -1
;
_chemical_formula_sum "Si O2"
_cell_formula_units_Z 14
_cell_length_a 21.326166
_cell_length_b 5.142293
_cell_length_c 12.882376
_cell_angle_alpha 76.266019
_cell_angle_beta 155.161528
_cell_angle_gamma 109.839430
_cell_volume 549.243167
_symmetry_space_group_name_H-M "P -1"
_symmetry_group_IT_number 2
_symmetry_cell_setting 'triclinic'
loop_
_space_group_symop_operation_xyz
x,y,z
-x,-y,-z
loop_
_atom_site_type_symbol
_atom_site_label
_atom_site_fract_x
_atom_site_fract_y
_atom_site_fract_z
Si Si1 0.881298 0.275378 0.232590
Si Si2 0.264673 0.564141 0.430760
Si Si3 0.747032 0.605997 0.876484
Si Si4 0.800890 0.659258 0.243709
Si Si5 0.996235 0.739457 0.090453
Si Si6 0.483942 0.290348 0.899619
Si Si7 0.495414 0.751151 0.594735
O O1 0.872123 0.533886 0.265955
O O2 0.059711 0.314363 0.465796
O O3 0.808611 0.981586 0.208762
O O4 0.778765 0.314795 0.979072
O O5 0.138382 0.499749 0.151773
O O6 0.331365 0.321737 0.603090
O O7 0.420887 0.776700 0.592154
O O8 0.161688 0.676205 0.347969
O O9 0.915971 0.788377 0.072620
O O10 0.662410 0.704203 0.834941
O O11 0.621579 0.540485 0.600993
O O12 0.636560 0.439107 0.045495
O O13 0.000000 0.000000 0.000000
O O14 0.500000 0.500000 0.000000
O O15 0.500000 0.000000 0.000000
O O16 0.500000 0.000000 0.500000
#
# Coordination Sequence:
#
# PCOD9007483 Si02
#       7
#     2   2   2   2   2   2   2
#     4  10  22  41  69  94 129 176 220 288 337 400
#     4  10  24  42  65  97 136 174 229 282 343 413
#     4  10  22  35  62  95 123 165 223 269 340 408
#     4  10  23  45  63  98 132 173 229 278 342 393
#     4  10  22  43  65  95 132 181 220 282 353 411
#     4  12  28  45  69 103 139 192 234 282 346 420
#     4  10  21  39  61  97 124 163 216 277 344 399
#
# _framework density 25.489619000000001
#
# number of rings (size 3 to 8) (size 9 to 14) (size 15 to 20)
#    0.000    1.714    0.000    2.571    8.000    0.000 
#    0.000    0.000    0.000    0.000    0.000    0.000 
#    0.000    0.000    0.000    0.000    0.000    0.000 
#
# Total GULP energy -78059.868150 kJ/mol
# GULP energy per Si atom -5575.704868 kJ/mol
# Density = 2.543160 g / cm^3
# Si number density = 25.489619 Si / 1000 Ang^3
#
#
#
# Elastic Constant Matrix: (Units=GPa)
#
#
# Indices 1 2 3 4 5 6 
#
# 1 79.7465 15.7438 44.8411 -4.8375 44.2479 23.2108
# 2 15.7438 117.3192 49.7948 -38.5791 23.0058 17.6007
# 3 44.8411 49.7948 185.4971 -39.5244 41.3863 14.2459
# 4 -4.8375 -38.5791 -39.5244 40.3562 -1.7134 -9.2574
# 5 44.2479 23.0058 41.3863 -1.7134 56.4100 14.3832
# 6 23.2108 17.6007 14.2459 -9.2574 14.3832 36.7113
#
#
#
# Elastic Compliance Matrix: (Units=1/GPa)
#
#
# Indices 1 2 3 4 5 6 
#
# 1 0.025544 0.002342 -0.002273 0.000119 -0.016830 -0.009767
# 2 0.002342 0.014123 0.000090 0.013039 -0.006657 -0.002390
# 3 -0.002273 0.000090 0.008676 0.008587 -0.004897 0.002111
# 4 0.000119 0.013039 0.008587 0.046727 -0.012036 0.006839
# 5 -0.016830 -0.006657 -0.004897 -0.012036 0.037366 -0.001942
# 6 -0.009767 -0.002390 0.002111 0.006839 -0.001942 0.036227
#
#
# Mechanical properties :
#
#
# Convention : Reuss Voigt Hill
#
# Bulk Modulus (GPa) = 20.55075 67.03579 43.79327
# Shear Modulus (GPa) = 27.09066 44.84103 35.96585
#
# Velocity S-wave (km/s) = 3.26362 4.19882 3.76040
# Velocity P-wave (km/s) = 4.72033 7.06138 6.00602
#
# Compressibility (1/GPa) = 0.04866003
#
# Stress axis : x y z
#
# Youngs Moduli (GPa) = 39.14888 70.80583 115.25559
#
# Poissons Ratio (x) = -0.16580 0.26197
# Poissons Ratio (y) = -0.09167 -0.01035
# Poissons Ratio (z) = 0.08898 -0.00636
#
# Static dielectric constant tensor:
#      x y z
#    x 2.136520 -0.019500 -0.107730 
#    y -0.019500 2.023260 0.001340 
#    z -0.107730 0.001340 2.140900 
# 
# From -- ./inp_files/100403.got.cif
#   From: 2010.05.17/outbox.cif.g08.bks.cpg/sg2_51_cif.got.tgz:100403.got - 2010.06.03 11:33:40.
