data_PCOD9007979
_publ_section_title
;
Structure prediction by ZEFSAII (Michael W. Deem and Ramdas Pophale) SiO2 
 PCOD9007979
Probable space group: P -1
;
_chemical_formula_sum "Si O2"
_cell_formula_units_Z 16
_cell_length_a 8.475637
_cell_length_b 17.980937
_cell_length_c 7.589224
_cell_angle_alpha 40.009390
_cell_angle_beta 110.074992
_cell_angle_gamma 115.208885
_cell_volume 672.484388
_symmetry_space_group_name_H-M "P -1"
_symmetry_group_IT_number 2
_symmetry_cell_setting 'triclinic'
loop_
_space_group_symop_operation_xyz
x,y,z
-x,-y,-z
loop_
_atom_site_type_symbol
_atom_site_label
_atom_site_fract_x
_atom_site_fract_y
_atom_site_fract_z
Si Si1 0.118346 0.222943 0.296372
Si Si2 0.069272 0.462398 0.282517
Si Si3 0.989423 0.217018 0.868602
Si Si4 0.160488 0.000527 0.259638
Si Si5 0.588975 0.849651 0.652381
Si Si6 0.447668 0.584174 0.099900
Si Si7 0.663890 0.080440 0.819970
Si Si8 0.730270 0.509015 0.151912
O O1 0.264736 0.154798 0.429387
O O2 0.214816 0.356003 0.158569
O O3 0.965589 0.130949 0.509397
O O4 0.037058 0.248893 0.030902
O O5 0.272955 0.533040 0.238017
O O6 0.063174 0.325015 0.566631
O O7 0.914160 0.482620 0.311774
O O8 0.000000 0.500000 0.000000
O O9 0.784910 0.171606 0.834295
O O10 0.065772 0.104259 0.066041
O O11 0.322608 0.041830 0.382017
O O12 0.228840 0.999572 0.091201
O O13 0.412120 0.857499 0.480481
O O14 0.545712 0.717286 0.960876
O O15 0.597545 0.515282 0.248231
O O16 0.373180 0.581008 0.875108
O O17 0.500000 0.000000 0.000000
#
# Coordination Sequence:
#
# PCOD9007979 Si02
#       8
#     2   2   2   2   2   2   2   2
#     4  10  22  42  70  92 135 173 219 273 331 404
#     4  10  21  39  63  92 132 172 222 270 325 395
#     4  11  24  43  64  99 133 171 223 275 328 397
#     4  11  24  43  67  94 131 181 214 267 346 395
#     4  10  21  41  65  93 131 173 219 272 331 390
#     4   9  19  37  63  92 126 169 225 266 321 396
#     4  12  24  40  62  99 134 165 224 275 325 404
#     4   9  19  37  63  96 123 176 219 267 331 382
#
# _framework density 23.792375
#
# number of rings (size 3 to 8) (size 9 to 14) (size 15 to 20)
#    0.000    1.750    0.000    5.250    5.250    0.500 
#    9.000    5.625    0.000    0.000    0.000    0.000 
#    0.000    0.000    0.000    0.000    0.000    0.000 
#
# Total GULP energy -89381.584070 kJ/mol
# GULP energy per Si atom -5586.349004 kJ/mol
# Density = 2.373822 g / cm^3
# Si number density = 23.792375 Si / 1000 Ang^3
#
#
#
# Elastic Constant Matrix: (Units=GPa)
#
#
# Indices 1 2 3 4 5 6 
#
# 1 123.2770 19.7162 9.1942 -3.3143 -14.3950 33.4026
# 2 19.7162 70.2522 15.9331 -10.8999 -4.8382 16.8707
# 3 9.1942 15.9331 76.6543 -1.3994 -6.9580 12.8148
# 4 -3.3143 -10.8999 -1.3994 35.9218 13.7828 -3.0197
# 5 -14.3950 -4.8382 -6.9580 13.7828 35.0006 -10.1521
# 6 33.4026 16.8707 12.8148 -3.0197 -10.1521 31.8839
#
#
#
# Elastic Compliance Matrix: (Units=1/GPa)
#
#
# Indices 1 2 3 4 5 6 
#
# 1 0.011454 -0.000632 0.000827 -0.000738 0.001739 -0.011514
# 2 -0.000632 0.017556 -0.002384 0.005590 -0.002842 -0.008045
# 3 0.000827 -0.002384 0.014414 -0.001244 0.001946 -0.004896
# 4 -0.000738 0.005590 -0.001244 0.034648 -0.014277 -0.002950
# 5 0.001739 -0.002842 0.001946 -0.014277 0.037670 0.009542
# 6 -0.011514 -0.008045 -0.004896 -0.002950 0.009542 0.052410
#
#
# Mechanical properties :
#
#
# Convention : Reuss Voigt Hill
#
# Bulk Modulus (GPa) = 25.61105 39.98560 32.79833
# Shear Modulus (GPa) = 26.94741 35.58393 31.26567
#
# Velocity S-wave (km/s) = 3.36907 3.87150 3.62899
# Velocity P-wave (km/s) = 5.09136 6.06854 5.60130
#
# Compressibility (1/GPa) = 0.03904564
#
# Stress axis : x y z
#
# Youngs Moduli (GPa) = 87.30447 56.96064 69.37476
#
# Poissons Ratio (x) = 0.03599 -0.05735
# Poissons Ratio (y) = 0.05516 0.16542
# Poissons Ratio (z) = -0.07217 0.13582
#
# Static dielectric constant tensor:
#      x y z
#    x 1.967250 0.004230 0.053020 
#    y 0.004230 1.931550 0.042830 
#    z 0.053020 0.042830 1.954910 
# 
# From -- ./inp_files/220311.got.cif
#   From: 2010.05.17/outbox.cif.g08.bks.cpg/sg2_111_cif.got.tgz:220311.got - 2010.06.03 11:33:40.
