data_PCOD9007337
_publ_section_title
;
Structure prediction by ZEFSAII (Michael W. Deem and Ramdas Pophale) SiO2 
 PCOD9007337
Probable space group: P -1
;
_chemical_formula_sum "Si O2"
_cell_formula_units_Z 14
_cell_length_a 23.957881
_cell_length_b 7.237903
_cell_length_c 11.588264
_cell_angle_alpha 113.233520
_cell_angle_beta 25.852279
_cell_angle_gamma 125.248404
_cell_volume 670.132837
_symmetry_space_group_name_H-M "P -1"
_symmetry_group_IT_number 2
_symmetry_cell_setting 'triclinic'
loop_
_space_group_symop_operation_xyz
x,y,z
-x,-y,-z
loop_
_atom_site_type_symbol
_atom_site_label
_atom_site_fract_x
_atom_site_fract_y
_atom_site_fract_z
Si Si1 0.456112 0.736636 0.979585
Si Si2 0.868420 0.653031 0.577487
Si Si3 0.153546 0.156502 0.101613
Si Si4 0.327147 0.083646 0.572542
Si Si5 0.003168 0.658551 0.716732
Si Si6 0.761670 0.833567 0.481571
Si Si7 0.856729 0.466787 0.189014
O O1 0.278931 0.530979 0.270258
O O2 0.505220 0.758073 0.758112
O O3 0.579608 0.704766 0.806444
O O4 0.500000 0.000000 0.000000
O O5 0.818333 0.764018 0.798137
O O6 0.927723 0.496380 0.484090
O O7 0.009337 0.876319 0.302190
O O8 0.097604 0.308710 0.179030
O O9 0.289529 0.173466 0.779687
O O10 0.221493 0.083574 0.664716
O O11 0.279816 0.811766 0.610430
O O12 0.140956 0.926941 0.565171
O O13 0.903828 0.527194 0.983060
O O14 0.815079 0.653997 0.351446
O O15 0.000000 0.500000 0.000000
#
# Coordination Sequence:
#
# PCOD9007337 Si02
#       7
#     2   2   2   2   2   2   2
#     4  10  21  44  62  92 129 163 200 262 320 373
#     4  11  24  42  63  89 128 162 215 256 311 365
#     4  11  24  41  64  92 118 173 212 259 301 364
#     4  10  21  39  61  88 125 162 208 247 315 367
#     4  12  20  37  63  92 128 154 210 262 312 363
#     4  10  22  36  62  93 125 158 204 255 315 374
#     4  12  20  34  63  96 125 162 204 259 308 372
#
# _framework density 20.891380000000002
#
# number of rings (size 3 to 8) (size 9 to 14) (size 15 to 20)
#    0.857    0.286    5.714    1.714    0.000    0.571 
#    2.571    1.429    0.000    1.714    0.000    0.000 
#    0.000    0.000    0.000    0.000    0.000    0.000 
#
# Total GULP energy -78196.529554 kJ/mol
# GULP energy per Si atom -5585.466397 kJ/mol
# Density = 2.084383 g / cm^3
# Si number density = 20.891380 Si / 1000 Ang^3
#
#
#
# Elastic Constant Matrix: (Units=GPa)
#
#
# Indices 1 2 3 4 5 6 
#
# 1 35.8314 14.1464 4.1117 -2.2071 8.4839 -9.8499
# 2 14.1464 114.5918 39.1178 10.2465 -1.4408 -17.3353
# 3 4.1117 39.1178 74.5537 5.3510 8.9251 0.9277
# 4 -2.2071 10.2465 5.3510 36.9876 4.8079 -1.0092
# 5 8.4839 -1.4408 8.9251 4.8079 30.9740 8.3620
# 6 -9.8499 -17.3353 0.9277 -1.0092 8.3620 30.2409
#
#
#
# Elastic Compliance Matrix: (Units=1/GPa)
#
#
# Indices 1 2 3 4 5 6 
#
# 1 0.037106 -0.003404 0.001011 0.005406 -0.015377 0.014536
# 2 -0.003404 0.012488 -0.006508 -0.002876 0.002349 0.005504
# 3 0.001011 -0.006508 0.017395 -0.000090 -0.004879 -0.002589
# 4 0.005406 -0.002876 -0.000090 0.029150 -0.006924 0.003002
# 5 -0.015377 0.002349 -0.004879 -0.006924 0.043332 -0.015725
# 6 0.014536 0.005504 -0.002589 0.003002 -0.015725 0.045485
#
#
# Mechanical properties :
#
#
# Convention : Reuss Voigt Hill
#
# Bulk Modulus (GPa) = 20.33011 37.74762 29.03887
# Shear Modulus (GPa) = 22.81517 30.81390 26.81453
#
# Velocity S-wave (km/s) = 3.30826 3.84468 3.58651
# Velocity P-wave (km/s) = 4.93409 6.14952 5.57502
#
# Compressibility (1/GPa) = 0.04918813
#
# Stress axis : x y z
#
# Youngs Moduli (GPa) = 26.94990 80.07886 57.48880
#
# Poissons Ratio (x) = 0.27256 -0.05814
# Poissons Ratio (y) = 0.09173 0.37412
# Poissons Ratio (z) = -0.02726 0.52113
#
# Static dielectric constant tensor:
#      x y z
#    x 1.757820 0.007740 0.031280 
#    y 0.007740 1.730140 0.004440 
#    z 0.031280 0.004440 1.774910 
# 
# From -- ./inp_files/473297.got.cif
#   From: 2010.05.17/outbox.cif.g08.bks.cpg/sg2_237_cif.got.tgz:473297.got - 2010.06.03 11:33:40.
