data_PCOD9007752
_publ_section_title
;
Structure prediction by ZEFSAII (Michael W. Deem and Ramdas Pophale) SiO2 
 PCOD9007752
Probable space group: P -1
;
_chemical_formula_sum "Si O2"
_cell_formula_units_Z 14
_cell_length_a 6.318281
_cell_length_b 27.100746
_cell_length_c 6.385332
_cell_angle_alpha 49.014124
_cell_angle_beta 110.176730
_cell_angle_gamma 134.924502
_cell_volume 569.896759
_symmetry_space_group_name_H-M "P -1"
_symmetry_group_IT_number 2
_symmetry_cell_setting 'triclinic'
loop_
_space_group_symop_operation_xyz
x,y,z
-x,-y,-z
loop_
_atom_site_type_symbol
_atom_site_label
_atom_site_fract_x
_atom_site_fract_y
_atom_site_fract_z
Si Si1 0.655847 0.188596 0.030848
Si Si2 0.222916 0.639748 0.306807
Si Si3 0.933681 0.769463 0.277709
Si Si4 0.045827 0.098728 0.815035
Si Si5 0.230728 0.065163 0.582655
Si Si6 0.884641 0.629197 0.843025
Si Si7 0.322440 0.500851 0.249048
O O1 0.534097 0.143152 0.342196
O O2 0.799247 0.289446 0.815483
O O3 0.359207 0.135208 0.929978
O O4 0.885914 0.185589 0.001656
O O5 0.576325 0.691525 0.310959
O O6 0.003673 0.547693 0.619269
O O7 0.096309 0.624330 0.071694
O O8 0.982460 0.835960 0.275756
O O9 0.047245 0.724277 0.542407
O O10 0.100229 0.098327 0.588963
O O11 0.777169 0.998155 0.086556
O O12 0.000000 0.000000 0.500000
O O13 0.763979 0.564873 0.784308
O O14 0.591910 0.596911 0.971283
O O15 0.500000 0.500000 0.500000
#
# Coordination Sequence:
#
# PCOD9007752 Si02
#       7
#     2   2   2   2   2   2   2
#     4  10  21  39  62  94 134 165 211 273 319 383
#     4  10  22  41  62  95 133 167 215 269 318 387
#     4  11  23  41  67 102 127 171 220 264 328 388
#     4   9  21  42  64  93 129 167 220 265 318 388
#     4   9  19  41  65  88 132 172 207 273 321 375
#     4  10  21  41  66  91 130 173 212 269 325 376
#     4   9  19  41  65  88 131 173 212 271 318 374
#
# _framework density 24.565854000000002
#
# number of rings (size 3 to 8) (size 9 to 14) (size 15 to 20)
#    0.000    2.286    1.429    0.000    2.000    1.143 
#   10.286   12.857    0.000    0.000    0.000    0.000 
#    0.000    0.000    0.000    0.000    0.000    0.000 
#
# Total GULP energy -78218.813680 kJ/mol
# GULP energy per Si atom -5587.058120 kJ/mol
# Density = 2.450994 g / cm^3
# Si number density = 24.565854 Si / 1000 Ang^3
#
#
#
# Elastic Constant Matrix: (Units=GPa)
#
#
# Indices 1 2 3 4 5 6 
#
# 1 77.6311 26.7977 53.4743 8.6010 -24.4147 -3.9536
# 2 26.7977 98.1758 35.0315 27.9148 -4.1935 -13.0540
# 3 53.4743 35.0315 139.2328 2.2402 -38.2918 -7.2808
# 4 8.6010 27.9148 2.2402 44.6667 0.4079 -5.8752
# 5 -24.4147 -4.1935 -38.2918 0.4079 38.0725 5.3577
# 6 -3.9536 -13.0540 -7.2808 -5.8752 5.3577 32.2073
#
#
#
# Elastic Compliance Matrix: (Units=1/GPa)
#
#
# Indices 1 2 3 4 5 6 
#
# 1 0.019788 -0.003025 -0.004733 -0.001955 0.007831 -0.001526
# 2 -0.003025 0.014849 -0.003388 -0.007946 -0.004208 0.004132
# 3 -0.004733 -0.003388 0.012259 0.002299 0.008931 -0.000249
# 4 -0.001955 -0.007946 0.002299 0.027911 -0.000428 0.002222
# 5 0.007831 -0.004208 0.008931 -0.000428 0.040593 -0.005556
# 6 -0.001526 0.004132 -0.000249 0.002222 -0.005556 0.033809
#
#
# Mechanical properties :
#
#
# Convention : Reuss Voigt Hill
#
# Bulk Modulus (GPa) = 40.64371 60.62740 50.63556
# Shear Modulus (GPa) = 27.82374 36.30504 32.06439
#
# Velocity S-wave (km/s) = 3.36909 3.84847 3.61673
# Velocity P-wave (km/s) = 5.63161 6.66939 6.17235
#
# Compressibility (1/GPa) = 0.02460405
#
# Stress axis : x y z
#
# Youngs Moduli (GPa) = 50.53627 67.34357 81.57452
#
# Poissons Ratio (x) = 0.20370 0.38612
# Poissons Ratio (y) = 0.15286 0.27635
# Poissons Ratio (z) = 0.23920 0.22814
#
# Static dielectric constant tensor:
#      x y z
#    x 1.982080 0.016710 -0.043590 
#    y 0.016710 1.947330 -0.011810 
#    z -0.043590 -0.011810 1.987200 
# 
# From -- ./inp_files/14404.got.cif
#   From: 2010.05.17/outbox.cif.g08.bks.cpg/sg2_8_cif.got.tgz:14404.got - 2010.06.03 11:33:40.
