data_PCOD9007711
_publ_section_title
;
Structure prediction by ZEFSAII (Michael W. Deem and Ramdas Pophale) SiO2 
 PCOD9007711
Probable space group: P -1
;
_chemical_formula_sum "Si O2"
_cell_formula_units_Z 14
_cell_length_a 24.256134
_cell_length_b 9.149557
_cell_length_c 8.601857
_cell_angle_alpha 45.375849
_cell_angle_beta 33.101966
_cell_angle_gamma 30.920026
_cell_volume 534.828686
_symmetry_space_group_name_H-M "P -1"
_symmetry_group_IT_number 2
_symmetry_cell_setting 'triclinic'
loop_
_space_group_symop_operation_xyz
x,y,z
-x,-y,-z
loop_
_atom_site_type_symbol
_atom_site_label
_atom_site_fract_x
_atom_site_fract_y
_atom_site_fract_z
Si Si1 0.378199 0.609765 0.823148
Si Si2 0.881028 0.083453 0.002872
Si Si3 0.887118 0.580397 0.390009
Si Si4 0.229969 0.221376 0.145628
Si Si5 0.531323 0.680973 0.862753
Si Si6 0.190279 0.234458 0.890956
Si Si7 0.178783 0.797815 0.592914
O O1 0.500000 0.500000 0.500000
O O2 0.241947 0.707611 0.987435
O O3 0.320754 0.895757 0.830691
O O4 0.447825 0.368237 0.966204
O O5 0.837644 0.224213 0.169542
O O6 0.882467 0.835262 0.205458
O O7 0.039923 0.936420 0.720135
O O8 0.836673 0.600198 0.669343
O O9 0.806526 0.647842 0.368414
O O10 0.047298 0.299359 0.184205
O O11 0.200089 0.015921 0.371129
O O12 0.175923 0.359061 0.000181
O O13 0.397657 0.011626 0.904588
O O14 0.682284 0.510336 0.563859
O O15 0.500000 0.500000 0.000000
#
# Coordination Sequence:
#
# PCOD9007711 Si02
#       7
#     2   2   2   2   2   2   2
#     4  11  19  30  49  77  98 124 164 205 252 290
#     4   9  19  31  49  71 100 131 159 204 244 294
#     4   9  19  32  47  75  99 127 170 197 242 300
#     4  10  18  32  52  76  98 128 163 208 249 288
#     4  10  17  29  46  72  98 121 159 204 246 288
#     4  10  18  31  50  73  99 130 159 208 247 284
#     4   9  17  32  47  72 102 126 161 201 252 293
#
# _framework density 26.176607000000001
#
# number of rings (size 3 to 8) (size 9 to 14) (size 15 to 20)
#    0.000    2.286    2.857    3.857    0.000    0.571 
#    0.000    0.000    0.000    0.857    3.714    6.000 
#    0.000    0.000    0.000    0.000    0.000    0.000 
#
# Total GULP energy -78311.707436 kJ/mol
# GULP energy per Si atom -5593.693388 kJ/mol
# Density = 2.611703 g / cm^3
# Si number density = 26.176607 Si / 1000 Ang^3
#
#
#
# Elastic Constant Matrix: (Units=GPa)
#
#
# Indices 1 2 3 4 5 6 
#
# 1 158.8755 48.6471 69.5594 1.4904 19.2206 -28.5936
# 2 48.6471 44.6093 15.9262 10.3970 9.1252 -23.6739
# 3 69.5594 15.9262 140.1520 17.8168 26.9573 -13.5288
# 4 1.4904 10.3970 17.8168 48.5116 -3.5579 0.6936
# 5 19.2206 9.1252 26.9573 -3.5579 56.0704 -0.2264
# 6 -28.5936 -23.6739 -13.5288 0.6936 -0.2264 65.5651
#
#
#
# Elastic Compliance Matrix: (Units=1/GPa)
#
#
# Indices 1 2 3 4 5 6 
#
# 1 0.012488 -0.013117 -0.005472 0.004500 0.000768 -0.000464
# 2 -0.013117 0.045071 0.005175 -0.011767 -0.006026 0.011725
# 3 -0.005472 0.005175 0.010997 -0.005342 -0.004585 0.001792
# 4 0.004500 -0.011767 -0.005342 0.025344 0.004534 -0.003641
# 5 0.000768 -0.006026 -0.004585 0.004534 0.021033 -0.002762
# 6 -0.000464 0.011725 0.001792 -0.003641 -0.002762 0.019682
#
#
# Mechanical properties :
#
#
# Convention : Reuss Voigt Hill
#
# Bulk Modulus (GPa) = 23.96457 67.98913 45.97685
# Shear Modulus (GPa) = 28.51436 47.99637 38.25536
#
# Velocity S-wave (km/s) = 3.30405 4.28665 3.82702
# Velocity P-wave (km/s) = 4.87139 7.10846 6.09346
#
# Compressibility (1/GPa) = 0.04172827
#
# Stress axis : x y z
#
# Youngs Moduli (GPa) = 80.07993 22.18727 90.93551
#
# Poissons Ratio (x) = 0.29102 0.49759
# Poissons Ratio (y) = 1.05038 -0.47060
# Poissons Ratio (z) = 0.43819 -0.11482
#
# Static dielectric constant tensor:
#      x y z
#    x 2.080560 0.017750 -0.036340 
#    y 0.017750 2.051850 -0.053830 
#    z -0.036340 -0.053830 2.042900 
# 
# From -- ./inp_files/182666.got.cif
#   From: 2010.05.17/outbox.cif.g08.bks.cpg/sg2_92_cif.got.tgz:182666.got - 2010.06.03 11:33:40.
