data_PCOD9007381
_publ_section_title
;
Structure prediction by ZEFSAII (Michael W. Deem and Ramdas Pophale) SiO2 
 PCOD9007381
Probable space group: P -1
;
_chemical_formula_sum "Si O2"
_cell_formula_units_Z 16
_cell_length_a 9.882455
_cell_length_b 14.385476
_cell_length_c 15.606088
_cell_angle_alpha 42.909286
_cell_angle_beta 45.788893
_cell_angle_gamma 78.919135
_cell_volume 820.256912
_symmetry_space_group_name_H-M "P -1"
_symmetry_group_IT_number 2
_symmetry_cell_setting 'triclinic'
loop_
_space_group_symop_operation_xyz
x,y,z
-x,-y,-z
loop_
_atom_site_type_symbol
_atom_site_label
_atom_site_fract_x
_atom_site_fract_y
_atom_site_fract_z
Si Si1 0.021943 0.808046 0.042514
Si Si2 0.694286 0.219262 0.261681
Si Si3 0.782630 0.687399 0.055108
Si Si4 0.226639 0.617995 0.065961
Si Si5 0.429723 0.818194 0.475957
Si Si6 0.579038 0.628415 0.459214
Si Si7 0.000467 0.778059 0.611037
Si Si8 0.692046 0.827661 0.837700
O O1 0.883275 0.797589 0.025861
O O2 0.306092 0.983928 0.784318
O O3 0.026168 0.644611 0.149412
O O4 0.873581 0.785238 0.207546
O O5 0.623451 0.263926 0.349974
O O6 0.979834 0.297474 0.084824
O O7 0.500000 0.000000 0.500000
O O8 0.666002 0.293105 0.136963
O O9 0.716971 0.760086 0.960805
O O10 0.526201 0.494071 0.327400
O O11 0.125724 0.415296 0.243988
O O12 0.423429 0.728121 0.981584
O O13 0.444169 0.709393 0.471262
O O14 0.206621 0.815543 0.559168
O O15 0.500000 0.500000 0.500000
O O16 0.812072 0.782662 0.744379
O O17 0.152872 0.958860 0.365369
#
# Coordination Sequence:
#
# PCOD9007381 Si02
#       8
#     2   2   2   2   2   2   2   2
#     4  10  21  42  64  91 123 161 213 264 302 363
#     4  11  20  36  63  98 129 155 204 260 322 371
#     4  10  21  39  61  90 128 160 201 264 305 372
#     4  11  23  41  62  92 132 166 206 253 311 382
#     4  12  20  37  68  94 122 165 205 261 319 366
#     4  10  23  40  61  90 121 163 218 263 304 362
#     4  11  23  36  61  88 130 171 197 251 311 386
#     4  11  23  40  57  92 132 167 207 242 321 376
#
# _framework density 19.506083
#
# number of rings (size 3 to 8) (size 9 to 14) (size 15 to 20)
#    0.000    1.250    5.000    3.000    3.500    1.000 
#    2.250    0.625    0.000    3.750    0.000    0.000 
#    0.000    0.000    0.000    0.000    0.000    0.000 
#
# Total GULP energy -89136.434964 kJ/mol
# GULP energy per Si atom -5571.027185 kJ/mol
# Density = 1.946169 g / cm^3
# Si number density = 19.506083 Si / 1000 Ang^3
#
#
#
# Elastic Constant Matrix: (Units=GPa)
#
#
# Indices 1 2 3 4 5 6 
#
# 1 98.4731 18.3639 41.2567 -9.9242 9.4942 2.8136
# 2 18.3639 71.5296 33.0469 2.6681 11.2489 1.0925
# 3 41.2567 33.0469 120.5089 -5.3117 7.0873 9.5442
# 4 -9.9242 2.6681 -5.3117 29.5703 -11.2697 -1.1514
# 5 9.4942 11.2489 7.0873 -11.2697 25.8225 -1.6489
# 6 2.8136 1.0925 9.5442 -1.1514 -1.6489 11.8503
#
#
#
# Elastic Compliance Matrix: (Units=1/GPa)
#
#
# Indices 1 2 3 4 5 6 
#
# 1 0.012396 -0.001348 -0.003660 0.003006 -0.001641 0.000193
# 2 -0.001348 0.017888 -0.004216 -0.006176 -0.008820 0.000239
# 3 -0.003660 -0.004216 0.011369 0.000867 -0.000059 -0.007822
# 4 0.003006 -0.006176 0.000867 0.043725 0.020832 0.006304
# 5 -0.001641 -0.008820 -0.000059 0.020832 0.052959 0.010643
# 6 0.000193 0.000239 -0.007822 0.006304 0.010643 0.092712
#
#
# Mechanical properties :
#
#
# Convention : Reuss Voigt Hill
#
# Bulk Modulus (GPa) = 43.09834 52.87185 47.98510
# Shear Modulus (GPa) = 19.43771 26.63822 23.03797
#
# Velocity S-wave (km/s) = 3.16016 3.69946 3.44039
# Velocity P-wave (km/s) = 5.95468 6.73886 6.35887
#
# Compressibility (1/GPa) = 0.02320275
#
# Stress axis : x y z
#
# Youngs Moduli (GPa) = 80.67307 55.90337 87.96116
#
# Poissons Ratio (x) = 0.07538 0.32196
# Poissons Ratio (y) = 0.10877 0.37087
# Poissons Ratio (z) = 0.29528 0.23570
#
# Static dielectric constant tensor:
#      x y z
#    x 1.654350 0.018460 -0.021240 
#    y 0.018460 1.741520 -0.040080 
#    z -0.021240 -0.040080 1.770300 
# 
# From -- ./inp_files/505229.got.cif
#   From: 2010.05.17/outbox.cif.g08.bks.cpg/sg2_253_cif.got.tgz:505229.got - 2010.06.03 11:33:40.
