data_PCOD9007167
_publ_section_title
;
Structure prediction by ZEFSAII (Michael W. Deem and Ramdas Pophale) SiO2 
 PCOD9007167
Probable space group: P -1
;
_chemical_formula_sum "Si O2"
_cell_formula_units_Z 16
_cell_length_a 7.903612
_cell_length_b 14.140623
_cell_length_c 14.107438
_cell_angle_alpha 137.329442
_cell_angle_beta 78.990909
_cell_angle_gamma 68.238185
_cell_volume 671.435751
_symmetry_space_group_name_H-M "P -1"
_symmetry_group_IT_number 2
_symmetry_cell_setting 'triclinic'
loop_
_space_group_symop_operation_xyz
x,y,z
-x,-y,-z
loop_
_atom_site_type_symbol
_atom_site_label
_atom_site_fract_x
_atom_site_fract_y
_atom_site_fract_z
Si Si1 0.211075 0.579039 0.867290
Si Si2 0.323390 0.347917 0.505704
Si Si3 0.765389 0.393240 0.445666
Si Si4 0.131620 0.723900 0.184112
Si Si5 0.087272 0.985358 0.875095
Si Si6 0.743434 0.650073 0.010426
Si Si7 0.872051 0.411991 0.648351
Si Si8 0.220595 0.988359 0.417883
O O1 0.383553 0.387973 0.629465
O O2 0.269957 0.620235 0.990205
O O3 0.985354 0.608285 0.945682
O O4 0.090936 0.779410 0.967927
O O5 0.140884 0.554664 0.604895
O O6 0.606128 0.153665 0.278624
O O7 0.147969 0.321940 0.527200
O O8 0.500000 0.500000 0.500000
O O9 0.941860 0.147323 0.268932
O O10 0.716475 0.485832 0.621911
O O11 0.232917 0.812702 0.275557
O O12 0.178608 0.541245 0.086536
O O13 0.823299 0.941200 0.415633
O O14 0.000000 0.000000 0.000000
O O15 0.494681 0.869808 0.254223
O O16 0.697960 0.621800 0.888371
O O17 0.974025 0.211869 0.548535
#
# Coordination Sequence:
#
# PCOD9007167 Si02
#       8
#     2   2   2   2   2   2   2   2
#     4  11  22  38  61  90 120 162 203 249 304 358
#     4  10  22  39  60  85 124 162 201 254 301 356
#     4  10  21  39  61  85 119 159 200 252 299 354
#     4  10  22  38  61  88 122 156 202 251 301 363
#     4  11  22  39  60  85 125 158 204 256 295 360
#     4  10  22  39  61  89 122 157 202 250 303 363
#     4  10  21  40  60  89 121 159 205 247 305 366
#     4  10  21  39  60  88 123 157 199 252 301 361
#
# _framework density 23.829530999999999
#
# number of rings (size 3 to 8) (size 9 to 14) (size 15 to 20)
#    0.000    1.750    1.250    2.625    0.000    3.500 
#    4.500    0.625    0.000    0.000    0.000    0.000 
#    0.000    0.000    0.000    0.000    0.000    0.000 
#
# Total GULP energy -89133.619092 kJ/mol
# GULP energy per Si atom -5570.851193 kJ/mol
# Density = 2.377529 g / cm^3
# Si number density = 23.829531 Si / 1000 Ang^3
#
#
#
# Elastic Constant Matrix: (Units=GPa)
#
#
# Indices 1 2 3 4 5 6 
#
# 1 53.1032 40.2646 43.3163 -14.4576 9.9881 24.5506
# 2 40.2646 96.3462 9.6145 6.4176 0.0935 15.7767
# 3 43.3163 9.6145 69.2968 -9.5176 -21.1211 -13.5993
# 4 -14.4576 6.4176 -9.5176 28.5062 23.1591 16.8671
# 5 9.9881 0.0935 -21.1211 23.1591 27.6907 -15.5402
# 6 24.5506 15.7767 -13.5993 16.8671 -15.5402 39.6462
#
#
#
# Elastic Compliance Matrix: (Units=1/GPa)
#
#
# Indices 1 2 3 4 5 6 
#
# 1 0.007744 -0.004171 0.001318 -0.016328 0.018301 0.011436
# 2 -0.004171 0.013164 -0.001700 0.002192 -0.005142 -0.006187
# 3 0.001318 -0.001700 0.011862 0.017001 -0.009609 -0.007070
# 4 -0.016328 0.002192 0.017001 0.019528 0.008093 0.009935
# 5 0.018301 -0.005142 -0.009609 0.008093 0.008254 -0.012790
# 6 0.011436 -0.006187 -0.007070 0.009935 -0.012790 0.008938
#
#
# Mechanical properties :
#
#
# Convention : Reuss Voigt Hill
#
# Bulk Modulus (GPa) = 42.25809 45.01524 43.63667
# Shear Modulus (GPa) = 57.81511 27.53868 42.67689
#
# Velocity S-wave (km/s) = 4.93099 3.40318 4.23652
# Velocity P-wave (km/s) = 7.08460 5.86291 6.50251
#
# Compressibility (1/GPa) = 0.02366411
#
# Stress axis : x y z
#
# Youngs Moduli (GPa) = 129.13685 75.96537 84.30483
#
# Poissons Ratio (x) = 0.31682 -0.11109
# Poissons Ratio (y) = 0.53857 0.14330
# Poissons Ratio (z) = -0.17017 0.12912
#
# Static dielectric constant tensor:
#      x y z
#    x 1.988900 -0.039490 0.004730 
#    y -0.039490 1.978900 -0.014890 
#    z 0.004730 -0.014890 2.060380 
# 
# From -- ./inp_files/504415.got.cif
#   From: 2010.05.17/outbox.cif.g08.bks.cpg/sg2_253_cif.got.tgz:504415.got - 2010.06.03 11:33:40.
