data_PCOD9007003
_publ_section_title
;
Structure prediction by ZEFSAII (Michael W. Deem and Ramdas Pophale) SiO2 
 PCOD9007003
Probable space group: P -1
;
_chemical_formula_sum "Si O2"
_cell_formula_units_Z 14
_cell_length_a 12.212350
_cell_length_b 8.852999
_cell_length_c 9.422946
_cell_angle_alpha 74.771053
_cell_angle_beta 60.969937
_cell_angle_gamma 47.571161
_cell_volume 654.182459
_symmetry_space_group_name_H-M "P -1"
_symmetry_group_IT_number 2
_symmetry_cell_setting 'triclinic'
loop_
_space_group_symop_operation_xyz
x,y,z
-x,-y,-z
loop_
_atom_site_type_symbol
_atom_site_label
_atom_site_fract_x
_atom_site_fract_y
_atom_site_fract_z
Si Si1 0.991118 0.454492 0.178577
Si Si2 0.676922 0.547820 0.287658
Si Si3 0.397939 0.926561 0.548190
Si Si4 0.719956 0.416025 0.818967
Si Si5 0.619497 0.316191 0.176773
Si Si6 0.338755 0.231912 0.039714
Si Si7 0.950090 0.699006 0.399765
O O1 0.175520 0.259096 0.153883
O O2 0.846094 0.447955 0.287827
O O3 0.951894 0.639067 0.250347
O O4 0.000000 0.500000 0.000000
O O5 0.522559 0.708787 0.443979
O O6 0.676822 0.382465 0.251038
O O7 0.666600 0.678662 0.131190
O O8 0.351575 0.881375 0.736960
O O9 0.500000 0.000000 0.500000
O O10 0.236084 0.092695 0.515577
O O11 0.574883 0.500324 0.778241
O O12 0.669568 0.622315 0.875086
O O13 0.903062 0.295708 0.675114
O O14 0.709485 0.295859 0.980452
O O15 0.500000 0.000000 0.000000
O O16 0.000000 0.500000 0.500000
#
# Coordination Sequence:
#
# PCOD9007003 Si02
#       7
#     2   2   2   2   2   2   2
#     4   9  19  37  59  86 124 159 203 259 302 361
#     4  10  21  39  58  92 123 161 203 255 317 365
#     4  12  24  38  65  92 121 167 213 256 312 381
#     4   9  21  41  62  87 129 169 198 261 314 365
#     4  10  22  42  63  87 128 166 208 252 317 379
#     4   9  19  33  62  91 120 160 210 251 301 370
#     4  11  23  39  63  96 128 160 212 266 311 366
#
# _framework density 21.400759999999998
#
# number of rings (size 3 to 8) (size 9 to 14) (size 15 to 20)
#    0.000    2.000    1.429    2.143    6.000    0.571 
#    0.000    5.000    0.000    0.000    0.000    0.000 
#    0.000    0.000    0.000    0.000    0.000    0.000 
#
# Total GULP energy -78169.913678 kJ/mol
# GULP energy per Si atom -5583.565263 kJ/mol
# Density = 2.135205 g / cm^3
# Si number density = 21.400760 Si / 1000 Ang^3
#
#
#
# Elastic Constant Matrix: (Units=GPa)
#
#
# Indices 1 2 3 4 5 6 
#
# 1 89.1297 15.7935 5.2853 0.5379 -39.4281 -19.4323
# 2 15.7935 75.1625 19.6570 -10.1834 -29.4317 -17.4955
# 3 5.2853 19.6570 43.3188 -3.1685 -22.2670 -5.7930
# 4 0.5379 -10.1834 -3.1685 30.9958 3.5459 -13.4402
# 5 -39.4281 -29.4317 -22.2670 3.5459 44.0272 11.8197
# 6 -19.4323 -17.4955 -5.7930 -13.4402 11.8197 23.7791
#
#
#
# Elastic Compliance Matrix: (Units=1/GPa)
#
#
# Indices 1 2 3 4 5 6 
#
# 1 0.026543 0.009598 0.011026 0.010577 0.028695 0.023153
# 2 0.009598 0.028267 0.000899 0.021060 0.017664 0.031983
# 3 0.011026 0.000899 0.036234 0.004133 0.026397 0.007714
# 4 0.010577 0.021060 0.004133 0.064715 0.004452 0.059510
# 5 0.028695 0.017664 0.026397 0.004452 0.070422 0.010389
# 6 0.023153 0.031983 0.007714 0.059510 0.010389 0.114858
#
#
# Mechanical properties :
#
#
# Convention : Reuss Voigt Hill
#
# Bulk Modulus (GPa) = 7.45767 32.12029 19.78898
# Shear Modulus (GPa) = 14.59045 30.88543 22.73794
#
# Velocity S-wave (km/s) = 2.61391 3.80306 3.26311
# Velocity P-wave (km/s) = 3.54998 5.85883 4.84398
#
# Compressibility (1/GPa) = 0.13409018
#
# Stress axis : x y z
#
# Youngs Moduli (GPa) = 37.67466 35.37647 27.59828
#
# Poissons Ratio (x) = -0.33953 -0.30430
# Poissons Ratio (y) = -0.36159 -0.02481
# Poissons Ratio (z) = -0.41541 -0.03180
#
# Static dielectric constant tensor:
#      x y z
#    x 1.814230 -0.012950 -0.016320 
#    y -0.012950 1.744230 -0.007800 
#    z -0.016320 -0.007800 1.813070 
# 
# From -- ./inp_files/184886.got.cif
#   From: 2010.05.17/outbox.cif.g08.bks.cpg/sg2_93_cif.got.tgz:184886.got - 2010.06.03 11:33:40.
