data_PCOD9007771
_publ_section_title
;
Structure prediction by ZEFSAII (Michael W. Deem and Ramdas Pophale) SiO2 
 PCOD9007771
Probable space group: P -1
;
_chemical_formula_sum "Si O2"
_cell_formula_units_Z 12
_cell_length_a 16.863818
_cell_length_b 6.249582
_cell_length_c 7.400335
_cell_angle_alpha 120.494614
_cell_angle_beta 52.622474
_cell_angle_gamma 102.215857
_cell_volume 528.721701
_symmetry_space_group_name_H-M "P -1"
_symmetry_group_IT_number 2
_symmetry_cell_setting 'triclinic'
loop_
_space_group_symop_operation_xyz
x,y,z
-x,-y,-z
loop_
_atom_site_type_symbol
_atom_site_label
_atom_site_fract_x
_atom_site_fract_y
_atom_site_fract_z
Si Si1 0.580767 0.817305 0.074800
Si Si2 0.072390 0.742058 0.314570
Si Si3 0.118854 0.476554 0.480424
Si Si4 0.426003 0.289322 0.539389
Si Si5 0.236716 0.966228 0.987060
Si Si6 0.697216 0.471850 0.500654
O O1 0.593075 0.728218 0.227797
O O2 0.481500 0.017603 0.281684
O O3 0.673111 0.979304 0.984404
O O4 0.605562 0.582073 0.807324
O O5 0.111121 0.704280 0.449459
O O6 0.994236 0.544572 0.306443
O O7 0.167145 0.768253 0.071306
O O8 0.000000 0.000000 0.500000
O O9 0.198670 0.485909 0.531521
O O10 0.164313 0.231112 0.192564
O O11 0.500000 0.500000 0.500000
O O12 0.331343 0.381148 0.583032
O O13 0.291678 0.825609 0.679426
#
# Coordination Sequence:
#
# PCOD9007771 Si02
#       6
#     2   2   2   2   2   2
#     4  10  24  44  62  93 131 166 210 264 308 370
#     4   9  19  42  67  89 132 166 203 265 312 367
#     4   9  21  41  63  95 130 164 210 262 307 373
#     4  11  23  45  65  90 131 167 211 264 311 372
#     4  10  21  39  62  96 127 163 210 258 307 372
#     4  11  23  40  66  97 123 172 209 254 321 371
#
# _framework density 22.696249000000002
#
# number of rings (size 3 to 8) (size 9 to 14) (size 15 to 20)
#    0.000    2.000    1.667    0.500    4.667    1.333 
#   12.000    7.500    0.000    0.000    0.000    0.000 
#    0.000    0.000    0.000    0.000    0.000    0.000 
#
# Total GULP energy -66945.947300 kJ/mol
# GULP energy per Si atom -5578.828942 kJ/mol
# Density = 2.264459 g / cm^3
# Si number density = 22.696249 Si / 1000 Ang^3
#
#
#
# Elastic Constant Matrix: (Units=GPa)
#
#
# Indices 1 2 3 4 5 6 
#
# 1 121.8740 43.3873 20.2939 -0.8878 -2.8564 -35.6754
# 2 43.3873 85.3482 45.0441 -0.1376 2.0775 -22.7850
# 3 20.2939 45.0441 93.3554 17.1110 -3.8559 -2.6286
# 4 -0.8878 -0.1376 17.1110 21.8799 4.8473 3.1431
# 5 -2.8564 2.0775 -3.8559 4.8473 32.9822 -2.4996
# 6 -35.6754 -22.7850 -2.6286 3.1431 -2.4996 38.2262
#
#
#
# Elastic Compliance Matrix: (Units=1/GPa)
#
#
# Indices 1 2 3 4 5 6 
#
# 1 0.012414 -0.003558 -0.000431 -0.001042 0.002134 0.009660
# 2 -0.003558 0.021579 -0.011093 0.008334 -0.003593 0.007859
# 3 -0.000431 -0.011093 0.019083 -0.015497 0.004859 -0.004110
# 4 -0.001042 0.008334 -0.015497 0.060805 -0.011578 -0.002828
# 5 0.002134 -0.003593 0.004859 -0.011578 0.033251 0.003310
# 6 0.009660 0.007859 -0.004110 -0.002828 0.003310 0.040026
#
#
# Mechanical properties :
#
#
# Convention : Reuss Voigt Hill
#
# Bulk Modulus (GPa) = 43.64417 57.55870 50.60144
# Shear Modulus (GPa) = 22.22631 31.40780 26.81705
#
# Velocity S-wave (km/s) = 3.13276 3.72402 3.44112
# Velocity P-wave (km/s) = 5.68832 6.62621 6.17510
#
# Compressibility (1/GPa) = 0.02291257
#
# Stress axis : x y z
#
# Youngs Moduli (GPa) = 80.55569 46.34158 52.40226
#
# Poissons Ratio (x) = 0.16489 0.02256
# Poissons Ratio (y) = 0.28662 0.58130
# Poissons Ratio (z) = 0.03468 0.51407
#
# Static dielectric constant tensor:
#      x y z
#    x 1.840940 0.049600 -0.019060 
#    y 0.049600 1.868970 -0.006280 
#    z -0.019060 -0.006280 1.934170 
# 
# From -- ./inp_files/5862.got.cif
#   From: 2010.05.17/outbox.cif.g08.bks.cpg/sg2_3_cif.got.tgz:5862.got - 2010.06.03 11:33:40.
