data_PCOD9007899
_publ_section_title
;
Structure prediction by ZEFSAII (Michael W. Deem and Ramdas Pophale) SiO2 
 PCOD9007899
Probable space group: P -1
;
_chemical_formula_sum "Si O2"
_cell_formula_units_Z 16
_cell_length_a 5.251559
_cell_length_b 7.665120
_cell_length_c 20.889047
_cell_angle_alpha 54.618747
_cell_angle_beta 58.122470
_cell_angle_gamma 65.083808
_cell_volume 574.012756
_symmetry_space_group_name_H-M "P -1"
_symmetry_group_IT_number 2
_symmetry_cell_setting 'triclinic'
loop_
_space_group_symop_operation_xyz
x,y,z
-x,-y,-z
loop_
_atom_site_type_symbol
_atom_site_label
_atom_site_fract_x
_atom_site_fract_y
_atom_site_fract_z
Si Si1 0.767198 0.480211 0.884633
Si Si2 0.696082 0.986296 0.343214
Si Si3 0.146165 0.505371 0.564807
Si Si4 0.396414 0.194789 0.849269
Si Si5 0.794820 0.020033 0.186500
Si Si6 0.854041 0.473237 0.737506
Si Si7 0.001190 0.939293 0.438114
Si Si8 0.289297 0.233370 0.040931
O O1 0.816754 0.588385 0.786610
O O2 0.736694 0.629665 0.918636
O O3 0.048673 0.283527 0.894948
O O4 0.462313 0.372797 0.941592
O O5 0.893371 0.744398 0.372755
O O6 0.781068 0.103408 0.243060
O O7 0.353726 0.956971 0.374511
O O8 0.762124 0.055891 0.392230
O O9 0.500000 0.500000 0.500000
O O10 0.960514 0.685430 0.505227
O O11 0.037368 0.574682 0.637318
O O12 0.471036 0.052966 0.803887
O O13 0.529135 0.417236 0.771985
O O14 0.519894 0.006258 0.922979
O O15 0.988378 0.776260 0.218210
O O16 0.953436 0.177974 0.087334
O O17 0.000000 0.000000 0.500000
#
# Coordination Sequence:
#
# PCOD9007899 Si02
#       8
#     2   2   2   2   2   2   2   2
#     4  10  22  40  60  94 129 163 216 268 322 396
#     4  10  22  40  65  87 127 167 216 266 324 398
#     4   9  20  41  64  90 120 168 214 264 328 396
#     4  10  21  39  63  90 125 168 213 262 329 386
#     4   9  21  38  61  90 117 165 212 260 321 388
#     4   9  20  39  62  89 125 159 211 269 321 393
#     4  11  23  40  60  94 128 165 212 272 331 392
#     4  10  22  39  62  90 129 170 213 265 325 393
#
# _framework density 27.873946
#
# number of rings (size 3 to 8) (size 9 to 14) (size 15 to 20)
#    0.000    2.250    0.000    1.125    5.250    7.500 
#   11.250    2.500    0.000    0.000    0.000    0.000 
#    0.000    0.000    0.000    0.000    0.000    0.000 
#
# Total GULP energy -89260.704681 kJ/mol
# GULP energy per Si atom -5578.794043 kJ/mol
# Density = 2.781050 g / cm^3
# Si number density = 27.873946 Si / 1000 Ang^3
#
#
#
# Elastic Constant Matrix: (Units=GPa)
#
#
# Indices 1 2 3 4 5 6 
#
# 1 74.2517 21.2150 29.6055 -1.4146 7.6057 4.3209
# 2 21.2150 103.7120 21.1347 7.2160 13.7447 4.4055
# 3 29.6055 21.1347 162.9330 20.3834 -6.7988 -6.5964
# 4 -1.4146 7.2160 20.3834 33.5818 12.8131 15.1375
# 5 7.6057 13.7447 -6.7988 12.8131 35.5340 -5.4455
# 6 4.3209 4.4055 -6.5964 15.1375 -5.4455 44.3581
#
#
#
# Elastic Compliance Matrix: (Units=1/GPa)
#
#
# Indices 1 2 3 4 5 6 
#
# 1 0.017475 -0.001839 -0.004922 0.010653 -0.008881 -0.006977
# 2 -0.001839 0.011002 -0.001577 0.001458 -0.005036 -0.002264
# 3 -0.004922 -0.001577 0.009468 -0.012417 0.009086 0.007397
# 4 0.010653 0.001458 -0.012417 0.062425 -0.032061 -0.028268
# 5 -0.008881 -0.005036 0.009086 -0.032061 0.048292 0.019586
# 6 -0.006977 -0.002264 0.007397 -0.028268 0.019586 0.036599
#
#
# Mechanical properties :
#
#
# Convention : Reuss Voigt Hill
#
# Bulk Modulus (GPa) = 47.02010 53.86744 50.44377
# Shear Modulus (GPa) = 23.92029 40.62422 32.27226
#
# Velocity S-wave (km/s) = 2.93261 3.82177 3.40633
# Velocity P-wave (km/s) = 5.32658 6.23232 5.79717
#
# Compressibility (1/GPa) = 0.02126750
#
# Stress axis : x y z
#
# Youngs Moduli (GPa) = 57.22622 90.89371 105.61435
#
# Poissons Ratio (x) = 0.16718 0.51987
# Poissons Ratio (y) = 0.10526 0.16656
# Poissons Ratio (z) = 0.28169 0.14334
#
# Static dielectric constant tensor:
#      x y z
#    x 2.512880 0.109880 0.021630 
#    y 0.109880 2.320510 0.188720 
#    z 0.021630 0.188720 2.338050 
# 
# From -- ./inp_files/56935.got.cif
#   From: 2010.05.17/outbox.cif.g08.bks.cpg/sg2_29_cif.got.tgz:56935.got - 2010.06.03 11:33:40.
