data_PCOD9007520
_publ_section_title
;
Structure prediction by ZEFSAII (Michael W. Deem and Ramdas Pophale) SiO2 
 PCOD9007520
Probable space group: P -1
;
_chemical_formula_sum "Si O2"
_cell_formula_units_Z 16
_cell_length_a 14.047328
_cell_length_b 6.911848
_cell_length_c 16.849258
_cell_angle_alpha 109.848957
_cell_angle_beta 151.679015
_cell_angle_gamma 76.277983
_cell_volume 722.992416
_symmetry_space_group_name_H-M "P -1"
_symmetry_group_IT_number 2
_symmetry_cell_setting 'triclinic'
loop_
_space_group_symop_operation_xyz
x,y,z
-x,-y,-z
loop_
_atom_site_type_symbol
_atom_site_label
_atom_site_fract_x
_atom_site_fract_y
_atom_site_fract_z
Si Si1 0.781885 0.110357 0.675673
Si Si2 0.492696 0.904720 0.810039
Si Si3 0.272709 0.342990 0.463576
Si Si4 0.805294 0.470126 0.408139
Si Si5 0.153993 0.360299 0.917082
Si Si6 0.452170 0.609687 0.061598
Si Si7 0.499186 0.268244 0.381130
Si Si8 0.267184 0.587503 0.186256
O O1 0.559297 0.149844 0.486188
O O2 0.815308 0.236930 0.798971
O O3 0.807870 0.871366 0.665650
O O4 0.945524 0.207710 0.744194
O O5 0.287291 0.768354 0.672824
O O6 0.673299 0.784237 0.956540
O O7 0.490743 0.874452 0.708929
O O8 0.531381 0.142292 0.897504
O O9 0.155763 0.410040 0.463180
O O10 0.323276 0.533918 0.467616
O O11 0.502931 0.329311 0.660473
O O12 0.625871 0.563923 0.244225
O O13 0.000000 0.500000 0.500000
O O14 0.237194 0.499985 0.923290
O O15 0.150014 0.512210 0.010919
O O16 0.500000 0.500000 0.000000
O O17 0.304203 0.388239 0.241067
#
# Coordination Sequence:
#
# PCOD9007520 Si02
#       8
#     2   2   2   2   2   2   2   2
#     4  12  20  32  63  89 113 150 195 244 276 329
#     4   9  20  42  58  76 120 161 174 233 301 338
#     4   9  20  37  57  83 118 148 189 236 286 341
#     4  10  21  39  62  86 112 148 196 240 284 344
#     4  10  23  39  55  85 120 152 190 235 287 343
#     4  11  23  39  60  82 113 155 193 234 291 347
#     4   8  19  34  57  81 110 146 193 227 279 338
#     4   9  19  41  55  79 123 156 187 229 295 345
#
# _framework density 22.130246
#
# number of rings (size 3 to 8) (size 9 to 14) (size 15 to 20)
#    0.750    1.500    2.500    1.875    0.000    7.500 
#    0.000    0.000    0.000    3.750    0.000    0.000 
#    0.000    0.000    0.000    0.000    0.000    0.000 
#
# Total GULP energy -89269.663999 kJ/mol
# GULP energy per Si atom -5579.354000 kJ/mol
# Density = 2.207988 g / cm^3
# Si number density = 22.130246 Si / 1000 Ang^3
#
#
#
# Elastic Constant Matrix: (Units=GPa)
#
#
# Indices 1 2 3 4 5 6 
#
# 1 103.3269 48.5084 23.6852 21.2594 1.9511 -11.9948
# 2 48.5084 120.2863 27.7324 36.8759 -20.2222 -16.4633
# 3 23.6852 27.7324 35.5128 10.0753 4.6870 -7.0478
# 4 21.2594 36.8759 10.0753 32.2236 -1.9959 -12.6922
# 5 1.9511 -20.2222 4.6870 -1.9959 38.5902 2.6552
# 6 -11.9948 -16.4633 -7.0478 -12.6922 2.6552 21.2911
#
#
#
# Elastic Compliance Matrix: (Units=1/GPa)
#
#
# Indices 1 2 3 4 5 6 
#
# 1 0.013212 -0.003610 -0.004596 -0.002541 -0.002264 0.001898
# 2 -0.003610 0.018040 -0.008918 -0.015441 0.010023 -0.001491
# 3 -0.004596 -0.008918 0.039987 0.002731 -0.009609 0.006578
# 4 -0.002541 -0.015441 0.002731 0.058191 -0.006873 0.023079
# 5 -0.002264 0.010023 -0.009609 -0.006873 0.032425 -0.004846
# 6 0.001898 -0.001491 0.006578 0.023079 -0.004846 0.063424
#
#
# Mechanical properties :
#
#
# Convention : Reuss Voigt Hill
#
# Bulk Modulus (GPa) = 27.03391 50.99756 39.01573
# Shear Modulus (GPa) = 18.39187 29.03431 23.71309
#
# Velocity S-wave (km/s) = 2.88596 3.62605 3.27697
# Velocity P-wave (km/s) = 4.83191 6.37380 5.65565
#
# Compressibility (1/GPa) = 0.03699058
#
# Stress axis : x y z
#
# Youngs Moduli (GPa) = 75.68646 55.43160 25.00795
#
# Poissons Ratio (x) = 0.20013 0.11494
# Poissons Ratio (y) = 0.27326 0.22302
# Poissons Ratio (z) = 0.34788 0.49434
#
# Static dielectric constant tensor:
#      x y z
#    x 1.820380 0.023630 0.032450 
#    y 0.023630 1.828960 -0.020860 
#    z 0.032450 -0.020860 1.865970 
# 
# From -- ./inp_files/571770.got.cif
#   From: 2010.05.17/outbox.cif.g08.bks.cpg/sg2_286_cif.got.tgz:571770.got - 2010.06.03 11:33:40.
