data_PCOD9007353
_publ_section_title
;
Structure prediction by ZEFSAII (Michael W. Deem and Ramdas Pophale) SiO2 
 PCOD9007353
Probable space group: P -1
;
_chemical_formula_sum "Si O2"
_cell_formula_units_Z 16
_cell_length_a 22.134129
_cell_length_b 5.404027
_cell_length_c 5.303877
_cell_angle_alpha 95.209008
_cell_angle_beta 75.126795
_cell_angle_gamma 94.487508
_cell_volume 609.631869
_symmetry_space_group_name_H-M "P -1"
_symmetry_group_IT_number 2
_symmetry_cell_setting 'triclinic'
loop_
_space_group_symop_operation_xyz
x,y,z
-x,-y,-z
loop_
_atom_site_type_symbol
_atom_site_label
_atom_site_fract_x
_atom_site_fract_y
_atom_site_fract_z
Si Si1 0.601726 0.468643 0.480540
Si Si2 0.484958 0.276949 0.801287
Si Si3 0.928155 0.555077 0.605497
Si Si4 0.630584 0.898494 0.895451
Si Si5 0.829631 0.160194 0.603039
Si Si6 0.128477 0.247202 0.837139
Si Si7 0.751799 0.817872 0.057009
Si Si8 0.287292 0.760740 0.491308
O O1 0.552190 0.244721 0.602794
O O2 0.563114 0.596249 0.321139
O O3 0.614730 0.688235 0.687301
O O4 0.671080 0.376852 0.365849
O O5 0.500000 0.500000 0.000000
O O6 0.438923 0.050200 0.924261
O O7 0.885877 0.307409 0.695114
O O8 0.901542 0.628183 0.364954
O O9 0.000000 0.500000 0.500000
O O10 0.915664 0.739973 0.868755
O O11 0.683920 0.775168 0.996026
O O12 0.664269 0.145784 0.768252
O O13 0.775571 0.342321 0.587826
O O14 0.858406 0.022695 0.318906
O O15 0.793393 0.964008 0.809631
O O16 0.197207 0.351510 0.880407
O O17 0.733780 0.997304 0.320853
#
# Coordination Sequence:
#
# PCOD9007353 Si02
#       8
#     2   2   2   2   2   2   2   2
#     4  10  21  39  61  89 123 174 221 285 341 410
#     4   9  20  38  58  85 127 170 222 275 351 407
#     4  12  28  47  76 110 141 192 241 279 353 425
#     4  10  21  39  61  91 126 170 221 281 342 419
#     4  10  25  46  69 104 144 181 234 294 348 425
#     4  11  25  48  72 105 147 187 229 297 349 408
#     4  10  22  45  64  98 136 177 223 284 356 404
#     4  10  23  38  63  96 127 167 231 277 346 412
#
# _framework density 26.245349999999998
#
# number of rings (size 3 to 8) (size 9 to 14) (size 15 to 20)
#    0.000    1.750    1.250    1.125    5.250    6.500 
#    0.000    8.750    0.000    0.000    0.000    0.000 
#    0.000    0.000    0.000    0.000    0.000    0.000 
#
# Total GULP energy -89383.426735 kJ/mol
# GULP energy per Si atom -5586.464171 kJ/mol
# Density = 2.618561 g / cm^3
# Si number density = 26.245350 Si / 1000 Ang^3
#
#
#
# Elastic Constant Matrix: (Units=GPa)
#
#
# Indices 1 2 3 4 5 6 
#
# 1 194.1316 27.4437 23.9516 -2.2087 12.3509 -5.1798
# 2 27.4437 40.3833 11.4106 -9.0505 2.5966 -1.0067
# 3 23.9516 11.4106 89.3055 3.4570 16.5875 1.8519
# 4 -2.2087 -9.0505 3.4570 39.0941 -11.9964 5.5173
# 5 12.3509 2.5966 16.5875 -11.9964 52.2597 -8.9549
# 6 -5.1798 -1.0067 1.8519 5.5173 -8.9549 35.8895
#
#
#
# Elastic Compliance Matrix: (Units=1/GPa)
#
#
# Indices 1 2 3 4 5 6 
#
# 1 0.005877 -0.003865 -0.000875 -0.000889 -0.001009 0.000670
# 2 -0.003865 0.029970 -0.003516 0.007757 0.002294 -0.000156
# 3 -0.000875 -0.003516 0.012918 -0.003235 -0.004731 -0.001575
# 4 -0.000889 0.007757 -0.003235 0.030228 0.007353 -0.002556
# 5 -0.001009 0.002294 -0.004731 0.007353 0.023279 0.004841
# 6 0.000670 -0.000156 -0.001575 -0.002556 0.004841 0.029638
#
#
# Mechanical properties :
#
#
# Convention : Reuss Voigt Hill
#
# Bulk Modulus (GPa) = 31.00343 49.93690 40.47017
# Shear Modulus (GPa) = 31.41277 42.84964 37.13121
#
# Velocity S-wave (km/s) = 3.46336 4.04500 3.76543
# Velocity P-wave (km/s) = 5.27558 6.39408 5.86157
#
# Compressibility (1/GPa) = 0.03225449
#
# Stress axis : x y z
#
# Youngs Moduli (GPa) = 170.14515 33.36719 77.41153
#
# Poissons Ratio (x) = 0.12896 0.06770
# Poissons Ratio (y) = 0.65757 0.27217
# Poissons Ratio (z) = 0.14881 0.11731
#
# Static dielectric constant tensor:
#      x y z
#    x 2.076820 -0.042100 -0.020850 
#    y -0.042100 2.191410 -0.095970 
#    z -0.020850 -0.095970 2.179260 
# 
# From -- ./inp_files/56487.got.cif
#   From: 2010.05.17/outbox.cif.g08.bks.cpg/sg2_29_cif.got.tgz:56487.got - 2010.06.03 11:33:40.
