data_PCOD9007557
_publ_section_title
;
Structure prediction by ZEFSAII (Michael W. Deem and Ramdas Pophale) SiO2 
 PCOD9007557
Probable space group: P -1
;
_chemical_formula_sum "Si O2"
_cell_formula_units_Z 14
_cell_length_a 8.605540
_cell_length_b 16.203636
_cell_length_c 20.210781
_cell_angle_alpha 19.038977
_cell_angle_beta 50.646071
_cell_angle_gamma 42.321490
_cell_volume 591.404139
_symmetry_space_group_name_H-M "P -1"
_symmetry_group_IT_number 2
_symmetry_cell_setting 'triclinic'
loop_
_space_group_symop_operation_xyz
x,y,z
-x,-y,-z
loop_
_atom_site_type_symbol
_atom_site_label
_atom_site_fract_x
_atom_site_fract_y
_atom_site_fract_z
Si Si1 0.566683 0.055362 0.619179
Si Si2 0.738198 0.543569 0.714482
Si Si3 0.518369 0.507700 0.066989
Si Si4 0.098112 0.669648 0.803731
Si Si5 0.564563 0.170754 0.977251
Si Si6 0.596280 0.385417 0.671632
Si Si7 0.785954 0.493608 0.422894
O O1 0.474749 0.155924 0.493168
O O2 0.419424 0.357865 0.472893
O O3 0.848050 0.935838 0.637991
O O4 0.509267 0.818540 0.842601
O O5 0.686316 0.515264 0.825598
O O6 0.733994 0.264735 0.894256
O O7 0.970626 0.544871 0.635860
O O8 0.759723 0.268202 0.225623
O O9 0.500000 0.500000 0.000000
O O10 0.297978 0.439653 0.870520
O O11 0.000000 0.500000 0.000000
O O12 0.604900 0.162393 0.893557
O O13 0.623050 0.843093 0.227905
O O14 0.803075 0.282176 0.638871
O O15 0.357090 0.525628 0.585213
#
# Coordination Sequence:
#
# PCOD9007557 Si02
#       7
#     2   2   2   2   2   2   2
#     4  10  22  42  62  90 125 159 208 249 302 370
#     4  10  23  38  62  92 123 164 198 252 313 357
#     4  10  22  39  61  92 125 161 202 251 310 363
#     4   9  19  38  64  87 120 162 199 249 301 359
#     4  10  21  39  62  88 120 162 205 247 302 363
#     4  10  23  38  60  88 119 165 202 248 307 357
#     4  11  22  39  59  90 125 155 206 252 298 368
#
# _framework density 23.672474999999999
#
# number of rings (size 3 to 8) (size 9 to 14) (size 15 to 20)
#    0.000    2.000    0.000    3.429    0.000   12.571 
#    0.000    2.857    0.000    0.000    0.000    0.000 
#    0.000    0.000    0.000    0.000    0.000    0.000 
#
# Total GULP energy -78169.512880 kJ/mol
# GULP energy per Si atom -5583.536634 kJ/mol
# Density = 2.361860 g / cm^3
# Si number density = 23.672475 Si / 1000 Ang^3
#
#
#
# Elastic Constant Matrix: (Units=GPa)
#
#
# Indices 1 2 3 4 5 6 
#
# 1 74.8534 43.7036 6.3067 17.1151 2.4244 0.1817
# 2 43.7036 119.3812 28.2815 52.8546 19.0250 -8.9497
# 3 6.3067 28.2815 72.7050 25.4432 14.2103 3.1971
# 4 17.1151 52.8546 25.4432 47.5766 3.9365 0.8330
# 5 2.4244 19.0250 14.2103 3.9365 31.0936 10.4111
# 6 0.1817 -8.9497 3.1971 0.8330 10.4111 37.3843
#
#
#
# Elastic Compliance Matrix: (Units=1/GPa)
#
#
# Indices 1 2 3 4 5 6 
#
# 1 0.017715 -0.009005 0.000015 0.003279 0.004943 -0.003693
# 2 -0.009005 0.026089 0.002498 -0.025878 -0.016933 0.011368
# 3 0.000015 0.002498 0.018713 -0.012062 -0.009164 0.001819
# 4 0.003279 -0.025878 -0.012062 0.053740 0.018111 -0.011421
# 5 0.004943 -0.016933 -0.009164 0.018111 0.049925 -0.017601
# 6 -0.003693 0.011368 0.001819 -0.011421 -0.017601 0.034489
#
#
# Mechanical properties :
#
#
# Convention : Reuss Voigt Hill
#
# Bulk Modulus (GPa) = 20.18796 47.05814 33.62305
# Shear Modulus (GPa) = 21.72336 35.78742 28.75539
#
# Velocity S-wave (km/s) = 3.03258 3.89237 3.48906
# Velocity P-wave (km/s) = 4.56165 6.33425 5.51957
#
# Compressibility (1/GPa) = 0.04953447
#
# Stress axis : x y z
#
# Youngs Moduli (GPa) = 56.44933 38.32990 53.43761
#
# Poissons Ratio (x) = 0.34516 -0.00080
# Poissons Ratio (y) = 0.50833 -0.13351
# Poissons Ratio (z) = -0.00085 -0.09577
#
# Static dielectric constant tensor:
#      x y z
#    x 1.914030 0.003400 0.038360 
#    y 0.003400 1.930970 -0.003750 
#    z 0.038360 -0.003750 1.969690 
# 
# From -- ./inp_files/270208.got.cif
#   From: 2010.05.17/outbox.cif.g08.bks.cpg/sg2_136_cif.got.tgz:270208.got - 2010.06.03 11:33:40.
