data_PCOD9007414
_publ_section_title
;
Structure prediction by ZEFSAII (Michael W. Deem and Ramdas Pophale) SiO2 
 PCOD9007414
Probable space group: P -1
;
_chemical_formula_sum "Si O2"
_cell_formula_units_Z 14
_cell_length_a 13.263191
_cell_length_b 9.938009
_cell_length_c 11.941268
_cell_angle_alpha 36.062584
_cell_angle_beta 136.164810
_cell_angle_gamma 122.998027
_cell_volume 638.848277
_symmetry_space_group_name_H-M "P -1"
_symmetry_group_IT_number 2
_symmetry_cell_setting 'triclinic'
loop_
_space_group_symop_operation_xyz
x,y,z
-x,-y,-z
loop_
_atom_site_type_symbol
_atom_site_label
_atom_site_fract_x
_atom_site_fract_y
_atom_site_fract_z
Si Si1 0.997438 0.581032 0.750694
Si Si2 0.835900 0.336701 0.952431
Si Si3 0.590631 0.716759 0.457559
Si Si4 0.407574 0.952825 0.346062
Si Si5 0.391939 0.515669 0.738148
Si Si6 0.721750 0.873987 0.232153
Si Si7 0.291421 0.452502 0.938120
O O1 0.919929 0.363535 0.884400
O O2 0.880165 0.749158 0.477617
O O3 0.053169 0.690215 0.836671
O O4 0.140296 0.523075 0.829508
O O5 0.736738 0.579902 0.718629
O O6 0.738975 0.124844 0.029080
O O7 0.500000 0.500000 0.500000
O O8 0.512372 0.888613 0.368981
O O9 0.629446 0.854565 0.285244
O O10 0.337901 0.718476 0.473871
O O11 0.500000 0.000000 0.500000
O O12 0.303364 0.183524 0.096230
O O13 0.346981 0.282363 0.809075
O O14 0.567747 0.505806 0.900422
O O15 0.321657 0.573949 0.763506
#
# Coordination Sequence:
#
# PCOD9007414 Si02
#       7
#     2   2   2   2   2   2   2
#     4  10  23  44  63  93 129 172 220 260 313 406
#     4  10  23  42  66  90 130 173 213 265 329 377
#     4  11  23  39  65 101 130 159 218 274 316 384
#     4  10  21  39  61  91 132 167 204 260 327 381
#     4  10  22  40  61  97 125 161 220 269 311 389
#     4  11  24  40  68  96 130 165 221 269 325 375
#     4  10  23  41  65  89 130 172 211 261 330 384
#
# _framework density 21.914435000000001
#
# number of rings (size 3 to 8) (size 9 to 14) (size 15 to 20)
#    0.000    1.714    1.429    2.143    2.000    6.857 
#    0.000    1.429    0.000    0.000    0.000    0.000 
#    0.000    0.000    0.000    0.000    0.000    0.000 
#
# Total GULP energy -78274.037575 kJ/mol
# GULP energy per Si atom -5591.002684 kJ/mol
# Density = 2.186456 g / cm^3
# Si number density = 21.914435 Si / 1000 Ang^3
#
#
#
# Elastic Constant Matrix: (Units=GPa)
#
#
# Indices 1 2 3 4 5 6 
#
# 1 154.5950 17.3922 42.9287 -0.7164 7.9014 0.6053
# 2 17.3922 82.2443 22.4189 -6.5986 -1.5578 0.5226
# 3 42.9287 22.4189 82.2791 2.1508 0.9116 7.1250
# 4 -0.7164 -6.5986 2.1508 27.5552 7.5209 -12.2498
# 5 7.9014 -1.5578 0.9116 7.5209 33.5430 -9.3848
# 6 0.6053 0.5226 7.1250 -12.2498 -9.3848 29.8995
#
#
#
# Elastic Compliance Matrix: (Units=1/GPa)
#
#
# Indices 1 2 3 4 5 6 
#
# 1 0.007721 -0.000493 -0.003969 0.001207 -0.001801 0.000727
# 2 -0.000493 0.013674 -0.003836 0.004630 0.000592 0.002768
# 3 -0.003969 -0.003836 0.015882 -0.004711 -0.000193 -0.005628
# 4 0.001207 0.004630 -0.004711 0.047641 -0.005347 0.018857
# 5 -0.001801 0.000592 -0.000193 -0.005347 0.033848 0.008506
# 6 0.000727 0.002768 -0.005628 0.018857 0.008506 0.045119
#
#
# Mechanical properties :
#
#
# Convention : Reuss Voigt Hill
#
# Bulk Modulus (GPa) = 48.35076 53.84421 51.09748
# Shear Modulus (GPa) = 26.68462 33.95811 30.32137
#
# Velocity S-wave (km/s) = 3.49330 3.94074 3.72375
# Velocity P-wave (km/s) = 6.19534 6.73271 6.46961
#
# Compressibility (1/GPa) = 0.02068220
#
# Stress axis : x y z
#
# Youngs Moduli (GPa) = 129.52083 73.13240 62.96365
#
# Poissons Ratio (x) = 0.03604 0.24988
# Poissons Ratio (y) = 0.06382 0.24152
# Poissons Ratio (z) = 0.51402 0.28053
#
# Static dielectric constant tensor:
#      x y z
#    x 1.821480 0.046830 -0.029740 
#    y 0.046830 1.825030 0.000300 
#    z -0.029740 0.000300 1.844750 
# 
# From -- ./inp_files/418790.got.cif
#   From: 2010.05.17/outbox.cif.g08.bks.cpg/sg2_210_cif.got.tgz:418790.got - 2010.06.03 11:33:40.
