data_PCOD9007393
_publ_section_title
;
Structure prediction by ZEFSAII (Michael W. Deem and Ramdas Pophale) SiO2 
 PCOD9007393
Probable space group: P -1
;
_chemical_formula_sum "Si O2"
_cell_formula_units_Z 16
_cell_length_a 15.126083
_cell_length_b 9.918218
_cell_length_c 13.069416
_cell_angle_alpha 132.859600
_cell_angle_beta 114.892082
_cell_angle_gamma 37.670008
_cell_volume 847.570871
_symmetry_space_group_name_H-M "P -1"
_symmetry_group_IT_number 2
_symmetry_cell_setting 'triclinic'
loop_
_space_group_symop_operation_xyz
x,y,z
-x,-y,-z
loop_
_atom_site_type_symbol
_atom_site_label
_atom_site_fract_x
_atom_site_fract_y
_atom_site_fract_z
Si Si1 0.607630 0.376605 0.849028
Si Si2 0.935493 0.664428 0.446542
Si Si3 0.498785 0.823055 0.191281
Si Si4 0.939013 0.140673 0.430142
Si Si5 0.071952 0.894164 0.145641
Si Si6 0.158620 0.560915 0.826167
Si Si7 0.617812 0.601826 0.575283
Si Si8 0.379303 0.688191 0.397183
O O1 0.578839 0.208723 0.784831
O O2 0.783746 0.178645 0.834004
O O3 0.545635 0.479399 0.757815
O O4 0.526009 0.647142 0.017907
O O5 0.901272 0.550812 0.293484
O O6 0.000000 0.500000 0.500000
O O7 0.049232 0.655887 0.461082
O O8 0.777521 0.996085 0.547299
O O9 0.665784 0.651241 0.215669
O O10 0.409477 0.140955 0.294643
O O11 0.763661 0.346798 0.447257
O O12 0.000000 0.000000 0.500000
O O13 0.025402 0.944275 0.268457
O O14 0.121918 0.650079 0.973902
O O15 0.932601 0.174786 0.158511
O O16 0.475066 0.704844 0.510176
O O17 0.643350 0.458087 0.619772
#
# Coordination Sequence:
#
# PCOD9007393 Si02
#       8
#     2   2   2   2   2   2   2   2
#     4  10  21  40  61  91 122 156 204 253 302 361
#     4  12  22  39  64  92 119 163 208 253 308 359
#     4  10  23  38  62  92 122 156 202 257 304 359
#     4  12  24  41  62  90 125 160 208 252 305 370
#     4  10  21  39  62  87 125 165 195 254 312 359
#     4  10  21  39  61  91 122 158 208 248 308 365
#     4  11  25  40  61  90 125 163 201 250 309 365
#     4  11  23  42  61  88 125 163 203 250 305 367
#
# _framework density 18.877478
#
# number of rings (size 3 to 8) (size 9 to 14) (size 15 to 20)
#    0.000    1.250    5.000    0.000    5.250    1.000 
#    0.000    0.625    0.000    0.000    0.000    0.000 
#    0.000    0.000    0.000    0.000    0.000    0.000 
#
# Total GULP energy -89156.417499 kJ/mol
# GULP energy per Si atom -5572.276094 kJ/mol
# Density = 1.883451 g / cm^3
# Si number density = 18.877478 Si / 1000 Ang^3
#
#
#
# Elastic Constant Matrix: (Units=GPa)
#
#
# Indices 1 2 3 4 5 6 
#
# 1 110.8711 38.6875 62.1900 -4.9618 -3.9934 21.3950
# 2 38.6875 85.0419 45.3146 -6.8647 -9.2059 5.3249
# 3 62.1900 45.3146 103.4950 -17.4334 4.4205 10.6567
# 4 -4.9618 -6.8647 -17.4334 22.9419 -0.1796 -9.5274
# 5 -3.9934 -9.2059 4.4205 -0.1796 35.8283 1.5580
# 6 21.3950 5.3249 10.6567 -9.5274 1.5580 21.8829
#
#
#
# Elastic Compliance Matrix: (Units=1/GPa)
#
#
# Indices 1 2 3 4 5 6 
#
# 1 0.018979 -0.002396 -0.010693 -0.012349 0.003557 -0.018395
# 2 -0.002396 0.016545 -0.006063 0.000305 0.004687 0.001068
# 3 -0.010693 -0.006063 0.020626 0.015200 -0.005605 0.008903
# 4 -0.012349 0.000305 0.015200 0.066604 -0.004314 0.033903
# 5 0.003557 0.004687 -0.005605 -0.004314 0.030440 -0.005934
# 6 -0.018395 0.001068 0.008903 0.033903 -0.005934 0.074270
#
#
# Mechanical properties :
#
#
# Convention : Reuss Voigt Hill
#
# Bulk Modulus (GPa) = 56.03951 65.75469 60.89710
# Shear Modulus (GPa) = 18.40153 26.34501 22.37327
#
# Velocity S-wave (km/s) = 3.12555 3.73980 3.44638
# Velocity P-wave (km/s) = 6.54032 7.31820 6.94017
#
# Compressibility (1/GPa) = 0.01784455
#
# Stress axis : x y z
#
# Youngs Moduli (GPa) = 52.69034 60.44221 48.48339
#
# Poissons Ratio (x) = 0.14481 0.51845
# Poissons Ratio (y) = 0.12624 0.29396
# Poissons Ratio (z) = 0.56343 0.36646
#
# Static dielectric constant tensor:
#      x y z
#    x 1.664880 -0.016010 -0.035120 
#    y -0.016010 1.640640 0.005920 
#    z -0.035120 0.005920 1.713960 
# 
# From -- ./inp_files/208982.got.cif
#   From: 2010.05.17/outbox.cif.g08.bks.cpg/sg2_105_cif.got.tgz:208982.got - 2010.06.03 11:33:40.
