data_PCOD9007378
_publ_section_title
;
Structure prediction by ZEFSAII (Michael W. Deem and Ramdas Pophale) SiO2 
 PCOD9007378
Probable space group: P -1
;
_chemical_formula_sum "Si O2"
_cell_formula_units_Z 16
_cell_length_a 12.378875
_cell_length_b 9.359314
_cell_length_c 24.181309
_cell_angle_alpha 45.802157
_cell_angle_beta 154.423232
_cell_angle_gamma 142.238964
_cell_volume 739.311782
_symmetry_space_group_name_H-M "P -1"
_symmetry_group_IT_number 2
_symmetry_cell_setting 'triclinic'
loop_
_space_group_symop_operation_xyz
x,y,z
-x,-y,-z
loop_
_atom_site_type_symbol
_atom_site_label
_atom_site_fract_x
_atom_site_fract_y
_atom_site_fract_z
Si Si1 0.296665 0.125989 0.998604
Si Si2 0.899399 0.062808 0.728382
Si Si3 0.497435 0.435011 0.359756
Si Si4 0.691591 0.106356 0.440497
Si Si5 0.835890 0.373518 0.901952
Si Si6 0.481189 0.663633 0.401536
Si Si7 0.879270 0.565531 0.102500
Si Si8 0.080516 0.410912 0.626707
O O1 0.202536 0.240112 0.972901
O O2 0.066325 0.052137 0.861760
O O3 0.605791 0.323585 0.062900
O O4 0.300127 0.901613 0.080562
O O5 0.101868 0.294966 0.723644
O O6 0.776185 0.833248 0.695043
O O7 0.601602 0.045607 0.617147
O O8 0.405202 0.556686 0.238519
O O9 0.548436 0.583355 0.397496
O O10 0.785221 0.422099 0.490446
O O11 0.976620 0.223577 0.579646
O O12 0.678455 0.322855 0.348750
O O13 0.690723 0.932733 0.442307
O O14 0.037941 0.445006 0.920296
O O15 0.000000 0.500000 0.000000
O O16 0.500000 0.500000 0.500000
O O17 0.159047 0.622355 0.253822
#
# Coordination Sequence:
#
# PCOD9007378 Si02
#       8
#     2   2   2   2   2   2   2   2
#     4  11  23  44  68  93 129 173 222 264 316 381
#     4  11  20  41  65  88 126 169 208 266 315 375
#     4  10  22  39  61  93 128 163 211 260 328 381
#     4  10  21  39  61  90 126 164 211 256 320 375
#     4  11  23  44  65  91 133 170 208 273 322 378
#     4  11  21  39  66  93 133 167 201 269 330 377
#     4  10  25  44  64 100 124 171 227 258 316 390
#     4  10  22  39  62  95 122 163 220 259 309 393
#
# _framework density 21.641749000000001
#
# number of rings (size 3 to 8) (size 9 to 14) (size 15 to 20)
#    0.000    1.500    2.500    3.375    0.000    3.000 
#   11.250    0.000    0.000    0.000    0.000    0.000 
#    0.000    0.000    0.000    0.000    0.000    0.000 
#
# Total GULP energy -89370.518119 kJ/mol
# GULP energy per Si atom -5585.657382 kJ/mol
# Density = 2.159249 g / cm^3
# Si number density = 21.641749 Si / 1000 Ang^3
#
#
#
# Elastic Constant Matrix: (Units=GPa)
#
#
# Indices 1 2 3 4 5 6 
#
# 1 78.4413 51.2074 28.6732 11.6310 -12.3499 -15.8733
# 2 51.2074 112.1913 19.9967 -5.2308 -4.4927 -15.3046
# 3 28.6732 19.9967 70.5230 -9.2760 -10.3390 -6.9739
# 4 11.6310 -5.2308 -9.2760 35.8764 0.2120 -10.1802
# 5 -12.3499 -4.4927 -10.3390 0.2120 29.9355 1.2739
# 6 -15.8733 -15.3046 -6.9739 -10.1802 1.2739 39.3663
#
#
#
# Elastic Compliance Matrix: (Units=1/GPa)
#
#
# Indices 1 2 3 4 5 6 
#
# 1 0.025205 -0.010158 -0.007760 -0.011201 0.006199 0.001742
# 2 -0.010158 0.014042 0.001060 0.006565 -0.001904 0.003311
# 3 -0.007760 0.001060 0.018872 0.008285 0.003304 0.002662
# 4 -0.011201 0.006565 0.008285 0.037216 -0.001428 0.009174
# 5 0.006199 -0.001904 0.003304 -0.001428 0.036795 0.000785
# 6 0.001742 0.003311 0.002662 0.009174 0.000785 0.030211
#
#
# Mechanical properties :
#
#
# Convention : Reuss Voigt Hill
#
# Bulk Modulus (GPa) = 40.97717 51.21224 46.09470
# Shear Modulus (GPa) = 24.48698 31.78753 28.13725
#
# Velocity S-wave (km/s) = 3.36738 3.83666 3.60965
# Velocity P-wave (km/s) = 5.83904 6.58343 6.22238
#
# Compressibility (1/GPa) = 0.02440383
#
# Stress axis : x y z
#
# Youngs Moduli (GPa) = 39.67405 71.21431 52.98961
#
# Poissons Ratio (x) = 0.72337 0.41120
# Poissons Ratio (y) = 0.40300 -0.05617
# Poissons Ratio (z) = 0.30787 -0.07549
#
# Static dielectric constant tensor:
#      x y z
#    x 1.849090 -0.002130 -0.000090 
#    y -0.002130 1.796700 -0.000930 
#    z -0.000090 -0.000930 1.748780 
# 
# From -- ./inp_files/594067.got.cif
#   From: 2010.05.17/outbox.cif.g08.bks.cpg/sg2_298_cif.got.tgz:594067.got - 2010.06.03 11:33:40.
