data_PCOD9007178
_publ_section_title
;
Structure prediction by ZEFSAII (Michael W. Deem and Ramdas Pophale) SiO2 
 PCOD9007178
Probable space group: P -1
;
_chemical_formula_sum "Si O2"
_cell_formula_units_Z 14
_cell_length_a 12.095840
_cell_length_b 9.140491
_cell_length_c 7.836510
_cell_angle_alpha 126.679991
_cell_angle_beta 108.908335
_cell_angle_gamma 57.861286
_cell_volume 588.351982
_symmetry_space_group_name_H-M "P -1"
_symmetry_group_IT_number 2
_symmetry_cell_setting 'triclinic'
loop_
_space_group_symop_operation_xyz
x,y,z
-x,-y,-z
loop_
_atom_site_type_symbol
_atom_site_label
_atom_site_fract_x
_atom_site_fract_y
_atom_site_fract_z
Si Si1 0.534035 0.891971 0.622265
Si Si2 0.263507 0.174458 0.849084
Si Si3 0.193001 0.773746 0.030643
Si Si4 0.363578 0.588494 0.661871
Si Si5 0.958051 0.489866 0.167022
Si Si6 0.188697 0.153422 0.156283
Si Si7 0.354143 0.513723 0.228195
O O1 0.574435 0.655258 0.459990
O O2 0.663486 0.900569 0.760736
O O3 0.500000 0.000000 0.500000
O O4 0.403247 0.003392 0.744902
O O5 0.162845 0.285261 0.719523
O O6 0.200148 0.105157 0.923927
O O7 0.290308 0.360104 0.064969
O O8 0.256426 0.686565 0.819099
O O9 0.093267 0.681902 0.960850
O O10 0.304714 0.674167 0.161299
O O11 0.144506 0.013479 0.150764
O O12 0.318135 0.627847 0.471008
O O13 0.490041 0.624292 0.787892
O O14 0.087004 0.393551 0.281481
O O15 0.000000 0.500000 0.000000
#
# Coordination Sequence:
#
# PCOD9007178 Si02
#       7
#     2   2   2   2   2   2   2
#     4  12  23  37  62  99 128 161 212 261 311 375
#     4  10  21  41  65  88 125 169 207 256 316 372
#     4  11  22  40  65  91 124 166 214 257 318 373
#     4  11  23  36  61  96 132 166 204 258 319 372
#     4   9  21  42  68  88 119 171 213 256 313 380
#     4  11  22  39  66  92 124 164 211 257 318 369
#     4  10  21  39  60  88 135 166 204 252 316 373
#
# _framework density 23.795279000000001
#
# number of rings (size 3 to 8) (size 9 to 14) (size 15 to 20)
#    0.000    1.429    1.429    4.714    4.000    0.000 
#    0.000    2.857    0.000    4.286    0.000    0.000 
#    0.000    0.000    0.000    0.000    0.000    0.000 
#
# Total GULP energy -78283.510358 kJ/mol
# GULP energy per Si atom -5591.679311 kJ/mol
# Density = 2.374112 g / cm^3
# Si number density = 23.795279 Si / 1000 Ang^3
#
#
#
# Elastic Constant Matrix: (Units=GPa)
#
#
# Indices 1 2 3 4 5 6 
#
# 1 98.5445 34.8291 15.2802 -1.0207 -9.8794 8.0273
# 2 34.8291 157.3190 30.3103 -9.5624 4.3453 3.6333
# 3 15.2802 30.3103 49.4515 -10.4707 -8.8843 -3.7272
# 4 -1.0207 -9.5624 -10.4707 17.4617 8.7931 -0.4339
# 5 -9.8794 4.3453 -8.8843 8.7931 11.0707 -5.0337
# 6 8.0273 3.6333 -3.7272 -0.4339 -5.0337 49.2410
#
#
#
# Elastic Compliance Matrix: (Units=1/GPa)
#
#
# Indices 1 2 3 4 5 6 
#
# 1 0.014453 -0.005024 0.000369 -0.015799 0.028066 0.000772
# 2 -0.005024 0.010567 -0.006922 0.015226 -0.027728 -0.003185
# 3 0.000369 -0.006922 0.030084 -0.001026 0.030665 0.005854
# 4 -0.015799 0.015226 -0.001026 0.127885 -0.127250 -0.010507
# 5 0.028066 -0.027728 0.030665 -0.127250 0.263583 0.025616
# 6 0.000772 -0.003185 0.005854 -0.010507 0.025616 0.023386
#
#
# Mechanical properties :
#
#
# Convention : Reuss Voigt Hill
#
# Bulk Modulus (GPa) = 31.29996 51.79491 41.54744
# Shear Modulus (GPa) = 9.92526 30.54771 20.23649
#
# Velocity S-wave (km/s) = 2.04454 3.58686 2.91940
# Velocity P-wave (km/s) = 4.33081 6.24246 5.37235
#
# Compressibility (1/GPa) = 0.03194892
#
# Stress axis : x y z
#
# Youngs Moduli (GPa) = 69.18764 94.62989 33.24033
#
# Poissons Ratio (x) = 0.47545 -0.01225
# Poissons Ratio (y) = 0.34762 0.23010
# Poissons Ratio (z) = -0.02551 0.65506
#
# Static dielectric constant tensor:
#      x y z
#    x 2.085090 -0.054560 0.077220 
#    y -0.054560 1.964610 -0.004020 
#    z 0.077220 -0.004020 1.932830 
# 
# From -- ./inp_files/245588.got.cif
#   From: 2010.05.17/outbox.cif.g08.bks.cpg/sg2_123_cif.got.tgz:245588.got - 2010.06.03 11:33:40.
