data_PCOD9007237
_publ_section_title
;
Structure prediction by ZEFSAII (Michael W. Deem and Ramdas Pophale) SiO2 
 PCOD9007237
Probable space group: P -1
;
_chemical_formula_sum "Si O2"
_cell_formula_units_Z 16
_cell_length_a 8.932212
_cell_length_b 14.486681
_cell_length_c 11.363914
_cell_angle_alpha 31.964299
_cell_angle_beta 69.737346
_cell_angle_gamma 79.150542
_cell_volume 713.582914
_symmetry_space_group_name_H-M "P -1"
_symmetry_group_IT_number 2
_symmetry_cell_setting 'triclinic'
loop_
_space_group_symop_operation_xyz
x,y,z
-x,-y,-z
loop_
_atom_site_type_symbol
_atom_site_label
_atom_site_fract_x
_atom_site_fract_y
_atom_site_fract_z
Si Si1 0.502445 0.372780 0.249552
Si Si2 0.973954 0.988355 0.180894
Si Si3 0.680724 0.084379 0.812792
Si Si4 0.816893 0.570121 0.640765
Si Si5 0.153872 0.060140 0.478744
Si Si6 0.455211 0.989435 0.324620
Si Si7 0.844329 0.527397 0.945114
Si Si8 0.770146 0.243423 0.850297
O O1 0.374042 0.420664 0.322445
O O2 0.460840 0.160125 0.477117
O O3 0.500000 0.500000 0.000000
O O4 0.692013 0.417341 0.176298
O O5 0.910454 0.776585 0.398509
O O6 0.901434 0.026067 0.287177
O O7 0.893657 0.110771 0.984033
O O8 0.171204 0.021476 0.100825
O O9 0.736670 0.245516 0.716845
O O10 0.644985 0.095445 0.672681
O O11 0.500000 0.000000 0.000000
O O12 0.844613 0.483024 0.854345
O O13 0.841074 0.435533 0.678578
O O14 0.319588 0.030818 0.405620
O O15 0.171718 0.269619 0.266904
O O16 0.000000 0.000000 0.500000
O O17 0.599968 0.150490 0.064933
O O18 0.000000 0.500000 0.000000
#
# Coordination Sequence:
#
# PCOD9007237 Si02
#       8
#     2   2   2   2   2   2   2   2
#     4  10  21  39  60  93 139 172 213 274 331 402
#     4  11  23  43  69  98 134 170 223 280 334 397
#     4  10  24  45  70  96 130 178 231 278 325 394
#     4  10  23  41  61  99 132 170 225 269 330 402
#     4  11  22  36  63 100 127 173 215 266 345 399
#     4  11  22  42  69  97 137 176 220 277 337 394
#     4  10  22  36  56  91 138 170 212 272 323 398
#     4  11  24  43  71  94 133 185 224 271 330 393
#
# _framework density 22.422062
#
# number of rings (size 3 to 8) (size 9 to 14) (size 15 to 20)
#    0.000    1.500    2.500    1.875    7.000    2.000 
#    0.000    0.625    2.750    0.000    0.000    0.000 
#    0.000    0.000    0.000    0.000    0.000    0.000 
#
# Total GULP energy -89309.472109 kJ/mol
# GULP energy per Si atom -5581.842007 kJ/mol
# Density = 2.237103 g / cm^3
# Si number density = 22.422062 Si / 1000 Ang^3
#
#
#
# Elastic Constant Matrix: (Units=GPa)
#
#
# Indices 1 2 3 4 5 6 
#
# 1 144.1714 58.3134 27.4731 13.6385 -11.4100 -13.9017
# 2 58.3134 147.9974 47.2817 2.7292 3.3611 7.4633
# 3 27.4731 47.2817 48.8578 6.4548 1.0921 -9.6296
# 4 13.6385 2.7292 6.4548 36.1194 -5.9431 -4.8976
# 5 -11.4100 3.3611 1.0921 -5.9431 34.8896 6.3885
# 6 -13.9017 7.4633 -9.6296 -4.8976 6.3885 48.3859
#
#
#
# Elastic Compliance Matrix: (Units=1/GPa)
#
#
# Indices 1 2 3 4 5 6 
#
# 1 0.009166 -0.003365 -0.001193 -0.002256 0.002544 0.002351
# 2 -0.003365 0.011648 -0.010466 0.001507 -0.000798 -0.004588
# 3 -0.001193 -0.010466 0.033410 -0.004087 -0.002560 0.007845
# 4 -0.002256 0.001507 -0.004087 0.029952 0.004204 0.000783
# 5 0.002544 -0.000798 -0.002560 0.004204 0.030975 -0.003320
# 6 0.002351 -0.004588 0.007845 0.000783 -0.003320 0.024129
#
#
# Mechanical properties :
#
#
# Convention : Reuss Voigt Hill
#
# Bulk Modulus (GPa) = 41.36294 67.46255 54.41275
# Shear Modulus (GPa) = 28.18704 37.74289 32.96496
#
# Velocity S-wave (km/s) = 3.54942 4.10725 3.83848
# Velocity P-wave (km/s) = 5.94015 7.25572 6.63064
#
# Compressibility (1/GPa) = 0.02417623
#
# Stress axis : x y z
#
# Youngs Moduli (GPa) = 109.09725 85.85125 29.93135
#
# Poissons Ratio (x) = 0.28891 0.03571
# Poissons Ratio (y) = 0.36713 0.31325
# Poissons Ratio (z) = 0.13016 0.89849
#
# Static dielectric constant tensor:
#      x y z
#    x 1.776940 -0.022640 0.017270 
#    y -0.022640 1.853220 0.056060 
#    z 0.017270 0.056060 1.863040 
# 
# From -- ./inp_files/398095.got.cif
#   From: 2010.05.17/outbox.cif.g08.bks.cpg/sg2_200_cif.got.tgz:398095.got - 2010.06.03 11:33:40.
