data_PCOD9007491
_publ_section_title
;
Structure prediction by ZEFSAII (Michael W. Deem and Ramdas Pophale) SiO2 
 PCOD9007491
Probable space group: P -1
;
_chemical_formula_sum "Si O2"
_cell_formula_units_Z 16
_cell_length_a 12.911478
_cell_length_b 5.463635
_cell_length_c 11.674735
_cell_angle_alpha 94.514873
_cell_angle_beta 66.945275
_cell_angle_gamma 112.213376
_cell_volume 699.229959
_symmetry_space_group_name_H-M "P -1"
_symmetry_group_IT_number 2
_symmetry_cell_setting 'triclinic'
loop_
_space_group_symop_operation_xyz
x,y,z
-x,-y,-z
loop_
_atom_site_type_symbol
_atom_site_label
_atom_site_fract_x
_atom_site_fract_y
_atom_site_fract_z
Si Si1 0.735590 0.564293 0.291583
Si Si2 0.891342 0.767062 0.606379
Si Si3 0.664181 0.686369 0.844835
Si Si4 0.906410 0.101235 0.316965
Si Si5 0.889538 0.277088 0.093667
Si Si6 0.678438 0.825908 0.102112
Si Si7 0.291185 0.702030 0.489336
Si Si8 0.557643 0.076019 0.783640
O O1 0.792839 0.387679 0.190948
O O2 0.677122 0.685505 0.221361
O O3 0.656925 0.406642 0.428223
O O4 0.851298 0.782683 0.316276
O O5 0.796748 0.834295 0.732134
O O6 0.803758 0.538593 0.554246
O O7 0.979868 0.704523 0.653754
O O8 0.000000 0.000000 0.500000
O O9 0.619384 0.378378 0.815877
O O10 0.587661 0.853592 0.832695
O O11 0.655286 0.675152 0.985889
O O12 0.939642 0.174791 0.175559
O O13 0.789696 0.150666 0.415461
O O14 0.814929 0.036399 0.037219
O O15 0.000000 0.500000 0.000000
O O16 0.583190 0.969975 0.155768
O O17 0.389364 0.893931 0.366892
#
# Coordination Sequence:
#
# PCOD9007491 Si02
#       8
#     2   2   2   2   2   2   2   2
#     4  10  23  42  64  99 134 177 227 281 339 416
#     4  11  21  37  68  97 132 177 220 283 350 403
#     4  11  27  44  72 105 137 180 238 287 347 411
#     4  10  21  39  61  98 135 173 222 279 343 408
#     4  10  25  40  65  96 138 179 226 281 335 423
#     4  11  26  44  71  95 139 185 229 283 353 405
#     4  10  22  41  66  98 139 173 233 283 345 409
#     4  11  26  47  72 102 137 182 233 297 338 411
#
# _framework density 22.882314999999998
#
# number of rings (size 3 to 8) (size 9 to 14) (size 15 to 20)
#    0.000    1.500    1.250    1.875    8.750    3.500 
#    0.000    5.625    0.000    0.000    0.000    0.000 
#    0.000    0.000    0.000    0.000    0.000    0.000 
#
# Total GULP energy -89191.752389 kJ/mol
# GULP energy per Si atom -5574.484524 kJ/mol
# Density = 2.283023 g / cm^3
# Si number density = 22.882315 Si / 1000 Ang^3
#
#
#
# Elastic Constant Matrix: (Units=GPa)
#
#
# Indices 1 2 3 4 5 6 
#
# 1 62.0010 2.6485 45.0714 -4.0516 8.9732 -7.8455
# 2 2.6485 49.6779 32.9929 0.0503 13.6547 -2.2170
# 3 45.0714 32.9929 81.3183 -5.3290 6.3266 26.5639
# 4 -4.0516 0.0503 -5.3290 25.6260 -0.3201 -4.9069
# 5 8.9732 13.6547 6.3266 -0.3201 23.9354 -3.4253
# 6 -7.8455 -2.2170 26.5639 -4.9069 -3.4253 22.4309
#
#
#
# Elastic Compliance Matrix: (Units=1/GPa)
#
#
# Indices 1 2 3 4 5 6 
#
# 1 -0.016507 -0.026639 0.036164 -0.004869 0.004373 -0.051631
# 2 -0.026639 0.001716 0.028992 -0.007028 -0.005308 -0.045829
# 3 0.036164 0.028992 -0.037820 0.009259 -0.011304 0.060601
# 4 -0.004869 -0.007028 0.009259 0.039423 0.003309 -0.004233
# 5 0.004373 -0.005308 -0.011304 0.003309 0.049444 0.022666
# 6 -0.051631 -0.045829 0.060601 -0.004233 0.022666 -0.047239
#
#
# Mechanical properties :
#
#
# Convention : Reuss Voigt Hill
#
# Bulk Modulus (GPa) = 40.94471 39.38030 40.16250
# Shear Modulus (GPa) = -62.59815 21.88409 -20.35703
#
# Velocity S-wave (km/s) = -5.23602 3.09589 -2.98592
# Velocity P-wave (km/s) = 4.31534 5.47966 2.38794
#
# Compressibility (1/GPa) = 0.02442318
#
# Stress axis : x y z
#
# Youngs Moduli (GPa) = -60.58118 582.63483 -26.44135
#
# Poissons Ratio (x) = 15.52070 0.95622
# Poissons Ratio (y) = -1.61381 0.76658
# Poissons Ratio (z) = 2.19085 -16.89149
#
# Static dielectric constant tensor:
#      x y z
#    x 1.805690 -0.185520 0.135780 
#    y -0.185520 1.654390 0.087620 
#    z 0.135780 0.087620 1.841230 
# 
# From -- ./inp_files/69182.got.cif
#   From: 2010.05.17/outbox.cif.g08.bks.cpg/sg2_35_cif.got.tgz:69182.got - 2010.06.03 11:33:40.
