data_PCOD9007794
_publ_section_title
;
Structure prediction by ZEFSAII (Michael W. Deem and Ramdas Pophale) SiO2 
 PCOD9007794
Probable space group: P -1
;
_chemical_formula_sum "Si O2"
_cell_formula_units_Z 14
_cell_length_a 15.457251
_cell_length_b 6.779487
_cell_length_c 7.498154
_cell_angle_alpha 62.162710
_cell_angle_beta 70.026101
_cell_angle_gamma 46.648632
_cell_volume 504.972714
_symmetry_space_group_name_H-M "P -1"
_symmetry_group_IT_number 2
_symmetry_cell_setting 'triclinic'
loop_
_space_group_symop_operation_xyz
x,y,z
-x,-y,-z
loop_
_atom_site_type_symbol
_atom_site_label
_atom_site_fract_x
_atom_site_fract_y
_atom_site_fract_z
Si Si1 0.519954 0.845955 0.281813
Si Si2 0.980626 0.792736 0.692913
Si Si3 0.362162 0.617264 0.335969
Si Si4 0.801478 0.783655 0.608035
Si Si5 0.244169 0.352554 0.665383
Si Si6 0.377928 0.472739 0.998363
Si Si7 0.126921 0.824175 0.072600
O O1 0.527118 0.682617 0.520772
O O2 0.638101 0.825741 0.220112
O O3 0.413070 0.178412 0.185384
O O4 0.540921 0.653862 0.179213
O O5 0.114994 0.527303 0.772717
O O6 0.919237 0.735093 0.611344
O O7 0.000000 0.000000 0.500000
O O8 0.894665 0.958598 0.851288
O O9 0.265121 0.566160 0.469880
O O10 0.382179 0.614577 0.112648
O O11 0.304499 0.919862 0.342883
O O12 0.762856 0.817189 0.415495
O O13 0.838205 0.475073 0.759617
O O14 0.242882 0.702227 0.927529
O O15 0.000000 0.000000 0.000000
#
# Coordination Sequence:
#
# PCOD9007794 Si02
#       7
#     2   2   2   2   2   2   2
#     4   9  22  40  73  93 123 183 215 276 336 385
#     4  12  20  40  62  94 131 169 219 266 324 400
#     4  10  21  41  68  96 130 168 221 269 332 394
#     4  12  21  39  68  95 132 180 210 279 336 382
#     4  10  21  39  62  99 127 166 225 264 325 395
#     4  11  19  46  67  91 138 170 219 280 330 382
#     4  12  26  40  62  94 135 175 219 274 329 397
#
# _framework density 27.724269
#
# number of rings (size 3 to 8) (size 9 to 14) (size 15 to 20)
#    0.857    0.286    5.714    1.714    0.000    0.571 
#    0.000    4.286    0.000    3.429    0.000    0.000 
#    0.000    0.000    0.000    0.000    0.000    0.000 
#
# Total GULP energy -78321.553651 kJ/mol
# GULP energy per Si atom -5594.396689 kJ/mol
# Density = 2.766117 g / cm^3
# Si number density = 27.724269 Si / 1000 Ang^3
#
#
#
# Elastic Constant Matrix: (Units=GPa)
#
#
# Indices 1 2 3 4 5 6 
#
# 1 135.0594 62.7548 18.6216 -10.9257 26.1594 -9.6603
# 2 62.7548 178.2531 36.1093 14.9072 -1.0455 -14.6852
# 3 18.6216 36.1093 57.4170 -11.2041 11.9743 -0.9409
# 4 -10.9257 14.9072 -11.2041 54.7971 5.3278 2.2364
# 5 26.1594 -1.0455 11.9743 5.3278 45.9619 -5.5293
# 6 -9.6603 -14.6852 -0.9409 2.2364 -5.5293 74.0628
#
#
#
# Elastic Compliance Matrix: (Units=1/GPa)
#
#
# Indices 1 2 3 4 5 6 
#
# 1 0.011174 -0.004748 0.001827 0.004629 -0.007500 -0.000160
# 2 -0.004748 0.009192 -0.006382 -0.005346 0.005397 0.001687
# 3 0.001827 -0.006382 0.024152 0.007939 -0.008590 -0.001601
# 4 0.004629 -0.005346 0.007939 0.023064 -0.007694 -0.001626
# 5 -0.007500 0.005397 -0.008590 -0.007694 0.029570 0.002423
# 6 -0.000160 0.001687 -0.001601 -0.001626 0.002423 0.014025
#
#
# Mechanical properties :
#
#
# Convention : Reuss Voigt Hill
#
# Bulk Modulus (GPa) = 38.59298 67.30010 52.94654
# Shear Modulus (GPa) = 36.12171 51.84729 43.98450
#
# Velocity S-wave (km/s) = 3.61347 4.32916 3.98741
# Velocity P-wave (km/s) = 5.60001 7.02256 6.35124
#
# Compressibility (1/GPa) = 0.02591145
#
# Stress axis : x y z
#
# Youngs Moduli (GPa) = 89.49252 108.78873 41.40449
#
# Poissons Ratio (x) = 0.51656 -0.07564
# Poissons Ratio (y) = 0.42494 0.26424
# Poissons Ratio (z) = -0.16349 0.69428
#
# Static dielectric constant tensor:
#      x y z
#    x 2.304870 -0.017720 0.036360 
#    y -0.017720 2.103830 -0.020500 
#    z 0.036360 -0.020500 2.179450 
# 
# From -- ./inp_files/323558.got.cif
#   From: 2010.05.17/outbox.cif.g08.bks.cpg/sg2_162_cif.got.tgz:323558.got - 2010.06.03 11:33:40.
