data_PCOD9007138
_publ_section_title
;
Structure prediction by ZEFSAII (Michael W. Deem and Ramdas Pophale) SiO2 
 PCOD9007138
Probable space group: P -1
;
_chemical_formula_sum "Si O2"
_cell_formula_units_Z 14
_cell_length_a 18.450713
_cell_length_b 10.084167
_cell_length_c 6.788462
_cell_angle_alpha 71.430605
_cell_angle_beta 78.297756
_cell_angle_gamma 139.456086
_cell_volume 538.579546
_symmetry_space_group_name_H-M "P -1"
_symmetry_group_IT_number 2
_symmetry_cell_setting 'triclinic'
loop_
_space_group_symop_operation_xyz
x,y,z
-x,-y,-z
loop_
_atom_site_type_symbol
_atom_site_label
_atom_site_fract_x
_atom_site_fract_y
_atom_site_fract_z
Si Si1 0.249681 0.470002 0.716517
Si Si2 0.719595 0.980906 0.277215
Si Si3 0.071597 0.041863 0.637228
Si Si4 0.990652 0.614544 0.305887
Si Si5 0.636694 0.056521 0.630418
Si Si6 0.523729 0.656770 0.163698
Si Si7 0.243635 0.205098 0.122672
O O1 0.185909 0.305574 0.617021
O O2 0.384879 0.816353 0.459377
O O3 0.306337 0.444655 0.851261
O O4 0.089724 0.267109 0.006650
O O5 0.634131 0.895539 0.168321
O O6 0.626097 0.677725 0.506597
O O7 0.682546 0.031210 0.438848
O O8 0.905143 0.256902 0.001658
O O9 0.174623 0.104405 0.427056
O O10 0.000000 0.000000 0.500000
O O11 0.000000 0.500000 0.500000
O O12 0.806523 0.343823 0.516383
O O13 0.092275 0.908014 0.210437
O O14 0.506405 0.754721 0.974856
O O15 0.367804 0.285459 0.017179
#
# Coordination Sequence:
#
# PCOD9007138 Si02
#       7
#     2   2   2   2   2   2   2
#     4  10  22  35  56  93 122 158 203 250 298 365
#     4  10  23  41  64  88 127 162 197 257 309 355
#     4   9  18  35  56  82 126 164 194 243 312 351
#     4  11  21  38  62  98 119 149 206 255 297 360
#     4  12  22  37  64  96 121 153 212 252 301 361
#     4  10  23  43  62  89 123 166 205 244 305 372
#     4  10  21  39  60  86 128 163 197 246 309 359
#
# _framework density 25.994299999999999
#
# number of rings (size 3 to 8) (size 9 to 14) (size 15 to 20)
#    0.000    1.714    2.857    3.429    2.000    5.714 
#    0.000    0.714    0.000   10.286    0.000    0.000 
#    0.000    0.000    0.000    0.000    0.000    0.000 
#
# Total GULP energy -78359.260782 kJ/mol
# GULP energy per Si atom -5597.090056 kJ/mol
# Density = 2.593514 g / cm^3
# Si number density = 25.994300 Si / 1000 Ang^3
#
#
#
# Elastic Constant Matrix: (Units=GPa)
#
#
# Indices 1 2 3 4 5 6 
#
# 1 58.2309 14.9126 28.4745 5.9480 20.1393 4.1366
# 2 14.9126 81.6736 30.3909 17.0665 13.1357 -0.3480
# 3 28.4745 30.3909 149.1807 6.6091 10.7572 -21.4573
# 4 5.9480 17.0665 6.6091 45.4193 -1.3723 3.8715
# 5 20.1393 13.1357 10.7572 -1.3723 58.7536 -3.8644
# 6 4.1366 -0.3480 -21.4573 3.8715 -3.8644 39.5693
#
#
#
# Elastic Compliance Matrix: (Units=1/GPa)
#
#
# Indices 1 2 3 4 5 6 
#
# 1 0.022510 -0.001059 -0.004241 -0.001705 -0.007084 -0.005187
# 2 -0.001059 0.014870 -0.002539 -0.005084 -0.002675 -0.000899
# 3 -0.004241 -0.002539 0.008739 -0.000187 0.000762 0.005252
# 4 -0.001705 -0.005084 -0.000187 0.024427 0.002185 -0.002144
# 5 -0.007084 -0.002675 0.000762 0.002185 0.020148 0.002884
# 6 -0.005187 -0.000899 0.005252 -0.002144 0.002884 0.029146
#
#
# Mechanical properties :
#
#
# Convention : Reuss Voigt Hill
#
# Bulk Modulus (GPa) = 32.84751 48.51570 40.68161
# Shear Modulus (GPa) = 34.32566 43.10226 38.71396
#
# Velocity S-wave (km/s) = 3.63782 4.07645 3.86336
# Velocity P-wave (km/s) = 5.50535 6.39227 5.96531
#
# Compressibility (1/GPa) = 0.03044370
#
# Stress axis : x y z
#
# Youngs Moduli (GPa) = 44.42390 67.24763 114.43400
#
# Poissons Ratio (x) = 0.07119 0.48528
# Poissons Ratio (y) = 0.04703 0.29049
# Poissons Ratio (z) = 0.18839 0.17071
#
# Static dielectric constant tensor:
#      x y z
#    x 2.121260 0.015520 0.011830 
#    y 0.015520 2.100950 -0.006630 
#    z 0.011830 -0.006630 2.114280 
# 
# From -- ./inp_files/123630.got.cif
#   From: 2010.05.17/outbox.cif.g08.bks.cpg/sg2_62_cif.got.tgz:123630.got - 2010.06.03 11:33:40.
