data_PCOD9007974
_publ_section_title
;
Structure prediction by ZEFSAII (Michael W. Deem and Ramdas Pophale) SiO2 
 PCOD9007974
Probable space group: P -1
;
_chemical_formula_sum "Si O2"
_cell_formula_units_Z 14
_cell_length_a 8.839018
_cell_length_b 12.424807
_cell_length_c 14.146399
_cell_angle_alpha 150.269222
_cell_angle_beta 132.351852
_cell_angle_gamma 61.645305
_cell_volume 543.107057
_symmetry_space_group_name_H-M "P -1"
_symmetry_group_IT_number 2
_symmetry_cell_setting 'triclinic'
loop_
_space_group_symop_operation_xyz
x,y,z
-x,-y,-z
loop_
_atom_site_type_symbol
_atom_site_label
_atom_site_fract_x
_atom_site_fract_y
_atom_site_fract_z
Si Si1 0.210822 0.192652 0.621963
Si Si2 0.721908 0.983622 0.280097
Si Si3 0.341284 0.565298 0.347727
Si Si4 0.584687 0.241880 0.170143
Si Si5 0.631906 0.840762 0.539290
Si Si6 0.105418 0.645922 0.918043
Si Si7 0.010547 0.237255 0.239796
O O1 0.265390 0.091530 0.664687
O O2 0.345461 0.170266 0.570866
O O3 0.217210 0.452910 0.835970
O O4 0.960206 0.056883 0.393785
O O5 0.642317 0.207430 0.411748
O O6 0.561031 0.781588 0.002629
O O7 0.509347 0.429050 0.339612
O O8 0.403588 0.687650 0.365267
O O9 0.100404 0.401697 0.135600
O O10 0.817270 0.253369 0.237874
O O11 0.500000 0.000000 0.000000
O O12 0.794389 0.731477 0.581178
O O13 0.726163 0.105207 0.810814
O O14 0.003513 0.614050 0.745009
O O15 0.000000 0.000000 0.000000
#
# Coordination Sequence:
#
# PCOD9007974 Si02
#       7
#     2   2   2   2   2   2   2
#     4  10  22  41  67  92 128 178 214 262 328 379
#     4  10  23  43  64  96 132 167 219 267 317 389
#     4  11  25  41  67  98 127 172 215 262 327 380
#     4  12  24  41  67  99 130 167 216 267 322 385
#     4  11  23  42  65  96 132 167 217 269 317 387
#     4  10  22  42  64  94 134 172 213 266 322 380
#     4  10  21  39  63  92 129 169 208 262 324 374
#
# _framework density 25.777608000000001
#
# number of rings (size 3 to 8) (size 9 to 14) (size 15 to 20)
#    0.000    1.429    0.000    6.000    0.000    7.429 
#    0.000    9.286    0.000    0.000    0.000    0.000 
#    0.000    0.000    0.000    0.000    0.000    0.000 
#
# Total GULP energy -78375.997131 kJ/mol
# GULP energy per Si atom -5598.285509 kJ/mol
# Density = 2.571894 g / cm^3
# Si number density = 25.777608 Si / 1000 Ang^3
#
#
#
# Elastic Constant Matrix: (Units=GPa)
#
#
# Indices 1 2 3 4 5 6 
#
# 1 149.9086 31.4113 38.0949 11.0287 12.7288 6.2105
# 2 31.4113 108.8982 35.0501 20.9629 -9.3813 -9.2701
# 3 38.0949 35.0501 85.3335 16.9459 0.0272 -10.7822
# 4 11.0287 20.9629 16.9459 48.0526 3.1796 -6.0654
# 5 12.7288 -9.3813 0.0272 3.1796 38.3506 10.8549
# 6 6.2105 -9.2701 -10.7822 -6.0654 10.8549 42.3045
#
#
#
# Elastic Compliance Matrix: (Units=1/GPa)
#
#
# Indices 1 2 3 4 5 6 
#
# 1 0.008118 -0.001692 -0.003130 -0.000062 -0.002621 -0.001697
# 2 -0.001692 0.011811 -0.003279 -0.003780 0.003616 0.000531
# 3 -0.003130 -0.003279 0.015457 -0.002839 -0.000502 0.003402
# 4 -0.000062 -0.003780 -0.002839 0.024082 -0.003709 0.002861
# 5 -0.002621 0.003616 -0.000502 -0.003709 0.030183 -0.007227
# 6 -0.001697 0.000531 0.003402 0.002861 -0.007227 0.027135
#
#
# Mechanical properties :
#
#
# Convention : Reuss Voigt Hill
#
# Bulk Modulus (GPa) = 52.13152 61.47252 56.80202
# Shear Modulus (GPa) = 35.87214 41.71381 38.79298
#
# Velocity S-wave (km/s) = 3.73446 4.02707 3.88353
# Velocity P-wave (km/s) = 6.23397 6.74701 6.49556
#
# Compressibility (1/GPa) = 0.01918225
#
# Stress axis : x y z
#
# Youngs Moduli (GPa) = 123.17964 84.66783 64.69599
#
# Poissons Ratio (x) = 0.14330 0.20252
# Poissons Ratio (y) = 0.20848 0.21214
# Poissons Ratio (z) = 0.38559 0.27763
#
# Static dielectric constant tensor:
#      x y z
#    x 2.048260 -0.027700 0.034760 
#    y -0.027700 2.014000 0.012660 
#    z 0.034760 0.012660 2.096480 
# 
# From -- ./inp_files/416778.got.cif
#   From: 2010.05.17/outbox.cif.g08.bks.cpg/sg2_209_cif.got.tgz:416778.got - 2010.06.03 11:33:40.
