data_PCOD9007445
_publ_section_title
;
Structure prediction by ZEFSAII (Michael W. Deem and Ramdas Pophale) SiO2 
 PCOD9007445
Probable space group: P -1
;
_chemical_formula_sum "Si O2"
_cell_formula_units_Z 15
_cell_length_a 8.382851
_cell_length_b 17.712459
_cell_length_c 8.372919
_cell_angle_alpha 140.191935
_cell_angle_beta 62.522288
_cell_angle_gamma 100.943548
_cell_volume 675.839398
_symmetry_space_group_name_H-M "P -1"
_symmetry_group_IT_number 2
_symmetry_cell_setting 'triclinic'
loop_
_space_group_symop_operation_xyz
x,y,z
-x,-y,-z
loop_
_atom_site_type_symbol
_atom_site_label
_atom_site_fract_x
_atom_site_fract_y
_atom_site_fract_z
Si Si1 0.552818 0.770556 0.858364
Si Si2 0.692533 0.017917 0.869921
Si Si3 0.649468 0.404993 0.488340
Si Si4 0.000000 0.500000 0.000000
Si Si5 0.912978 0.781482 0.509450
Si Si6 0.594924 0.683420 0.054287
Si Si7 0.001615 0.431197 0.216769
Si Si8 0.760797 0.208819 0.392247
O O1 0.507070 0.652636 0.605144
O O2 0.730685 0.788777 0.713451
O O3 0.590780 0.745735 0.985884
O O4 0.375795 0.890003 0.097713
O O5 0.842552 0.884735 0.573051
O O6 0.772586 0.093135 0.086453
O O7 0.500000 0.000000 0.000000
O O8 0.571220 0.547084 0.808477
O O9 0.735676 0.323859 0.470622
O O10 0.812151 0.391191 0.259311
O O11 0.989302 0.530995 0.245591
O O12 0.987290 0.642216 0.185547
O O13 0.069709 0.808665 0.593030
O O14 0.791117 0.663811 0.022658
O O15 0.429076 0.759552 0.365849
O O16 0.000000 0.500000 0.500000
#
# Coordination Sequence:
#
# PCOD9007445 Si02
#       8
#     2   2   2   1   2   2   2   2
#     4  10  22  40  65  91 133 176 217 270 334 390
#     4   9  22  44  66  87 130 179 222 268 334 398
#     4  10  21  39  61  93 138 174 212 271 339 392
#     4  12  26  38  78 100 132 172 228 268 342 388
#     4  11  23  41  67  95 132 175 220 271 333 403
#     4  11  22  37  62  99 133 165 224 275 328 395
#     4  10  23  43  61  98 140 176 215 275 338 395
#     4  11  23  39  67  97 128 176 222 272 334 396
#
# _framework density 22.194623
#
# number of rings (size 3 to 8) (size 9 to 14) (size 15 to 20)
#    0.000    1.600    0.000    5.200    9.333    0.000 
#    0.000    3.333    5.867    0.000    0.000    0.000 
#    0.000    0.000    0.000    0.000    0.000    0.000 
#
# Total GULP energy -83626.206523 kJ/mol
# GULP energy per Si atom -5575.080435 kJ/mol
# Density = 2.214411 g / cm^3
# Si number density = 22.194623 Si / 1000 Ang^3
#
#
#
# Elastic Constant Matrix: (Units=GPa)
#
#
# Indices 1 2 3 4 5 6 
#
# 1 94.3255 -6.0810 1.5571 7.4152 -9.0299 -2.7804
# 2 -6.0810 41.6409 9.0088 8.2801 9.1968 -17.9862
# 3 1.5571 9.0088 59.0537 19.7566 -3.6345 2.6541
# 4 7.4152 8.2801 19.7566 42.8363 4.2333 -3.8324
# 5 -9.0299 9.1968 -3.6345 4.2333 21.0466 -2.8237
# 6 -2.7804 -17.9862 2.6541 -3.8324 -2.8237 33.1291
#
#
#
# Elastic Compliance Matrix: (Units=1/GPa)
#
#
# Indices 1 2 3 4 5 6 
#
# 1 0.011492 0.001887 0.000621 -0.002961 0.005081 0.002030
# 2 0.001887 0.037775 -0.007188 -0.001144 -0.014036 0.019914
# 3 0.000621 -0.007188 0.022288 -0.010387 0.008526 -0.006111
# 4 -0.002961 -0.001144 -0.010387 0.029925 -0.008218 0.002724
# 5 0.005081 -0.014036 0.008526 -0.008218 0.058436 -0.003847
# 6 0.002030 0.019914 -0.006111 0.002724 -0.003847 0.041644
#
#
# Mechanical properties :
#
#
# Convention : Reuss Voigt Hill
#
# Bulk Modulus (GPa) = 16.07843 22.66554 19.37198
# Shear Modulus (GPa) = 21.58414 32.10475 26.84444
#
# Velocity S-wave (km/s) = 3.12187 3.80743 3.48156
# Velocity P-wave (km/s) = 4.50053 5.43719 4.99088
#
# Compressibility (1/GPa) = 0.06219512
#
# Stress axis : x y z
#
# Youngs Moduli (GPa) = 87.01672 26.47272 44.86644
#
# Poissons Ratio (x) = -0.04996 -0.02787
# Poissons Ratio (y) = -0.16422 0.32252
# Poissons Ratio (z) = -0.05406 0.19030
#
# Static dielectric constant tensor:
#      x y z
#    x 1.857380 -0.079750 0.082290 
#    y -0.079750 1.859220 0.016030 
#    z 0.082290 0.016030 1.790230 
# 
# From -- ./inp_files/218799.got.cif
#   From: 2010.05.17/outbox.cif.g08.bks.cpg/sg2_110_cif.got.tgz:218799.got - 2010.06.03 11:33:40.
