data_PCOD9007285
_publ_section_title
;
Structure prediction by ZEFSAII (Michael W. Deem and Ramdas Pophale) SiO2 
 PCOD9007285
Probable space group: P -1
;
_chemical_formula_sum "Si O2"
_cell_formula_units_Z 16
_cell_length_a 8.501068
_cell_length_b 17.176608
_cell_length_c 5.398313
_cell_angle_alpha 75.194192
_cell_angle_beta 124.168150
_cell_angle_gamma 97.595481
_cell_volume 630.481877
_symmetry_space_group_name_H-M "P -1"
_symmetry_group_IT_number 2
_symmetry_cell_setting 'triclinic'
loop_
_space_group_symop_operation_xyz
x,y,z
-x,-y,-z
loop_
_atom_site_type_symbol
_atom_site_label
_atom_site_fract_x
_atom_site_fract_y
_atom_site_fract_z
Si Si1 0.430064 0.243499 0.420718
Si Si2 0.323974 0.495503 0.521802
Si Si3 0.589107 0.380208 0.136744
Si Si4 0.606951 0.879184 0.883421
Si Si5 0.879511 0.742970 0.475190
Si Si6 0.119487 0.981632 0.874614
Si Si7 0.981376 0.423873 0.352978
Si Si8 0.739252 0.176822 0.077690
O O1 0.509824 0.294559 0.217813
O O2 0.396738 0.151226 0.379264
O O3 0.243023 0.276470 0.368743
O O4 0.600142 0.240418 0.770286
O O5 0.500000 0.500000 0.500000
O O6 0.310894 0.582767 0.561780
O O7 0.140527 0.455332 0.276095
O O8 0.407154 0.433808 0.855768
O O9 0.768977 0.399970 0.102108
O O10 0.396143 0.869995 0.813023
O O11 0.751093 0.811670 0.178954
O O12 0.696182 0.963021 0.971408
O O13 0.928992 0.663467 0.424867
O O14 0.081372 0.781246 0.680444
O O15 0.179574 0.888661 0.988910
O O16 0.000000 0.000000 0.500000
O O17 0.000000 0.000000 0.000000
O O18 0.000000 0.500000 0.500000
#
# Coordination Sequence:
#
# PCOD9007285 Si02
#       8
#     2   2   2   2   2   2   2   2
#     4  11  25  42  70 103 137 191 242 304 367 444
#     4  10  21  39  61  85 125 169 221 288 354 428
#     4  10  22  39  59  92 126 167 227 285 356 425
#     4  11  25  45  73 102 145 192 248 300 371 440
#     4  11  23  44  68 100 142 186 242 303 370 444
#     4  12  27  48  79 113 158 202 252 310 380 450
#     4  10  22  39  64  94 130 177 231 294 365 435
#     4  11  26  45  72 107 145 192 244 302 373 447
#
# _framework density 25.377412
#
# number of rings (size 3 to 8) (size 9 to 14) (size 15 to 20)
#    0.000    1.250    1.250    3.375    3.500    8.000 
#    0.000    3.750    0.000    0.000    0.000    0.000 
#    0.000    0.000    0.000    0.000    0.000    0.000 
#
# Total GULP energy -89354.452550 kJ/mol
# GULP energy per Si atom -5584.653284 kJ/mol
# Density = 2.531965 g / cm^3
# Si number density = 25.377412 Si / 1000 Ang^3
#
#
#
# Elastic Constant Matrix: (Units=GPa)
#
#
# Indices 1 2 3 4 5 6 
#
# 1 122.2115 33.3026 34.5499 19.4233 25.6404 12.3856
# 2 33.3026 121.1189 9.5854 30.6647 18.3992 9.6204
# 3 34.5499 9.5854 83.2222 22.5260 22.9277 19.0685
# 4 19.4233 30.6647 22.5260 33.6487 8.4636 7.6652
# 5 25.6404 18.3992 22.9277 8.4636 43.7322 13.8703
# 6 12.3856 9.6204 19.0685 7.6652 13.8703 48.4636
#
#
#
# Elastic Compliance Matrix: (Units=1/GPa)
#
#
# Indices 1 2 3 4 5 6 
#
# 1 0.010440 -0.001633 -0.002633 -0.001853 -0.003710 0.000047
# 2 -0.001633 0.011820 0.003402 -0.011113 -0.003486 -0.000512
# 3 -0.002633 0.003402 0.018353 -0.011494 -0.006127 -0.003652
# 4 -0.001853 -0.011113 -0.011494 0.048174 0.002856 -0.001235
# 5 -0.003710 -0.003486 -0.006127 0.002856 0.030824 -0.005223
# 6 0.000047 -0.000512 -0.003652 -0.001235 -0.005223 0.023851
#
#
# Mechanical properties :
#
#
# Convention : Reuss Voigt Hill
#
# Bulk Modulus (GPa) = 25.71685 53.49203 39.60444
# Shear Modulus (GPa) = 31.61519 41.77657 36.69588
#
# Velocity S-wave (km/s) = 3.53342 4.06175 3.80676
# Velocity P-wave (km/s) = 5.17711 6.56670 5.91287
#
# Compressibility (1/GPa) = 0.03888501
#
# Stress axis : x y z
#
# Youngs Moduli (GPa) = 95.78480 84.60194 54.48601
#
# Poissons Ratio (x) = 0.13818 0.14348
# Poissons Ratio (y) = 0.15645 -0.18539
# Poissons Ratio (z) = 0.25224 -0.28786
#
# Static dielectric constant tensor:
#      x y z
#    x -0.944750 -0.081090 0.544880 
#    y -0.081090 1.993100 -0.001160 
#    z 0.544880 -0.001160 1.994620 
# 
# From -- ./inp_files/47655.got.cif
#   From: 2010.05.17/outbox.cif.g08.bks.cpg/sg2_24_cif.got.tgz:47655.got - 2010.06.03 11:33:40.
