data_PCOD9007458
_publ_section_title
;
Structure prediction by ZEFSAII (Michael W. Deem and Ramdas Pophale) SiO2 
 PCOD9007458
Probable space group: P -1
;
_chemical_formula_sum "Si O2"
_cell_formula_units_Z 16
_cell_length_a 8.576861
_cell_length_b 16.247980
_cell_length_c 7.711393
_cell_angle_alpha 125.859787
_cell_angle_beta 80.705743
_cell_angle_gamma 69.955438
_cell_volume 719.617016
_symmetry_space_group_name_H-M "P -1"
_symmetry_group_IT_number 2
_symmetry_cell_setting 'triclinic'
loop_
_space_group_symop_operation_xyz
x,y,z
-x,-y,-z
loop_
_atom_site_type_symbol
_atom_site_label
_atom_site_fract_x
_atom_site_fract_y
_atom_site_fract_z
Si Si1 0.182117 0.634473 0.644297
Si Si2 0.656859 0.215344 0.712792
Si Si3 0.415009 0.548684 0.825568
Si Si4 0.043173 0.188288 0.524386
Si Si5 0.295227 0.022492 0.572176
Si Si6 0.004066 0.423695 0.671319
Si Si7 0.923184 0.914874 0.952078
Si Si8 0.306908 0.388571 0.808002
O O1 0.238459 0.600700 0.790589
O O2 0.384498 0.554407 0.415469
O O3 0.048811 0.594961 0.534466
O O4 0.088183 0.776578 0.802484
O O5 0.488622 0.257914 0.657944
O O6 0.849738 0.192157 0.572677
O O7 0.697704 0.094906 0.647629
O O8 0.579150 0.334592 0.989514
O O9 0.375618 0.480416 0.895903
O O10 0.153248 0.136026 0.618430
O O11 0.157589 0.103135 0.234800
O O12 0.994659 0.321029 0.654057
O O13 0.500000 0.000000 0.500000
O O14 0.216292 0.038270 0.801118
O O15 0.208812 0.392431 0.649842
O O16 0.851376 0.554406 0.942670
O O17 0.000000 0.000000 0.000000
#
# Coordination Sequence:
#
# PCOD9007458 Si02
#       8
#     2   2   2   2   2   2   2   2
#     4  10  23  42  61  96 135 171 231 282 340 403
#     4  12  22  41  71 100 133 180 237 282 336 420
#     4  11  22  38  66  97 130 178 228 283 331 413
#     4  11  23  44  71  98 136 185 233 284 345 414
#     4  12  28  47  70 105 141 183 232 289 355 413
#     4  10  21  39  61  94 135 174 217 278 348 404
#     4  11  24  43  71 101 135 181 232 287 339 412
#     4  11  21  36  64  94 131 174 219 280 338 406
#
# _framework density 22.23405
#
# number of rings (size 3 to 8) (size 9 to 14) (size 15 to 20)
#    0.000    1.000    3.750    3.750    1.750    1.000 
#    0.000    5.000    0.000    0.000    0.000    0.000 
#    0.000    0.000    0.000    0.000    0.000    0.000 
#
# Total GULP energy -89405.351017 kJ/mol
# GULP energy per Si atom -5587.834439 kJ/mol
# Density = 2.218344 g / cm^3
# Si number density = 22.234050 Si / 1000 Ang^3
#
#
#
# Elastic Constant Matrix: (Units=GPa)
#
#
# Indices 1 2 3 4 5 6 
#
# 1 98.1297 28.7756 16.6930 2.6399 1.4934 -14.5364
# 2 28.7756 69.6338 21.9585 3.8372 -5.3624 -5.9023
# 3 16.6930 21.9585 86.2137 9.2055 -5.1450 3.7522
# 4 2.6399 3.8372 9.2055 31.9072 2.6530 5.8248
# 5 1.4934 -5.3624 -5.1450 2.6530 30.3375 1.2273
# 6 -14.5364 -5.9023 3.7522 5.8248 1.2273 44.8792
#
#
#
# Elastic Compliance Matrix: (Units=1/GPa)
#
#
# Indices 1 2 3 4 5 6 
#
# 1 0.012319 -0.004422 -0.001458 -0.000590 -0.001732 0.003654
# 2 -0.004422 0.017650 -0.003393 -0.001242 0.002820 0.001257
# 3 -0.001458 -0.003393 0.013280 -0.003169 0.002069 -0.001674
# 4 -0.000590 -0.001242 -0.003169 0.033537 -0.003485 -0.004347
# 5 -0.001732 0.002820 0.002069 -0.003485 0.034236 -0.000847
# 6 0.003654 0.001257 -0.001674 -0.004347 -0.000847 0.024358
#
#
# Mechanical properties :
#
#
# Convention : Reuss Voigt Hill
#
# Bulk Modulus (GPa) = 40.48129 43.20349 41.84239
# Shear Modulus (GPa) = 30.83341 33.86145 32.34743
#
# Velocity S-wave (km/s) = 3.72797 3.90674 3.81840
# Velocity P-wave (km/s) = 6.06438 6.31059 6.18871
#
# Compressibility (1/GPa) = 0.02470277
#
# Stress axis : x y z
#
# Youngs Moduli (GPa) = 81.17598 56.65642 75.29876
#
# Poissons Ratio (x) = 0.25053 0.10981
# Poissons Ratio (y) = 0.35895 0.25550
# Poissons Ratio (z) = 0.11839 0.19224
#
# Static dielectric constant tensor:
#      x y z
#    x 1.830500 -0.026970 0.025340 
#    y -0.026970 1.806010 -0.040610 
#    z 0.025340 -0.040610 1.862610 
# 
# From -- ./inp_files/215853.got.cif
#   From: 2010.05.17/outbox.cif.g08.bks.cpg/sg2_108_cif.got.tgz:215853.got - 2010.06.03 11:33:40.
