data_PCOD9007323
_publ_section_title
;
Structure prediction by ZEFSAII (Michael W. Deem and Ramdas Pophale) SiO2 
 PCOD9007323
Probable space group: P -1
;
_chemical_formula_sum "Si O2"
_cell_formula_units_Z 14
_cell_length_a 6.055569
_cell_length_b 17.913810
_cell_length_c 8.979718
_cell_angle_alpha 39.233520
_cell_angle_beta 95.665976
_cell_angle_gamma 92.720312
_cell_volume 612.442453
_symmetry_space_group_name_H-M "P -1"
_symmetry_group_IT_number 2
_symmetry_cell_setting 'triclinic'
loop_
_space_group_symop_operation_xyz
x,y,z
-x,-y,-z
loop_
_atom_site_type_symbol
_atom_site_label
_atom_site_fract_x
_atom_site_fract_y
_atom_site_fract_z
Si Si1 0.168157 0.254107 0.554747
Si Si2 0.329509 0.933222 0.697488
Si Si3 0.923794 0.496759 0.168729
Si Si4 0.650243 0.955050 0.939726
Si Si5 0.546303 0.398450 0.452475
Si Si6 0.176653 0.573135 0.307471
Si Si7 0.943709 0.117928 0.503410
O O1 0.419156 0.298767 0.509919
O O2 0.020119 0.365933 0.426019
O O3 0.073756 0.215584 0.449965
O O4 0.170826 0.141682 0.836355
O O5 0.486885 0.894829 0.904163
O O6 0.202143 0.849793 0.703530
O O7 0.500000 0.000000 0.500000
O O8 0.135818 0.021600 0.614023
O O9 0.669931 0.482356 0.215655
O O10 0.026958 0.601819 0.107815
O O11 0.000000 0.500000 0.000000
O O12 0.777524 0.056632 0.704187
O O13 0.500000 0.000000 0.000000
O O14 0.366188 0.485801 0.385425
O O15 0.702749 0.353318 0.671056
O O16 0.000000 0.500000 0.500000
#
# Coordination Sequence:
#
# PCOD9007323 Si02
#       7
#     2   2   2   2   2   2   2
#     4  11  23  35  61  96 116 156 208 246 296 364
#     4   9  20  38  61  81 118 166 196 242 302 349
#     4  10  22  39  61  86 121 158 197 251 305 354
#     4  11  22  37  63  89 122 161 198 244 304 353
#     4   9  19  36  63  84 118 152 199 246 300 353
#     4   8  16  36  61  83 111 155 192 243 299 353
#     4  10  21  39  61  87 127 157 198 247 297 360
#
# _framework density 22.859290999999999
#
# number of rings (size 3 to 8) (size 9 to 14) (size 15 to 20)
#    0.000    2.286    1.429    0.429    2.000    2.286 
#    2.571    0.000   40.857    0.000    0.000    0.000 
#    0.000    0.000    0.000    0.000    0.000    0.000 
#
# Total GULP energy -77964.756081 kJ/mol
# GULP energy per Si atom -5568.911149 kJ/mol
# Density = 2.280726 g / cm^3
# Si number density = 22.859291 Si / 1000 Ang^3
#
#
#
# Elastic Constant Matrix: (Units=GPa)
#
#
# Indices 1 2 3 4 5 6 
#
# 1 103.9956 66.1331 22.1890 17.7770 -27.2214 12.8126
# 2 66.1331 155.2957 45.8692 29.5395 -21.3340 47.4009
# 3 22.1890 45.8692 54.4081 18.1965 -6.3037 -1.1482
# 4 17.7770 29.5395 18.1965 39.8969 2.0350 3.2392
# 5 -27.2214 -21.3340 -6.3037 2.0350 36.3099 9.4868
# 6 12.8126 47.4009 -1.1482 3.2392 9.4868 70.7187
#
#
#
# Elastic Compliance Matrix: (Units=1/GPa)
#
#
# Indices 1 2 3 4 5 6 
#
# 1 0.015752 -0.003956 -0.000543 -0.004242 0.009983 -0.001356
# 2 -0.003956 0.016891 -0.009976 -0.005685 0.008592 -0.011659
# 3 -0.000543 -0.009976 0.028845 -0.006019 -0.002996 0.007931
# 4 -0.004242 -0.005685 -0.006019 0.034097 -0.010611 0.004343
# 5 0.009983 0.008592 -0.002996 -0.010611 0.043537 -0.012970
# 6 -0.001356 -0.011659 0.007931 0.004343 -0.012970 0.023871
#
#
# Mechanical properties :
#
#
# Convention : Reuss Voigt Hill
#
# Bulk Modulus (GPa) = 30.73240 64.67578 47.70409
# Shear Modulus (GPa) = 24.65638 41.35231 33.00434
#
# Velocity S-wave (km/s) = 3.28779 4.25784 3.80386
# Velocity P-wave (km/s) = 5.28073 7.24753 6.34085
#
# Compressibility (1/GPa) = 0.03253895
#
# Stress axis : x y z
#
# Youngs Moduli (GPa) = 63.48239 59.20446 34.66857
#
# Poissons Ratio (x) = 0.23418 0.01882
# Poissons Ratio (y) = 0.25111 0.34585
# Poissons Ratio (z) = 0.03446 0.59062
#
# Static dielectric constant tensor:
#      x y z
#    x 1.937260 0.070250 0.055150 
#    y 0.070250 1.903650 0.020520 
#    z 0.055150 0.020520 1.934850 
# 
# From -- ./inp_files/138396.got.cif
#   From: 2010.05.17/outbox.cif.g08.bks.cpg/sg2_70_cif.got.tgz:138396.got - 2010.06.03 11:33:40.
