data_PCOD9007456
_publ_section_title
;
Structure prediction by ZEFSAII (Michael W. Deem and Ramdas Pophale) SiO2 
 PCOD9007456
Probable space group: P -1
;
_chemical_formula_sum "Si O2"
_cell_formula_units_Z 16
_cell_length_a 9.122644
_cell_length_b 16.627636
_cell_length_c 8.696766
_cell_angle_alpha 90.956781
_cell_angle_beta 78.850410
_cell_angle_gamma 36.176821
_cell_volume 729.200421
_symmetry_space_group_name_H-M "P -1"
_symmetry_group_IT_number 2
_symmetry_cell_setting 'triclinic'
loop_
_space_group_symop_operation_xyz
x,y,z
-x,-y,-z
loop_
_atom_site_type_symbol
_atom_site_label
_atom_site_fract_x
_atom_site_fract_y
_atom_site_fract_z
Si Si1 0.828614 0.921023 0.545316
Si Si2 0.285715 0.606472 0.418713
Si Si3 0.923495 0.859107 0.160237
Si Si4 0.518184 0.370815 0.869046
Si Si5 0.490731 0.214646 0.725803
Si Si6 0.073971 0.310960 0.990240
Si Si7 0.120534 0.360680 0.511249
Si Si8 0.623653 0.863867 0.779205
O O1 0.836577 0.917044 0.356554
O O2 0.652893 0.929756 0.665040
O O3 0.114954 0.758200 0.517135
O O4 0.735977 0.047222 0.633341
O O5 0.500000 0.500000 0.500000
O O6 0.416344 0.575947 0.232588
O O7 0.101513 0.610551 0.434491
O O8 0.230063 0.749721 0.070328
O O9 0.685577 0.998193 0.106248
O O10 0.923528 0.763705 0.130998
O O11 0.552251 0.279292 0.747600
O O12 0.204913 0.518864 0.969896
O O13 0.287765 0.294169 0.629339
O O14 0.322578 0.257833 0.905982
O O15 0.151477 0.237823 0.137606
O O16 0.315644 0.241667 0.336210
O O17 0.000000 0.500000 0.500000
#
# Coordination Sequence:
#
# PCOD9007456 Si02
#       8
#     2   2   2   2   2   2   2   2
#     4  10  21  39  69  93 125 168 217 261 320 383
#     4  10  21  39  61  94 133 159 209 266 320 376
#     4  11  22  40  65  95 123 165 215 269 321 378
#     4  11  25  41  62  96 131 168 214 266 329 375
#     4  12  23  42  67  93 129 172 220 262 316 387
#     4  12  24  41  68  90 129 177 221 259 315 394
#     4  11  23  41  69  96 128 168 215 264 319 390
#     4  11  21  40  65  98 125 164 223 259 318 390
#
# _framework density 21.941842000000001
#
# number of rings (size 3 to 8) (size 9 to 14) (size 15 to 20)
#    0.000    1.000    2.500    6.750    0.000    2.000 
#    2.250    0.625    0.000    0.000    0.000    0.000 
#    0.000    0.000    0.000    0.000    0.000    0.000 
#
# Total GULP energy -89273.721215 kJ/mol
# GULP energy per Si atom -5579.607576 kJ/mol
# Density = 2.189190 g / cm^3
# Si number density = 21.941842 Si / 1000 Ang^3
#
#
#
# Elastic Constant Matrix: (Units=GPa)
#
#
# Indices 1 2 3 4 5 6 
#
# 1 94.6626 36.2889 1.8877 8.9922 3.5296 3.8811
# 2 36.2889 119.5346 12.2718 32.1329 3.2862 3.7057
# 3 1.8877 12.2718 26.9255 10.7564 -4.8018 8.3647
# 4 8.9922 32.1329 10.7564 27.8697 2.0076 8.2945
# 5 3.5296 3.2862 -4.8018 2.0076 16.3161 4.1057
# 6 3.8811 3.7057 8.3647 8.2945 4.1057 45.2164
#
#
#
# Elastic Compliance Matrix: (Units=1/GPa)
#
#
# Indices 1 2 3 4 5 6 
#
# 1 0.012048 -0.003825 0.000627 0.000633 -0.001524 -0.000814
# 2 -0.003825 0.013486 -0.000894 -0.014541 -0.000901 0.002138
# 3 0.000627 -0.000894 0.050365 -0.017662 0.018998 -0.007783
# 4 0.000633 -0.014541 -0.017662 0.061697 -0.008451 -0.006146
# 5 -0.001524 -0.000901 0.018998 -0.008451 0.070485 -0.008160
# 6 -0.000814 0.002138 -0.007783 -0.006146 -0.008160 0.025319
#
#
# Mechanical properties :
#
#
# Convention : Reuss Voigt Hill
#
# Bulk Modulus (GPa) = 14.76788 38.00218 26.38503
# Shear Modulus (GPa) = 18.92831 30.59207 24.76019
#
# Velocity S-wave (km/s) = 2.94029 3.73800 3.36288
# Velocity P-wave (km/s) = 4.27459 5.99894 5.20862
#
# Compressibility (1/GPa) = 0.06771451
#
# Stress axis : x y z
#
# Youngs Moduli (GPa) = 83.00356 74.15014 19.85517
#
# Poissons Ratio (x) = 0.28361 -0.01245
# Poissons Ratio (y) = 0.31747 0.01775
# Poissons Ratio (z) = -0.05203 0.06630
#
# Static dielectric constant tensor:
#      x y z
#    x 1.877970 -0.070500 -0.064400 
#    y -0.070500 1.845700 -0.010180 
#    z -0.064400 -0.010180 1.902350 
# 
# From -- ./inp_files/207320.got.cif
#   From: 2010.05.17/outbox.cif.g08.bks.cpg/sg2_104_cif.got.tgz:207320.got - 2010.06.03 11:33:40.
