data_PCOD9007840
_publ_section_title
;
Structure prediction by ZEFSAII (Michael W. Deem and Ramdas Pophale) SiO2 
 PCOD9007840
Probable space group: P -1
;
_chemical_formula_sum "Si O2"
_cell_formula_units_Z 16
_cell_length_a 9.025495
_cell_length_b 10.421631
_cell_length_c 8.578404
_cell_angle_alpha 111.016030
_cell_angle_beta 94.506081
_cell_angle_gamma 48.729992
_cell_volume 551.582926
_symmetry_space_group_name_H-M "P -1"
_symmetry_group_IT_number 2
_symmetry_cell_setting 'triclinic'
loop_
_space_group_symop_operation_xyz
x,y,z
-x,-y,-z
loop_
_atom_site_type_symbol
_atom_site_label
_atom_site_fract_x
_atom_site_fract_y
_atom_site_fract_z
Si Si1 0.645655 0.153608 0.847877
Si Si2 0.810432 0.342577 0.266756
Si Si3 0.341953 0.612787 0.246048
Si Si4 0.209468 0.163536 0.078275
Si Si5 0.793056 0.667789 0.138610
Si Si6 0.706798 0.602954 0.655099
Si Si7 0.737786 0.896712 0.470038
Si Si8 0.240441 0.867895 0.631008
O O1 0.703744 0.273443 0.864827
O O2 0.405785 0.300456 0.855149
O O3 0.163720 0.305928 0.670488
O O4 0.751336 0.980087 0.660761
O O5 0.580187 0.473632 0.247639
O O6 0.817415 0.448332 0.457684
O O7 0.864176 0.155779 0.254059
O O8 0.310341 0.953878 0.036686
O O9 0.278752 0.497623 0.229316
O O10 0.238598 0.767735 0.439447
O O11 0.250660 0.265409 0.244217
O O12 0.970219 0.288037 0.127963
O O13 0.283176 0.167327 0.918437
O O14 0.000000 0.500000 0.000000
O O15 0.474892 0.738900 0.639293
O O16 0.500000 0.000000 0.500000
O O17 0.818617 0.950091 0.366429
#
# Coordination Sequence:
#
# PCOD9007840 Si02
#       8
#     2   2   2   2   2   2   2   2
#     4  10  21  39  63  88 116 157 203 250 298 349
#     4   9  18  33  56  88 122 158 200 245 294 359
#     4   8  16  35  60  83 115 160 205 244 290 355
#     4  12  23  35  57  93 126 154 190 252 310 349
#     4  11  24  40  58  87 126 163 198 242 298 364
#     4   9  17  32  57  88 121 158 202 248 294 351
#     4   9  18  36  62  86 113 158 206 242 288 357
#     4   8  15  32  58  85 115 158 207 245 288 354
#
# _framework density 29.007422999999999
#
# number of rings (size 3 to 8) (size 9 to 14) (size 15 to 20)
#    0.000    2.500    0.000    4.500    0.000    4.000 
#    0.000    8.125    0.000    3.000    0.000    0.000 
#    0.000    0.000    0.000    0.000    0.000    0.000 
#
# Total GULP energy -89574.544921 kJ/mol
# GULP energy per Si atom -5598.409058 kJ/mol
# Density = 2.894140 g / cm^3
# Si number density = 29.007423 Si / 1000 Ang^3
#
#
#
# Elastic Constant Matrix: (Units=GPa)
#
#
# Indices 1 2 3 4 5 6 
#
# 1 148.3443 40.3986 21.0536 0.0888 -14.0015 6.3345
# 2 40.3986 141.9285 -1.6258 -12.2383 -8.7916 33.9402
# 3 21.0536 -1.6258 114.5438 24.0049 15.1420 6.8956
# 4 0.0888 -12.2383 24.0049 46.8549 9.6545 -23.6438
# 5 -14.0015 -8.7916 15.1420 9.6545 46.6173 -5.7938
# 6 6.3345 33.9402 6.8956 -23.6438 -5.7938 57.3028
#
#
#
# Elastic Compliance Matrix: (Units=1/GPa)
#
#
# Indices 1 2 3 4 5 6 
#
# 1 0.007859 -0.002349 -0.001997 0.000471 0.002620 0.001222
# 2 -0.002349 0.008990 0.001106 -0.001087 0.000156 -0.005631
# 3 -0.001997 0.001106 0.011435 -0.007558 -0.003193 -0.005252
# 4 0.000471 -0.001087 -0.007558 0.032949 -0.002589 0.014835
# 5 0.002620 0.000156 -0.003193 -0.002589 0.024010 0.001362
# 6 0.001222 -0.005631 -0.005252 0.014835 0.001362 0.027542
#
#
# Mechanical properties :
#
#
# Convention : Reuss Voigt Hill
#
# Bulk Modulus (GPa) = 45.86444 58.27437 52.06940
# Shear Modulus (GPa) = 39.51539 53.15435 46.33487
#
# Velocity S-wave (km/s) = 3.69487 4.28534 4.00102
# Velocity P-wave (km/s) = 5.83510 6.67972 6.27164
#
# Compressibility (1/GPa) = 0.02180338
#
# Stress axis : x y z
#
# Youngs Moduli (GPa) = 127.24205 111.24015 87.44973
#
# Poissons Ratio (x) = 0.26133 0.17460
# Poissons Ratio (y) = 0.29892 -0.09669
# Poissons Ratio (z) = 0.25405 -0.12299
#
# Static dielectric constant tensor:
#      x y z
#    x 2.172770 -0.029080 0.033650 
#    y -0.029080 2.385140 -0.038120 
#    z 0.033650 -0.038120 2.233700 
# 
# From -- ./inp_files/357186.got.cif
#   From: 2010.05.17/outbox.cif.g08.bks.cpg/sg2_179_cif.got.tgz:357186.got - 2010.06.03 11:33:40.
