data_PCOD9007059
_publ_section_title
;
Structure prediction by ZEFSAII (Michael W. Deem and Ramdas Pophale) SiO2 
 PCOD9007059
Probable space group: P -1
;
_chemical_formula_sum "Si O2"
_cell_formula_units_Z 13
_cell_length_a 6.125466
_cell_length_b 13.958753
_cell_length_c 8.169442
_cell_angle_alpha 120.175812
_cell_angle_beta 63.101355
_cell_angle_gamma 91.700923
_cell_volume 520.515532
_symmetry_space_group_name_H-M "P -1"
_symmetry_group_IT_number 2
_symmetry_cell_setting 'triclinic'
loop_
_space_group_symop_operation_xyz
x,y,z
-x,-y,-z
loop_
_atom_site_type_symbol
_atom_site_label
_atom_site_fract_x
_atom_site_fract_y
_atom_site_fract_z
Si Si1 0.984805 0.775939 0.464748
Si Si2 0.500000 0.500000 0.000000
Si Si3 0.420645 0.830381 0.159104
Si Si4 0.762066 0.300709 0.163577
Si Si5 0.782146 0.673191 0.162725
Si Si6 0.850940 0.903604 0.949981
Si Si7 0.772040 0.445865 0.581777
O O1 0.784920 0.731604 0.387300
O O2 0.864736 0.861042 0.722226
O O3 0.157004 0.655862 0.387082
O O4 0.145891 0.838660 0.343186
O O5 0.688763 0.560368 0.089727
O O6 0.408444 0.455859 0.167661
O O7 0.596086 0.762365 0.184512
O O8 0.411285 0.763154 0.934089
O O9 0.567108 0.926355 0.140090
O O10 0.664390 0.392724 0.418125
O O11 0.970132 0.203259 0.106302
O O12 0.935694 0.348155 0.019620
O O13 0.000000 0.000000 0.000000
O O14 0.000000 0.500000 0.500000
#
# Coordination Sequence:
#
# PCOD9007059 Si02
#       7
#     2   1   2   2   2   2   2
#     4  10  23  40  64  85 123 163 193 251 300 352
#     4  12  22  34  62  88 120 166 200 240 292 352
#     4  10  21  41  63  84 123 161 191 247 304 351
#     4   9  21  41  61  86 124 160 196 248 298 351
#     4  10  21  39  59  90 120 162 207 235 292 357
#     4  10  23  41  64  94 117 149 205 250 300 366
#     4  11  22  38  58  91 123 156 206 245 290 349
#
# _framework density 24.975242000000001
#
# number of rings (size 3 to 8) (size 9 to 14) (size 15 to 20)
#    0.000    1.846    3.077    0.000    2.154    3.077 
#    0.000    8.462    0.000    0.000    0.000    0.000 
#    0.000    0.000    0.000    0.000    0.000    0.000 
#
# Total GULP energy -72401.204148 kJ/mol
# GULP energy per Si atom -5569.323396 kJ/mol
# Density = 2.491840 g / cm^3
# Si number density = 24.975242 Si / 1000 Ang^3
#
#
#
# Elastic Constant Matrix: (Units=GPa)
#
#
# Indices 1 2 3 4 5 6 
#
# 1 73.7501 21.9519 22.5914 4.0398 24.1651 19.5379
# 2 21.9519 156.7098 55.6162 -20.7903 1.0744 57.0465
# 3 22.5914 55.6162 92.9102 -20.2738 38.2583 14.2872
# 4 4.0398 -20.7903 -20.2738 29.0826 9.8424 -5.7661
# 5 24.1651 1.0744 38.2583 9.8424 40.6020 4.9016
# 6 19.5379 57.0465 14.2872 -5.7661 4.9016 48.5853
#
#
#
# Elastic Compliance Matrix: (Units=1/GPa)
#
#
# Indices 1 2 3 4 5 6 
#
# 1 0.018995 -0.002146 0.004868 0.003828 -0.016225 -0.004459
# 2 -0.002146 0.021251 -0.025954 -0.017797 0.032118 -0.021808
# 3 0.004868 -0.025954 0.073509 0.067495 -0.090743 0.024065
# 4 0.003828 -0.017797 0.067495 0.103922 -0.093162 0.021241
# 5 -0.016225 0.032118 -0.090743 -0.093162 0.145171 -0.030205
# 6 -0.004459 -0.021808 0.024065 0.021241 -0.030205 0.046473
#
#
# Mechanical properties :
#
#
# Convention : Reuss Voigt Hill
#
# Bulk Modulus (GPa) = 14.86104 58.18769 36.52436
# Shear Modulus (GPa) = 10.45556 38.53467 24.49511
#
# Velocity S-wave (km/s) = 2.04828 3.93226 3.13513
# Velocity P-wave (km/s) = 3.39958 6.63065 5.26891
#
# Compressibility (1/GPa) = 0.06729005
#
# Stress axis : x y z
#
# Youngs Moduli (GPa) = 52.64587 47.05768 13.60387
#
# Poissons Ratio (x) = 0.10100 -0.06623
# Poissons Ratio (y) = 0.11300 0.35307
# Poissons Ratio (z) = -0.25629 1.22133
#
# Static dielectric constant tensor:
#      x y z
#    x 1.605150 0.312990 0.620170 
#    y 0.312990 1.751580 -0.539810 
#    z 0.620170 -0.539810 1.004390 
# 
# From -- ./inp_files/115223.got.cif
#   From: 2010.05.17/outbox.cif.g08.bks.cpg/sg2_58_cif.got.tgz:115223.got - 2010.06.03 11:33:40.
