data_PCOD9007021
_publ_section_title
;
Structure prediction by ZEFSAII (Michael W. Deem and Ramdas Pophale) SiO2 
 PCOD9007021
Probable space group: P -1
;
_chemical_formula_sum "Si O2"
_cell_formula_units_Z 15
_cell_length_a 8.892638
_cell_length_b 21.608854
_cell_length_c 15.212935
_cell_angle_alpha 162.493556
_cell_angle_beta 52.659196
_cell_angle_gamma 129.145649
_cell_volume 681.863575
_symmetry_space_group_name_H-M "P -1"
_symmetry_group_IT_number 2
_symmetry_cell_setting 'triclinic'
loop_
_space_group_symop_operation_xyz
x,y,z
-x,-y,-z
loop_
_atom_site_type_symbol
_atom_site_label
_atom_site_fract_x
_atom_site_fract_y
_atom_site_fract_z
Si Si1 0.879536 0.643028 0.535388
Si Si2 0.207205 0.402897 0.091709
Si Si3 0.609036 0.867329 0.218429
Si Si4 0.000000 0.500000 0.000000
Si Si5 0.491230 0.170485 0.384178
Si Si6 0.866730 0.818907 0.357765
Si Si7 0.227551 0.022869 0.873239
Si Si8 0.661403 0.572852 0.345352
O O1 0.709784 0.575115 0.433598
O O2 0.002080 0.465777 0.264379
O O3 0.813355 0.745038 0.784668
O O4 0.033879 0.842324 0.708811
O O5 0.375998 0.605957 0.327961
O O6 0.231530 0.212072 0.887094
O O7 0.232380 0.347199 0.906215
O O8 0.688937 0.998946 0.282216
O O9 0.500000 0.000000 0.500000
O O10 0.470406 0.652050 0.941166
O O11 0.004339 0.298647 0.788532
O O12 0.142775 0.413958 0.761770
O O13 0.297897 0.113500 0.434310
O O14 0.431464 0.233748 0.393904
O O15 0.625569 0.011079 0.147084
O O16 0.000000 0.000000 0.500000
#
# Coordination Sequence:
#
# PCOD9007021 Si02
#       8
#     2   2   2   1   2   2   2   2
#     4  10  22  42  64  86 123 168 208 253 317 378
#     4  10  21  39  59  84 124 165 200 258 318 373
#     4  11  25  38  61  93 124 159 210 261 312 378
#     4  10  22  36  58  90 130 156 200 266 316 366
#     4   9  21  39  58  85 124 162 201 257 317 372
#     4  11  22  35  60  92 126 161 214 259 318 384
#     4  10  23  41  63  90 121 164 213 257 307 386
#     4  10  22  39  60  89 121 166 200 252 327 368
#
# _framework density 21.998536999999999
#
# number of rings (size 3 to 8) (size 9 to 14) (size 15 to 20)
#    0.000    1.867    1.333    1.200    5.600    4.800 
#    0.000    0.000    0.000    0.000    0.000    0.000 
#    0.000    0.000    0.000    0.000    0.000    0.000 
#
# Total GULP energy -83528.481192 kJ/mol
# GULP energy per Si atom -5568.565413 kJ/mol
# Density = 2.194847 g / cm^3
# Si number density = 21.998537 Si / 1000 Ang^3
#
#
#
# Elastic Constant Matrix: (Units=GPa)
#
#
# Indices 1 2 3 4 5 6 
#
# 1 961.6560 -384.7812 -60.7211 -222.8550 -5.9038 -348.8469
# 2 -384.7812 236.5319 50.1461 106.4658 -5.0762 144.4942
# 3 -60.7211 50.1461 72.0491 24.8675 -10.5330 29.8491
# 4 -222.8550 106.4658 24.8675 84.2036 -12.0926 82.8669
# 5 -5.9038 -5.0762 -10.5330 -12.0926 21.1971 0.2963
# 6 -348.8469 144.4942 29.8491 82.8669 0.2963 149.5306
#
#
#
# Elastic Compliance Matrix: (Units=1/GPa)
#
#
# Indices 1 2 3 4 5 6 
#
# 1 0.009868 0.003645 -0.002421 0.007745 0.006617 0.015677
# 2 0.003645 0.014969 -0.004709 -0.007041 -0.001741 -0.001116
# 3 -0.002421 -0.004709 0.018152 -0.000291 0.007116 -0.004574
# 4 0.007745 -0.007041 -0.000291 0.045417 0.026240 -0.000290
# 5 0.006617 -0.001741 0.007116 0.026240 0.067094 0.001026
# 6 0.015677 -0.001116 -0.004574 -0.000290 0.001026 0.045412
#
#
# Mechanical properties :
#
#
# Convention : Reuss Voigt Hill
#
# Bulk Modulus (GPa) = 27.76272 53.28053 40.52162
# Shear Modulus (GPa) = 22.73891 162.02579 92.38235
#
# Velocity S-wave (km/s) = 3.21854 8.59144 6.48737
# Velocity P-wave (km/s) = 5.14389 11.07654 8.63567
#
# Compressibility (1/GPa) = 0.03601953
#
# Stress axis : x y z
#
# Youngs Moduli (GPa) = 101.34042 66.80372 55.08997
#
# Poissons Ratio (x) = -0.24349 0.13337
# Poissons Ratio (y) = -0.36937 0.25940
# Poissons Ratio (z) = 0.24535 0.31455
#
# Static dielectric constant tensor:
#      x y z
#    x 1.855930 0.014900 0.013080 
#    y 0.014900 1.771870 0.014400 
#    z 0.013080 0.014400 1.825090 
# 
# From -- ./inp_files/187048.got.cif
#   From: 2010.05.17/outbox.cif.g08.bks.cpg/sg2_94_cif.got.tgz:187048.got - 2010.06.03 11:33:40.
