data_PCOD9007035
_publ_section_title
;
Structure prediction by ZEFSAII (Michael W. Deem and Ramdas Pophale) SiO2 
 PCOD9007035
Probable space group: P -1
;
_chemical_formula_sum "Si O2"
_cell_formula_units_Z 16
_cell_length_a 11.427522
_cell_length_b 19.734259
_cell_length_c 16.899962
_cell_angle_alpha 18.929960
_cell_angle_beta 129.786350
_cell_angle_gamma 140.959702
_cell_volume 689.939851
_symmetry_space_group_name_H-M "P -1"
_symmetry_group_IT_number 2
_symmetry_cell_setting 'triclinic'
loop_
_space_group_symop_operation_xyz
x,y,z
-x,-y,-z
loop_
_atom_site_type_symbol
_atom_site_label
_atom_site_fract_x
_atom_site_fract_y
_atom_site_fract_z
Si Si1 0.933414 0.247881 0.642874
Si Si2 0.661982 0.163470 0.475143
Si Si3 0.241627 0.651893 0.114096
Si Si4 0.911517 0.705839 0.891498
Si Si5 0.099256 0.984936 0.327214
Si Si6 0.315753 0.599214 0.022427
Si Si7 0.310936 0.776099 0.300273
Si Si8 0.291114 0.342744 0.869638
O O1 0.811728 0.264348 0.504524
O O2 0.828777 0.195587 0.740448
O O3 0.170500 0.552828 0.415227
O O4 0.876435 0.956486 0.920076
O O5 0.732098 0.040758 0.582316
O O6 0.710821 0.416627 0.168976
O O7 0.661899 0.395476 0.439716
O O8 0.267813 0.620649 0.066954
O O9 0.099905 0.726928 0.972558
O O10 0.464917 0.909912 0.964534
O O11 0.112608 0.330779 0.444883
O O12 0.936963 0.952928 0.670943
O O13 0.865723 0.646167 0.844511
O O14 0.184970 0.243299 0.019798
O O15 0.493756 0.586866 0.113698
O O16 0.432305 0.906685 0.692921
#
# Coordination Sequence:
#
# PCOD9007035 Si02
#       8
#     2   2   2   2   2   2   2   2
#     4   9  19  37  63  91 117 143 200 251 285 347
#     4   9  19  40  60  87 118 148 200 253 279 349
#     4  11  23  39  55  90 125 150 197 247 290 347
#     4  11  22  38  60  83 122 166 191 232 307 347
#     4   9  22  38  55  81 123 155 191 241 290 338
#     4  10  21  39  59  87 121 155 200 248 279 344
#     4  11  20  36  66  90 112 159 193 239 304 343
#     4  10  21  40  61  89 120 151 201 245 280 353
#
# _framework density 23.190427
#
# number of rings (size 3 to 8) (size 9 to 14) (size 15 to 20)
#    0.000    2.250    2.500    1.875    1.750    2.500 
#    4.500    5.625    0.000    6.750    0.000    0.000 
#    0.000    0.000    0.000    0.000    0.000    0.000 
#
# Total GULP energy -89356.131057 kJ/mol
# GULP energy per Si atom -5584.758191 kJ/mol
# Density = 2.313764 g / cm^3
# Si number density = 23.190427 Si / 1000 Ang^3
#
#
#
# Elastic Constant Matrix: (Units=GPa)
#
#
# Indices 1 2 3 4 5 6 
#
# 1 56.4812 -14.3121 6.5586 -9.2250 7.0875 2.5257
# 2 -14.3121 55.6771 -9.3869 -16.8173 1.2239 8.6283
# 3 6.5586 -9.3869 73.3089 -6.5684 -2.0845 8.9390
# 4 -9.2250 -16.8173 -6.5684 36.0789 -4.6443 -9.0232
# 5 7.0875 1.2239 -2.0845 -4.6443 34.3946 -6.2012
# 6 2.5257 8.6283 8.9390 -9.0232 -6.2012 16.2315
#
#
#
# Elastic Compliance Matrix: (Units=1/GPa)
#
#
# Indices 1 2 3 4 5 6 
#
# 1 0.022161 0.009225 0.000513 0.007900 -0.004900 -0.006115
# 2 0.009225 0.027006 0.005235 0.012191 -0.003268 -0.013145
# 3 0.000513 0.005235 0.015747 0.002750 -0.000827 -0.010322
# 4 0.007900 0.012191 0.002750 0.040726 0.006469 0.015887
# 5 -0.004900 -0.003268 -0.000827 0.006469 0.034587 0.019765
# 6 -0.006115 -0.013145 -0.010322 0.015887 0.019765 0.091615
#
#
# Mechanical properties :
#
#
# Convention : Reuss Voigt Hill
#
# Bulk Modulus (GPa) = 10.54203 16.79848 13.67025
# Shear Modulus (GPa) = 21.41164 30.84820 26.12992
#
# Velocity S-wave (km/s) = 3.04188 3.65116 3.36036
# Velocity P-wave (km/s) = 4.11012 5.00341 4.57860
#
# Compressibility (1/GPa) = 0.09485843
#
# Stress axis : x y z
#
# Youngs Moduli (GPa) = 45.12343 37.02887 63.50476
#
# Poissons Ratio (x) = -0.34157 -0.03255
# Poissons Ratio (y) = -0.41624 -0.33245
# Poissons Ratio (z) = -0.02313 -0.19385
#
# Static dielectric constant tensor:
#      x y z
#    x 1.867420 -0.019760 -0.015210 
#    y -0.019760 1.912520 -0.022840 
#    z -0.015210 -0.022840 1.900760 
# 
# From -- ./inp_files/596117.got.cif
#   From: 2010.05.17/outbox.cif.g08.bks.cpg/sg2_299_cif.got.tgz:596117.got - 2010.06.03 11:33:40.
