data_PCOD9007956
_publ_section_title
;
Structure prediction by ZEFSAII (Michael W. Deem and Ramdas Pophale) SiO2 
 PCOD9007956
Probable space group: P -1
;
_chemical_formula_sum "Si O2"
_cell_formula_units_Z 14
_cell_length_a 9.738663
_cell_length_b 20.275730
_cell_length_c 19.332329
_cell_angle_alpha 20.045266
_cell_angle_beta 155.735292
_cell_angle_gamma 153.859888
_cell_volume 514.087665
_symmetry_space_group_name_H-M "P -1"
_symmetry_group_IT_number 2
_symmetry_cell_setting 'triclinic'
loop_
_space_group_symop_operation_xyz
x,y,z
-x,-y,-z
loop_
_atom_site_type_symbol
_atom_site_label
_atom_site_fract_x
_atom_site_fract_y
_atom_site_fract_z
Si Si1 0.939420 0.624124 0.636003
Si Si2 0.228722 0.954416 0.334877
Si Si3 0.539789 0.752942 0.140790
Si Si4 0.164817 0.375264 0.872088
Si Si5 0.456868 0.174183 0.659322
Si Si6 0.600886 0.946113 0.393079
Si Si7 0.588614 0.389325 0.924609
O O1 0.633769 0.408154 0.720906
O O2 0.855458 0.726982 0.567437
O O3 0.043542 0.834358 0.434167
O O4 0.167758 0.523591 0.789991
O O5 0.928301 0.875079 0.217980
O O6 0.538493 0.898379 0.492405
O O7 0.294731 0.191015 0.142267
O O8 0.549123 0.628346 0.198875
O O9 0.364177 0.933282 0.870477
O O10 0.409783 0.470044 0.826096
O O11 0.775180 0.284469 0.749186
O O12 0.578321 0.195525 0.613844
O O13 0.509090 0.154678 0.138068
O O14 0.000000 0.000000 0.500000
O O15 0.000000 0.500000 0.000000
#
# Coordination Sequence:
#
# PCOD9007956 Si02
#       7
#     2   2   2   2   2   2   2
#     4  12  23  36  64  98 126 158 193 248 313 362
#     4  10  21  39  63  92 123 157 202 251 302 360
#     4  10  21  39  63  92 123 157 202 251 302 360
#     4  10  21  39  63  92 123 157 202 251 302 360
#     4  10  21  39  63  92 123 157 202 251 302 360
#     4  10  23  41  64  86 120 162 207 255 302 348
#     4  10  23  41  64  86 120 162 207 255 302 348
#
# _framework density 27.232710999999998
#
# number of rings (size 3 to 8) (size 9 to 14) (size 15 to 20)
#    0.000    1.714    0.000    4.286    4.000    5.714 
#    0.000    4.286    0.000    0.000    0.000    0.000 
#    0.000    0.000    0.000    0.000    0.000    0.000 
#
# Total GULP energy -78054.362401 kJ/mol
# GULP energy per Si atom -5575.311600 kJ/mol
# Density = 2.717073 g / cm^3
# Si number density = 27.232711 Si / 1000 Ang^3
#
#
#
# Elastic Constant Matrix: (Units=GPa)
#
#
# Indices 1 2 3 4 5 6 
#
# 1 125.5458 118.7001 69.8373 -28.7465 41.2542 29.5875
# 2 118.7001 35.5721 13.8259 -4.7217 -6.5224 -12.9325
# 3 69.8373 13.8259 84.6666 -33.3430 19.1826 -6.7508
# 4 -28.7465 -4.7217 -33.3430 41.8876 -4.0587 -0.5357
# 5 41.2542 -6.5224 19.1826 -4.0587 50.2811 -21.1411
# 6 29.5875 -12.9325 -6.7508 -0.5357 -21.1411 40.9681
#
#
#
# Elastic Compliance Matrix: (Units=1/GPa)
#
#
# Indices 1 2 3 4 5 6 
#
# 1 -0.001250 0.007265 -0.000827 -0.000189 0.004539 0.005400
# 2 0.007265 0.000654 -0.004976 0.000174 -0.008207 -0.010093
# 3 -0.000827 -0.004976 0.020546 0.014528 -0.007073 -0.001048
# 4 -0.000189 0.000174 0.014528 0.035202 -0.001587 0.002226
# 5 0.004539 -0.008207 -0.007073 -0.001587 0.018778 0.002635
# 6 0.005400 -0.010093 -0.001048 0.002226 0.002635 0.018540
#
#
# Mechanical properties :
#
#
# Convention : Reuss Voigt Hill
#
# Bulk Modulus (GPa) = 43.71935 72.27898 57.99917
# Shear Modulus (GPa) = 51.45618 29.52209 40.48913
#
# Velocity S-wave (km/s) = 4.35155 3.29609 3.86007
# Velocity P-wave (km/s) = 6.42937 6.40972 6.41955
#
# Compressibility (1/GPa) = 0.02287317
#
# Stress axis : x y z
#
# Youngs Moduli (GPa) = -799.69242 1528.80793 48.67156
#
# Poissons Ratio (x) = -11.10605 0.04025
# Poissons Ratio (y) = 5.80938 0.24218
# Poissons Ratio (z) = -0.66132 7.60692
#
# Static dielectric constant tensor:
#      x y z
#    x 2.142860 -0.027650 -0.048140 
#    y -0.027650 2.193380 0.083060 
#    z -0.048140 0.083060 2.224560 
# 
# From -- ./inp_files/349743.got.cif
#   From: 2010.05.17/outbox.cif.g08.bks.cpg/sg2_175_cif.got.tgz:349743.got - 2010.06.03 11:33:40.
