data_PCOD9007020
_publ_section_title
;
Structure prediction by ZEFSAII (Michael W. Deem and Ramdas Pophale) SiO2 
 PCOD9007020
Probable space group: P -1
;
_chemical_formula_sum "Si O2"
_cell_formula_units_Z 15
_cell_length_a 14.800854
_cell_length_b 14.403930
_cell_length_c 14.490978
_cell_angle_alpha 19.528867
_cell_angle_beta 41.755093
_cell_angle_gamma 41.775559
_cell_volume 674.974693
_symmetry_space_group_name_H-M "P -1"
_symmetry_group_IT_number 2
_symmetry_cell_setting 'triclinic'
loop_
_space_group_symop_operation_xyz
x,y,z
-x,-y,-z
loop_
_atom_site_type_symbol
_atom_site_label
_atom_site_fract_x
_atom_site_fract_y
_atom_site_fract_z
Si Si1 0.000000 0.500000 0.500000
Si Si2 0.330744 0.844919 0.641024
Si Si3 0.122211 0.752607 0.343769
Si Si4 0.857542 0.202859 0.336190
Si Si5 0.255635 0.176425 0.743193
Si Si6 0.963222 0.386226 0.256988
Si Si7 0.516791 0.271406 0.084750
Si Si8 0.199502 0.874819 0.897144
O O1 0.017704 0.679798 0.415201
O O2 0.099729 0.691906 0.188323
O O3 0.272029 0.792328 0.635225
O O4 0.388750 0.131441 0.343127
O O5 0.456616 0.584796 0.805714
O O6 0.207219 0.867714 0.788155
O O7 0.254767 0.499573 0.459968
O O8 0.076805 0.693197 0.536227
O O9 0.163047 0.047391 0.008411
O O10 0.845240 0.369483 0.286464
O O11 0.914736 0.874058 0.620497
O O12 0.972142 0.336423 0.066787
O O13 0.400552 0.962329 0.830013
O O14 0.184357 0.159146 0.710010
O O15 0.639612 0.265097 0.070261
#
# Coordination Sequence:
#
# PCOD9007020 Si02
#       8
#     1   2   2   2   2   2   2   2
#     4  10  22  36  58  88 120 150 200 234 288 358
#     4  12  21  38  64  85 119 155 206 238 290 347
#     4  11  20  37  57  82 115 155 184 238 290 358
#     4  10  22  37  59  90 111 152 193 249 289 351
#     4   9  22  35  54  81 113 153 193 222 294 343
#     4  10  21  39  59  84 123 146 190 240 311 341
#     4  10  23  38  58  85 123 159 196 245 286 349
#     4   9  22  36  57  88 122 157 193 240 297 346
#
# _framework density 22.223054999999999
#
# number of rings (size 3 to 8) (size 9 to 14) (size 15 to 20)
#    0.800    1.067    0.000    4.000    0.000    5.333 
#    0.000    0.000    0.000    4.800    0.000    0.000 
#    0.000    0.000    0.000    0.000    0.000    0.000 
#
# Total GULP energy -83585.128129 kJ/mol
# GULP energy per Si atom -5572.341875 kJ/mol
# Density = 2.217247 g / cm^3
# Si number density = 22.223055 Si / 1000 Ang^3
#
#
#
# Elastic Constant Matrix: (Units=GPa)
#
#
# Indices 1 2 3 4 5 6 
#
# 1 91.0484 18.9317 5.0721 22.5761 3.2913 11.9665
# 2 18.9317 49.3127 0.6249 14.1560 1.9607 10.9391
# 3 5.0721 0.6249 104.9021 10.2821 -8.0032 10.1548
# 4 22.5761 14.1560 10.2821 40.1415 6.1408 11.3247
# 5 3.2913 1.9607 -8.0032 6.1408 27.9836 10.2990
# 6 11.9665 10.9391 10.1548 11.3247 10.2990 16.4008
#
#
#
# Elastic Compliance Matrix: (Units=1/GPa)
#
#
# Indices 1 2 3 4 5 6 
#
# 1 0.013556 -0.002283 0.000707 -0.005537 0.002363 -0.006466
# 2 -0.002283 0.026345 0.002789 -0.004436 0.007226 -0.019107
# 3 0.000707 0.002789 0.011625 -0.001805 0.008463 -0.013642
# 4 -0.005537 -0.004436 -0.001805 0.034427 -0.001752 -0.014556
# 5 0.002363 0.007226 0.008463 -0.001752 0.054166 -0.044587
# 6 -0.006466 -0.019107 -0.013642 -0.014556 -0.044587 0.124930
#
#
# Mechanical properties :
#
#
# Convention : Reuss Voigt Hill
#
# Bulk Modulus (GPa) = 18.53525 32.72448 25.62987
# Shear Modulus (GPa) = 17.81855 31.61417 24.71636
#
# Velocity S-wave (km/s) = 2.83469 3.77581 3.33858
# Velocity P-wave (km/s) = 4.36722 5.81089 5.13999
#
# Compressibility (1/GPa) = 0.05395124
#
# Stress axis : x y z
#
# Youngs Moduli (GPa) = 73.76844 37.95856 86.02095
#
# Poissons Ratio (x) = 0.08667 -0.06082
# Poissons Ratio (y) = 0.16844 -0.23992
# Poissons Ratio (z) = -0.05216 -0.10587
#
# Static dielectric constant tensor:
#      x y z
#    x 1.860750 0.015170 0.032860 
#    y 0.015170 1.886610 -0.042980 
#    z 0.032860 -0.042980 1.827010 
# 
# From -- ./inp_files/533538.got.cif
#   From: 2010.05.17/outbox.cif.g08.bks.cpg/sg2_267_cif.got.tgz:533538.got - 2010.06.03 11:33:40.
