data_PCOD9007330
_publ_section_title
;
Structure prediction by ZEFSAII (Michael W. Deem and Ramdas Pophale) SiO2 
 PCOD9007330
Probable space group: P -1
;
_chemical_formula_sum "Si O2"
_cell_formula_units_Z 12
_cell_length_a 15.572668
_cell_length_b 16.756350
_cell_length_c 7.014013
_cell_angle_alpha 67.131602
_cell_angle_beta 61.251204
_cell_angle_gamma 18.238945
_cell_volume 486.467411
_symmetry_space_group_name_H-M "P -1"
_symmetry_group_IT_number 2
_symmetry_cell_setting 'triclinic'
loop_
_space_group_symop_operation_xyz
x,y,z
-x,-y,-z
loop_
_atom_site_type_symbol
_atom_site_label
_atom_site_fract_x
_atom_site_fract_y
_atom_site_fract_z
Si Si1 0.376345 0.440335 0.535094
Si Si2 0.855900 0.532483 0.048441
Si Si3 0.230336 0.160181 0.659341
Si Si4 0.443810 0.449142 0.879425
Si Si5 0.953371 0.150269 0.749756
Si Si6 0.399167 0.291794 0.217420
O O1 0.395772 0.475600 0.682096
O O2 0.141571 0.686459 0.425391
O O3 0.060983 0.570657 0.398933
O O4 0.280552 0.422254 0.702957
O O5 0.623656 0.741244 0.928878
O O6 0.101974 0.275302 0.902349
O O7 0.000000 0.500000 0.000000
O O8 0.500000 0.000000 0.500000
O O9 0.360113 0.956701 0.681362
O O10 0.740991 0.252754 0.794917
O O11 0.173663 0.724062 0.019654
O O12 0.459286 0.339664 0.051700
O O13 0.294409 0.838284 0.649366
#
# Coordination Sequence:
#
# PCOD9007330 Si02
#       6
#     2   2   2   2   2   2
#     4  11  25  45  66 101 138 173 223 276 338 389
#     4   9  23  40  62  91 128 169 214 272 321 390
#     4  10  21  39  61  88 121 170 215 256 327 385
#     4  10  24  45  71  97 141 170 228 276 330 397
#     4  11  26  43  70 104 127 184 222 272 337 401
#     4   9  22  38  62  89 127 169 206 271 323 379
#
# _framework density 24.667632999999999
#
# number of rings (size 3 to 8) (size 9 to 14) (size 15 to 20)
#    1.000    1.000    0.000    1.500    4.667   10.000 
#    0.000    0.000    0.000    0.000    0.000    0.000 
#    0.000    0.000    0.000    0.000    0.000    0.000 
#
# Total GULP energy -67130.935622 kJ/mol
# GULP energy per Si atom -5594.244635 kJ/mol
# Density = 2.461149 g / cm^3
# Si number density = 24.667633 Si / 1000 Ang^3
#
#
#
# Elastic Constant Matrix: (Units=GPa)
#
#
# Indices 1 2 3 4 5 6 
#
# 1 131.3830 12.0974 36.3586 1.5706 19.1527 -16.4648
# 2 12.0974 136.7610 46.8332 -4.5805 0.1294 12.4790
# 3 36.3586 46.8332 80.2357 13.1713 24.7558 -2.2543
# 4 1.5706 -4.5805 13.1713 32.0710 -9.1332 -7.7658
# 5 19.1527 0.1294 24.7558 -9.1332 56.7244 7.5999
# 6 -16.4648 12.4790 -2.2543 -7.7658 7.5999 34.9993
#
#
#
# Elastic Compliance Matrix: (Units=1/GPa)
#
#
# Indices 1 2 3 4 5 6 
#
# 1 0.009589 0.000136 -0.004023 0.001892 -0.001851 0.005025
# 2 0.000136 0.011095 -0.009348 0.005937 0.005552 -0.004382
# 3 -0.004023 -0.009348 0.026220 -0.014926 -0.012815 0.002600
# 4 0.001892 0.005937 -0.014926 0.042638 0.012105 0.004644
# 5 -0.001851 0.005552 -0.012815 0.012105 0.026692 -0.006786
# 6 0.005025 -0.004382 0.002600 0.004644 -0.006786 0.035170
#
#
# Mechanical properties :
#
#
# Convention : Reuss Voigt Hill
#
# Bulk Modulus (GPa) = 48.93883 59.88423 54.41153
# Shear Modulus (GPa) = 27.07315 41.63163 34.35239
#
# Velocity S-wave (km/s) = 3.31647 4.11262 3.73582
# Velocity P-wave (km/s) = 5.87773 6.84695 6.38077
#
# Compressibility (1/GPa) = 0.02043367
#
# Stress axis : x y z
#
# Youngs Moduli (GPa) = 104.28565 90.13362 38.13901
#
# Poissons Ratio (x) = -0.01226 0.15343
# Poissons Ratio (y) = -0.01418 0.35653
# Poissons Ratio (z) = 0.41953 0.84258
#
# Static dielectric constant tensor:
#      x y z
#    x 2.052200 -0.112870 0.051720 
#    y -0.112870 2.082530 -0.058400 
#    z 0.051720 -0.058400 1.972690 
# 
# From -- ./inp_files/99086.got.cif
#   From: 2010.05.17/outbox.cif.g08.bks.cpg/sg2_50_cif.got.tgz:99086.got - 2010.06.03 11:33:40.
