data_PCOD9007760
_publ_section_title
;
Structure prediction by ZEFSAII (Michael W. Deem and Ramdas Pophale) SiO2 
 PCOD9007760
Probable space group: P -1
;
_chemical_formula_sum "Si O2"
_cell_formula_units_Z 13
_cell_length_a 9.007549
_cell_length_b 7.167186
_cell_length_c 13.079999
_cell_angle_alpha 138.883261
_cell_angle_beta 61.766279
_cell_angle_gamma 106.098098
_cell_volume 484.643809
_symmetry_space_group_name_H-M "P -1"
_symmetry_group_IT_number 2
_symmetry_cell_setting 'triclinic'
loop_
_space_group_symop_operation_xyz
x,y,z
-x,-y,-z
loop_
_atom_site_type_symbol
_atom_site_label
_atom_site_fract_x
_atom_site_fract_y
_atom_site_fract_z
Si Si1 0.915719 0.387597 0.325151
Si Si2 0.934390 0.504858 0.870367
Si Si3 0.374257 0.806006 0.119715
Si Si4 0.551742 0.320164 0.734642
Si Si5 0.500000 0.000000 0.000000
Si Si6 0.093009 0.861593 0.565047
Si Si7 0.721640 0.412654 0.200618
O O1 0.066110 0.323339 0.164933
O O2 0.892503 0.162834 0.327516
O O3 0.756962 0.444536 0.322402
O O4 0.958910 0.664975 0.485032
O O5 0.089109 0.624066 0.927581
O O6 0.752474 0.434788 0.936026
O O7 0.023915 0.181151 0.685916
O O8 0.433715 0.845908 0.230804
O O9 0.327621 0.068489 0.170016
O O10 0.519829 0.655783 0.927208
O O11 0.727170 0.242953 0.588648
O O12 0.395667 0.323990 0.708912
O O13 0.619694 0.152269 0.108110
#
# Coordination Sequence:
#
# PCOD9007760 Si02
#       7
#     2   2   2   2   1   2   2
#     4   9  22  40  65 104 134 177 224 283 320 422
#     4  10  22  44  67  99 129 183 220 283 322 416
#     4  10  22  41  66  91 137 168 236 271 344 384
#     4  10  21  39  62  95 129 181 210 284 330 404
#     4  10  22  40  64  96 130 182 206 290 334 394
#     4  11  21  40  71  97 139 177 227 266 350 389
#     4   9  22  41  64 100 135 171 230 274 345 385
#
# _framework density 26.823824999999999
#
# number of rings (size 3 to 8) (size 9 to 14) (size 15 to 20)
#    0.923    1.231    1.538    0.462    0.000    9.846 
#    0.000    0.000    0.000   27.692    0.000    0.000 
#    0.000    0.000    0.000    0.000    0.000    0.000 
#
# Total GULP energy -72390.085931 kJ/mol
# GULP energy per Si atom -5568.468149 kJ/mol
# Density = 2.676277 g / cm^3
# Si number density = 26.823825 Si / 1000 Ang^3
#
#
#
# Elastic Constant Matrix: (Units=GPa)
#
#
# Indices 1 2 3 4 5 6 
#
# 1 174.8145 48.2888 47.5717 -30.2452 30.7656 -17.2130
# 2 48.2888 150.8501 37.7765 -43.0199 3.0777 -13.5397
# 3 47.5717 37.7765 86.2987 -18.7964 -15.9744 -4.6033
# 4 -30.2452 -43.0199 -18.7964 52.1899 3.7233 18.2366
# 5 30.7656 3.0777 -15.9744 3.7233 42.6726 -9.2672
# 6 -17.2130 -13.5397 -4.6033 18.2366 -9.2672 63.9004
#
#
#
# Elastic Compliance Matrix: (Units=1/GPa)
#
#
# Indices 1 2 3 4 5 6 
#
# 1 0.009946 -0.000250 -0.006344 0.004148 -0.009990 -0.000463
# 2 -0.000250 0.009416 -0.002938 0.006936 -0.002334 -0.000602
# 3 -0.006344 -0.002938 0.018501 -0.000605 0.011962 0.000909
# 4 0.004148 0.006936 -0.000605 0.030147 -0.007913 -0.007208
# 5 -0.009990 -0.002334 0.011962 -0.007913 0.037128 0.005319
# 6 -0.000463 -0.000602 0.000909 -0.007208 0.005319 0.018291
#
#
# Mechanical properties :
#
#
# Convention : Reuss Voigt Hill
#
# Bulk Modulus (GPa) = 53.18943 75.47081 64.33012
# Shear Modulus (GPa) = 33.61148 50.30766 41.95957
#
# Velocity S-wave (km/s) = 3.54368 4.33538 3.95937
# Velocity P-wave (km/s) = 6.05110 7.29778 6.70348
#
# Compressibility (1/GPa) = 0.01880073
#
# Stress axis : x y z
#
# Youngs Moduli (GPa) = 100.54538 106.19785 54.05051
#
# Poissons Ratio (x) = 0.02656 0.34287
# Poissons Ratio (y) = 0.02515 0.15878
# Poissons Ratio (z) = 0.63782 0.31197
#
# Static dielectric constant tensor:
#      x y z
#    x 2.173840 0.104930 -0.065130 
#    y 0.104930 2.431050 -0.006700 
#    z -0.065130 -0.006700 2.166460 
# 
# From -- ./inp_files/491691.got.cif
#   From: 2010.05.17/outbox.cif.g08.bks.cpg/sg2_246_cif.got.tgz:491691.got - 2010.06.03 11:33:40.
