data_PCOD9007101
_publ_section_title
;
Structure prediction by ZEFSAII (Michael W. Deem and Ramdas Pophale) SiO2 
 PCOD9007101
Probable space group: P -1
;
_chemical_formula_sum "Si O2"
_cell_formula_units_Z 14
_cell_length_a 6.322694
_cell_length_b 14.231176
_cell_length_c 9.184966
_cell_angle_alpha 88.784467
_cell_angle_beta 123.781341
_cell_angle_gamma 107.174904
_cell_volume 645.566597
_symmetry_space_group_name_H-M "P -1"
_symmetry_group_IT_number 2
_symmetry_cell_setting 'triclinic'
loop_
_space_group_symop_operation_xyz
x,y,z
-x,-y,-z
loop_
_atom_site_type_symbol
_atom_site_label
_atom_site_fract_x
_atom_site_fract_y
_atom_site_fract_z
Si Si1 0.274992 0.220110 0.947004
Si Si2 0.948000 0.745015 0.434053
Si Si3 0.220946 0.409722 0.386646
Si Si4 0.304649 0.418978 0.092361
Si Si5 0.839628 0.075159 0.970354
Si Si6 0.102187 0.450172 0.724298
Si Si7 0.330388 0.895498 0.788701
O O1 0.223723 0.222791 0.755233
O O2 0.985318 0.167302 0.917834
O O3 0.384803 0.331674 0.047905
O O4 0.478268 0.163673 0.073433
O O5 0.789233 0.682857 0.514183
O O6 0.042696 0.660525 0.391286
O O7 0.178269 0.838206 0.590704
O O8 0.500000 0.500000 0.500000
O O9 0.180421 0.383140 0.202484
O O10 0.010888 0.462124 0.358463
O O11 0.582444 0.513373 0.204209
O O12 0.103603 0.441984 0.900372
O O13 0.525359 0.008894 0.827772
O O14 0.861798 0.103282 0.148569
O O15 0.000000 0.000000 0.000000
#
# Coordination Sequence:
#
# PCOD9007101 Si02
#       7
#     2   2   2   2   2   2   2
#     4  10  22  40  61  90 123 152 202 243 298 355
#     4  11  23  40  59  92 120 157 204 250 289 355
#     4  12  23  36  57  84 123 163 206 246 294 345
#     4  10  21  39  60  82 119 164 201 252 295 347
#     4   9  20  43  66  90 118 154 191 240 304 365
#     4  10  22  40  57  83 121 160 207 250 296 346
#     4  10  21  41  68  86 120 156 189 247 303 353
#
# _framework density 21.686374000000001
#
# number of rings (size 3 to 8) (size 9 to 14) (size 15 to 20)
#    0.000    1.714    1.429    2.571    2.000    0.571 
#    7.714    6.429    0.000    0.000    0.000    0.000 
#    0.000    0.000    0.000    0.000    0.000    0.000 
#
# Total GULP energy -78160.642581 kJ/mol
# GULP energy per Si atom -5582.903042 kJ/mol
# Density = 2.163702 g / cm^3
# Si number density = 21.686374 Si / 1000 Ang^3
#
#
#
# Elastic Constant Matrix: (Units=GPa)
#
#
# Indices 1 2 3 4 5 6 
#
# 1 55.0433 1.4929 25.7525 -0.7883 -23.0996 0.8024
# 2 1.4929 50.3658 12.2517 16.2343 -4.5217 4.9425
# 3 25.7525 12.2517 108.4181 17.4854 -30.1322 -5.5137
# 4 -0.7883 16.2343 17.4854 38.9713 0.9520 -5.6718
# 5 -23.0996 -4.5217 -30.1322 0.9520 30.7819 -5.9939
# 6 0.8024 4.9425 -5.5137 -5.6718 -5.9939 32.8429
#
#
#
# Elastic Compliance Matrix: (Units=1/GPa)
#
#
# Indices 1 2 3 4 5 6 
#
# 1 0.026907 0.000756 -0.000864 0.000540 0.019990 0.002825
# 2 0.000756 0.024146 -0.000698 -0.010537 0.002766 -0.005084
# 3 -0.000864 -0.000698 0.014815 -0.006115 0.014768 0.004252
# 4 0.000540 -0.010537 -0.006115 0.033716 -0.007187 0.005057
# 5 0.019990 0.002766 0.014768 -0.007187 0.064946 0.012186
# 6 0.002825 -0.005084 0.004252 0.005057 0.012186 0.034955
#
#
# Mechanical properties :
#
#
# Convention : Reuss Voigt Hill
#
# Bulk Modulus (GPa) = 15.56306 32.53572 24.04939
# Shear Modulus (GPa) = 22.47025 32.14122 27.30574
#
# Velocity S-wave (km/s) = 3.22241 3.85397 3.55226
# Velocity P-wave (km/s) = 4.58664 5.90250 5.28568
#
# Compressibility (1/GPa) = 0.06425472
#
# Stress axis : x y z
#
# Youngs Moduli (GPa) = 37.16492 41.41460 67.50033
#
# Poissons Ratio (x) = -0.03131 0.05833
# Poissons Ratio (y) = -0.02810 0.04714
# Poissons Ratio (z) = 0.03212 0.02893
#
# Static dielectric constant tensor:
#      x y z
#    x 1.872370 -0.011420 0.002060 
#    y -0.011420 1.824040 -0.005560 
#    z 0.002060 -0.005560 1.838700 
# 
# From -- ./inp_files/34814.got.cif
#   From: 2010.05.17/outbox.cif.g08.bks.cpg/sg2_18_cif.got.tgz:34814.got - 2010.06.03 11:33:40.
