data_PCOD9007367
_publ_section_title
;
Structure prediction by ZEFSAII (Michael W. Deem and Ramdas Pophale) SiO2 
 PCOD9007367
Probable space group: P -1
;
_chemical_formula_sum "Si O2"
_cell_formula_units_Z 16
_cell_length_a 10.948061
_cell_length_b 13.573136
_cell_length_c 7.859913
_cell_angle_alpha 38.154054
_cell_angle_beta 106.353375
_cell_angle_gamma 96.807367
_cell_volume 681.854590
_symmetry_space_group_name_H-M "P -1"
_symmetry_group_IT_number 2
_symmetry_cell_setting 'triclinic'
loop_
_space_group_symop_operation_xyz
x,y,z
-x,-y,-z
loop_
_atom_site_type_symbol
_atom_site_label
_atom_site_fract_x
_atom_site_fract_y
_atom_site_fract_z
Si Si1 0.061787 0.163635 0.028517
Si Si2 0.174333 0.572426 0.318143
Si Si3 0.001646 0.830906 0.377595
Si Si4 0.834807 0.634765 0.740741
Si Si5 0.734263 0.363088 0.262215
Si Si6 0.374389 0.745854 0.987674
Si Si7 0.376723 0.400072 0.859788
Si Si8 0.312591 0.120841 0.428244
O O1 0.185023 0.128579 0.247815
O O2 0.992778 0.004905 0.223098
O O3 0.962691 0.322057 0.832504
O O4 0.084682 0.172127 0.821377
O O5 0.174375 0.465718 0.295513
O O6 0.235376 0.448325 0.655728
O O7 0.276422 0.692761 0.157968
O O8 0.966178 0.706025 0.673389
O O9 0.148730 0.774348 0.446918
O O10 0.730826 0.794399 0.524123
O O11 0.805409 0.515491 0.039432
O O12 0.678881 0.299824 0.155397
O O13 0.622375 0.439457 0.244087
O O14 0.375457 0.936231 0.730958
O O15 0.517067 0.640430 0.189455
O O16 0.392717 0.238972 0.199847
#
# Coordination Sequence:
#
# PCOD9007367 Si02
#       8
#     2   2   2   2   2   2   2   2
#     4  11  24  37  64  88 126 157 192 247 308 364
#     4  11  24  41  62  92 121 159 201 247 302 355
#     4  11  21  39  56  93 125 155 191 243 308 361
#     4  10  24  36  60  89 124 155 195 249 298 361
#     4  10  21  39  61  90 117 157 202 245 297 352
#     4  11  23  42  64  88 121 161 204 247 294 354
#     4  11  23  42  64  88 121 161 204 247 294 354
#     4  11  24  41  62  92 121 159 201 247 302 355
#
# _framework density 23.465412000000001
#
# number of rings (size 3 to 8) (size 9 to 14) (size 15 to 20)
#    0.000    1.250    2.500    3.000    7.000    2.000 
#    0.000    0.625    0.000    0.000    0.000    0.000 
#    0.000    0.000    0.000    0.000    0.000    0.000 
#
# Total GULP energy -89391.832471 kJ/mol
# GULP energy per Si atom -5586.989529 kJ/mol
# Density = 2.341200 g / cm^3
# Si number density = 23.465412 Si / 1000 Ang^3
#
#
#
# Elastic Constant Matrix: (Units=GPa)
#
#
# Indices 1 2 3 4 5 6 
#
# 1 63.1728 2.7750 15.6146 -17.5086 6.7052 -15.3053
# 2 2.7750 96.9555 26.7262 -13.2121 1.9041 -17.1241
# 3 15.6146 26.7262 86.6832 -24.3252 5.1477 -9.4255
# 4 -17.5086 -13.2121 -24.3252 38.1046 -3.4869 7.9039
# 5 6.7052 1.9041 5.1477 -3.4869 33.9485 -7.4620
# 6 -15.3053 -17.1241 -9.4255 7.9039 -7.4620 28.1941
#
#
#
# Elastic Compliance Matrix: (Units=1/GPa)
#
#
# Indices 1 2 3 4 5 6 
#
# 1 0.020602 0.002547 -0.001283 0.007368 -0.001073 0.009952
# 2 0.002547 0.012717 -0.002995 0.002155 0.001176 0.007812
# 3 -0.001283 -0.002995 0.014948 0.007816 -0.001039 0.000015
# 4 0.007368 0.002155 0.007816 0.035823 0.000480 -0.001994
# 5 -0.001073 0.001176 -0.001039 0.000480 0.031569 0.008005
# 6 0.009952 0.007812 0.000015 -0.001994 0.008005 0.048299
#
#
# Mechanical properties :
#
#
# Convention : Reuss Voigt Hill
#
# Bulk Modulus (GPa) = 22.31960 37.44924 29.88442
# Shear Modulus (GPa) = 27.41899 33.49580 30.45739
#
# Velocity S-wave (km/s) = 3.42202 3.78227 3.60664
# Velocity P-wave (km/s) = 5.01458 5.92183 5.48698
#
# Compressibility (1/GPa) = 0.04480367
#
# Stress axis : x y z
#
# Youngs Moduli (GPa) = 48.53907 78.63391 66.90035
#
# Poissons Ratio (x) = -0.20027 0.08582
# Poissons Ratio (y) = -0.12362 0.20040
# Poissons Ratio (z) = 0.06227 0.23555
#
# Static dielectric constant tensor:
#      x y z
#    x 1.969450 0.001260 -0.013160 
#    y 0.001260 1.901020 0.003000 
#    z -0.013160 0.003000 1.895370 
# 
# From -- ./inp_files/188719.got.cif
#   From: 2010.05.17/outbox.cif.g08.bks.cpg/sg2_95_cif.got.tgz:188719.got - 2010.06.03 11:33:40.
