data_PCOD9007916
_publ_section_title
;
Structure prediction by ZEFSAII (Michael W. Deem and Ramdas Pophale) SiO2 
 PCOD9007916
Probable space group: P -1
;
_chemical_formula_sum "Si O2"
_cell_formula_units_Z 16
_cell_length_a 26.579599
_cell_length_b 22.930269
_cell_length_c 6.785011
_cell_angle_alpha 134.111157
_cell_angle_beta 124.242719
_cell_angle_gamma 17.495494
_cell_volume 788.524655
_symmetry_space_group_name_H-M "P -1"
_symmetry_group_IT_number 2
_symmetry_cell_setting 'triclinic'
loop_
_space_group_symop_operation_xyz
x,y,z
-x,-y,-z
loop_
_atom_site_type_symbol
_atom_site_label
_atom_site_fract_x
_atom_site_fract_y
_atom_site_fract_z
Si Si1 0.246041 0.374012 0.869510
Si Si2 0.026607 0.560140 0.146799
Si Si3 0.128607 0.054655 0.734829
Si Si4 0.355579 0.864461 0.469425
Si Si5 0.661517 0.255170 0.149504
Si Si6 0.336710 0.248972 0.352345
Si Si7 0.678539 0.587856 0.559133
Si Si8 0.937600 0.986300 0.834855
O O1 0.361049 0.204238 0.531132
O O2 0.159734 0.410739 0.898656
O O3 0.342549 0.317231 0.094061
O O4 0.064327 0.652015 0.033264
O O5 0.138915 0.461886 0.340267
O O6 0.827088 0.855341 0.355502
O O7 0.000000 0.500000 0.000000
O O8 0.107653 0.995222 0.434721
O O9 0.287088 0.903962 0.606877
O O10 0.186085 0.970507 0.888051
O O11 0.524203 0.712976 0.526349
O O12 0.408071 0.730766 0.107720
O O13 0.500000 0.500000 0.500000
O O14 0.761217 0.192498 0.074329
O O15 0.340441 0.338855 0.513654
O O16 0.500000 0.000000 0.000000
O O17 0.887228 0.287719 0.339552
O O18 0.000000 0.000000 0.000000
#
# Coordination Sequence:
#
# PCOD9007916 Si02
#       8
#     2   2   2   2   2   2   2   2
#     4   9  20  40  62  85 120 164 201 250 308 361
#     4  10  21  39  63  91 122 158 205 253 310 367
#     4   9  20  40  61  84 118 161 205 246 308 361
#     4  10  22  40  62  89 125 161 200 261 308 364
#     4  11  24  39  61  90 123 164 206 253 314 373
#     4  11  22  39  63  89 126 161 203 255 304 370
#     4  10  22  39  61  89 120 161 208 256 307 363
#     4  10  23  40  62  84 124 162 203 260 304 363
#
# _framework density 20.291060000000002
#
# number of rings (size 3 to 8) (size 9 to 14) (size 15 to 20)
#    0.000    2.000    0.000    4.500    3.500    5.000 
#    2.250    3.750    0.000    0.000    0.000    0.000 
#    0.000    0.000    0.000    0.000    0.000    0.000 
#
# Total GULP energy -89435.699623 kJ/mol
# GULP energy per Si atom -5589.731226 kJ/mol
# Density = 2.024488 g / cm^3
# Si number density = 20.291060 Si / 1000 Ang^3
#
#
#
# Elastic Constant Matrix: (Units=GPa)
#
#
# Indices 1 2 3 4 5 6 
#
# 1 107.0344 9.2736 54.9092 -20.8968 9.3107 -17.8694
# 2 9.2736 52.5473 12.4282 -8.2253 -9.1077 -13.8089
# 3 54.9092 12.4282 113.2832 1.4440 -16.8833 -13.0385
# 4 -20.8968 -8.2253 1.4440 27.4172 7.3377 0.1121
# 5 9.3107 -9.1077 -16.8833 7.3377 27.5616 -5.7823
# 6 -17.8694 -13.8089 -13.0385 0.1121 -5.7823 42.6677
#
#
#
# Elastic Compliance Matrix: (Units=1/GPa)
#
#
# Indices 1 2 3 4 5 6 
#
# 1 0.025539 -0.000282 -0.016236 0.027029 -0.025416 0.002128
# 2 -0.000282 0.023541 -0.000295 0.004620 0.008251 0.008516
# 3 -0.016236 -0.000295 0.020902 -0.020029 0.024113 0.002813
# 4 0.027029 0.004620 -0.020029 0.069721 -0.038153 0.001341
# 5 -0.025416 0.008251 0.024113 -0.038153 0.074536 0.009596
# 6 0.002128 0.008516 0.002813 0.001341 0.009596 0.029241
#
#
# Mechanical properties :
#
#
# Convention : Reuss Voigt Hill
#
# Bulk Modulus (GPa) = 27.50486 47.34298 37.42392
# Shear Modulus (GPa) = 17.28756 32.61289 24.95023
#
# Velocity S-wave (km/s) = 2.92203 4.01341 3.51039
# Velocity P-wave (km/s) = 4.99690 6.69770 5.90881
#
# Compressibility (1/GPa) = 0.03635721
#
# Stress axis : x y z
#
# Youngs Moduli (GPa) = 39.15528 42.47859 47.84204
#
# Poissons Ratio (x) = 0.01199 0.77674
# Poissons Ratio (y) = 0.01105 0.01411
# Poissons Ratio (z) = 0.63571 0.01253
#
# Static dielectric constant tensor:
#      x y z
#    x 1.690840 0.028470 -0.003660 
#    y 0.028470 1.738680 0.035020 
#    z -0.003660 0.035020 1.729350 
# 
# From -- ./inp_files/48523.got.cif
#   From: 2010.05.17/outbox.cif.g08.bks.cpg/sg2_25_cif.got.tgz:48523.got - 2010.06.03 11:33:40.
