data_PCOD9007373
_publ_section_title
;
Structure prediction by ZEFSAII (Michael W. Deem and Ramdas Pophale) SiO2 
 PCOD9007373
Probable space group: P -1
;
_chemical_formula_sum "Si O2"
_cell_formula_units_Z 14
_cell_length_a 22.801185
_cell_length_b 17.061096
_cell_length_c 12.999498
_cell_angle_alpha 27.097230
_cell_angle_beta 146.175891
_cell_angle_gamma 163.572672
_cell_volume 640.816095
_symmetry_space_group_name_H-M "P -1"
_symmetry_group_IT_number 2
_symmetry_cell_setting 'triclinic'
loop_
_space_group_symop_operation_xyz
x,y,z
-x,-y,-z
loop_
_atom_site_type_symbol
_atom_site_label
_atom_site_fract_x
_atom_site_fract_y
_atom_site_fract_z
Si Si1 0.925264 0.317176 0.368496
Si Si2 0.822726 0.357169 0.842310
Si Si3 0.433512 0.334086 0.487230
Si Si4 0.822515 0.741465 0.457589
Si Si5 0.382715 0.594365 0.015138
Si Si6 0.967082 0.171281 0.975581
Si Si7 0.807226 0.861674 0.893122
O O1 0.087867 0.475841 0.336335
O O2 0.716004 0.040396 0.314262
O O3 0.861933 0.107770 0.617252
O O4 0.020406 0.627105 0.187856
O O5 0.772635 0.469845 0.687896
O O6 0.000000 0.500000 0.000000
O O7 0.603837 0.949941 0.975152
O O8 0.500000 0.500000 0.500000
O O9 0.629811 0.577474 0.415079
O O10 0.296970 0.302178 0.287466
O O11 0.000000 0.000000 0.500000
O O12 0.907511 0.949294 0.235280
O O13 0.201738 0.476237 0.912022
O O14 0.384780 0.523740 0.983879
O O15 0.804212 0.916054 0.942825
O O16 0.000000 0.000000 0.000000
#
# Coordination Sequence:
#
# PCOD9007373 Si02
#       7
#     2   2   2   2   2   2   2
#     4  11  22  39  62  90 124 163 205 251 302 363
#     4  12  24  40  62  92 126 163 205 252 304 363
#     4  11  22  39  61  88 121 159 201 251 307 365
#     4  12  24  40  62  91 122 160 204 253 307 365
#     4  10  21  39  61  90 123 161 203 250 304 360
#     4  11  22  41  64  91 124 161 204 254 305 362
#     4   9  20  40  63  88 122 163 204 253 304 356
#
# _framework density 21.847142999999999
#
# number of rings (size 3 to 8) (size 9 to 14) (size 15 to 20)
#    0.000    1.143    0.000    9.000    0.000    0.000 
#    0.000   18.571    0.000    0.000    0.000    0.000 
#    0.000    0.000    0.000    0.000    0.000    0.000 
#
# Total GULP energy -78023.824589 kJ/mol
# GULP energy per Si atom -5573.130328 kJ/mol
# Density = 2.179742 g / cm^3
# Si number density = 21.847143 Si / 1000 Ang^3
#
#
#
# Elastic Constant Matrix: (Units=GPa)
#
#
# Indices 1 2 3 4 5 6 
#
# 1 130.5327 50.1267 35.4140 -7.7072 9.4436 -27.8894
# 2 50.1267 105.7181 31.3564 -17.3633 8.6463 -35.0311
# 3 35.4140 31.3564 89.3124 -6.4110 5.5374 -20.9470
# 4 -7.7072 -17.3633 -6.4110 30.8309 -6.0926 1.5803
# 5 9.4436 8.6463 5.5374 -6.0926 43.0182 -3.3345
# 6 -27.8894 -35.0311 -20.9470 1.5803 -3.3345 51.4312
#
#
#
# Elastic Compliance Matrix: (Units=1/GPa)
#
#
# Indices 1 2 3 4 5 6 
#
# 1 0.010093 -0.003309 -0.002258 -0.000143 -0.001107 0.002232
# 2 -0.003309 0.015250 -0.001719 0.006904 -0.000547 0.007645
# 3 -0.002258 -0.001719 0.013515 0.001019 -0.000518 0.003044
# 4 -0.000143 0.006904 0.001019 0.037094 0.004089 0.004165
# 5 -0.001107 -0.000547 -0.000518 0.004089 0.024265 0.000264
# 6 0.002232 0.007645 0.003044 0.004165 0.000264 0.026990
#
#
# Mechanical properties :
#
#
# Convention : Reuss Voigt Hill
#
# Bulk Modulus (GPa) = 41.17977 62.15081 51.66529
# Shear Modulus (GPa) = 33.36116 38.96714 36.16415
#
# Velocity S-wave (km/s) = 3.91196 4.22788 4.07298
# Velocity P-wave (km/s) = 6.26853 7.23485 6.76896
#
# Compressibility (1/GPa) = 0.02428377
#
# Stress axis : x y z
#
# Youngs Moduli (GPa) = 99.07955 65.57377 73.99218
#
# Poissons Ratio (x) = 0.21700 0.16710
# Poissons Ratio (y) = 0.32787 0.12723
# Poissons Ratio (z) = 0.22376 0.11275
#
# Static dielectric constant tensor:
#      x y z
#    x 2.509210 0.110940 0.158740 
#    y 0.110940 1.921810 0.038120 
#    z 0.158740 0.038120 1.860700 
# 
# From -- ./inp_files/188130.got.cif
#   From: 2010.05.17/outbox.cif.g08.bks.cpg/sg2_95_cif.got.tgz:188130.got - 2010.06.03 11:33:40.
