data_PCOD9007303
_publ_section_title
;
Structure prediction by ZEFSAII (Michael W. Deem and Ramdas Pophale) SiO2 
 PCOD9007303
Probable space group: P -1
;
_chemical_formula_sum "Si O2"
_cell_formula_units_Z 16
_cell_length_a 23.233066
_cell_length_b 8.450316
_cell_length_c 11.755045
_cell_angle_alpha 141.735705
_cell_angle_beta 25.592176
_cell_angle_gamma 134.731182
_cell_volume 617.286047
_symmetry_space_group_name_H-M "P -1"
_symmetry_group_IT_number 2
_symmetry_cell_setting 'triclinic'
loop_
_space_group_symop_operation_xyz
x,y,z
-x,-y,-z
loop_
_atom_site_type_symbol
_atom_site_label
_atom_site_fract_x
_atom_site_fract_y
_atom_site_fract_z
Si Si1 0.315556 0.674595 0.868253
Si Si2 0.993648 0.137251 0.208803
Si Si3 0.046802 0.825539 0.148201
Si Si4 0.542557 0.679230 0.282833
Si Si5 0.637477 0.129233 0.863838
Si Si6 0.715719 0.887646 0.374728
Si Si7 0.658143 0.190091 0.449230
Si Si8 0.002048 0.353770 0.635117
O O1 0.417599 0.737266 0.622846
O O2 0.358506 0.378172 0.648133
O O3 0.330429 0.858626 0.053587
O O4 0.159561 0.661082 0.103447
O O5 0.946207 0.423019 0.416219
O O6 0.961911 0.945500 0.261079
O O7 0.152026 0.170433 0.965818
O O8 0.000000 0.000000 0.000000
O O9 0.982111 0.633373 0.248082
O O10 0.192825 0.719622 0.792414
O O11 0.066505 0.087037 0.331781
O O12 0.465146 0.643878 0.282459
O O13 0.634657 0.920922 0.273244
O O14 0.622817 0.424253 0.023929
O O15 0.738428 0.978243 0.514928
O O16 0.500000 0.000000 0.000000
O O17 0.646904 0.118267 0.560775
#
# Coordination Sequence:
#
# PCOD9007303 Si02
#       8
#     2   2   2   2   2   2   2   2
#     4  11  21  41  63  91 126 163 212 257 314 374
#     4  10  23  39  63  93 130 163 201 265 321 375
#     4  10  21  41  65  94 122 164 219 253 316 383
#     4  11  21  37  63  88 123 167 203 257 319 359
#     4  12  23  35  64  93 122 161 213 256 306 386
#     4  10  22  40  60  90 125 165 206 255 316 374
#     4  10  21  39  61  86 128 164 202 261 312 374
#     4  10  22  40  69  91 122 168 212 261 314 383
#
# _framework density 25.919912
#
# number of rings (size 3 to 8) (size 9 to 14) (size 15 to 20)
#    0.000    1.500    3.750    1.500    1.750    2.000 
#    0.000    0.000   11.000    0.000    0.000    0.000 
#    0.000    0.000    0.000    0.000    0.000    0.000 
#
# Total GULP energy -89318.547392 kJ/mol
# GULP energy per Si atom -5582.409212 kJ/mol
# Density = 2.586092 g / cm^3
# Si number density = 25.919912 Si / 1000 Ang^3
#
#
#
# Elastic Constant Matrix: (Units=GPa)
#
#
# Indices 1 2 3 4 5 6 
#
# 1 155.2787 35.7285 10.7572 -15.3291 18.9895 -21.2401
# 2 35.7285 49.2182 28.2666 12.4047 5.1347 -7.3151
# 3 10.7572 28.2666 78.2625 -13.0315 4.4284 11.7737
# 4 -15.3291 12.4047 -13.0315 22.2465 4.6327 3.9511
# 5 18.9895 5.1347 4.4284 4.6327 38.8331 -0.7284
# 6 -21.2401 -7.3151 11.7737 3.9511 -0.7284 37.1501
#
#
#
# Elastic Compliance Matrix: (Units=1/GPa)
#
#
# Indices 1 2 3 4 5 6 
#
# 1 0.022417 -0.049491 0.028567 0.065404 -0.015727 -0.013247
# 2 -0.049491 0.171548 -0.101040 -0.207779 0.038961 0.060367
# 3 0.028567 -0.101040 0.075277 0.132974 -0.025846 -0.042069
# 4 0.065404 -0.207779 0.132974 0.310050 -0.058158 -0.079777
# 5 -0.015727 0.038961 -0.025846 -0.058158 0.038435 0.013810
# 6 -0.013247 0.060367 -0.042069 -0.079777 0.013810 0.053319
#
#
# Mechanical properties :
#
#
# Convention : Reuss Voigt Hill
#
# Bulk Modulus (GPa) = 39.50520 48.02933 43.76726
# Shear Modulus (GPa) = 5.41471 33.51307 19.46389
#
# Velocity S-wave (km/s) = 1.44691 3.59966 2.74327
# Velocity P-wave (km/s) = 4.25038 5.98722 5.19195
#
# Compressibility (1/GPa) = 0.02531312
#
# Stress axis : x y z
#
# Youngs Moduli (GPa) = 44.60986 5.82928 13.28429
#
# Poissons Ratio (x) = 0.28850 -0.37949
# Poissons Ratio (y) = 2.20780 1.34224
# Poissons Ratio (z) = -1.27438 0.58899
#
# Static dielectric constant tensor:
#      x y z
#    x 2.246180 -0.004410 -0.159170 
#    y -0.004410 2.144780 -0.090860 
#    z -0.159170 -0.090860 2.203160 
# 
# From -- ./inp_files/272727.got.cif
#   From: 2010.05.17/outbox.cif.g08.bks.cpg/sg2_137_cif.got.tgz:272727.got - 2010.06.03 11:33:40.
