data_PCOD9007910
_publ_section_title
;
Structure prediction by ZEFSAII (Michael W. Deem and Ramdas Pophale) SiO2 
 PCOD9007910
Probable space group: P -1
;
_chemical_formula_sum "Si O2"
_cell_formula_units_Z 16
_cell_length_a 17.779897
_cell_length_b 11.946302
_cell_length_c 5.157391
_cell_angle_alpha 68.146563
_cell_angle_beta 98.396866
_cell_angle_gamma 128.590271
_cell_volume 789.079876
_symmetry_space_group_name_H-M "P -1"
_symmetry_group_IT_number 2
_symmetry_cell_setting 'triclinic'
loop_
_space_group_symop_operation_xyz
x,y,z
-x,-y,-z
loop_
_atom_site_type_symbol
_atom_site_label
_atom_site_fract_x
_atom_site_fract_y
_atom_site_fract_z
Si Si1 0.849775 0.137103 0.790237
Si Si2 0.664384 0.519784 0.858817
Si Si3 0.284163 0.182855 0.204332
Si Si4 0.910869 0.323687 0.145252
Si Si5 0.576933 0.876885 0.389687
Si Si6 0.460984 0.364959 0.801709
Si Si7 0.357135 0.652169 0.530972
Si Si8 0.714706 0.184651 0.934639
O O1 0.902904 0.258640 0.480363
O O2 0.749542 0.108845 0.833233
O O3 0.814047 0.972746 0.815029
O O4 0.908208 0.214783 0.019373
O O5 0.724461 0.702958 0.735086
O O6 0.554578 0.448141 0.959647
O O7 0.655687 0.453419 0.626831
O O8 0.693819 0.451704 0.149561
O O9 0.347721 0.141652 0.418540
O O10 0.355197 0.290056 0.914484
O O11 0.811483 0.298492 0.055337
O O12 0.000000 0.500000 0.000000
O O13 0.551268 0.779344 0.199694
O O14 0.470984 0.788484 0.534840
O O15 0.630008 0.052205 0.190570
O O16 0.500000 0.500000 0.500000
O O17 0.314110 0.732724 0.326726
#
# Coordination Sequence:
#
# PCOD9007910 Si02
#       8
#     2   2   2   2   2   2   2   2
#     4  10  22  36  62  87 114 140 180 244 298 337
#     4  11  24  34  53  77 113 159 204 233 274 320
#     4  12  19  35  54  81 114 148 199 247 282 316
#     4  10  21  39  63  91 113 136 180 239 306 353
#     4  11  20  35  53  80 116 157 198 239 281 316
#     4  11  19  32  49  76 110 154 203 244 278 309
#     4  11  25  37  51  80 119 169 197 223 269 340
#     4  10  23  38  58  83 120 147 193 231 288 353
#
# _framework density 20.276781
#
# number of rings (size 3 to 8) (size 9 to 14) (size 15 to 20)
#    0.750    0.500    5.000    2.625    1.750    0.000 
#    0.000    2.500    0.000    0.000    0.000    5.250 
#    0.000    0.000    0.000    0.000    0.000    0.000 
#
# Total GULP energy -89183.467774 kJ/mol
# GULP energy per Si atom -5573.966736 kJ/mol
# Density = 2.023063 g / cm^3
# Si number density = 20.276781 Si / 1000 Ang^3
#
#
#
# Elastic Constant Matrix: (Units=GPa)
#
#
# Indices 1 2 3 4 5 6 
#
# 1 8.7934 5.1778 -1.5748 -5.3227 6.1261 -1.7708
# 2 5.1778 90.3827 -4.3136 -11.1015 -8.4791 5.7417
# 3 -1.5748 -4.3136 80.0676 -2.2429 1.8086 -3.8164
# 4 -5.3227 -11.1015 -2.2429 28.5157 -1.7633 -1.7972
# 5 6.1261 -8.4791 1.8086 -1.7633 28.5922 -6.9305
# 6 -1.7708 5.7417 -3.8164 -1.7972 -6.9305 8.0862
#
#
#
# Elastic Compliance Matrix: (Units=1/GPa)
#
#
# Indices 1 2 3 4 5 6 
#
# 1 0.163230 -0.010310 0.005294 0.026568 -0.030610 0.025234
# 2 -0.010310 0.012883 0.000149 0.002958 0.004562 -0.006768
# 3 0.005294 0.000149 0.013048 0.002582 0.000165 0.007927
# 4 0.026568 0.002958 0.002582 0.042452 0.001418 0.015587
# 5 -0.030610 0.004562 0.000165 0.001418 0.051307 0.034424
# 6 0.025234 -0.006768 0.007927 0.015587 0.034424 0.170710
#
#
# Mechanical properties :
#
#
# Convention : Reuss Voigt Hill
#
# Bulk Modulus (GPa) = 5.57334 19.75805 12.66570
# Shear Modulus (GPa) = 9.55704 25.03578 17.29641
#
# Velocity S-wave (km/s) = 2.17337 3.51764 2.92381
# Velocity P-wave (km/s) = 3.00876 5.12482 4.20217
#
# Compressibility (1/GPa) = 0.17942560
#
# Stress axis : x y z
#
# Youngs Moduli (GPa) = 6.12632 77.62119 76.64004
#
# Poissons Ratio (x) = 0.80026 -0.40570
# Poissons Ratio (y) = 0.06316 -0.01138
# Poissons Ratio (z) = -0.03243 -0.01153
#
# Static dielectric constant tensor:
#      x y z
#    x 1.771750 -0.041690 -0.005750 
#    y -0.041690 1.762180 0.033340 
#    z -0.005750 0.033340 1.765120 
# 
# From -- ./inp_files/118073.got.cif
#   From: 2010.05.17/outbox.cif.g08.bks.cpg/sg2_60_cif.got.tgz:118073.got - 2010.06.03 11:33:40.
