data_PCOD9007497
_publ_section_title
;
Structure prediction by ZEFSAII (Michael W. Deem and Ramdas Pophale) SiO2 
 PCOD9007497
Probable space group: P -1
;
_chemical_formula_sum "Si O2"
_cell_formula_units_Z 16
_cell_length_a 14.313882
_cell_length_b 11.156759
_cell_length_c 19.745215
_cell_angle_alpha 147.722456
_cell_angle_beta 29.857937
_cell_angle_gamma 150.876952
_cell_volume 712.034826
_symmetry_space_group_name_H-M "P -1"
_symmetry_group_IT_number 2
_symmetry_cell_setting 'triclinic'
loop_
_space_group_symop_operation_xyz
x,y,z
-x,-y,-z
loop_
_atom_site_type_symbol
_atom_site_label
_atom_site_fract_x
_atom_site_fract_y
_atom_site_fract_z
Si Si1 0.945472 0.746171 0.957724
Si Si2 0.816628 0.868762 0.235395
Si Si3 0.803496 0.100541 0.909496
Si Si4 0.577988 0.648671 0.741774
Si Si5 0.795491 0.414038 0.188200
Si Si6 0.063823 0.661625 0.325647
Si Si7 0.135203 0.598194 0.530919
Si Si8 0.678434 0.742252 0.575348
O O1 0.849432 0.486831 0.846838
O O2 0.144948 0.740994 0.868319
O O3 0.809543 0.761332 0.113373
O O4 0.000000 0.000000 0.000000
O O5 0.656512 0.603987 0.250081
O O6 0.053383 0.986318 0.178148
O O7 0.756904 0.089306 0.381629
O O8 0.975904 0.317131 0.849724
O O9 0.604373 0.852137 0.878891
O O10 0.730994 0.234568 0.074852
O O11 0.699709 0.504372 0.623276
O O12 0.700001 0.804458 0.672199
O O13 0.586837 0.432675 0.352408
O O14 0.002111 0.522114 0.370819
O O15 0.844231 0.634642 0.415283
O O16 0.225282 0.974718 0.384560
O O17 0.000000 0.500000 0.500000
#
# Coordination Sequence:
#
# PCOD9007497 Si02
#       8
#     2   2   2   2   2   2   2   2
#     4  11  23  43  64  91 139 180 216 275 330 408
#     4  11  22  41  65  99 133 174 227 267 336 402
#     4  10  21  39  62 100 134 168 222 276 333 385
#     4  11  22  38  69  96 130 179 221 279 333 392
#     4  10  22  40  63  96 136 173 221 278 328 400
#     4  10  23  43  66  98 133 177 228 270 336 399
#     4  11  22  42  66  92 136 176 220 282 329 399
#     4  10  22  42  66  99 131 174 228 277 330 391
#
# _framework density 22.470811000000001
#
# number of rings (size 3 to 8) (size 9 to 14) (size 15 to 20)
#    0.000    1.500    3.750    1.125    1.750    1.000 
#    2.250    0.625    0.000    0.000    0.000    0.000 
#    0.000    0.000    0.000    0.000    0.000    0.000 
#
# Total GULP energy -89286.532280 kJ/mol
# GULP energy per Si atom -5580.408267 kJ/mol
# Density = 2.241967 g / cm^3
# Si number density = 22.470811 Si / 1000 Ang^3
#
#
#
# Elastic Constant Matrix: (Units=GPa)
#
#
# Indices 1 2 3 4 5 6 
#
# 1 73.3011 18.5873 13.3411 12.0158 -7.2198 -15.0698
# 2 18.5873 80.6382 21.2850 14.8852 8.8380 -12.7685
# 3 13.3411 21.2850 111.3990 16.7765 -1.6488 -4.4569
# 4 12.0158 14.8852 16.7765 30.3626 7.1221 -5.0939
# 5 -7.2198 8.8380 -1.6488 7.1221 32.6579 8.0187
# 6 -15.0698 -12.7685 -4.4569 -5.0939 8.0187 32.3318
#
#
#
# Elastic Compliance Matrix: (Units=1/GPa)
#
#
# Indices 1 2 3 4 5 6 
#
# 1 0.016632 -0.002433 -0.000468 -0.005327 0.004289 0.004824
# 2 -0.002433 0.015605 -0.002047 -0.003326 -0.005512 0.005590
# 3 -0.000468 -0.002047 0.010196 -0.005164 0.002341 -0.001015
# 4 -0.005327 -0.003326 -0.005164 0.042986 -0.011148 0.005029
# 5 0.004289 -0.005512 0.002341 -0.011148 0.038340 -0.011120
# 6 0.004824 0.005590 -0.001015 0.005029 -0.011120 0.038795
#
#
# Mechanical properties :
#
#
# Convention : Reuss Voigt Hill
#
# Bulk Modulus (GPa) = 30.73544 41.30722 36.02133
# Shear Modulus (GPa) = 27.27823 33.21214 30.24519
#
# Velocity S-wave (km/s) = 3.48794 3.84866 3.67274
# Velocity P-wave (km/s) = 5.47071 6.17836 5.83527
#
# Compressibility (1/GPa) = 0.03253573
#
# Stress axis : x y z
#
# Youngs Moduli (GPa) = 60.12522 64.08051 98.08041
#
# Poissons Ratio (x) = 0.15591 0.04592
# Poissons Ratio (y) = 0.14629 0.20081
# Poissons Ratio (z) = 0.02815 0.13120
#
# Static dielectric constant tensor:
#      x y z
#    x 1.867060 0.032530 -0.002590 
#    y 0.032530 1.866680 -0.044930 
#    z -0.002590 -0.044930 1.856730 
# 
# From -- ./inp_files/598034.got.cif
#   From: 2010.05.17/outbox.cif.g08.bks.cpg/sg2_300_cif.got.tgz:598034.got - 2010.06.03 11:33:40.
