data_PCOD9007157
_publ_section_title
;
Structure prediction by ZEFSAII (Michael W. Deem and Ramdas Pophale) SiO2 
 PCOD9007157
Probable space group: P -1
;
_chemical_formula_sum "Si O2"
_cell_formula_units_Z 16
_cell_length_a 20.124559
_cell_length_b 6.644545
_cell_length_c 9.751205
_cell_angle_alpha 50.709182
_cell_angle_beta 129.213070
_cell_angle_gamma 101.730521
_cell_volume 738.477209
_symmetry_space_group_name_H-M "P -1"
_symmetry_group_IT_number 2
_symmetry_cell_setting 'triclinic'
loop_
_space_group_symop_operation_xyz
x,y,z
-x,-y,-z
loop_
_atom_site_type_symbol
_atom_site_label
_atom_site_fract_x
_atom_site_fract_y
_atom_site_fract_z
Si Si1 0.439543 0.812214 0.774643
Si Si2 0.567260 0.126099 0.870543
Si Si3 0.759948 0.137290 0.491098
Si Si4 0.232958 0.239855 0.762603
Si Si5 0.233371 0.905324 0.176391
Si Si6 0.433795 0.688849 0.522619
Si Si7 0.905733 0.798405 0.617443
Si Si8 0.958625 0.163657 0.017590
O O1 0.342198 0.829334 0.694659
O O2 0.432468 0.872321 0.575420
O O3 0.491473 0.981570 0.849064
O O4 0.500000 0.500000 0.000000
O O5 0.522839 0.418948 0.759398
O O6 0.564350 0.186447 0.677344
O O7 0.671079 0.933817 0.110000
O O8 0.774762 0.436838 0.390601
O O9 0.774828 0.996005 0.720384
O O10 0.825527 0.935749 0.558944
O O11 0.148369 0.175082 0.608204
O O12 0.236646 0.127661 0.971297
O O13 0.331904 0.660913 0.405374
O O14 0.142033 0.830506 0.075811
O O15 0.980559 0.921277 0.727356
O O16 0.949744 0.473165 0.832813
O O17 0.000000 0.000000 0.000000
#
# Coordination Sequence:
#
# PCOD9007157 Si02
#       8
#     2   2   2   2   2   2   2   2
#     4  11  22  34  59  89 122 172 209 248 312 367
#     4  10  21  39  60  87 131 169 210 259 309 364
#     4  11  23  44  61  95 135 166 216 268 313 382
#     4  11  23  42  64  97 133 168 214 268 311 378
#     4  10  22  44  67  90 132 172 206 267 328 371
#     4   9  22  39  58  91 126 166 213 261 303 377
#     4  11  24  41  71  95 125 169 210 269 324 382
#     4  11  22  45  72  94 129 165 208 268 332 384
#
# _framework density 21.666205000000001
#
# number of rings (size 3 to 8) (size 9 to 14) (size 15 to 20)
#    0.000    1.500    3.750    0.375    3.500    1.000 
#    2.250    2.500    0.000    0.000    0.000    0.000 
#    0.000    0.000    0.000    0.000    0.000    0.000 
#
# Total GULP energy -89136.004745 kJ/mol
# GULP energy per Si atom -5571.000297 kJ/mol
# Density = 2.161689 g / cm^3
# Si number density = 21.666205 Si / 1000 Ang^3
#
#
#
# Elastic Constant Matrix: (Units=GPa)
#
#
# Indices 1 2 3 4 5 6 
#
# 1 70.3720 26.3655 16.1783 10.7985 7.1699 -3.9115
# 2 26.3655 72.5164 21.4098 3.1655 -1.8480 -15.5989
# 3 16.1783 21.4098 83.2846 14.2282 -1.5695 -9.8015
# 4 10.7985 3.1655 14.2282 19.2139 -4.4964 14.1557
# 5 7.1699 -1.8480 -1.5695 -4.4964 43.6432 9.1149
# 6 -3.9115 -15.5989 -9.8015 14.1557 9.1149 31.3466
#
#
#
# Elastic Compliance Matrix: (Units=1/GPa)
#
#
# Indices 1 2 3 4 5 6 
#
# 1 0.021788 -0.003814 0.004359 -0.032073 -0.011040 0.019878
# 2 -0.003814 0.019205 0.000041 -0.013905 -0.003409 0.016364
# 3 0.004359 0.000041 0.021888 -0.043319 -0.010671 0.030073
# 4 -0.032073 -0.013905 -0.043319 0.220537 0.055099 -0.140080
# 5 -0.011040 -0.003409 -0.010671 0.055099 0.038765 -0.042565
# 6 0.019878 0.016364 0.030073 -0.140080 -0.042565 0.127563
#
#
# Mechanical properties :
#
#
# Convention : Reuss Voigt Hill
#
# Bulk Modulus (GPa) = 15.61217 39.34224 27.47721
# Shear Modulus (GPa) = 10.63996 29.65537 20.14766
#
# Velocity S-wave (km/s) = 2.21845 3.70366 3.05275
# Velocity P-wave (km/s) = 3.71261 6.04047 5.01352
#
# Compressibility (1/GPa) = 0.06405258
#
# Stress axis : x y z
#
# Youngs Moduli (GPa) = 45.89592 52.07043 45.68620
#
# Poissons Ratio (x) = 0.19860 -0.19913
# Poissons Ratio (y) = 0.17505 -0.00187
# Poissons Ratio (z) = -0.20004 -0.00214
#
# Static dielectric constant tensor:
#      x y z
#    x 1.796070 0.015850 0.006930 
#    y 0.015850 1.783800 0.061860 
#    z 0.006930 0.061860 1.868330 
# 
# From -- ./inp_files/340178.got.cif
#   From: 2010.05.17/outbox.cif.g08.bks.cpg/sg2_171_cif.got.tgz:340178.got - 2010.06.03 11:33:40.
