data_PCOD9007599
_publ_section_title
;
Structure prediction by ZEFSAII (Michael W. Deem and Ramdas Pophale) SiO2 
 PCOD9007599
Probable space group: P -1
;
_chemical_formula_sum "Si O2"
_cell_formula_units_Z 16
_cell_length_a 14.445628
_cell_length_b 14.889266
_cell_length_c 10.671803
_cell_angle_alpha 59.712867
_cell_angle_beta 137.091341
_cell_angle_gamma 148.522923
_cell_volume 767.834181
_symmetry_space_group_name_H-M "P -1"
_symmetry_group_IT_number 2
_symmetry_cell_setting 'triclinic'
loop_
_space_group_symop_operation_xyz
x,y,z
-x,-y,-z
loop_
_atom_site_type_symbol
_atom_site_label
_atom_site_fract_x
_atom_site_fract_y
_atom_site_fract_z
Si Si1 0.609548 0.464095 0.296680
Si Si2 0.750375 0.880311 0.934794
Si Si3 0.230383 0.142331 0.542105
Si Si4 0.582404 0.956842 0.529053
Si Si5 0.002458 0.854280 0.312714
Si Si6 0.163952 0.565051 0.286250
Si Si7 0.246587 0.549829 0.093872
Si Si8 0.812503 0.728870 0.796230
O O1 0.501125 0.342097 0.149635
O O2 0.768812 0.663183 0.281610
O O3 0.774931 0.486803 0.518899
O O4 0.383560 0.350448 0.242755
O O5 0.656101 0.904051 0.723474
O O6 0.922463 0.885746 0.103835
O O7 0.918986 0.057151 0.066346
O O8 0.468333 0.260687 0.767581
O O9 0.266222 0.275044 0.414001
O O10 0.000000 0.000000 0.500000
O O11 0.168119 0.022844 0.453564
O O12 0.367907 0.781670 0.352657
O O13 0.500000 0.000000 0.500000
O O14 0.830900 0.133286 0.580104
O O15 0.185933 0.530080 0.194494
O O16 0.911512 0.463846 0.123612
O O17 0.182204 0.391531 0.106042
#
# Coordination Sequence:
#
# PCOD9007599 Si02
#       8
#     2   2   2   2   2   2   2   2
#     4  11  21  39  63  89 124 159 200 254 310 355
#     4  10  21  39  62  89 122 155 201 255 301 360
#     4  11  22  38  62  93 125 157 205 257 295 358
#     4  11  21  41  64  88 120 163 201 247 312 364
#     4  11  22  38  60  94 121 156 204 253 309 355
#     4  10  22  39  60  86 121 165 197 249 299 366
#     4  11  21  39  60  87 123 161 206 241 302 360
#     4  11  21  37  62  91 116 162 206 247 306 358
#
# _framework density 20.837833
#
# number of rings (size 3 to 8) (size 9 to 14) (size 15 to 20)
#    0.000    1.250    2.500    6.000    1.750    0.000 
#    0.000   10.625    0.000    0.000    0.000    0.000 
#    0.000    0.000    0.000    0.000    0.000    0.000 
#
# Total GULP energy -89137.271964 kJ/mol
# GULP energy per Si atom -5571.079498 kJ/mol
# Density = 2.079041 g / cm^3
# Si number density = 20.837833 Si / 1000 Ang^3
#
#
#
# Elastic Constant Matrix: (Units=GPa)
#
#
# Indices 1 2 3 4 5 6 
#
# 1 70.9623 21.6159 36.4793 -8.4477 21.5736 -5.6712
# 2 21.6159 69.1607 28.9769 -2.0421 8.6189 -11.1381
# 3 36.4793 28.9769 144.6845 2.3691 19.6834 -11.1151
# 4 -8.4477 -2.0421 2.3691 23.6468 -4.5642 -0.8650
# 5 21.5736 8.6189 19.6834 -4.5642 24.7604 1.8477
# 6 -5.6712 -11.1381 -11.1151 -0.8650 1.8477 29.2529
#
#
#
# Elastic Compliance Matrix: (Units=1/GPa)
#
#
# Indices 1 2 3 4 5 6 
#
# 1 0.021881 -0.003186 -0.002659 0.004997 -0.015154 0.003124
# 2 -0.003186 0.017427 -0.002002 0.000373 -0.002033 0.005397
# 3 -0.002659 -0.002002 0.008847 -0.002835 -0.004713 0.002298
# 4 0.004997 0.000373 -0.002835 0.045605 0.006102 0.000997
# 5 -0.015154 -0.002033 -0.004713 0.006102 0.059849 -0.009103
# 6 0.003124 0.005397 0.002298 0.000997 -0.009103 0.038322
#
#
# Mechanical properties :
#
#
# Convention : Reuss Voigt Hill
#
# Bulk Modulus (GPa) = 30.80555 50.99461 40.90008
# Shear Modulus (GPa) = 22.88907 28.71439 25.80173
#
# Velocity S-wave (km/s) = 3.31786 3.71616 3.52265
# Velocity P-wave (km/s) = 5.43076 6.55274 6.01796
#
# Compressibility (1/GPa) = 0.03246168
#
# Stress axis : x y z
#
# Youngs Moduli (GPa) = 45.70210 57.38235 113.03094
#
# Poissons Ratio (x) = 0.18279 0.30056
# Poissons Ratio (y) = 0.14559 0.22628
# Poissons Ratio (z) = 0.12153 0.11488
#
# Static dielectric constant tensor:
#      x y z
#    x 1.780630 0.010750 -0.020140 
#    y 0.010750 1.751950 0.029930 
#    z -0.020140 0.029930 1.758650 
# 
# From -- ./inp_files/382228.got.cif
#   From: 2010.05.17/outbox.cif.g08.bks.cpg/sg2_192_cif.got.tgz:382228.got - 2010.06.03 11:33:40.
