data_PCOD9007996
_publ_section_title
;
Structure prediction by ZEFSAII (Michael W. Deem and Ramdas Pophale) SiO2 
 PCOD9007996
Probable space group: P -1
;
_chemical_formula_sum "Si O2"
_cell_formula_units_Z 15
_cell_length_a 9.580240
_cell_length_b 9.998821
_cell_length_c 9.621488
_cell_angle_alpha 115.853125
_cell_angle_beta 119.423037
_cell_angle_gamma 45.823835
_cell_volume 569.233281
_symmetry_space_group_name_H-M "P -1"
_symmetry_group_IT_number 2
_symmetry_cell_setting 'triclinic'
loop_
_space_group_symop_operation_xyz
x,y,z
-x,-y,-z
loop_
_atom_site_type_symbol
_atom_site_label
_atom_site_fract_x
_atom_site_fract_y
_atom_site_fract_z
Si Si1 0.712031 0.327178 0.210394
Si Si2 0.000000 0.000000 0.000000
Si Si3 0.853994 0.869380 0.009100
Si Si4 0.791445 0.066596 0.356153
Si Si5 0.862581 0.530252 0.759883
Si Si6 0.709784 0.378651 0.832272
Si Si7 0.500759 0.782744 0.485799
Si Si8 0.191629 0.385252 0.644870
O O1 0.702173 0.270684 0.338657
O O2 0.476981 0.434335 0.098963
O O3 0.745546 0.478585 0.257497
O O4 0.911492 0.135407 0.161925
O O5 0.778672 0.014654 0.912980
O O6 0.095250 0.787284 0.057810
O O7 0.797289 0.955176 0.173385
O O8 0.837911 0.706504 0.897506
O O9 0.655194 0.068677 0.408394
O O10 0.000000 0.000000 0.500000
O O11 0.817788 0.430253 0.804524
O O12 0.689474 0.618948 0.599015
O O13 0.086716 0.392243 0.738999
O O14 0.620120 0.289249 0.668945
O O15 0.618933 0.797285 0.424949
O O16 0.000000 0.500000 0.500000
#
# Coordination Sequence:
#
# PCOD9007996 Si02
#       8
#     2   1   2   2   2   2   2   2
#     4  10  21  40  63  90 123 173 215 257 315 385
#     4  10  22  44  58  90 130 176 204 256 330 378
#     4  11  24  40  67  93 132 168 212 269 318 376
#     4  11  22  39  64  94 126 169 215 259 314 384
#     4  11  21  40  63  99 130 161 214 272 321 370
#     4  11  22  39  67  98 120 168 221 259 319 379
#     4  10  21  39  63  93 127 173 214 254 314 395
#     4   9  20  34  62  89 124 164 204 261 317 365
#
# _framework density 26.351234999999999
#
# number of rings (size 3 to 8) (size 9 to 14) (size 15 to 20)
#    0.000    1.600    4.000    0.800    3.733    1.067 
#    0.000    0.000    0.000   12.800    0.000    0.000 
#    0.000    0.000    0.000    0.000    0.000    0.000 
#
# Total GULP energy -83611.356658 kJ/mol
# GULP energy per Si atom -5574.090444 kJ/mol
# Density = 2.629126 g / cm^3
# Si number density = 26.351235 Si / 1000 Ang^3
#
#
#
# Elastic Constant Matrix: (Units=GPa)
#
#
# Indices 1 2 3 4 5 6 
#
# 1 243.8696 49.5314 53.9319 12.3260 -28.2956 1.4542
# 2 49.5314 91.2304 25.9271 5.7997 -5.2001 -5.7703
# 3 53.9319 25.9271 100.5183 3.2133 -4.7595 4.3623
# 4 12.3260 5.7997 3.2133 43.4490 -17.0829 -18.6517
# 5 -28.2956 -5.2001 -4.7595 -17.0829 34.0897 -1.9660
# 6 1.4542 -5.7703 4.3623 -18.6517 -1.9660 42.2240
#
#
#
# Elastic Compliance Matrix: (Units=1/GPa)
#
#
# Indices 1 2 3 4 5 6 
#
# 1 0.005485 -0.002130 -0.002224 0.000679 0.004272 0.000249
# 2 -0.002130 0.012894 -0.002270 -0.000101 -0.000052 0.002023
# 3 -0.002224 -0.002270 0.011799 -0.001389 -0.001364 -0.002130
# 4 0.000679 -0.000101 -0.001389 0.039063 0.020987 0.018339
# 5 0.004272 -0.000052 -0.001364 0.020987 0.043850 0.011299
# 6 0.000249 0.002023 -0.002130 0.018339 0.011299 0.032798
#
#
# Mechanical properties :
#
#
# Convention : Reuss Voigt Hill
#
# Bulk Modulus (GPa) = 59.06312 77.15545 68.10928
# Shear Modulus (GPa) = 30.34339 44.36775 37.35557
#
# Velocity S-wave (km/s) = 3.39705 4.10775 3.76919
# Velocity P-wave (km/s) = 6.15216 7.20009 6.69666
#
# Compressibility (1/GPa) = 0.01693104
#
# Stress axis : x y z
#
# Youngs Moduli (GPa) = 182.32432 77.55445 84.75056
#
# Poissons Ratio (x) = 0.16518 0.18846
# Poissons Ratio (y) = 0.38832 0.19240
# Poissons Ratio (z) = 0.40542 0.17606
#
# Static dielectric constant tensor:
#      x y z
#    x 2.167640 -0.104630 0.054560 
#    y -0.104630 2.495330 -0.028520 
#    z 0.054560 -0.028520 2.222670 
# 
# From -- ./inp_files/391151.got.cif
#   From: 2010.05.17/outbox.cif.g08.bks.cpg/sg2_196_cif.got.tgz:391151.got - 2010.06.03 11:33:40.
