data_PCOD9007912
_publ_section_title
;
Structure prediction by ZEFSAII (Michael W. Deem and Ramdas Pophale) SiO2 
 PCOD9007912
Probable space group: P -1
;
_chemical_formula_sum "Si O2"
_cell_formula_units_Z 14
_cell_length_a 8.893966
_cell_length_b 15.010118
_cell_length_c 17.523352
_cell_angle_alpha 156.047018
_cell_angle_beta 138.127804
_cell_angle_gamma 38.664737
_cell_volume 588.900024
_symmetry_space_group_name_H-M "P -1"
_symmetry_group_IT_number 2
_symmetry_cell_setting 'triclinic'
loop_
_space_group_symop_operation_xyz
x,y,z
-x,-y,-z
loop_
_atom_site_type_symbol
_atom_site_label
_atom_site_fract_x
_atom_site_fract_y
_atom_site_fract_z
Si Si1 0.571640 0.695285 0.965652
Si Si2 0.825132 0.915327 0.661866
Si Si3 0.020662 0.492078 0.314203
Si Si4 0.121213 0.601734 0.274981
Si Si5 0.536208 0.375032 0.833873
Si Si6 0.951099 0.278047 0.265003
Si Si7 0.635141 0.024110 0.370670
O O1 0.786717 0.601384 0.912624
O O2 0.625944 0.502043 0.901881
O O3 0.323294 0.699744 0.836082
O O4 0.556458 0.927176 0.187935
O O5 0.040110 0.705498 0.538484
O O6 0.930465 0.942167 0.805589
O O7 0.730779 0.120609 0.725958
O O8 0.577243 0.889919 0.579206
O O9 0.731857 0.599618 0.271853
O O10 0.143319 0.477455 0.268031
O O11 0.061838 0.282970 0.226685
O O12 0.854005 0.799493 0.313098
O O13 0.283946 0.761232 0.451906
O O14 0.500000 0.500000 0.000000
O O15 0.000000 0.500000 0.500000
#
# Coordination Sequence:
#
# PCOD9007912 Si02
#       7
#     2   2   2   2   2   2   2
#     4  11  23  42  63  92 132 160 208 257 311 372
#     4  11  21  40  63  92 120 153 216 255 305 363
#     4  10  21  39  63  91 119 162 205 255 312 365
#     4  11  23  39  63  93 131 164 202 253 316 376
#     4  11  20  36  62  95 119 154 209 262 305 356
#     4   9  21  41  66  90 119 166 207 260 310 360
#     4  11  23  38  62  96 124 165 204 255 317 362
#
# _framework density 23.773133000000001
#
# number of rings (size 3 to 8) (size 9 to 14) (size 15 to 20)
#    0.000    1.429    2.857    3.429    4.000    0.571 
#    0.000    6.429    0.000    4.286    0.000    0.000 
#    0.000    0.000    0.000    0.000    0.000    0.000 
#
# Total GULP energy -78183.722073 kJ/mol
# GULP energy per Si atom -5584.551577 kJ/mol
# Density = 2.371902 g / cm^3
# Si number density = 23.773133 Si / 1000 Ang^3
#
#
#
# Elastic Constant Matrix: (Units=GPa)
#
#
# Indices 1 2 3 4 5 6 
#
# 1 108.3563 13.8645 10.8333 -13.4737 -35.1354 10.7155
# 2 13.8645 96.0420 -6.9848 -27.4570 2.7394 18.0617
# 3 10.8333 -6.9848 90.0133 -14.2284 -10.7682 -7.4222
# 4 -13.4737 -27.4570 -14.2284 24.8538 -2.9976 -10.3112
# 5 -35.1354 2.7394 -10.7682 -2.9976 40.4661 -7.0006
# 6 10.7155 18.0617 -7.4222 -10.3112 -7.0006 31.7166
#
#
#
# Elastic Compliance Matrix: (Units=1/GPa)
#
#
# Indices 1 2 3 4 5 6 
#
# 1 0.015270 0.000945 0.002462 0.013710 0.015336 0.002721
# 2 0.000945 0.017057 0.004849 0.021894 0.002360 -0.001259
# 3 0.002462 0.004849 0.016363 0.020955 0.009290 0.009099
# 4 0.013710 0.021894 0.020955 0.097870 0.027700 0.025735
# 5 0.015336 0.002360 0.009290 0.027700 0.044912 0.014567
# 6 0.002721 -0.001259 0.009099 0.025735 0.014567 0.045038
#
#
# Mechanical properties :
#
#
# Convention : Reuss Voigt Hill
#
# Bulk Modulus (GPa) = 15.33671 36.64861 25.99266
# Shear Modulus (GPa) = 20.68389 37.85387 29.26888
#
# Velocity S-wave (km/s) = 2.95287 3.99469 3.51262
# Velocity P-wave (km/s) = 4.25337 6.06021 5.23533
#
# Compressibility (1/GPa) = 0.06520303
#
# Stress axis : x y z
#
# Youngs Moduli (GPa) = 65.48612 58.62647 61.11175
#
# Poissons Ratio (x) = -0.05540 -0.15044
# Poissons Ratio (y) = -0.06189 -0.29635
# Poissons Ratio (z) = -0.16121 -0.28429
#
# Static dielectric constant tensor:
#      x y z
#    x 1.869470 0.023340 -0.001470 
#    y 0.023340 2.021700 0.000730 
#    z -0.001470 0.000730 2.095250 
# 
# From -- ./inp_files/177639.got.cif
#   From: 2010.05.17/outbox.cif.g08.bks.cpg/sg2_89_cif.got.tgz:177639.got - 2010.06.03 11:33:40.
