data_PCOD9007068
_publ_section_title
;
Structure prediction by ZEFSAII (Michael W. Deem and Ramdas Pophale) SiO2 
 PCOD9007068
Probable space group: P -1
;
_chemical_formula_sum "Si O2"
_cell_formula_units_Z 16
_cell_length_a 16.005801
_cell_length_b 15.534765
_cell_length_c 9.071164
_cell_angle_alpha 135.105423
_cell_angle_beta 119.655059
_cell_angle_gamma 27.305298
_cell_volume 664.084242
_symmetry_space_group_name_H-M "P -1"
_symmetry_group_IT_number 2
_symmetry_cell_setting 'triclinic'
loop_
_space_group_symop_operation_xyz
x,y,z
-x,-y,-z
loop_
_atom_site_type_symbol
_atom_site_label
_atom_site_fract_x
_atom_site_fract_y
_atom_site_fract_z
Si Si1 0.909071 0.712247 0.273490
Si Si2 0.818094 0.965677 0.764645
Si Si3 0.409532 0.453102 0.824733
Si Si4 0.830292 0.921302 0.177498
Si Si5 0.527543 0.892280 0.544002
Si Si6 0.577305 0.520611 0.478761
Si Si7 0.019795 0.035805 0.850781
Si Si8 0.812080 0.763937 0.738917
O O1 0.957918 0.728002 0.489536
O O2 0.895305 0.839419 0.301517
O O3 0.688854 0.906223 0.348591
O O4 0.000000 0.500000 0.000000
O O5 0.617090 0.230081 0.824733
O O6 0.924715 0.955103 0.935948
O O7 0.742943 0.955786 0.813386
O O8 0.358486 0.363866 0.677733
O O9 0.441408 0.464101 0.698210
O O10 0.214403 0.730380 0.065267
O O11 0.587677 0.193616 0.283215
O O12 0.929334 0.923755 0.183786
O O13 0.892221 0.729226 0.916965
O O14 0.640874 0.855030 0.708734
O O15 0.500000 0.000000 0.500000
O O16 0.500000 0.500000 0.500000
O O17 0.817413 0.252357 0.381000
O O18 0.000000 0.500000 0.500000
#
# Coordination Sequence:
#
# PCOD9007068 Si02
#       8
#     2   2   2   2   2   2   2   2
#     4  11  22  36  58  88 134 164 203 252 320 368
#     4  10  21  40  61  96 124 163 215 257 303 382
#     4  11  21  40  67  93 124 161 221 254 307 385
#     4  10  21  39  59  91 129 165 199 265 318 366
#     4  11  21  37  61  89 126 166 202 254 306 376
#     4  10  21  43  64  90 126 165 204 274 335 347
#     4  10  23  39  72  87 118 171 218 259 317 374
#     4  11  21  37  63  93 128 169 213 246 308 389
#
# _framework density 24.093330999999999
#
# number of rings (size 3 to 8) (size 9 to 14) (size 15 to 20)
#    0.000    1.500    5.000    2.625    1.750    1.000 
#    2.250    0.000    2.750    8.250    0.000    0.000 
#    0.000    0.000    0.000    0.000    0.000    0.000 
#
# Total GULP energy -89282.591475 kJ/mol
# GULP energy per Si atom -5580.161967 kJ/mol
# Density = 2.403849 g / cm^3
# Si number density = 24.093331 Si / 1000 Ang^3
#
#
#
# Elastic Constant Matrix: (Units=GPa)
#
#
# Indices 1 2 3 4 5 6 
#
# 1 106.4033 36.7535 14.3345 -10.4766 -3.9042 10.2687
# 2 36.7535 100.0402 12.0063 -2.4145 -16.3698 29.6426
# 3 14.3345 12.0063 105.2974 17.9824 -23.6637 5.9785
# 4 -10.4766 -2.4145 17.9824 42.6934 -1.4907 -12.1096
# 5 -3.9042 -16.3698 -23.6637 -1.4907 36.0333 -9.9804
# 6 10.2687 29.6426 5.9785 -12.1096 -9.9804 35.0480
#
#
#
# Elastic Compliance Matrix: (Units=1/GPa)
#
#
# Indices 1 2 3 4 5 6 
#
# 1 0.011451 -0.004669 -0.002169 0.003930 -0.001627 0.001858
# 2 -0.004669 0.015814 0.001095 -0.004144 0.003748 -0.012559
# 3 -0.002169 0.001095 0.012566 -0.006181 0.007592 -0.002408
# 4 0.003930 -0.004144 -0.006181 0.030684 -0.000397 0.013896
# 5 -0.001627 0.003748 0.007592 -0.000397 0.035940 0.006109
# 6 0.001858 -0.012559 -0.002408 0.013896 0.006109 0.045562
#
#
# Mechanical properties :
#
#
# Convention : Reuss Voigt Hill
#
# Bulk Modulus (GPa) = 35.27731 48.65884 41.96807
# Shear Modulus (GPa) = 28.91027 39.33137 34.12082
#
# Velocity S-wave (km/s) = 3.46776 4.04475 3.76732
# Velocity P-wave (km/s) = 5.54144 6.48484 6.03161
#
# Compressibility (1/GPa) = 0.02834684
#
# Stress axis : x y z
#
# Youngs Moduli (GPa) = 87.32950 63.23434 79.58167
#
# Poissons Ratio (x) = 0.29521 0.17260
# Poissons Ratio (y) = 0.40770 -0.08717
# Poissons Ratio (z) = 0.18940 -0.06927
#
# Static dielectric constant tensor:
#      x y z
#    x 1.919260 -0.022400 0.064970 
#    y -0.022400 1.831400 0.003820 
#    z 0.064970 0.003820 2.008740 
# 
# From -- ./inp_files/318853.got.cif
#   From: 2010.05.17/outbox.cif.g08.bks.cpg/sg2_160_cif.got.tgz:318853.got - 2010.06.03 11:33:40.
