data_PCOD9007472
_publ_section_title
;
Structure prediction by ZEFSAII (Michael W. Deem and Ramdas Pophale) SiO2 
 PCOD9007472
Probable space group: P -1
;
_chemical_formula_sum "Si O2"
_cell_formula_units_Z 15
_cell_length_a 9.676073
_cell_length_b 9.070768
_cell_length_c 14.025615
_cell_angle_alpha 51.659435
_cell_angle_beta 59.609356
_cell_angle_gamma 102.332458
_cell_volume 521.674329
_symmetry_space_group_name_H-M "P -1"
_symmetry_group_IT_number 2
_symmetry_cell_setting 'triclinic'
loop_
_space_group_symop_operation_xyz
x,y,z
-x,-y,-z
loop_
_atom_site_type_symbol
_atom_site_label
_atom_site_fract_x
_atom_site_fract_y
_atom_site_fract_z
Si Si1 0.000000 0.000000 0.500000
Si Si2 0.506173 0.793707 0.304115
Si Si3 0.677405 0.922098 0.983068
Si Si4 0.952319 0.403383 0.445998
Si Si5 0.599567 0.812779 0.574370
Si Si6 0.835381 0.868290 0.277034
Si Si7 0.919000 0.463661 0.152164
Si Si8 0.750109 0.477466 0.857101
O O1 0.290815 0.208981 0.368932
O O2 0.167255 0.244458 0.247099
O O3 0.342820 0.826192 0.375667
O O4 0.781746 0.983204 0.172065
O O5 0.323620 0.469505 0.548140
O O6 0.510010 0.762344 0.201768
O O7 0.514228 0.791996 0.996374
O O8 0.851356 0.266481 0.799223
O O9 0.877245 0.938518 0.898382
O O10 0.000000 0.500000 0.500000
O O11 0.046240 0.302944 0.397924
O O12 0.714338 0.833301 0.429259
O O13 0.295418 0.567095 0.767017
O O14 0.733737 0.138965 0.398481
O O15 0.169510 0.618360 0.063559
O O16 0.000000 0.500000 0.000000
#
# Coordination Sequence:
#
# PCOD9007472 Si02
#       8
#     1   2   2   2   2   2   2   2
#     4  10  24  42  72  90 130 176 218 274 328 378
#     4  10  21  39  61  95 133 170 211 264 329 399
#     4  11  23  39  64 101 130 167 222 266 327 400
#     4  11  23  40  66  96 130 172 215 271 332 386
#     4  10  22  43  64  91 122 170 219 268 326 388
#     4  10  22  38  63  93 132 171 207 268 336 389
#     4  10  24  44  63  91 126 169 224 269 324 384
#     4  11  23  44  68  99 133 175 222 276 327 395
#
# _framework density 28.753571999999998
#
# number of rings (size 3 to 8) (size 9 to 14) (size 15 to 20)
#    0.000    1.600    1.333    2.400    1.867    4.267 
#    4.800    2.667    0.000    0.000    0.000    0.000 
#    0.000    0.000    0.000    0.000    0.000    0.000 
#
# Total GULP energy -83667.181628 kJ/mol
# GULP energy per Si atom -5577.812109 kJ/mol
# Density = 2.868813 g / cm^3
# Si number density = 28.753572 Si / 1000 Ang^3
#
#
#
# Elastic Constant Matrix: (Units=GPa)
#
#
# Indices 1 2 3 4 5 6 
#
# 1 268.8117 57.8953 84.7003 9.6616 -28.5883 19.2327
# 2 57.8953 92.1206 21.1973 18.8289 -19.6640 29.0125
# 3 84.7003 21.1973 119.2382 -6.4442 -32.8546 6.1990
# 4 9.6616 18.8289 -6.4442 39.7225 15.2360 -8.7479
# 5 -28.5883 -19.6640 -32.8546 15.2360 73.3171 2.1545
# 6 19.2327 29.0125 6.1990 -8.7479 2.1545 50.0568
#
#
#
# Elastic Compliance Matrix: (Units=1/GPa)
#
#
# Indices 1 2 3 4 5 6 
#
# 1 0.005351 -0.002125 -0.003383 -0.001067 0.000240 -0.000602
# 2 -0.002125 0.022666 -0.000083 -0.017256 0.009261 -0.015725
# 3 -0.003383 -0.000083 0.011903 0.001359 0.003712 -0.000048
# 4 -0.001067 -0.017256 0.001359 0.043242 -0.013962 0.018401
# 5 0.000240 0.009261 0.003712 -0.013962 0.021054 -0.009266
# 6 -0.000602 -0.015725 -0.000048 0.018401 -0.009266 0.032943
#
#
# Mechanical properties :
#
#
# Convention : Reuss Voigt Hill
#
# Bulk Modulus (GPa) = 34.79826 89.75071 62.27449
# Shear Modulus (GPa) = 31.66116 53.71111 42.68613
#
# Velocity S-wave (km/s) = 3.32191 4.32670 3.85717
# Velocity P-wave (km/s) = 5.18093 7.49947 6.44531
#
# Compressibility (1/GPa) = 0.02873707
#
# Stress axis : x y z
#
# Youngs Moduli (GPa) = 186.88586 44.11800 84.00979
#
# Poissons Ratio (x) = 0.09377 0.28424
# Poissons Ratio (y) = 0.39721 0.00697
# Poissons Ratio (z) = 0.63232 0.00366
#
# Static dielectric constant tensor:
#      x y z
#    x 2.422640 -0.132320 0.009610 
#    y -0.132320 2.508970 -0.180030 
#    z 0.009610 -0.180030 2.448270 
# 
# From -- ./inp_files/500030.got.cif
#   From: 2010.05.17/outbox.cif.g08.bks.cpg/sg2_251_cif.got.tgz:500030.got - 2010.06.03 11:33:40.
