data_PCOD9007192
_publ_section_title
;
Structure prediction by ZEFSAII (Michael W. Deem and Ramdas Pophale) SiO2 
 PCOD9007192
Probable space group: P -1
;
_chemical_formula_sum "Si O2"
_cell_formula_units_Z 16
_cell_length_a 7.972804
_cell_length_b 20.653131
_cell_length_c 7.157216
_cell_angle_alpha 39.916873
_cell_angle_beta 122.281410
_cell_angle_gamma 125.591460
_cell_volume 606.213385
_symmetry_space_group_name_H-M "P -1"
_symmetry_group_IT_number 2
_symmetry_cell_setting 'triclinic'
loop_
_space_group_symop_operation_xyz
x,y,z
-x,-y,-z
loop_
_atom_site_type_symbol
_atom_site_label
_atom_site_fract_x
_atom_site_fract_y
_atom_site_fract_z
Si Si1 0.875043 0.643830 0.614859
Si Si2 0.737931 0.964154 0.105292
Si Si3 0.282664 0.393051 0.006101
Si Si4 0.573264 0.186038 0.014819
Si Si5 0.493373 0.881589 0.482618
Si Si6 0.694648 0.362755 0.212097
Si Si7 0.001450 0.825773 0.579772
Si Si8 0.391909 0.586307 0.366665
O O1 0.178026 0.419298 0.076880
O O2 0.961549 0.761606 0.499724
O O3 0.646694 0.623941 0.435247
O O4 0.058619 0.622836 0.649438
O O5 0.675969 0.958098 0.298500
O O6 0.945561 0.932995 0.288385
O O7 0.565937 0.861932 0.136007
O O8 0.686252 0.061639 0.763757
O O9 0.293243 0.479090 0.662594
O O10 0.521111 0.390230 0.177489
O O11 0.152983 0.268526 0.172117
O O12 0.441333 0.137284 0.228848
O O13 0.776899 0.152458 0.240982
O O14 0.655322 0.313304 0.791528
O O15 0.403020 0.763195 0.609565
O O16 0.682377 0.418001 0.881601
#
# Coordination Sequence:
#
# PCOD9007192 Si02
#       8
#     2   2   2   2   2   2   2   2
#     4  10  21  39  61  87 122 162 203 251 309 366
#     4  11  22  41  65  89 122 169 204 255 328 360
#     4  10  21  40  62  86 126 162 200 260 304 365
#     4  11  22  41  63  92 125 163 209 256 312 376
#     4  10  21  41  64  88 126 161 206 267 302 376
#     4  11  22  42  58  89 129 154 205 263 302 369
#     4  10  21  39  60  89 125 158 210 255 307 377
#     4  11  21  38  63  88 120 163 204 248 314 368
#
# _framework density 26.393348
#
# number of rings (size 3 to 8) (size 9 to 14) (size 15 to 20)
#    0.750    0.750    5.000    1.125    0.000    3.000 
#    2.250    5.000    0.000    0.000    0.000    0.000 
#    0.000    0.000    0.000    0.000    0.000    0.000 
#
# Total GULP energy -89448.656820 kJ/mol
# GULP energy per Si atom -5590.541051 kJ/mol
# Density = 2.633328 g / cm^3
# Si number density = 26.393348 Si / 1000 Ang^3
#
#
#
# Elastic Constant Matrix: (Units=GPa)
#
#
# Indices 1 2 3 4 5 6 
#
# 1 110.4393 5.7074 31.4224 2.9620 20.9175 5.2362
# 2 5.7074 45.4671 -3.8258 6.8197 -4.2576 0.1823
# 3 31.4224 -3.8258 140.9886 -2.8511 3.7638 -18.4063
# 4 2.9620 6.8197 -2.8511 43.4831 -0.6000 12.1504
# 5 20.9175 -4.2576 3.7638 -0.6000 60.6012 1.2885
# 6 5.2362 0.1823 -18.4063 12.1504 1.2885 25.7614
#
#
#
# Elastic Compliance Matrix: (Units=1/GPa)
#
#
# Indices 1 2 3 4 5 6 
#
# 1 0.010873 -0.002017 -0.002942 0.000557 -0.003613 -0.004380
# 2 -0.002017 0.023184 0.001340 -0.004248 0.002134 0.003100
# 3 -0.002942 0.001340 0.008726 -0.001536 0.000392 0.007528
# 4 0.000557 -0.004248 -0.001536 0.027482 0.000178 -0.014151
# 5 -0.003613 0.002134 0.000392 0.000178 0.017875 0.000022
# 6 -0.004380 0.003100 0.007528 -0.014151 0.000022 0.051738
#
#
# Mechanical properties :
#
#
# Convention : Reuss Voigt Hill
#
# Bulk Modulus (GPa) = 28.13184 40.38923 34.26054
# Shear Modulus (GPa) = 31.45356 43.54186 37.49771
#
# Velocity S-wave (km/s) = 3.45588 4.06609 3.77334
# Velocity P-wave (km/s) = 5.15810 6.11393 5.65624
#
# Compressibility (1/GPa) = 0.03554691
#
# Stress axis : x y z
#
# Youngs Moduli (GPa) = 91.96938 43.13249 114.59843
#
# Poissons Ratio (x) = 0.08699 0.33716
# Poissons Ratio (y) = 0.18548 -0.15362
# Poissons Ratio (z) = 0.27059 -0.05782
#
# Static dielectric constant tensor:
#      x y z
#    x 2.166550 -0.033860 -0.000540 
#    y -0.033860 2.062250 -0.066790 
#    z -0.000540 -0.066790 2.027400 
# 
# From -- ./inp_files/227271.got.cif
#   From: 2010.05.17/outbox.cif.g08.bks.cpg/sg2_114_cif.got.tgz:227271.got - 2010.06.03 11:33:40.
