data_PCOD9007851
_publ_section_title
;
Structure prediction by ZEFSAII (Michael W. Deem and Ramdas Pophale) SiO2 
 PCOD9007851
Probable space group: P -1
;
_chemical_formula_sum "Si O2"
_cell_formula_units_Z 10
_cell_length_a 9.774713
_cell_length_b 8.346197
_cell_length_c 12.744562
_cell_angle_alpha 84.038449
_cell_angle_beta 145.777671
_cell_angle_gamma 122.057455
_cell_volume 352.526478
_symmetry_space_group_name_H-M "P -1"
_symmetry_group_IT_number 2
_symmetry_cell_setting 'triclinic'
loop_
_space_group_symop_operation_xyz
x,y,z
-x,-y,-z
loop_
_atom_site_type_symbol
_atom_site_label
_atom_site_fract_x
_atom_site_fract_y
_atom_site_fract_z
Si Si1 0.172098 0.455617 0.687734
Si Si2 0.805228 0.920292 0.496285
Si Si3 0.025570 0.152925 0.173219
Si Si4 0.875570 0.671621 0.983112
Si Si5 0.910960 0.481802 0.723514
O O1 0.000000 0.500000 0.500000
O O2 0.589926 0.616598 0.888230
O O3 0.170714 0.544946 0.791519
O O4 0.885013 0.152243 0.541260
O O5 0.005485 0.953035 0.726552
O O6 0.406935 0.600503 0.245151
O O7 0.000000 0.000000 0.500000
O O8 0.897844 0.098544 0.973240
O O9 0.489803 0.339796 0.432883
O O10 0.881325 0.256297 0.108963
O O11 0.153262 0.700668 0.225865
#
# Coordination Sequence:
#
# PCOD9007851 Si02
#       5
#     2   2   2   2   2
#     4  11  22  42  62  88 128 161 197 254 304 348
#     4  10  21  39  63  88 122 164 198 245 309 357
#     4  11  21  41  65  88 127 159 196 253 305 355
#     4  11  21  41  66  91 119 162 205 242 299 370
#     4  11  21  38  68  90 122 158 203 246 304 354
#
# _framework density 28.366662999999999
#
# number of rings (size 3 to 8) (size 9 to 14) (size 15 to 20)
#    0.000    1.200    6.000    2.400    0.000    0.800 
#    0.000   12.000    0.000    3.600    0.000    0.000 
#    0.000    0.000    0.000    0.000    0.000    0.000 
#
# Total GULP energy -55828.382482 kJ/mol
# GULP energy per Si atom -5582.838248 kJ/mol
# Density = 2.830210 g / cm^3
# Si number density = 28.366663 Si / 1000 Ang^3
#
#
#
# Elastic Constant Matrix: (Units=GPa)
#
#
# Indices 1 2 3 4 5 6 
#
# 1 251.8390 65.4431 43.1448 -6.8636 0.6664 -10.5192
# 2 65.4431 187.0526 58.1797 -41.1292 -10.1822 13.2233
# 3 43.1448 58.1797 87.0333 -34.4699 10.4190 6.0360
# 4 -6.8636 -41.1292 -34.4699 68.0509 4.0642 -4.6595
# 5 0.6664 -10.1822 10.4190 4.0642 41.8975 -14.1198
# 6 -10.5192 13.2233 6.0360 -4.6595 -14.1198 58.7888
#
#
#
# Elastic Compliance Matrix: (Units=1/GPa)
#
#
# Indices 1 2 3 4 5 6 
#
# 1 0.004712 -0.001334 -0.002184 -0.001384 0.000764 0.001441
# 2 -0.001334 0.007694 -0.003738 0.002427 0.002302 -0.000840
# 3 -0.002184 -0.003738 0.019062 0.007426 -0.007229 -0.002655
# 4 -0.001384 0.002427 0.007426 0.019934 -0.003439 -0.000802
# 5 0.000764 0.002302 -0.007229 -0.003439 0.028917 0.007034
# 6 0.001441 -0.000840 -0.002655 -0.000802 0.007034 0.019355
#
#
# Mechanical properties :
#
#
# Convention : Reuss Voigt Hill
#
# Bulk Modulus (GPa) = 58.97489 95.49558 77.23523
# Shear Modulus (GPa) = 41.72354 57.69128 49.70741
#
# Velocity S-wave (km/s) = 3.83935 4.51463 4.19061
# Velocity P-wave (km/s) = 6.36313 7.80472 7.12050
#
# Compressibility (1/GPa) = 0.01695637
#
# Stress axis : x y z
#
# Youngs Moduli (GPa) = 212.22410 129.97511 52.46165
#
# Poissons Ratio (x) = 0.17339 0.11456
# Poissons Ratio (y) = 0.28311 0.19609
# Poissons Ratio (z) = 0.46343 0.48582
#
# Static dielectric constant tensor:
#      x y z
#    x 2.235300 0.029810 0.029260 
#    y 0.029810 2.453700 0.147520 
#    z 0.029260 0.147520 2.244890 
# 
# From -- ./inp_files/152329.got.cif
#   From: 2010.05.17/outbox.cif.g08.bks.cpg/sg2_77_cif.got.tgz:152329.got - 2010.06.03 11:33:40.
