data_PCOD9007558
_publ_section_title
;
Structure prediction by ZEFSAII (Michael W. Deem and Ramdas Pophale) SiO2 
 PCOD9007558
Probable space group: P -1
;
_chemical_formula_sum "Si O2"
_cell_formula_units_Z 15
_cell_length_a 21.259949
_cell_length_b 8.215286
_cell_length_c 17.781655
_cell_angle_alpha 43.421078
_cell_angle_beta 162.030187
_cell_angle_gamma 129.839966
_cell_volume 639.836501
_symmetry_space_group_name_H-M "P -1"
_symmetry_group_IT_number 2
_symmetry_cell_setting 'triclinic'
loop_
_space_group_symop_operation_xyz
x,y,z
-x,-y,-z
loop_
_atom_site_type_symbol
_atom_site_label
_atom_site_fract_x
_atom_site_fract_y
_atom_site_fract_z
Si Si1 0.849366 0.116442 0.858940
Si Si2 0.650223 0.896131 0.837329
Si Si3 0.160182 0.594688 0.703086
Si Si4 0.820659 0.265665 0.012773
Si Si5 0.746643 0.760717 0.671656
Si Si6 0.000000 0.000000 0.500000
Si Si7 0.267446 0.052407 0.653748
Si Si8 0.460124 0.363859 0.675329
O O1 0.742762 0.937761 0.846827
O O2 0.666117 0.356796 0.551043
O O3 0.018752 0.203457 0.076351
O O4 0.000000 0.000000 0.000000
O O5 0.755120 0.053277 0.962698
O O6 0.405390 0.023002 0.526973
O O7 0.705933 0.622054 0.021755
O O8 0.000000 0.500000 0.500000
O O9 0.300526 0.765527 0.768063
O O10 0.012913 0.789051 0.523658
O O11 0.749624 0.515030 0.803019
O O12 0.702995 0.314208 0.943533
O O13 0.065381 0.192670 0.328954
O O14 0.644734 0.732012 0.485083
O O15 0.185223 0.089943 0.631801
O O16 0.438453 0.196220 0.776857
#
# Coordination Sequence:
#
# PCOD9007558 Si02
#       8
#     2   2   2   2   2   1   2   2
#     4  12  25  35  56  93 125 161 199 249 310 372
#     4  11  21  40  61  91 125 154 206 256 304 370
#     4  10  21  39  65  88 121 169 206 253 309 366
#     4  11  19  38  67  92 119 159 204 253 315 367
#     4  11  22  39  63  91 121 163 200 251 319 364
#     4   8  22  40  62  88 116 180 202 246 324 350
#     4  10  21  39  62  88 120 164 204 249 309 363
#     4  11  21  39  63  92 117 156 209 249 304 375
#
# _framework density 23.443490000000001
#
# number of rings (size 3 to 8) (size 9 to 14) (size 15 to 20)
#    0.800    0.533    5.333    2.000    1.867    0.533 
#    2.400    4.667    0.000    0.000    0.000    0.000 
#    0.000    0.000    0.000    0.000    0.000    0.000 
#
# Total GULP energy -83638.464297 kJ/mol
# GULP energy per Si atom -5575.897620 kJ/mol
# Density = 2.339013 g / cm^3
# Si number density = 23.443490 Si / 1000 Ang^3
#
#
#
# Elastic Constant Matrix: (Units=GPa)
#
#
# Indices 1 2 3 4 5 6 
#
# 1 123.9442 29.4360 28.8668 -24.7826 23.9122 22.0911
# 2 29.4360 65.2392 21.0293 -20.9026 4.8369 -0.9955
# 3 28.8668 21.0293 92.0135 -11.9690 4.3368 4.9980
# 4 -24.7826 -20.9026 -11.9690 36.5903 -0.3300 -0.9703
# 5 23.9122 4.8369 4.3368 -0.3300 29.1587 -4.5490
# 6 22.0911 -0.9955 4.9980 -0.9703 -4.5490 54.9252
#
#
#
# Elastic Compliance Matrix: (Units=1/GPa)
#
#
# Indices 1 2 3 4 5 6 
#
# 1 0.013908 -0.002638 -0.001962 0.007000 -0.011579 -0.006298
# 2 -0.002638 0.020334 -0.002730 0.008981 -0.000421 0.001802
# 3 -0.001962 -0.002730 0.012262 0.001115 0.000198 -0.000340
# 4 0.007000 0.008981 0.001115 0.037427 -0.007394 -0.002705
# 5 -0.011579 -0.000421 0.000198 -0.007394 0.045032 0.008231
# 6 -0.006298 0.001802 -0.000340 -0.002705 0.008231 0.021437
#
#
# Mechanical properties :
#
#
# Convention : Reuss Voigt Hill
#
# Bulk Modulus (GPa) = 31.40202 48.87347 40.13775
# Shear Modulus (GPa) = 28.46191 37.59251 33.02721
#
# Velocity S-wave (km/s) = 3.48812 4.00876 3.75747
# Velocity P-wave (km/s) = 5.44486 6.50535 5.99858
#
# Compressibility (1/GPa) = 0.03184508
#
# Stress axis : x y z
#
# Youngs Moduli (GPa) = 71.90305 49.17784 81.55556
#
# Poissons Ratio (x) = 0.12971 0.16001
# Poissons Ratio (y) = 0.18965 0.22262
# Poissons Ratio (z) = 0.14107 0.13424
#
# Static dielectric constant tensor:
#      x y z
#    x 1.954940 0.063350 -0.081330 
#    y 0.063350 1.986530 0.005500 
#    z -0.081330 0.005500 1.960160 
# 
# From -- ./inp_files/601834.got.cif
#   From: 2010.05.17/outbox.cif.g08.bks.cpg/sg2_301_cif.got.tgz:601834.got - 2010.06.03 11:33:40.
