data_PCOD9007790
_publ_section_title
;
Structure prediction by ZEFSAII (Michael W. Deem and Ramdas Pophale) SiO2 
 PCOD9007790
Probable space group: P -1
;
_chemical_formula_sum "Si O2"
_cell_formula_units_Z 14
_cell_length_a 4.987869
_cell_length_b 18.697182
_cell_length_c 12.199910
_cell_angle_alpha 151.155165
_cell_angle_beta 87.036188
_cell_angle_gamma 103.093159
_cell_volume 507.896215
_symmetry_space_group_name_H-M "P -1"
_symmetry_group_IT_number 2
_symmetry_cell_setting 'triclinic'
loop_
_space_group_symop_operation_xyz
x,y,z
-x,-y,-z
loop_
_atom_site_type_symbol
_atom_site_label
_atom_site_fract_x
_atom_site_fract_y
_atom_site_fract_z
Si Si1 0.358279 0.847026 0.930790
Si Si2 0.386922 0.171244 0.438322
Si Si3 0.861659 0.986083 0.365167
Si Si4 0.246242 0.718133 0.228791
Si Si5 0.781629 0.712534 0.622535
Si Si6 0.703176 0.642729 0.980662
Si Si7 0.906337 0.425837 0.282478
O O1 0.586604 0.775857 0.787718
O O2 0.239619 0.759316 0.931179
O O3 0.101554 0.801023 0.785034
O O4 0.481369 0.035121 0.200196
O O5 0.652341 0.297745 0.670875
O O6 0.269876 0.249407 0.448919
O O7 0.107280 0.076150 0.392084
O O8 0.653026 0.086516 0.510426
O O9 0.738216 0.795272 0.104550
O O10 0.000000 0.000000 0.500000
O O11 0.069134 0.327413 0.879821
O O12 0.413314 0.633637 0.037842
O O13 0.716039 0.524076 0.379091
O O14 0.835213 0.541417 0.764506
O O15 0.000000 0.500000 0.500000
#
# Coordination Sequence:
#
# PCOD9007790 Si02
#       7
#     2   2   2   2   2   2   2
#     4  11  25  44  68  98 129 174 223 270 323 388
#     4  12  24  41  70  99 136 171 211 275 335 385
#     4  10  21  39  62  98 131 164 215 259 325 379
#     4  11  24  38  65 101 131 167 213 274 327 384
#     4  11  27  44  65  97 136 171 222 270 326 384
#     4  11  23  40  65  98 129 167 221 270 313 389
#     4  10  24  48  70  95 129 179 222 267 320 391
#
# _framework density 27.564686999999999
#
# number of rings (size 3 to 8) (size 9 to 14) (size 15 to 20)
#    0.000    1.143    4.286    1.714    6.000    4.571 
#    0.000    1.429    0.000    0.000    0.000    0.000 
#    0.000    0.000    0.000    0.000    0.000    0.000 
#
# Total GULP energy -78342.042102 kJ/mol
# GULP energy per Si atom -5595.860150 kJ/mol
# Density = 2.750195 g / cm^3
# Si number density = 27.564687 Si / 1000 Ang^3
#
#
#
# Elastic Constant Matrix: (Units=GPa)
#
#
# Indices 1 2 3 4 5 6 
#
# 1 138.6222 31.9407 36.0175 -3.6107 -28.8167 -27.3773
# 2 31.9407 156.3749 40.0324 8.1240 0.0484 -25.8822
# 3 36.0175 40.0324 140.7047 -4.9263 -36.1336 -9.5428
# 4 -3.6107 8.1240 -4.9263 35.5887 -1.3692 1.1796
# 5 -28.8167 0.0484 -36.1336 -1.3692 41.4102 -1.3959
# 6 -27.3773 -25.8822 -9.5428 1.1796 -1.3959 42.6268
#
#
#
# Elastic Compliance Matrix: (Units=1/GPa)
#
#
# Indices 1 2 3 4 5 6 
#
# 1 0.010256 -0.001186 0.000094 0.001410 0.007472 0.006094
# 2 -0.001186 0.008020 -0.002625 -0.002549 -0.003092 0.003490
# 3 0.000094 -0.002625 0.010347 0.002361 0.009209 0.001019
# 4 0.001410 -0.002549 0.002361 0.029330 0.003987 -0.000795
# 5 0.007472 -0.003092 0.009209 0.003987 0.037725 0.006109
# 6 0.006094 0.003490 0.001019 -0.000795 0.006109 0.029942
#
#
# Mechanical properties :
#
#
# Convention : Reuss Voigt Hill
#
# Bulk Modulus (GPa) = 47.19468 72.40922 59.80195
# Shear Modulus (GPa) = 35.68430 45.77255 40.72842
#
# Velocity S-wave (km/s) = 3.60191 4.07941 3.84807
# Velocity P-wave (km/s) = 5.87000 6.96524 6.44094
#
# Compressibility (1/GPa) = 0.02118883
#
# Stress axis : x y z
#
# Youngs Moduli (GPa) = 97.50076 124.68794 96.65064
#
# Poissons Ratio (x) = 0.14786 -0.00904
# Poissons Ratio (y) = 0.11562 0.25368
# Poissons Ratio (z) = -0.00912 0.32727
#
# Static dielectric constant tensor:
#      x y z
#    x 2.281970 0.029540 0.245130 
#    y 0.029540 2.187100 0.077950 
#    z 0.245130 0.077950 2.355660 
# 
# From -- ./inp_files/369587.got.cif
#   From: 2010.05.17/outbox.cif.g08.bks.cpg/sg2_185_cif.got.tgz:369587.got - 2010.06.03 11:33:40.
