data_PCOD9007251
_publ_section_title
;
Structure prediction by ZEFSAII (Michael W. Deem and Ramdas Pophale) SiO2 
 PCOD9007251
Probable space group: P -1
;
_chemical_formula_sum "Si O2"
_cell_formula_units_Z 14
_cell_length_a 15.054613
_cell_length_b 15.776947
_cell_length_c 9.258188
_cell_angle_alpha 103.782428
_cell_angle_beta 52.418153
_cell_angle_gamma 150.843606
_cell_volume 549.338766
_symmetry_space_group_name_H-M "P -1"
_symmetry_group_IT_number 2
_symmetry_cell_setting 'triclinic'
loop_
_space_group_symop_operation_xyz
x,y,z
-x,-y,-z
loop_
_atom_site_type_symbol
_atom_site_label
_atom_site_fract_x
_atom_site_fract_y
_atom_site_fract_z
Si Si1 0.618840 0.133536 0.290254
Si Si2 0.463960 0.363332 0.586735
Si Si3 0.556931 0.570472 0.808215
Si Si4 0.723478 0.375222 0.471331
Si Si5 0.478391 0.871305 0.905705
Si Si6 0.347367 0.190373 0.334342
Si Si7 0.180945 0.892975 0.032149
O O1 0.702480 0.291478 0.325256
O O2 0.500000 0.000000 0.500000
O O3 0.871819 0.244299 0.028203
O O4 0.394884 0.986920 0.308024
O O5 0.365166 0.360774 0.806713
O O6 0.582032 0.365198 0.562690
O O7 0.280427 0.187678 0.555597
O O8 0.809217 0.662843 0.299437
O O9 0.454794 0.593204 0.873011
O O10 0.500000 0.500000 0.000000
O O11 0.976588 0.888831 0.512684
O O12 0.477331 0.158443 0.755360
O O13 0.126337 0.658039 0.221833
O O14 0.714028 0.039695 0.879554
O O15 0.434562 0.737880 0.849867
#
# Coordination Sequence:
#
# PCOD9007251 Si02
#       7
#     2   2   2   2   2   2   2
#     4  10  21  39  60  97 144 183 226 267 335 415
#     4  12  24  46  74 100 142 184 226 288 355 412
#     4  11  28  51  73 103 130 178 243 297 351 412
#     4  11  24  39  66 106 145 181 231 275 337 427
#     4  12  21  43  65 102 147 184 223 286 336 411
#     4  11  26  48  74 100 140 180 231 293 347 412
#     4  11  24  39  65 104 142 188 227 275 342 413
#
# _framework density 25.485185000000001
#
# number of rings (size 3 to 8) (size 9 to 14) (size 15 to 20)
#    0.000    0.857    4.286    2.571    2.000    1.714 
#    5.143    0.000    0.000    0.000    0.000    0.000 
#    0.000    0.000    0.000    0.000    0.000    0.000 
#
# Total GULP energy -78154.795856 kJ/mol
# GULP energy per Si atom -5582.485418 kJ/mol
# Density = 2.542718 g / cm^3
# Si number density = 25.485185 Si / 1000 Ang^3
#
#
#
# Elastic Constant Matrix: (Units=GPa)
#
#
# Indices 1 2 3 4 5 6 
#
# 1 150.0527 39.8147 34.7502 10.4130 32.2200 -22.7299
# 2 39.8147 137.3545 16.8792 33.5224 13.5515 5.2879
# 3 34.7502 16.8792 64.1101 12.2317 26.5156 -7.8516
# 4 10.4130 33.5224 12.2317 36.5173 1.3698 -1.9241
# 5 32.2200 13.5515 26.5156 1.3698 35.6306 5.3653
# 6 -22.7299 5.2879 -7.8516 -1.9241 5.3653 58.9494
#
#
#
# Elastic Compliance Matrix: (Units=1/GPa)
#
#
# Indices 1 2 3 4 5 6 
#
# 1 0.009889 -0.002123 -0.000827 -0.000042 -0.008217 0.004640
# 2 -0.002123 0.010286 0.000774 -0.009116 -0.001954 -0.001758
# 3 -0.000827 0.000774 0.025897 -0.008191 -0.019188 0.004540
# 4 -0.000042 -0.009116 -0.008191 0.038216 0.008097 0.000221
# 5 -0.008217 -0.001954 -0.019188 0.008097 0.051712 -0.009991
# 6 0.004640 -0.001758 0.004540 0.000221 -0.009991 0.020432
#
#
# Mechanical properties :
#
#
# Convention : Reuss Voigt Hill
#
# Bulk Modulus (GPa) = 23.96810 59.37838 41.67324
# Shear Modulus (GPa) = 28.62242 43.55768 36.09005
#
# Velocity S-wave (km/s) = 3.35490 4.13866 3.76722
# Velocity P-wave (km/s) = 4.94291 6.79616 5.94222
#
# Compressibility (1/GPa) = 0.04172213
#
# Stress axis : x y z
#
# Youngs Moduli (GPa) = 101.12057 97.22211 38.61439
#
# Poissons Ratio (x) = 0.20638 0.03192
# Poissons Ratio (y) = 0.21465 -0.02991
# Poissons Ratio (z) = 0.08360 -0.07530
#
# Static dielectric constant tensor:
#      x y z
#    x 2.046560 0.001490 -0.015680 
#    y 0.001490 2.103260 -0.047640 
#    z -0.015680 -0.047640 2.068560 
# 
# From -- ./inp_files/315535.got.cif
#   From: 2010.05.17/outbox.cif.g08.bks.cpg/sg2_158_cif.got.tgz:315535.got - 2010.06.03 11:33:40.
