data_PCOD9007313
_publ_section_title
;
Structure prediction by ZEFSAII (Michael W. Deem and Ramdas Pophale) SiO2 
 PCOD9007313
Probable space group: P -1
;
_chemical_formula_sum "Si O2"
_cell_formula_units_Z 16
_cell_length_a 13.993310
_cell_length_b 5.010759
_cell_length_c 13.021904
_cell_angle_alpha 98.129196
_cell_angle_beta 114.723759
_cell_angle_gamma 55.860730
_cell_volume 681.135137
_symmetry_space_group_name_H-M "P -1"
_symmetry_group_IT_number 2
_symmetry_cell_setting 'triclinic'
loop_
_space_group_symop_operation_xyz
x,y,z
-x,-y,-z
loop_
_atom_site_type_symbol
_atom_site_label
_atom_site_fract_x
_atom_site_fract_y
_atom_site_fract_z
Si Si1 0.638471 0.276523 0.601633
Si Si2 0.451403 0.292482 0.917268
Si Si3 0.830499 0.481631 0.265328
Si Si4 0.137779 0.157646 0.042591
Si Si5 0.194096 0.586450 0.192746
Si Si6 0.940323 0.811597 0.208950
Si Si7 0.520004 0.716056 0.303450
Si Si8 0.693244 0.970538 0.409128
O O1 0.500000 0.500000 0.500000
O O2 0.695173 0.457754 0.689158
O O3 0.602635 0.145111 0.674605
O O4 0.729843 0.038109 0.540145
O O5 0.304068 0.427803 0.836454
O O6 0.506894 0.205682 0.823151
O O7 0.500000 0.500000 0.000000
O O8 0.500000 0.000000 0.000000
O O9 0.908414 0.094727 0.289532
O O10 0.797266 0.696618 0.364974
O O11 0.905984 0.573481 0.228737
O O12 0.222245 0.294659 0.115858
O O13 0.149598 0.900922 0.116728
O O14 0.000000 0.500000 0.000000
O O15 0.147240 0.033739 0.924707
O O16 0.082004 0.651143 0.222233
O O17 0.600685 0.853677 0.385575
O O18 0.611087 0.320380 0.333851
#
# Coordination Sequence:
#
# PCOD9007313 Si02
#       8
#     2   2   2   2   2   2   2   2
#     4  10  24  44  68  95 127 170 219 280 333 375
#     4  11  22  37  58  91 128 161 206 261 312 383
#     4  11  22  38  60  86 124 171 206 249 315 379
#     4  10  21  40  62  90 128 164 204 264 319 375
#     4  11  23  40  65  97 128 163 217 267 319 391
#     4  11  21  39  63  92 127 168 205 252 316 384
#     4  10  21  39  61  87 120 166 209 255 324 384
#     4  10  21  41  62  86 121 163 212 264 313 373
#
# _framework density 23.490200999999999
#
# number of rings (size 3 to 8) (size 9 to 14) (size 15 to 20)
#    0.000    1.500    0.000    7.875    0.000    7.000 
#    0.000    3.750    0.000    0.000    0.000    0.000 
#    0.000    0.000    0.000    0.000    0.000    0.000 
#
# Total GULP energy -89426.291980 kJ/mol
# GULP energy per Si atom -5589.143249 kJ/mol
# Density = 2.343674 g / cm^3
# Si number density = 23.490201 Si / 1000 Ang^3
#
#
#
# Elastic Constant Matrix: (Units=GPa)
#
#
# Indices 1 2 3 4 5 6 
#
# 1 123.6195 26.6218 33.2055 -1.0296 3.5314 35.1528
# 2 26.6218 85.9528 4.4719 8.2692 -4.9606 22.1830
# 3 33.2055 4.4719 98.7914 15.6035 -6.7737 6.5801
# 4 -1.0296 8.2692 15.6035 26.2936 -2.1836 2.5019
# 5 3.5314 -4.9606 -6.7737 -2.1836 36.7175 8.1779
# 6 35.1528 22.1830 6.5801 2.5019 8.1779 36.8327
#
#
#
# Elastic Compliance Matrix: (Units=1/GPa)
#
#
# Indices 1 2 3 4 5 6 
#
# 1 0.012600 -0.001251 -0.004107 0.004414 0.000566 -0.010964
# 2 -0.001251 0.014808 0.001276 -0.004317 0.004003 -0.008547
# 3 -0.004107 0.001276 0.012812 -0.008065 0.002249 0.000911
# 4 0.004414 -0.004317 -0.008065 0.044751 0.000927 -0.003417
# 5 0.000566 0.004003 0.002249 0.000927 0.030458 -0.010178
# 6 -0.010964 -0.008547 0.000911 -0.003417 -0.010178 0.045090
#
#
# Mechanical properties :
#
#
# Convention : Reuss Voigt Hill
#
# Bulk Modulus (GPa) = 31.19516 48.55133 39.87324
# Shear Modulus (GPa) = 27.87540 36.23974 32.05757
#
# Velocity S-wave (km/s) = 3.44856 3.93206 3.69822
# Velocity P-wave (km/s) = 5.40053 6.42872 5.93692
#
# Compressibility (1/GPa) = 0.03205626
#
# Stress axis : x y z
#
# Youngs Moduli (GPa) = 79.36403 67.53171 78.05016
#
# Poissons Ratio (x) = 0.08451 0.32052
# Poissons Ratio (y) = 0.09932 -0.09960
# Poissons Ratio (z) = 0.32592 -0.08617
#
# Static dielectric constant tensor:
#      x y z
#    x 1.906430 -0.046500 0.016480 
#    y -0.046500 1.951110 0.000100 
#    z 0.016480 0.000100 1.954050 
# 
# From -- ./inp_files/442079.got.cif
#   From: 2010.05.17/outbox.cif.g08.bks.cpg/sg2_222_cif.got.tgz:442079.got - 2010.06.03 11:33:40.
