data_PCOD9007499
_publ_section_title
;
Structure prediction by ZEFSAII (Michael W. Deem and Ramdas Pophale) SiO2 
 PCOD9007499
Probable space group: P -1
;
_chemical_formula_sum "Si O2"
_cell_formula_units_Z 14
_cell_length_a 9.827937
_cell_length_b 8.070689
_cell_length_c 7.432295
_cell_angle_alpha 75.601696
_cell_angle_beta 124.335957
_cell_angle_gamma 101.161984
_cell_volume 470.450905
_symmetry_space_group_name_H-M "P -1"
_symmetry_group_IT_number 2
_symmetry_cell_setting 'triclinic'
loop_
_space_group_symop_operation_xyz
x,y,z
-x,-y,-z
loop_
_atom_site_type_symbol
_atom_site_label
_atom_site_fract_x
_atom_site_fract_y
_atom_site_fract_z
Si Si1 0.002916 0.111194 0.677734
Si Si2 0.202852 0.576115 0.124737
Si Si3 0.004646 0.461901 0.724988
Si Si4 0.610265 0.552606 0.440134
Si Si5 0.238202 0.875025 0.842148
Si Si6 0.706910 0.899244 0.615265
Si Si7 0.466407 0.777478 0.749102
O O1 0.994609 0.257108 0.777031
O O2 0.905635 0.165513 0.408500
O O3 0.899736 0.941837 0.718673
O O4 0.189102 0.068952 0.784990
O O5 0.216504 0.780455 0.041890
O O6 0.186851 0.524830 0.912161
O O7 0.399213 0.543755 0.328353
O O8 0.000000 0.500000 0.000000
O O9 0.816036 0.504317 0.642555
O O10 0.000000 0.500000 0.500000
O O11 0.643625 0.756334 0.458801
O O12 0.588297 0.417766 0.292644
O O13 0.410198 0.830733 0.891094
O O14 0.644078 0.821349 0.778361
O O15 0.635583 0.084397 0.478172
#
# Coordination Sequence:
#
# PCOD9007499 Si02
#       7
#     2   2   2   2   2   2   2
#     4  10  21  40  64  99 141 179 217 292 345 400
#     4  11  24  40  68 103 133 177 238 282 341 427
#     4  11  24  42  67  99 139 185 221 286 356 408
#     4  10  22  42  68  95 130 186 235 282 340 404
#     4  10  21  39  62 100 137 173 230 277 344 412
#     4   9  19  37  67  95 130 180 234 270 345 414
#     4   9  19  41  67  93 132 183 220 288 343 396
#
# _framework density 29.758683000000001
#
# number of rings (size 3 to 8) (size 9 to 14) (size 15 to 20)
#    0.000    2.000    1.429    1.714    4.000    1.714 
#    2.571    2.857    0.000   30.857    0.000    0.000 
#    0.000    0.000    0.000    0.000    0.000    0.000 
#
# Total GULP energy -78062.045062 kJ/mol
# GULP energy per Si atom -5575.860362 kJ/mol
# Density = 2.969095 g / cm^3
# Si number density = 29.758683 Si / 1000 Ang^3
#
#
#
# Elastic Constant Matrix: (Units=GPa)
#
#
# Indices 1 2 3 4 5 6 
#
# 1 254.9633 49.7614 83.7813 3.5632 -11.0275 -2.2616
# 2 49.7614 119.8703 15.8590 27.4561 2.8378 -13.5506
# 3 83.7813 15.8590 185.6932 2.3332 19.3759 10.4621
# 4 3.5632 27.4561 2.3332 42.9008 4.9693 3.1241
# 5 -11.0275 2.8378 19.3759 4.9693 53.2792 -6.3751
# 6 -2.2616 -13.5506 10.4621 3.1241 -6.3751 53.9399
#
#
#
# Elastic Compliance Matrix: (Units=1/GPa)
#
#
# Indices 1 2 3 4 5 6 
#
# 1 0.005187 -0.002004 -0.002412 0.000719 0.002036 0.000381
# 2 -0.002004 0.011213 -0.000153 -0.007246 0.000102 0.003194
# 3 -0.002412 -0.000153 0.006930 0.000439 -0.003279 -0.001897
# 4 0.000719 -0.007246 0.000439 0.028461 -0.002740 -0.003847
# 5 0.002036 0.000102 -0.003279 -0.002740 0.021039 0.003392
# 6 0.000381 0.003194 -0.001897 -0.003847 0.003392 0.020349
#
#
# Mechanical properties :
#
#
# Convention : Reuss Voigt Hill
#
# Bulk Modulus (GPa) = 70.46344 95.48112 82.97228
# Shear Modulus (GPa) = 46.70781 57.43231 52.07006
#
# Velocity S-wave (km/s) = 3.96606 4.39787 4.18753
# Velocity P-wave (km/s) = 6.68599 7.61204 7.16399
#
# Compressibility (1/GPa) = 0.01419176
#
# Stress axis : x y z
#
# Youngs Moduli (GPa) = 192.77700 89.18327 144.29704
#
# Poissons Ratio (x) = 0.17874 0.34808
# Poissons Ratio (y) = 0.38636 0.02206
# Poissons Ratio (z) = 0.46502 0.01363
#
# Static dielectric constant tensor:
#      x y z
#    x 2.268770 0.102100 0.176900 
#    y 0.102100 2.320090 -0.243180 
#    z 0.176900 -0.243180 1.788170 
# 
# From -- ./inp_files/237867.got.cif
#   From: 2010.05.17/outbox.cif.g08.bks.cpg/sg2_119_cif.got.tgz:237867.got - 2010.06.03 11:33:40.
