data_PCOD9007215
_publ_section_title
;
Structure prediction by ZEFSAII (Michael W. Deem and Ramdas Pophale) SiO2 
 PCOD9007215
Probable space group: P -1
;
_chemical_formula_sum "Si O2"
_cell_formula_units_Z 16
_cell_length_a 5.707346
_cell_length_b 17.088895
_cell_length_c 8.804010
_cell_angle_alpha 127.526112
_cell_angle_beta 109.387615
_cell_angle_gamma 77.982798
_cell_volume 642.357371
_symmetry_space_group_name_H-M "P -1"
_symmetry_group_IT_number 2
_symmetry_cell_setting 'triclinic'
loop_
_space_group_symop_operation_xyz
x,y,z
-x,-y,-z
loop_
_atom_site_type_symbol
_atom_site_label
_atom_site_fract_x
_atom_site_fract_y
_atom_site_fract_z
Si Si1 0.870094 0.923128 0.269953
Si Si2 0.298785 0.845743 0.788753
Si Si3 0.721835 0.728779 0.914581
Si Si4 0.287846 0.985592 0.202786
Si Si5 0.451083 0.653925 0.051677
Si Si6 0.515692 0.806896 0.488223
Si Si7 0.864330 0.522587 0.153835
Si Si8 0.089014 0.321246 0.412086
O O1 0.573616 0.950356 0.257494
O O2 0.873283 0.803712 0.143630
O O3 0.000000 0.000000 0.500000
O O4 0.057342 0.936941 0.182181
O O5 0.557025 0.805215 0.867790
O O6 0.309955 0.845384 0.609101
O O7 0.104940 0.766210 0.711171
O O8 0.258842 0.952065 0.981469
O O9 0.860001 0.666555 0.740778
O O10 0.551753 0.667655 0.919915
O O11 0.298774 0.101438 0.378531
O O12 0.427415 0.758992 0.256302
O O13 0.644278 0.591295 0.121130
O O14 0.218629 0.582518 0.924558
O O15 0.657288 0.720944 0.509121
O O16 0.988058 0.585927 0.390253
O O17 0.000000 0.500000 0.000000
#
# Coordination Sequence:
#
# PCOD9007215 Si02
#       8
#     2   2   2   2   2   2   2   2
#     4  11  23  41  61  94 141 178 218 269 321 384
#     4  10  21  39  60  90 131 169 212 265 312 385
#     4  10  22  41  61  92 125 172 207 260 327 390
#     4  11  23  39  63  96 131 180 224 268 317 381
#     4  10  22  42  64  89 125 156 214 265 326 394
#     4  10  22  38  62  93 121 174 216 264 321 377
#     4  10  22  42  65  92 117 158 207 274 329 389
#     4  10  21  40  63  87 129 163 211 267 325 386
#
# _framework density 24.908252999999998
#
# number of rings (size 3 to 8) (size 9 to 14) (size 15 to 20)
#    0.000    1.750    1.250    2.250    1.750    4.000 
#    2.250    1.250    0.000    0.000    0.000    0.000 
#    0.000    0.000    0.000    0.000    0.000    0.000 
#
# Total GULP energy -89315.966543 kJ/mol
# GULP energy per Si atom -5582.247909 kJ/mol
# Density = 2.485156 g / cm^3
# Si number density = 24.908253 Si / 1000 Ang^3
#
#
#
# Elastic Constant Matrix: (Units=GPa)
#
#
# Indices 1 2 3 4 5 6 
#
# 1 89.0888 24.9402 17.8596 -0.9190 -2.4271 12.7095
# 2 24.9402 86.2184 20.9491 10.0614 -2.6974 30.4946
# 3 17.8596 20.9491 147.6606 30.6646 -12.8610 5.5470
# 4 -0.9190 10.0614 30.6646 26.7408 1.4984 4.0551
# 5 -2.4271 -2.6974 -12.8610 1.4984 21.1884 -7.9647
# 6 12.7095 30.4946 5.5470 4.0551 -7.9647 49.6094
#
#
#
# Elastic Compliance Matrix: (Units=1/GPa)
#
#
# Indices 1 2 3 4 5 6 
#
# 1 0.012756 -0.003157 -0.002006 0.004232 -0.001067 -0.001621
# 2 -0.003157 0.016360 -0.001038 -0.003564 -0.002107 -0.009179
# 3 -0.002006 -0.001038 0.010277 -0.012224 0.007574 0.002218
# 4 0.004232 -0.003564 -0.012224 0.054221 -0.012728 -0.004002
# 5 -0.001067 -0.002107 0.007574 -0.012728 0.056367 0.010812
# 6 -0.001621 -0.009179 0.002218 -0.004002 0.010812 0.028030
#
#
# Mechanical properties :
#
#
# Convention : Reuss Voigt Hill
#
# Bulk Modulus (GPa) = 37.04680 50.05175 43.54927
# Shear Modulus (GPa) = 25.07402 36.78898 30.93150
#
# Velocity S-wave (km/s) = 3.17622 3.84732 3.52777
# Velocity P-wave (km/s) = 5.32511 6.31458 5.84083
#
# Compressibility (1/GPa) = 0.02699289
#
# Stress axis : x y z
#
# Youngs Moduli (GPa) = 78.39223 61.12417 97.30293
#
# Poissons Ratio (x) = 0.19295 0.19518
# Poissons Ratio (y) = 0.24746 0.10099
# Poissons Ratio (z) = 0.15725 0.06344
#
# Static dielectric constant tensor:
#      x y z
#    x 2.087080 -0.090070 -0.033020 
#    y -0.090070 1.976280 0.001140 
#    z -0.033020 0.001140 2.032800 
# 
# From -- ./inp_files/39266.got.cif
#   From: 2010.05.17/outbox.cif.g08.bks.cpg/sg2_20_cif.got.tgz:39266.got - 2010.06.03 11:33:40.
