data_PCOD9007561
_publ_section_title
;
Structure prediction by ZEFSAII (Michael W. Deem and Ramdas Pophale) SiO2 
 PCOD9007561
Probable space group: P -1
;
_chemical_formula_sum "Si O2"
_cell_formula_units_Z 16
_cell_length_a 23.699063
_cell_length_b 5.001482
_cell_length_c 6.862240
_cell_angle_alpha 132.538584
_cell_angle_beta 81.333111
_cell_angle_gamma 89.353121
_cell_volume 585.281730
_symmetry_space_group_name_H-M "P -1"
_symmetry_group_IT_number 2
_symmetry_cell_setting 'triclinic'
loop_
_space_group_symop_operation_xyz
x,y,z
-x,-y,-z
loop_
_atom_site_type_symbol
_atom_site_label
_atom_site_fract_x
_atom_site_fract_y
_atom_site_fract_z
Si Si1 0.148173 0.159684 0.064714
Si Si2 0.243087 0.937182 0.481774
Si Si3 0.734407 0.922393 0.899570
Si Si4 0.536455 0.798802 0.206175
Si Si5 0.125500 0.997010 0.435019
Si Si6 0.387691 0.159733 0.126234
Si Si7 0.364389 0.044556 0.531910
Si Si8 0.038108 0.119351 0.860460
O O1 0.214787 0.969053 0.938331
O O2 0.125251 0.167091 0.304395
O O3 0.099866 0.026088 0.893830
O O4 0.148424 0.569454 0.194213
O O5 0.258841 0.906128 0.229231
O O6 0.176463 0.134478 0.604264
O O7 0.294852 0.133754 0.633680
O O8 0.249862 0.521052 0.350767
O O9 0.667383 0.983474 0.015881
O O10 0.599902 0.716080 0.233231
O O11 0.500000 0.000000 0.500000
O O12 0.500000 0.500000 0.000000
O O13 0.555006 0.003288 0.103241
O O14 0.063912 0.998838 0.571813
O O15 0.383544 0.091971 0.323215
O O16 0.381127 0.605297 0.339691
O O17 0.000000 0.500000 0.000000
O O18 0.000000 0.000000 0.000000
#
# Coordination Sequence:
#
# PCOD9007561 Si02
#       8
#     2   2   2   2   2   2   2   2
#     4  10  21  39  62  88 121 159 204 264 321 380
#     4   8  16  34  62  92 121 156 205 260 328 390
#     4   8  16  34  62  92 121 156 205 260 328 390
#     4  12  26  47  70 102 138 190 236 282 340 410
#     4  10  21  39  62  88 121 159 204 264 321 380
#     4  10  22  43  68  98 134 171 219 280 340 405
#     4  10  22  43  68  98 134 171 219 280 340 405
#     4  12  26  39  56  86 120 166 218 254 308 384
#
# _framework density 27.337264999999999
#
# number of rings (size 3 to 8) (size 9 to 14) (size 15 to 20)
#    0.000    2.000    1.250    1.500    0.000    6.000 
#    0.000    0.000    0.000   18.000    0.000    0.000 
#    0.000    0.000    0.000    0.000    0.000    0.000 
#
# Total GULP energy -89406.554340 kJ/mol
# GULP energy per Si atom -5587.909646 kJ/mol
# Density = 2.727504 g / cm^3
# Si number density = 27.337265 Si / 1000 Ang^3
#
#
#
# Elastic Constant Matrix: (Units=GPa)
#
#
# Indices 1 2 3 4 5 6 
#
# 1 140.0182 14.4521 54.4679 -28.0747 -9.7851 19.4982
# 2 14.4521 153.9679 52.1167 -33.9370 -9.2855 10.6861
# 3 54.4679 52.1167 129.9797 -16.8661 -12.9444 14.2831
# 4 -28.0747 -33.9370 -16.8661 28.2964 5.3422 -10.0472
# 5 -9.7851 -9.2855 -12.9444 5.3422 51.5942 -18.2967
# 6 19.4982 10.6861 14.2831 -10.0472 -18.2967 49.0825
#
#
#
# Elastic Compliance Matrix: (Units=1/GPa)
#
#
# Indices 1 2 3 4 5 6 
#
# 1 0.010949 0.003005 -0.004152 0.011488 -0.000145 -0.001498
# 2 0.003005 0.010399 -0.003719 0.013347 0.000291 0.000465
# 3 -0.004152 -0.003719 0.010788 -0.002655 0.001257 -0.000755
# 4 0.011488 0.013347 -0.002655 0.063422 -0.000488 0.006104
# 5 -0.000145 0.000291 0.001257 -0.000488 0.022592 0.007950
# 6 -0.001498 0.000465 -0.000755 0.006104 0.007950 0.025301
#
#
# Mechanical properties :
#
#
# Convention : Reuss Voigt Hill
#
# Bulk Modulus (GPa) = 44.63568 74.00436 59.32002
# Shear Modulus (GPa) = 31.12342 45.98988 38.55665
#
# Velocity S-wave (km/s) = 3.37782 4.10605 3.75961
# Velocity P-wave (km/s) = 5.61927 7.04338 6.37124
#
# Compressibility (1/GPa) = 0.02240360
#
# Stress axis : x y z
#
# Youngs Moduli (GPa) = 91.33394 96.16558 92.69301
#
# Poissons Ratio (x) = -0.28899 0.38488
# Poissons Ratio (y) = -0.27447 0.34473
# Poissons Ratio (z) = 0.37924 0.35764
#
# Static dielectric constant tensor:
#      x y z
#    x 2.256530 0.007970 -0.029180 
#    y 0.007970 2.116630 -0.027740 
#    z -0.029180 -0.027740 2.146890 
# 
# From -- ./inp_files/121885.got.cif
#   From: 2010.05.17/outbox.cif.g08.bks.cpg/sg2_61_cif.got.tgz:121885.got - 2010.06.03 11:33:40.
