data_PCOD9007370
_publ_section_title
;
Structure prediction by ZEFSAII (Michael W. Deem and Ramdas Pophale) SiO2 
 PCOD9007370
Probable space group: P -1
;
_chemical_formula_sum "Si O2"
_cell_formula_units_Z 14
_cell_length_a 14.307603
_cell_length_b 10.363815
_cell_length_c 8.267613
_cell_angle_alpha 66.082577
_cell_angle_beta 44.683490
_cell_angle_gamma 50.465991
_cell_volume 662.345425
_symmetry_space_group_name_H-M "P -1"
_symmetry_group_IT_number 2
_symmetry_cell_setting 'triclinic'
loop_
_space_group_symop_operation_xyz
x,y,z
-x,-y,-z
loop_
_atom_site_type_symbol
_atom_site_label
_atom_site_fract_x
_atom_site_fract_y
_atom_site_fract_z
Si Si1 0.250134 0.883908 0.951743
Si Si2 0.673524 0.426571 0.145877
Si Si3 0.931894 0.980030 0.425576
Si Si4 0.000144 0.659836 0.361906
Si Si5 0.800194 0.463556 0.306614
Si Si6 0.847312 0.756542 0.151231
Si Si7 0.658862 0.298035 0.724166
O O1 0.322065 0.780590 0.082473
O O2 0.059606 0.963172 0.147917
O O3 0.324096 0.744446 0.792293
O O4 0.260721 0.045924 0.850877
O O5 0.703254 0.459808 0.274523
O O6 0.517669 0.579356 0.180192
O O7 0.823587 0.396268 0.875742
O O8 0.934987 0.810322 0.493871
O O9 0.758424 0.144223 0.554829
O O10 0.000000 0.000000 0.500000
O O11 0.000000 0.500000 0.500000
O O12 0.897782 0.733229 0.288010
O O13 0.775368 0.644324 0.263322
O O14 0.743562 0.402573 0.557938
O O15 0.987073 0.331899 0.108384
#
# Coordination Sequence:
#
# PCOD9007370 Si02
#       7
#     2   2   2   2   2   2   2
#     4  10  21  39  61  90 121 158 203 247 292 358
#     4  10  23  39  63  89 122 159 202 247 303 355
#     4   9  20  34  63  89 114 154 208 236 285 353
#     4  10  23  40  62  90 123 159 201 251 302 356
#     4  10  22  38  63  89 123 157 200 249 302 355
#     4  10  22  38  62  90 122 155 204 253 297 348
#     4  11  21  38  66  90 121 159 202 246 300 362
#
# _framework density 21.137008000000002
#
# number of rings (size 3 to 8) (size 9 to 14) (size 15 to 20)
#    0.000    2.000    1.429    0.857    8.000    5.143 
#    0.000    3.571    0.000    0.000    0.000    0.000 
#    0.000    0.000    0.000    0.000    0.000    0.000 
#
# Total GULP energy -78247.184723 kJ/mol
# GULP energy per Si atom -5589.084623 kJ/mol
# Density = 2.108890 g / cm^3
# Si number density = 21.137008 Si / 1000 Ang^3
#
#
#
# Elastic Constant Matrix: (Units=GPa)
#
#
# Indices 1 2 3 4 5 6 
#
# 1 101.3301 86.7590 35.8336 0.9799 16.5759 6.5734
# 2 86.7590 218.5532 47.1673 -13.7310 3.4771 23.1549
# 3 35.8336 47.1673 36.8674 -10.6513 13.2083 -2.7828
# 4 0.9799 -13.7310 -10.6513 41.0815 -0.5462 -0.6023
# 5 16.5759 3.4771 13.2083 -0.5462 17.4848 -2.1486
# 6 6.5734 23.1549 -2.7828 -0.6023 -2.1486 32.6903
#
#
#
# Elastic Compliance Matrix: (Units=1/GPa)
#
#
# Indices 1 2 3 4 5 6 
#
# 1 0.020435 -0.005966 -0.009886 -0.005215 -0.011071 -0.001549
# 2 -0.005966 0.009838 -0.011151 0.000604 0.011409 -0.005957
# 3 -0.009886 -0.011151 0.070301 0.014411 -0.039402 0.013546
# 4 -0.005215 0.000604 0.014411 0.028369 -0.004925 0.002047
# 5 -0.011071 0.011409 -0.039402 -0.004925 0.094652 -0.003079
# 6 -0.001549 -0.005957 0.013546 0.002047 -0.003079 0.036109
#
#
# Mechanical properties :
#
#
# Convention : Reuss Voigt Hill
#
# Bulk Modulus (GPa) = 21.47368 77.36338 49.41853
# Shear Modulus (GPa) = 15.18687 30.71736 22.95211
#
# Velocity S-wave (km/s) = 2.68339 3.81629 3.29883
# Velocity P-wave (km/s) = 4.44771 7.48993 6.15959
#
# Compressibility (1/GPa) = 0.04656864
#
# Stress axis : x y z
#
# Youngs Moduli (GPa) = 48.93653 101.64955 14.22447
#
# Poissons Ratio (x) = 0.60641 0.14063
# Poissons Ratio (y) = 0.29194 0.15861
# Poissons Ratio (z) = 0.48380 1.13345
#
# Static dielectric constant tensor:
#      x y z
#    x 1.769690 0.006810 0.019460 
#    y 0.006810 1.784880 0.008940 
#    z 0.019460 0.008940 1.795590 
# 
# From -- ./inp_files/294704.got.cif
#   From: 2010.05.17/outbox.cif.g08.bks.cpg/sg2_148_cif.got.tgz:294704.got - 2010.06.03 11:33:40.
