data_PCOD9007731
_publ_section_title
;
Structure prediction by ZEFSAII (Michael W. Deem and Ramdas Pophale) SiO2 
 PCOD9007731
Probable space group: P -1
;
_chemical_formula_sum "Si O2"
_cell_formula_units_Z 16
_cell_length_a 14.341967
_cell_length_b 13.944382
_cell_length_c 7.828151
_cell_angle_alpha 35.720395
_cell_angle_beta 58.783657
_cell_angle_gamma 43.535180
_cell_volume 619.879641
_symmetry_space_group_name_H-M "P -1"
_symmetry_group_IT_number 2
_symmetry_cell_setting 'triclinic'
loop_
_space_group_symop_operation_xyz
x,y,z
-x,-y,-z
loop_
_atom_site_type_symbol
_atom_site_label
_atom_site_fract_x
_atom_site_fract_y
_atom_site_fract_z
Si Si1 0.573158 0.479092 0.637128
Si Si2 0.068902 0.984403 0.635930
Si Si3 0.322634 0.923019 0.316078
Si Si4 0.684044 0.818438 0.805370
Si Si5 0.712318 0.035360 0.104828
Si Si6 0.958589 0.707504 0.560703
Si Si7 0.599402 0.769417 0.633687
Si Si8 0.808728 0.422124 0.674638
O O1 0.500000 0.500000 0.500000
O O2 0.462663 0.691750 0.530618
O O3 0.714301 0.449628 0.565809
O O4 0.620405 0.255163 0.970098
O O5 0.213137 0.939729 0.518840
O O6 0.986653 0.207981 0.480581
O O7 0.103076 0.802963 0.992176
O O8 0.000000 0.000000 0.500000
O O9 0.326312 0.114670 0.083944
O O10 0.275289 0.939216 0.143387
O O11 0.845918 0.691747 0.781739
O O12 0.632384 0.714643 0.885817
O O13 0.559037 0.060826 0.517055
O O14 0.856212 0.901503 0.254758
O O15 0.658191 0.899583 0.357111
O O16 0.083691 0.543649 0.554786
O O17 0.698774 0.571057 0.709559
#
# Coordination Sequence:
#
# PCOD9007731 Si02
#       8
#     2   2   2   2   2   2   2   2
#     4  10  22  38  63  98 128 160 214 266 312 375
#     4  11  24  38  63  94 129 165 211 264 319 374
#     4  10  21  39  62  93 130 162 214 265 313 369
#     4   9  20  40  58  91 130 165 206 260 317 372
#     4  10  21  40  64  94 127 172 207 261 315 382
#     4  10  22  39  66  87 125 166 212 256 317 372
#     4  10  22  40  65  93 126 168 216 254 320 381
#     4  12  23  41  68  96 125 169 215 260 316 380
#
# _framework density 25.811461000000001
#
# number of rings (size 3 to 8) (size 9 to 14) (size 15 to 20)
#    0.000    1.750    2.500    1.125    3.500    6.000 
#    0.000    1.250    0.000    6.000    0.000    0.000 
#    0.000    0.000    0.000    0.000    0.000    0.000 
#
# Total GULP energy -89119.761135 kJ/mol
# GULP energy per Si atom -5569.985071 kJ/mol
# Density = 2.575271 g / cm^3
# Si number density = 25.811461 Si / 1000 Ang^3
#
#
#
# Elastic Constant Matrix: (Units=GPa)
#
#
# Indices 1 2 3 4 5 6 
#
# 1 115.9286 28.7766 5.4839 -5.7676 17.4133 3.8591
# 2 28.7766 88.7343 21.7761 0.7443 9.4240 2.4750
# 3 5.4839 21.7761 45.6711 -9.6951 0.5033 -7.8759
# 4 -5.7676 0.7443 -9.6951 24.2028 -1.2095 2.7544
# 5 17.4133 9.4240 0.5033 -1.2095 30.8012 7.6136
# 6 3.8591 2.4750 -7.8759 2.7544 7.6136 41.6505
#
#
#
# Elastic Compliance Matrix: (Units=1/GPa)
#
#
# Indices 1 2 3 4 5 6 
#
# 1 0.010180 -0.003027 0.000843 0.002608 -0.004764 0.000094
# 2 -0.003027 0.014448 -0.007612 -0.004188 -0.002429 -0.001296
# 3 0.000843 -0.007612 0.028687 0.011395 0.000611 0.004933
# 4 0.002608 -0.004188 0.011395 0.046865 0.001773 -0.001261
# 5 -0.004764 -0.002429 0.000611 0.001773 0.037513 -0.006273
# 6 0.000094 -0.001296 0.004933 -0.001261 -0.006273 0.026241
#
#
# Mechanical properties :
#
#
# Convention : Reuss Voigt Hill
#
# Bulk Modulus (GPa) = 29.65201 40.26748 34.95974
# Shear Modulus (GPa) = 25.67205 32.28405 28.97805
#
# Velocity S-wave (km/s) = 3.15715 3.54045 3.35428
# Velocity P-wave (km/s) = 4.98026 5.68749 5.34558
#
# Compressibility (1/GPa) = 0.03372453
#
# Stress axis : x y z
#
# Youngs Moduli (GPa) = 98.23599 69.21185 34.85944
#
# Poissons Ratio (x) = 0.20949 -0.02940
# Poissons Ratio (y) = 0.29734 0.26533
# Poissons Ratio (z) = -0.08284 0.52681
#
# Static dielectric constant tensor:
#      x y z
#    x 2.084500 0.052800 -0.001740 
#    y 0.052800 2.090990 0.051940 
#    z -0.001740 0.051940 2.147610 
# 
# From -- ./inp_files/312344.got.cif
#   From: 2010.05.17/outbox.cif.g08.bks.cpg/sg2_157_cif.got.tgz:312344.got - 2010.06.03 11:33:40.
