data_PCOD9007442
_publ_section_title
;
Structure prediction by ZEFSAII (Michael W. Deem and Ramdas Pophale) SiO2 
 PCOD9007442
Probable space group: P -1
;
_chemical_formula_sum "Si O2"
_cell_formula_units_Z 16
_cell_length_a 5.633026
_cell_length_b 23.060501
_cell_length_c 12.030371
_cell_angle_alpha 31.328098
_cell_angle_beta 113.004710
_cell_angle_gamma 121.709273
_cell_volume 685.239514
_symmetry_space_group_name_H-M "P -1"
_symmetry_group_IT_number 2
_symmetry_cell_setting 'triclinic'
loop_
_space_group_symop_operation_xyz
x,y,z
-x,-y,-z
loop_
_atom_site_type_symbol
_atom_site_label
_atom_site_fract_x
_atom_site_fract_y
_atom_site_fract_z
Si Si1 0.540915 0.674398 0.239925
Si Si2 0.274553 0.975337 0.739733
Si Si3 0.087306 0.876115 0.095231
Si Si4 0.874876 0.094471 0.699663
Si Si5 0.186820 0.213306 0.370348
Si Si6 0.127648 0.753325 0.936770
Si Si7 0.625629 0.520776 0.307126
Si Si8 0.661823 0.456535 0.004785
O O1 0.849974 0.749291 0.220742
O O2 0.528346 0.585057 0.283427
O O3 0.370458 0.599334 0.438424
O O4 0.431396 0.767856 0.009661
O O5 0.088577 0.863541 0.812220
O O6 0.598685 0.048519 0.647754
O O7 0.151714 0.077146 0.559228
O O8 0.293296 0.920278 0.955547
O O9 0.187797 0.867188 0.252336
O O10 0.963194 0.980189 0.911039
O O11 0.121590 0.205967 0.501275
O O12 0.956379 0.243684 0.210101
O O13 0.489640 0.310231 0.226752
O O14 0.924672 0.620296 0.160574
O O15 0.421836 0.502412 0.195291
O O16 0.500000 0.500000 0.000000
O O17 0.000000 0.500000 0.000000
#
# Coordination Sequence:
#
# PCOD9007442 Si02
#       8
#     2   2   2   2   2   2   2   2
#     4  11  22  42  68  95 132 183 231 292 350 414
#     4  11  21  40  64 100 132 179 222 286 353 415
#     4  10  21  39  61  93 133 171 228 274 346 411
#     4  10  22  40  62  95 132 176 222 279 342 417
#     4  10  26  41  68  99 134 175 232 283 348 428
#     4  11  22  42  65  94 136 176 225 287 351 417
#     4  10  25  43  68 100 134 175 242 287 346 424
#     4  11  28  51  75 106 144 188 233 294 360 425
#
# _framework density 23.349498000000001
#
# number of rings (size 3 to 8) (size 9 to 14) (size 15 to 20)
#    0.000    1.500    2.500    1.125    7.000    1.500 
#    0.000    0.000    0.000    0.000    0.000    0.000 
#    0.000    0.000    0.000    0.000    0.000    0.000 
#
# Total GULP energy -89320.666043 kJ/mol
# GULP energy per Si atom -5582.541628 kJ/mol
# Density = 2.329635 g / cm^3
# Si number density = 23.349498 Si / 1000 Ang^3
#
#
#
# Elastic Constant Matrix: (Units=GPa)
#
#
# Indices 1 2 3 4 5 6 
#
# 1 38.8167 20.3608 10.2985 1.5226 -10.3760 7.4551
# 2 20.3608 113.7884 30.0775 11.4485 -8.2959 8.0787
# 3 10.2985 30.0775 100.3911 9.2023 -12.4016 1.0994
# 4 1.5226 11.4485 9.2023 29.2983 -2.9941 -1.3534
# 5 -10.3760 -8.2959 -12.4016 -2.9941 24.4420 0.7156
# 6 7.4551 8.0787 1.0994 -1.3534 0.7156 32.7298
#
#
#
# Elastic Compliance Matrix: (Units=1/GPa)
#
#
# Indices 1 2 3 4 5 6 
#
# 1 0.032798 -0.004474 -0.000519 0.001178 0.012478 -0.006573
# 2 -0.004474 0.010682 -0.002406 -0.003247 0.000157 -0.001674
# 3 -0.000519 -0.002406 0.011492 -0.002174 0.004524 0.000137
# 4 0.001178 -0.003247 -0.002174 0.036392 0.002693 0.002052
# 5 0.012478 0.000157 0.004524 0.002693 0.049006 -0.003993
# 6 -0.006573 -0.001674 0.000137 0.002052 -0.003993 0.032631
#
#
# Mechanical properties :
#
#
# Convention : Reuss Voigt Hill
#
# Bulk Modulus (GPa) = 24.89128 41.60773 33.24951
# Shear Modulus (GPa) = 24.85224 30.11131 27.48178
#
# Velocity S-wave (km/s) = 3.26599 3.59498 3.43443
# Velocity P-wave (km/s) = 4.99056 5.92369 5.47703
#
# Compressibility (1/GPa) = 0.04017472
#
# Stress axis : x y z
#
# Youngs Moduli (GPa) = 30.48947 93.61774 87.01955
#
# Poissons Ratio (x) = 0.41882 0.04514
# Poissons Ratio (y) = 0.13640 0.20937
# Poissons Ratio (z) = 0.01582 0.22524
#
# Static dielectric constant tensor:
#      x y z
#    x 1.924250 -0.009560 0.013680 
#    y -0.009560 1.878380 -0.012440 
#    z 0.013680 -0.012440 1.918270 
# 
# From -- ./inp_files/69772.got.cif
#   From: 2010.05.17/outbox.cif.g08.bks.cpg/sg2_35_cif.got.tgz:69772.got - 2010.06.03 11:33:40.
