data_PCOD9007808
_publ_section_title
;
Structure prediction by ZEFSAII (Michael W. Deem and Ramdas Pophale) SiO2 
 PCOD9007808
Probable space group: P -1
;
_chemical_formula_sum "Si O2"
_cell_formula_units_Z 16
_cell_length_a 21.529974
_cell_length_b 13.541045
_cell_length_c 6.644864
_cell_angle_alpha 139.707226
_cell_angle_beta 131.871879
_cell_angle_gamma 32.986918
_cell_volume 679.971137
_symmetry_space_group_name_H-M "P -1"
_symmetry_group_IT_number 2
_symmetry_cell_setting 'triclinic'
loop_
_space_group_symop_operation_xyz
x,y,z
-x,-y,-z
loop_
_atom_site_type_symbol
_atom_site_label
_atom_site_fract_x
_atom_site_fract_y
_atom_site_fract_z
Si Si1 0.109630 0.522307 0.590480
Si Si2 0.333730 0.254910 0.426336
Si Si3 0.469884 0.783328 0.031580
Si Si4 0.218051 0.851016 0.192253
Si Si5 0.084682 0.197034 0.113476
Si Si6 0.022780 0.123168 0.473158
Si Si7 0.632726 0.384763 0.489964
Si Si8 0.220630 0.623311 0.512814
O O1 0.240868 0.391643 0.618486
O O2 0.098004 0.357444 0.344290
O O3 0.035744 0.671400 0.470592
O O4 0.043279 0.675317 0.876670
O O5 0.265714 0.396973 0.301473
O O6 0.443415 0.224485 0.658166
O O7 0.374587 0.028835 0.150385
O O8 0.540380 0.619936 0.744197
O O9 0.416452 0.694499 0.870577
O O10 0.309645 0.771214 0.435951
O O11 0.171841 0.036113 0.226244
O O12 0.268665 0.657137 0.860569
O O13 0.106934 0.932180 0.204707
O O14 0.097457 0.098403 0.775742
O O15 0.914130 0.183085 0.438996
O O16 0.725550 0.369515 0.552902
#
# Coordination Sequence:
#
# PCOD9007808 Si02
#       8
#     2   2   2   2   2   2   2   2
#     4   9  21  39  64  96 139 168 216 271 325 397
#     4  10  22  45  71  95 135 171 218 282 336 379
#     4  10  24  47  69  95 129 174 224 289 324 382
#     4  11  23  40  63  98 137 171 214 270 322 393
#     4  10  21  39  63 101 131 181 213 259 333 398
#     4  10  22  38  65  98 136 171 217 263 322 409
#     4  11  25  45  70  96 134 170 229 275 328 390
#     4  11  24  41  68 101 130 177 212 270 337 395
#
# _framework density 23.53041
#
# number of rings (size 3 to 8) (size 9 to 14) (size 15 to 20)
#    0.000    1.750    1.250    1.500    5.250    4.000 
#    4.500    0.000    0.000    0.000    0.000    0.000 
#    0.000    0.000    0.000    0.000    0.000    0.000 
#
# Total GULP energy -89342.275831 kJ/mol
# GULP energy per Si atom -5583.892239 kJ/mol
# Density = 2.347685 g / cm^3
# Si number density = 23.530410 Si / 1000 Ang^3
#
#
#
# Elastic Constant Matrix: (Units=GPa)
#
#
# Indices 1 2 3 4 5 6 
#
# 1 78.7630 36.5782 5.7280 0.0194 -6.3730 11.5400
# 2 36.5782 119.0725 26.1756 26.8559 -12.5973 3.2217
# 3 5.7280 26.1756 65.7885 9.0865 -11.6967 8.8426
# 4 0.0194 26.8559 9.0865 36.9175 0.5242 3.7016
# 5 -6.3730 -12.5973 -11.6967 0.5242 26.8353 2.0254
# 6 11.5400 3.2217 8.8426 3.7016 2.0254 28.7774
#
#
#
# Elastic Compliance Matrix: (Units=1/GPa)
#
#
# Indices 1 2 3 4 5 6 
#
# 1 0.016668 -0.006124 0.001721 0.004721 0.002293 -0.007296
# 2 -0.006124 0.013366 -0.003308 -0.009247 0.003338 0.002930
# 3 0.001721 -0.003308 0.018808 -0.001688 0.007571 -0.006415
# 4 0.004721 -0.009247 -0.001688 0.034740 -0.004294 -0.004506
# 5 0.002293 0.003338 0.007571 -0.004294 0.043220 -0.006109
# 6 -0.007296 0.002930 -0.006415 -0.004506 -0.006109 0.040328
#
#
# Mechanical properties :
#
#
# Convention : Reuss Voigt Hill
#
# Bulk Modulus (GPa) = 29.92085 44.50972 37.21529
# Shear Modulus (GPa) = 25.81416 31.51551 28.66484
#
# Velocity S-wave (km/s) = 3.31578 3.66369 3.49406
# Velocity P-wave (km/s) = 5.23475 6.07072 5.66817
#
# Compressibility (1/GPa) = 0.03342151
#
# Stress axis : x y z
#
# Youngs Moduli (GPa) = 59.99374 74.81643 53.16902
#
# Poissons Ratio (x) = 0.45816 -0.09153
# Poissons Ratio (y) = 0.36739 0.17589
# Poissons Ratio (z) = -0.10327 0.24750
#
# Static dielectric constant tensor:
#      x y z
#    x 1.915010 -0.027730 0.028400 
#    y -0.027730 1.937460 -0.002520 
#    z 0.028400 -0.002520 1.899250 
# 
# From -- ./inp_files/118913.got.cif
#   From: 2010.05.17/outbox.cif.g08.bks.cpg/sg2_60_cif.got.tgz:118913.got - 2010.06.03 11:33:40.
