data_PCOD9007344
_publ_section_title
;
Structure prediction by ZEFSAII (Michael W. Deem and Ramdas Pophale) SiO2 
 PCOD9007344
Probable space group: P -1
;
_chemical_formula_sum "Si O2"
_cell_formula_units_Z 14
_cell_length_a 5.421038
_cell_length_b 20.524025
_cell_length_c 7.672157
_cell_angle_alpha 44.032761
_cell_angle_beta 87.160713
_cell_angle_gamma 107.420662
_cell_volume 519.032825
_symmetry_space_group_name_H-M "P -1"
_symmetry_group_IT_number 2
_symmetry_cell_setting 'triclinic'
loop_
_space_group_symop_operation_xyz
x,y,z
-x,-y,-z
loop_
_atom_site_type_symbol
_atom_site_label
_atom_site_fract_x
_atom_site_fract_y
_atom_site_fract_z
Si Si1 0.823391 0.556305 0.605461
Si Si2 0.737327 0.838844 0.413499
Si Si3 0.548428 0.098444 0.934133
Si Si4 0.562415 0.368999 0.713175
Si Si5 0.838288 0.047416 0.525028
Si Si6 0.728801 0.227915 0.181956
Si Si7 0.934832 0.685568 0.669325
O O1 0.623594 0.443977 0.737168
O O2 0.697898 0.630217 0.379625
O O3 0.141865 0.582126 0.497754
O O4 0.831462 0.580112 0.763241
O O5 0.698071 0.872031 0.160840
O O6 0.503283 0.844126 0.530593
O O7 0.011936 0.911649 0.371183
O O8 0.697584 0.720695 0.636119
O O9 0.830008 0.210839 0.655712
O O10 0.500000 0.000000 0.000000
O O11 0.472471 0.045689 0.229717
O O12 0.563135 0.263184 0.987296
O O13 0.865659 0.158507 0.241340
O O14 0.000000 0.000000 0.500000
O O15 0.948558 0.317671 0.135869
#
# Coordination Sequence:
#
# PCOD9007344 Si02
#       7
#     2   2   2   2   2   2   2
#     4  10  24  46  70 103 133 182 230 279 359 429
#     4  10  21  39  61  88 132 176 227 281 340 403
#     4  11  20  41  60  88 130 178 225 275 333 404
#     4  10  24  46  71  98 144 175 220 296 360 415
#     4  11  24  39  61  96 135 178 232 286 341 404
#     4  10  23  42  64  97 134 179 227 290 346 400
#     4  10  23  39  69  97 126 181 237 276 335 419
#
# _framework density 26.973247000000001
#
# number of rings (size 3 to 8) (size 9 to 14) (size 15 to 20)
#    0.000    1.714    4.286    0.429    8.000    3.429 
#    0.000    0.714    0.000    0.000    0.000    0.000 
#    0.000    0.000    0.000    0.000    0.000    0.000 
#
# Total GULP energy -78153.818844 kJ/mol
# GULP energy per Si atom -5582.415632 kJ/mol
# Density = 2.691185 g / cm^3
# Si number density = 26.973247 Si / 1000 Ang^3
#
#
#
# Elastic Constant Matrix: (Units=GPa)
#
#
# Indices 1 2 3 4 5 6 
#
# 1 90.7132 37.8366 22.7800 -11.1962 20.6168 -11.5488
# 2 37.8366 138.7978 -13.2551 -5.3280 4.1182 -6.2891
# 3 22.7800 -13.2551 73.8086 -2.8424 11.8467 -15.7847
# 4 -11.1962 -5.3280 -2.8424 14.0454 -6.2017 9.9032
# 5 20.6168 4.1182 11.8467 -6.2017 47.3323 0.8576
# 6 -11.5488 -6.2891 -15.7847 9.9032 0.8576 46.4110
#
#
#
# Elastic Compliance Matrix: (Units=1/GPa)
#
#
# Indices 1 2 3 4 5 6 
#
# 1 0.016042 -0.004372 -0.004690 0.008148 -0.004368 0.000146
# 2 -0.004372 0.008730 0.003115 -0.000255 0.000310 0.001203
# 3 -0.004690 0.003115 0.017226 -0.004915 -0.003296 0.006223
# 4 0.008148 -0.000255 -0.004915 0.095568 0.010592 -0.020266
# 5 -0.004368 0.000310 -0.003296 0.010592 0.025304 -0.004894
# 6 0.000146 0.001203 0.006223 -0.020266 -0.004894 0.028278
#
#
# Mechanical properties :
#
#
# Convention : Reuss Voigt Hill
#
# Bulk Modulus (GPa) = 33.21906 44.22695 38.72300
# Shear Modulus (GPa) = 23.46561 38.62161 31.04361
#
# Velocity S-wave (km/s) = 2.95271 3.78808 3.39618
# Velocity P-wave (km/s) = 4.89560 5.96364 5.45582
#
# Compressibility (1/GPa) = 0.03010320
#
# Stress axis : x y z
#
# Youngs Moduli (GPa) = 62.33529 114.55349 58.05103
#
# Poissons Ratio (x) = 0.50083 0.27227
# Poissons Ratio (y) = 0.27253 -0.18082
# Poissons Ratio (z) = 0.29236 -0.35681
#
# Static dielectric constant tensor:
#      x y z
#    x 2.215680 0.018570 -0.003180 
#    y 0.018570 2.136360 -0.024890 
#    z -0.003180 -0.024890 2.263920 
# 
# From -- ./inp_files/36229.got.cif
#   From: 2010.05.17/outbox.cif.g08.bks.cpg/sg2_19_cif.got.tgz:36229.got - 2010.06.03 11:33:40.
