data_PCOD9007804
_publ_section_title
;
Structure prediction by ZEFSAII (Michael W. Deem and Ramdas Pophale) SiO2 
 PCOD9007804
Probable space group: P -1
;
_chemical_formula_sum "Si O2"
_cell_formula_units_Z 16
_cell_length_a 14.307685
_cell_length_b 9.175625
_cell_length_c 11.606489
_cell_angle_alpha 78.207476
_cell_angle_beta 148.243323
_cell_angle_gamma 111.738998
_cell_volume 725.621138
_symmetry_space_group_name_H-M "P -1"
_symmetry_group_IT_number 2
_symmetry_cell_setting 'triclinic'
loop_
_space_group_symop_operation_xyz
x,y,z
-x,-y,-z
loop_
_atom_site_type_symbol
_atom_site_label
_atom_site_fract_x
_atom_site_fract_y
_atom_site_fract_z
Si Si1 0.749889 0.450697 0.620452
Si Si2 0.200235 0.004880 0.496176
Si Si3 0.133198 0.898903 0.897405
Si Si4 0.047311 0.747146 0.576910
Si Si5 0.315110 0.567873 0.795762
Si Si6 0.468071 0.358027 0.765228
Si Si7 0.175235 0.578959 0.039176
Si Si8 0.453153 0.826067 0.694470
O O1 0.673266 0.573059 0.458072
O O2 0.778368 0.481827 0.780798
O O3 0.598750 0.273280 0.461977
O O4 0.960024 0.470248 0.789540
O O5 0.087825 0.880526 0.498527
O O6 0.314546 0.922390 0.553555
O O7 0.359023 0.166020 0.690769
O O8 0.045167 0.056383 0.259522
O O9 0.088618 0.833601 0.729647
O O10 0.160923 0.752367 0.016174
O O11 0.329212 0.052843 0.085358
O O12 0.190889 0.656319 0.718528
O O13 0.837171 0.607757 0.369759
O O14 0.402331 0.689823 0.762237
O O15 0.464232 0.567179 0.050716
O O16 0.657321 0.402274 0.877540
#
# Coordination Sequence:
#
# PCOD9007804 Si02
#       8
#     2   2   2   2   2   2   2   2
#     4  11  27  45  70  97 128 173 228 270 326 385
#     4  11  24  40  65  97 135 172 215 261 329 393
#     4  12  22  42  67  95 134 178 216 264 331 389
#     4  10  21  39  63 100 137 176 210 265 328 393
#     4  10  22  37  68  99 136 171 213 270 326 388
#     4  12  23  44  70  99 130 174 221 267 329 393
#     4  11  24  47  71  93 131 174 220 279 323 382
#     4  11  25  44  65 100 137 170 216 272 323 392
#
# _framework density 22.050072
#
# number of rings (size 3 to 8) (size 9 to 14) (size 15 to 20)
#    0.000    1.000    3.750    2.250    5.250    3.000 
#    0.000    0.625    0.000    0.000    0.000    0.000 
#    0.000    0.000    0.000    0.000    0.000    0.000 
#
# Total GULP energy -89588.514740 kJ/mol
# GULP energy per Si atom -5599.282171 kJ/mol
# Density = 2.199989 g / cm^3
# Si number density = 22.050072 Si / 1000 Ang^3
#
#
#
# Elastic Constant Matrix: (Units=GPa)
#
#
# Indices 1 2 3 4 5 6 
#
# 1 45.8346 4.4687 25.6588 -0.7621 10.3134 5.8222
# 2 4.4687 81.2304 34.7086 18.5085 -7.0278 -4.7260
# 3 25.6588 34.7086 116.8897 4.5718 5.2616 4.6823
# 4 -0.7621 18.5085 4.5718 51.9676 7.0754 5.5729
# 5 10.3134 -7.0278 5.2616 7.0754 30.2780 -1.4049
# 6 5.8222 -4.7260 4.6823 5.5729 -1.4049 27.7592
#
#
#
# Elastic Compliance Matrix: (Units=1/GPa)
#
#
# Indices 1 2 3 4 5 6 
#
# 1 0.027969 -0.001348 -0.005164 0.003399 -0.010034 -0.006415
# 2 -0.001348 0.017211 -0.005094 -0.007333 0.007327 0.005915
# 3 -0.005164 -0.005094 0.011315 0.001200 -0.001764 -0.002023
# 4 0.003399 -0.007333 0.001200 0.023814 -0.008977 -0.007399
# 5 -0.010034 0.007327 -0.001764 -0.008977 0.040899 0.007522
# 6 -0.006415 0.005915 -0.002023 -0.007399 0.007522 0.040584
#
#
# Mechanical properties :
#
#
# Convention : Reuss Voigt Hill
#
# Bulk Modulus (GPa) = 30.04622 41.51410 35.78016
# Shear Modulus (GPa) = 25.49748 33.94219 29.71984
#
# Velocity S-wave (km/s) = 3.40420 3.92768 3.67527
# Velocity P-wave (km/s) = 5.39512 6.27988 5.85424
#
# Compressibility (1/GPa) = 0.03328206
#
# Stress axis : x y z
#
# Youngs Moduli (GPa) = 35.75407 58.10389 88.38018
#
# Poissons Ratio (x) = 0.07833 0.45635
# Poissons Ratio (y) = 0.04820 0.45025
# Poissons Ratio (z) = 0.18462 0.29601
#
# Static dielectric constant tensor:
#      x y z
#    x 1.822810 -0.034410 0.033230 
#    y -0.034410 1.810180 -0.033040 
#    z 0.033230 -0.033040 1.815480 
# 
# From -- ./inp_files/186420.got.cif
#   From: 2010.05.17/outbox.cif.g08.bks.cpg/sg2_94_cif.got.tgz:186420.got - 2010.06.03 11:33:40.
