data_PCOD9007460
_publ_section_title
;
Structure prediction by ZEFSAII (Michael W. Deem and Ramdas Pophale) SiO2 
 PCOD9007460
Probable space group: P -1
;
_chemical_formula_sum "Si O2"
_cell_formula_units_Z 12
_cell_length_a 10.695434
_cell_length_b 17.390320
_cell_length_c 10.636332
_cell_angle_alpha 150.692800
_cell_angle_beta 150.892811
_cell_angle_gamma 35.013251
_cell_volume 457.298349
_symmetry_space_group_name_H-M "P -1"
_symmetry_group_IT_number 2
_symmetry_cell_setting 'triclinic'
loop_
_space_group_symop_operation_xyz
x,y,z
-x,-y,-z
loop_
_atom_site_type_symbol
_atom_site_label
_atom_site_fract_x
_atom_site_fract_y
_atom_site_fract_z
Si Si1 0.912177 0.159753 0.316998
Si Si2 0.416625 0.422496 0.940873
Si Si3 0.117480 0.908189 0.344943
Si Si4 0.683827 0.915534 0.649998
Si Si5 0.382276 0.184552 0.201999
Si Si6 0.187343 0.513884 0.403397
O O1 0.103010 0.051926 0.435288
O O2 0.826243 0.354111 0.532808
O O3 0.039263 0.148238 0.271965
O O4 0.697974 0.052129 0.958887
O O5 0.425711 0.239957 0.645776
O O6 0.115112 0.479878 0.810786
O O7 0.500000 0.500000 0.000000
O O8 0.628049 0.434013 0.251857
O O9 0.613259 0.205098 0.527269
O O10 0.000000 0.000000 0.500000
O O11 0.901886 0.808671 0.973443
O O12 0.500000 0.000000 0.500000
O O13 0.325440 0.321618 0.239830
O O14 0.500000 0.000000 0.000000
#
# Coordination Sequence:
#
# PCOD9007460 Si02
#       6
#     2   2   2   2   2   2
#     4  10  23  40  65  95 136 178 222 272 331 408
#     4  11  24  39  61 100 140 172 221 271 329 409
#     4  10  23  43  67  96 125 172 229 280 339 390
#     4  10  21  39  61  94 138 178 218 263 337 405
#     4  10  23  44  65  94 129 168 231 279 335 393
#     4  11  23  42  64  96 134 179 219 274 339 395
#
# _framework density 26.241074000000001
#
# number of rings (size 3 to 8) (size 9 to 14) (size 15 to 20)
#    0.000    1.667    1.667    1.500    4.667    1.333 
#    0.000    6.667    0.000    0.000    0.000    0.000 
#    0.000    0.000    0.000    0.000    0.000    0.000 
#
# Total GULP energy -66931.340178 kJ/mol
# GULP energy per Si atom -5577.611682 kJ/mol
# Density = 2.618135 g / cm^3
# Si number density = 26.241074 Si / 1000 Ang^3
#
#
#
# Elastic Constant Matrix: (Units=GPa)
#
#
# Indices 1 2 3 4 5 6 
#
# 1 58.5612 12.4804 10.9615 4.1626 16.0536 12.1613
# 2 12.4804 205.5156 51.4922 21.0222 26.9752 17.3151
# 3 10.9615 51.4922 127.4761 -12.0909 42.0195 -0.9404
# 4 4.1626 21.0222 -12.0909 78.7692 -3.6875 17.7796
# 5 16.0536 26.9752 42.0195 -3.6875 33.8556 15.1006
# 6 12.1613 17.3151 -0.9404 17.7796 15.1006 37.0748
#
#
#
# Elastic Compliance Matrix: (Units=1/GPa)
#
#
# Indices 1 2 3 4 5 6 
#
# 1 0.020223 0.000016 0.001923 -0.000984 -0.011446 -0.001458
# 2 0.000016 0.005871 -0.001873 -0.001688 -0.002027 -0.001159
# 3 0.001923 -0.001873 0.016868 -0.000796 -0.025554 0.011462
# 4 -0.000984 -0.001688 -0.000796 0.015796 0.009058 -0.010173
# 5 -0.011446 -0.002027 -0.025554 0.009058 0.084822 -0.034839
# 6 -0.001458 -0.001159 0.011462 -0.010173 -0.034839 0.047351
#
#
# Mechanical properties :
#
#
# Convention : Reuss Voigt Hill
#
# Bulk Modulus (GPa) = 23.20478 60.15787 41.68133
# Shear Modulus (GPa) = 24.37070 51.04786 37.70928
#
# Velocity S-wave (km/s) = 3.05080 4.41539 3.79493
# Velocity P-wave (km/s) = 4.61216 6.99779 5.92626
#
# Compressibility (1/GPa) = 0.04309456
#
# Stress axis : x y z
#
# Youngs Moduli (GPa) = 49.44784 170.33980 59.28240
#
# Poissons Ratio (x) = -0.00271 -0.11403
# Poissons Ratio (y) = -0.00079 0.11105
# Poissons Ratio (z) = -0.09511 0.31910
#
# Static dielectric constant tensor:
#      x y z
#    x 2.353760 -0.052350 -0.241430 
#    y -0.052350 2.134340 -0.003620 
#    z -0.241430 -0.003620 2.819500 
# 
# From -- ./inp_files/92005.got.cif
#   From: 2010.05.17/outbox.cif.g08.bks.cpg/sg2_47_cif.got.tgz:92005.got - 2010.06.03 11:33:40.
