data_PCOD9007226
_publ_section_title
;
Structure prediction by ZEFSAII (Michael W. Deem and Ramdas Pophale) SiO2 
 PCOD9007226
Probable space group: P -1
;
_chemical_formula_sum "Si O2"
_cell_formula_units_Z 16
_cell_length_a 11.706364
_cell_length_b 17.061762
_cell_length_c 9.085798
_cell_angle_alpha 59.787777
_cell_angle_beta 76.064130
_cell_angle_gamma 126.936663
_cell_volume 774.208686
_symmetry_space_group_name_H-M "P -1"
_symmetry_group_IT_number 2
_symmetry_cell_setting 'triclinic'
loop_
_space_group_symop_operation_xyz
x,y,z
-x,-y,-z
loop_
_atom_site_type_symbol
_atom_site_label
_atom_site_fract_x
_atom_site_fract_y
_atom_site_fract_z
Si Si1 0.722494 0.891494 0.097530
Si Si2 0.641823 0.873373 0.450841
Si Si3 0.914178 0.896277 0.477758
Si Si4 0.368842 0.996518 0.117984
Si Si5 0.785590 0.517668 0.048230
Si Si6 0.537774 0.577206 0.566183
Si Si7 0.833708 0.658039 0.628647
Si Si8 0.699989 0.079479 0.446996
O O1 0.774737 0.974660 0.159176
O O2 0.656727 0.749117 0.311715
O O3 0.903681 0.991030 0.818559
O O4 0.553342 0.852990 0.108879
O O5 0.366594 0.674672 0.694408
O O6 0.713380 0.824538 0.543242
O O7 0.719018 0.000293 0.421248
O O8 0.848091 0.748457 0.660205
O O9 0.000000 0.000000 0.500000
O O10 0.378981 0.996418 0.291022
O O11 0.092089 0.810207 0.346022
O O12 0.500000 0.000000 0.000000
O O13 0.676479 0.523434 0.181319
O O14 0.756702 0.522585 0.878713
O O15 0.060205 0.705064 0.818408
O O16 0.500000 0.500000 0.500000
O O17 0.677094 0.600160 0.607130
O O18 0.500000 0.000000 0.500000
#
# Coordination Sequence:
#
# PCOD9007226 Si02
#       8
#     2   2   2   2   2   2   2   2
#     4  10  22  38  58  93 133 162 222 260 325 388
#     4  11  22  39  65  90 130 172 209 275 325 376
#     4  11  21  33  60  92 125 172 212 259 326 383
#     4  10  22  41  65  91 126 171 217 275 325 382
#     4  10  23  42  62  94 133 166 217 267 326 391
#     4  11  24  35  60  95 133 177 204 269 334 378
#     4  10  21  39  60  91 131 170 212 261 327 383
#     4  11  25  44  68  95 120 175 228 267 327 394
#
# _framework density 20.666262
#
# number of rings (size 3 to 8) (size 9 to 14) (size 15 to 20)
#    0.000    1.500    2.500    3.750    5.250    2.500 
#    0.000    1.250    0.000    6.750    0.000    0.000 
#    0.000    0.000    0.000    0.000    0.000    0.000 
#
# Total GULP energy -89141.737921 kJ/mol
# GULP energy per Si atom -5571.358620 kJ/mol
# Density = 2.061922 g / cm^3
# Si number density = 20.666262 Si / 1000 Ang^3
#
#
#
# Elastic Constant Matrix: (Units=GPa)
#
#
# Indices 1 2 3 4 5 6 
#
# 1 77.0762 20.9800 16.3723 0.9622 -15.6746 17.5114
# 2 20.9800 130.3401 38.7967 24.0098 -8.6355 3.4531
# 3 16.3723 38.7967 82.7878 19.6134 4.0454 13.0040
# 4 0.9622 24.0098 19.6134 29.7021 -0.4335 -1.5207
# 5 -15.6746 -8.6355 4.0454 -0.4335 22.3881 5.3209
# 6 17.5114 3.4531 13.0040 -1.5207 5.3209 37.6562
#
#
#
# Elastic Compliance Matrix: (Units=1/GPa)
#
#
# Indices 1 2 3 4 5 6 
#
# 1 0.019513 -0.001314 -0.002933 0.002083 0.016134 -0.010137
# 2 -0.001314 0.010188 -0.003282 -0.005971 0.003468 0.000079
# 3 -0.002933 -0.003282 0.017178 -0.008874 -0.005687 -0.003822
# 4 0.002083 -0.005971 -0.008874 0.044519 0.000585 0.004358
# 5 0.016134 0.003468 -0.005687 0.000585 0.061801 -0.014566
# 6 -0.010137 0.000079 -0.003822 0.004358 -0.014566 0.034817
#
#
# Mechanical properties :
#
#
# Convention : Reuss Voigt Hill
#
# Bulk Modulus (GPa) = 31.42557 49.16691 40.29624
# Shear Modulus (GPa) = 23.39944 32.21961 27.80952
#
# Velocity S-wave (km/s) = 3.36855 3.95276 3.67229
# Velocity P-wave (km/s) = 5.51078 6.68393 6.12551
#
# Compressibility (1/GPa) = 0.03182122
#
# Stress axis : x y z
#
# Youngs Moduli (GPa) = 51.24796 98.15163 58.21545
#
# Poissons Ratio (x) = 0.12899 0.17074
# Poissons Ratio (y) = 0.06735 0.19105
# Poissons Ratio (z) = 0.15030 0.32212
#
# Static dielectric constant tensor:
#      x y z
#    x 1.798270 -0.011920 0.017380 
#    y -0.011920 1.808770 -0.062510 
#    z 0.017380 -0.062510 1.838790 
# 
# From -- ./inp_files/277582.got.cif
#   From: 2010.05.17/outbox.cif.g08.bks.cpg/sg2_139_cif.got.tgz:277582.got - 2010.06.03 11:33:40.
