data_PCOD9007133
_publ_section_title
;
Structure prediction by ZEFSAII (Michael W. Deem and Ramdas Pophale) SiO2 
 PCOD9007133
Probable space group: P -1
;
_chemical_formula_sum "Si O2"
_cell_formula_units_Z 16
_cell_length_a 14.152112
_cell_length_b 9.578268
_cell_length_c 15.992681
_cell_angle_alpha 83.986301
_cell_angle_beta 136.801515
_cell_angle_gamma 58.579817
_cell_volume 706.499151
_symmetry_space_group_name_H-M "P -1"
_symmetry_group_IT_number 2
_symmetry_cell_setting 'triclinic'
loop_
_space_group_symop_operation_xyz
x,y,z
-x,-y,-z
loop_
_atom_site_type_symbol
_atom_site_label
_atom_site_fract_x
_atom_site_fract_y
_atom_site_fract_z
Si Si1 0.864447 0.734804 0.334785
Si Si2 0.102788 0.973321 0.655858
Si Si3 0.724358 0.429570 0.651074
Si Si4 0.848249 0.180617 0.001894
Si Si5 0.205700 0.650190 0.867051
Si Si6 0.023454 0.380127 0.941449
Si Si7 0.384741 0.811705 0.261116
Si Si8 0.825935 0.632019 0.138714
O O1 0.898676 0.656045 0.266085
O O2 0.000000 0.500000 0.500000
O O3 0.988143 0.782542 0.417590
O O4 0.522346 0.048487 0.113433
O O5 0.037298 0.923473 0.692333
O O6 0.452042 0.662131 0.909616
O O7 0.000000 0.000000 0.500000
O O8 0.500000 0.500000 0.500000
O O9 0.635884 0.595047 0.503124
O O10 0.758547 0.505855 0.745972
O O11 0.023166 0.080064 0.862081
O O12 0.800593 0.321819 0.039523
O O13 0.586641 0.351398 0.768857
O O14 0.090210 0.034961 0.108717
O O15 0.082635 0.608934 0.767837
O O16 0.049863 0.436264 0.867007
O O17 0.000000 0.500000 0.000000
O O18 0.307284 0.028595 0.156854
#
# Coordination Sequence:
#
# PCOD9007133 Si02
#       8
#     2   2   2   2   2   2   2   2
#     4  10  22  43  66  87 127 166 208 266 318 382
#     4  10  22  39  61  91 118 154 207 258 315 374
#     4   9  20  38  58  87 124 164 215 260 308 371
#     4   9  18  35  59  84 118 162 200 255 309 363
#     4  10  21  39  60  86 121 157 205 256 309 370
#     4  11  23  39  62  92 131 170 214 259 321 391
#     4   9  19  36  56  85 122 160 205 251 307 367
#     4  10  23  41  62  91 126 168 209 257 324 377
#
# _framework density 22.646878000000001
#
# number of rings (size 3 to 8) (size 9 to 14) (size 15 to 20)
#    0.000    2.250    0.000    2.250    3.500    3.500 
#    0.000    6.250    0.000    0.000    0.000    0.000 
#    0.000    0.000    0.000    0.000    0.000    0.000 
#
# Total GULP energy -89235.806505 kJ/mol
# GULP energy per Si atom -5577.237907 kJ/mol
# Density = 2.259533 g / cm^3
# Si number density = 22.646878 Si / 1000 Ang^3
#
#
#
# Elastic Constant Matrix: (Units=GPa)
#
#
# Indices 1 2 3 4 5 6 
#
# 1 111.4456 49.2261 34.9325 9.3824 -15.1353 14.7037
# 2 49.2261 141.0728 34.6363 44.4233 -5.0857 22.5491
# 3 34.9325 34.6363 92.1336 19.0880 -22.3585 21.8059
# 4 9.3824 44.4233 19.0880 45.6055 2.6777 -8.4236
# 5 -15.1353 -5.0857 -22.3585 2.6777 30.3308 -4.9246
# 6 14.7037 22.5491 21.8059 -8.4236 -4.9246 34.7146
#
#
#
# Elastic Compliance Matrix: (Units=1/GPa)
#
#
# Indices 1 2 3 4 5 6 
#
# 1 0.011878 -0.004437 -0.003014 0.003141 0.002831 0.000908
# 2 -0.004437 0.016598 0.004014 -0.020032 0.002715 -0.015899
# 3 -0.003014 0.004014 0.020877 -0.015838 0.013294 -0.016402
# 4 0.003141 -0.020032 -0.015838 0.054269 -0.012905 0.032968
# 5 0.002831 0.002715 0.013294 -0.012905 0.044455 -0.008138
# 6 0.000908 -0.015899 -0.016402 0.032968 -0.008138 0.055897
#
#
# Mechanical properties :
#
#
# Convention : Reuss Voigt Hill
#
# Bulk Modulus (GPa) = 23.54077 64.69353 44.11715
# Shear Modulus (GPa) = 22.22139 37.18730 29.70434
#
# Velocity S-wave (km/s) = 3.13583 4.05662 3.62557
# Velocity P-wave (km/s) = 4.85062 7.11124 6.08680
#
# Compressibility (1/GPa) = 0.04247949
#
# Stress axis : x y z
#
# Youngs Moduli (GPa) = 84.19056 60.24714 47.89995
#
# Poissons Ratio (x) = 0.26732 0.14438
# Poissons Ratio (y) = 0.37355 -0.19229
# Poissons Ratio (z) = 0.25377 -0.24186
#
# Static dielectric constant tensor:
#      x y z
#    x 1.932690 0.009150 0.021180 
#    y 0.009150 1.861300 0.007430 
#    z 0.021180 0.007430 1.882870 
# 
# From -- ./inp_files/528643.got.cif
#   From: 2010.05.17/outbox.cif.g08.bks.cpg/sg2_265_cif.got.tgz:528643.got - 2010.06.03 11:33:40.
