data_PCOD9007008
_publ_section_title
;
Structure prediction by ZEFSAII (Michael W. Deem and Ramdas Pophale) SiO2 
 PCOD9007008
Probable space group: P -1
;
_chemical_formula_sum "Si O2"
_cell_formula_units_Z 16
_cell_length_a 6.417745
_cell_length_b 12.056593
_cell_length_c 12.295065
_cell_angle_alpha 87.235948
_cell_angle_beta 97.100074
_cell_angle_gamma 127.487983
_cell_volume 748.644822
_symmetry_space_group_name_H-M "P -1"
_symmetry_group_IT_number 2
_symmetry_cell_setting 'triclinic'
loop_
_space_group_symop_operation_xyz
x,y,z
-x,-y,-z
loop_
_atom_site_type_symbol
_atom_site_label
_atom_site_fract_x
_atom_site_fract_y
_atom_site_fract_z
Si Si1 0.999991 0.554341 0.725002
Si Si2 0.121672 0.350265 0.073886
Si Si3 0.343433 0.862177 0.637198
Si Si4 0.709851 0.547401 0.155265
Si Si5 0.562099 0.702597 0.280644
Si Si6 0.183758 0.954453 0.007327
Si Si7 0.092379 0.929448 0.433842
Si Si8 0.513460 0.078619 0.819216
O O1 0.977388 0.597145 0.843925
O O2 0.693743 0.439624 0.674582
O O3 0.182977 0.700365 0.666303
O O4 0.141548 0.480900 0.747093
O O5 0.417865 0.407248 0.119894
O O6 0.135905 0.403626 0.950860
O O7 0.946381 0.185768 0.062462
O O8 0.208522 0.870406 0.521180
O O9 0.656478 0.949950 0.627596
O O10 0.335018 0.950456 0.730170
O O11 0.650089 0.652420 0.188424
O O12 0.455310 0.790042 0.235581
O O13 0.830219 0.805300 0.360565
O O14 0.248756 0.927824 0.132393
O O15 0.417260 0.068624 0.937180
O O16 0.000000 0.000000 0.000000
O O17 0.000000 0.000000 0.500000
#
# Coordination Sequence:
#
# PCOD9007008 Si02
#       8
#     2   2   2   2   2   2   2   2
#     4  11  24  43  69 100 142 178 225 284 338 408
#     4  10  21  39  58  97 138 189 227 266 328 409
#     4  11  26  46  72 102 130 179 227 292 349 406
#     4  10  23  38  65  97 142 186 226 270 340 402
#     4  11  25  44  72 102 135 185 229 283 339 410
#     4  11  24  36  63 101 140 183 227 280 329 402
#     4  11  26  48  75  99 132 174 233 291 358 413
#     4  11  24  41  65 100 139 176 234 275 337 410
#
# _framework density 21.371950999999999
#
# number of rings (size 3 to 8) (size 9 to 14) (size 15 to 20)
#    0.000    1.250    2.500    1.875    7.000    4.500 
#    0.000    1.250    0.000    0.000    0.000    0.000 
#    0.000    0.000    0.000    0.000    0.000    0.000 
#
# Total GULP energy -89293.009276 kJ/mol
# GULP energy per Si atom -5580.813080 kJ/mol
# Density = 2.132331 g / cm^3
# Si number density = 21.371951 Si / 1000 Ang^3
#
#
#
# Elastic Constant Matrix: (Units=GPa)
#
#
# Indices 1 2 3 4 5 6 
#
# 1 90.5150 58.5361 36.4698 -13.5392 12.5185 2.0704
# 2 58.5361 130.4646 47.9855 -3.3679 16.4696 23.6486
# 3 36.4698 47.9855 70.8009 2.1679 10.1155 20.5145
# 4 -13.5392 -3.3679 2.1679 34.2562 7.3818 0.5848
# 5 12.5185 16.4696 10.1155 7.3818 28.1752 -1.0849
# 6 2.0704 23.6486 20.5145 0.5848 -1.0849 27.7950
#
#
#
# Elastic Compliance Matrix: (Units=1/GPa)
#
#
# Indices 1 2 3 4 5 6 
#
# 1 0.020910 -0.007506 -0.008557 0.008678 -0.003688 0.010818
# 2 -0.007506 0.014235 -0.002203 -0.000284 -0.004510 -0.010096
# 3 -0.008557 -0.002203 0.025374 -0.004160 -0.003556 -0.016267
# 4 0.008678 -0.000284 -0.004160 0.035285 -0.011384 0.001479
# 5 -0.003688 -0.004510 -0.003556 -0.011384 0.044361 0.008707
# 6 0.010818 -0.010096 -0.016267 0.001479 0.008707 0.056077
#
#
# Mechanical properties :
#
#
# Convention : Reuss Voigt Hill
#
# Bulk Modulus (GPa) = 41.68914 64.19594 52.94254
# Shear Modulus (GPa) = 20.76662 27.96454 24.36558
#
# Velocity S-wave (km/s) = 3.12055 3.62120 3.38016
# Velocity P-wave (km/s) = 5.70374 6.89832 6.32927
#
# Compressibility (1/GPa) = 0.02398706
#
# Stress axis : x y z
#
# Youngs Moduli (GPa) = 47.82287 70.24929 39.41052
#
# Poissons Ratio (x) = 0.52729 0.33724
# Poissons Ratio (y) = 0.35896 0.08683
# Poissons Ratio (z) = 0.40923 0.15477
#
# Static dielectric constant tensor:
#      x y z
#    x 1.867490 0.055400 -0.001800 
#    y 0.055400 1.791910 -0.021480 
#    z -0.001800 -0.021480 1.820860 
# 
# From -- ./inp_files/364584.got.cif
#   From: 2010.05.17/outbox.cif.g08.bks.cpg/sg2_183_cif.got.tgz:364584.got - 2010.06.03 11:33:40.
