data_PCOD9007284
_publ_section_title
;
Structure prediction by ZEFSAII (Michael W. Deem and Ramdas Pophale) SiO2 
 PCOD9007284
Probable space group: P -1
;
_chemical_formula_sum "Si O2"
_cell_formula_units_Z 14
_cell_length_a 21.105844
_cell_length_b 5.154672
_cell_length_c 23.692639
_cell_angle_alpha 101.982933
_cell_angle_beta 12.139164
_cell_angle_gamma 104.108350
_cell_volume 519.703323
_symmetry_space_group_name_H-M "P -1"
_symmetry_group_IT_number 2
_symmetry_cell_setting 'triclinic'
loop_
_space_group_symop_operation_xyz
x,y,z
-x,-y,-z
loop_
_atom_site_type_symbol
_atom_site_label
_atom_site_fract_x
_atom_site_fract_y
_atom_site_fract_z
Si Si1 0.234007 0.841650 0.147259
Si Si2 0.948671 0.326665 0.109043
Si Si3 0.200413 0.794502 0.341225
Si Si4 0.518930 0.661927 0.562363
Si Si5 0.128204 0.969009 0.632863
Si Si6 0.681537 0.692288 0.105284
Si Si7 0.361967 0.249946 0.294614
O O1 0.976684 0.685343 0.405086
O O2 0.447464 0.657332 0.924145
O O3 0.030948 0.918130 0.275954
O O4 0.467173 0.116201 0.975110
O O5 0.773207 0.553548 0.298914
O O6 0.673691 0.167153 0.301899
O O7 0.241228 0.436681 0.819515
O O8 0.093713 0.223413 0.033631
O O9 0.000000 0.500000 0.500000
O O10 0.289362 0.925248 0.332237
O O11 0.000000 0.000000 0.500000
O O12 0.680563 0.803603 0.482906
O O13 0.369980 0.793712 0.393517
O O14 0.870253 0.810687 0.891800
O O15 0.567440 0.374594 0.174142
#
# Coordination Sequence:
#
# PCOD9007284 Si02
#       7
#     2   2   2   2   2   2   2
#     4  10  23  43  67  94 133 178 221 278 333 421
#     4  10  21  39  61  85 124 176 227 280 344 412
#     4  10  26  46  74 106 141 184 229 288 352 426
#     4  10  21  39  61  85 124 176 227 280 344 412
#     4  12  24  37  63  96 132 172 224 286 342 409
#     4  12  24  37  63  96 132 172 224 286 342 409
#     4  10  23  43  67  94 133 178 221 278 333 421
#
# _framework density 26.938444
#
# number of rings (size 3 to 8) (size 9 to 14) (size 15 to 20)
#    0.857    0.571    0.000    5.143    2.000    2.286 
#    0.000    0.000    0.000    0.000    0.000    0.000 
#    0.000    0.000    0.000    0.000    0.000    0.000 
#
# Total GULP energy -78253.992811 kJ/mol
# GULP energy per Si atom -5589.570915 kJ/mol
# Density = 2.687713 g / cm^3
# Si number density = 26.938444 Si / 1000 Ang^3
#
#
#
# Elastic Constant Matrix: (Units=GPa)
#
#
# Indices 1 2 3 4 5 6 
#
# 1 126.7607 32.8157 51.1900 -2.8823 -11.0861 -3.4018
# 2 32.8157 89.0479 37.0042 -1.7308 -11.5556 11.3814
# 3 51.1900 37.0042 196.0230 10.8565 16.2317 -4.0759
# 4 -2.8823 -1.7308 10.8565 20.1597 9.9399 -0.0948
# 5 -11.0861 -11.5556 16.2317 9.9399 70.0430 -8.2287
# 6 -3.4018 11.3814 -4.0759 -0.0948 -8.2287 33.9549
#
#
#
# Elastic Compliance Matrix: (Units=1/GPa)
#
#
# Indices 1 2 3 4 5 6 
#
# 1 0.009704 -0.002673 -0.002208 0.001557 0.001620 0.002000
# 2 -0.002673 0.014007 -0.002251 0.001184 0.001675 -0.004824
# 3 -0.002208 -0.002251 0.006433 -0.003151 -0.001659 0.000894
# 4 0.001557 0.001184 -0.003151 0.055010 -0.006885 -0.002134
# 5 0.001620 0.001675 -0.001659 -0.006885 0.016571 0.003398
# 6 0.002000 -0.004824 0.000894 -0.002134 0.003398 0.032193
#
#
# Mechanical properties :
#
#
# Convention : Reuss Voigt Hill
#
# Bulk Modulus (GPa) = 62.97291 72.65017 67.81154
# Shear Modulus (GPa) = 32.57848 44.21964 38.39906
#
# Velocity S-wave (km/s) = 3.48137 4.05595 3.77959
# Velocity P-wave (km/s) = 6.29184 6.99727 6.65391
#
# Compressibility (1/GPa) = 0.01587984
#
# Stress axis : x y z
#
# Youngs Moduli (GPa) = 103.05541 71.39160 155.43683
#
# Poissons Ratio (x) = 0.19086 0.34323
# Poissons Ratio (y) = 0.27551 0.34983
# Poissons Ratio (z) = 0.22756 0.16068
#
# Static dielectric constant tensor:
#      x y z
#    x 2.199950 0.029650 0.043480 
#    y 0.029650 2.136850 -0.020300 
#    z 0.043480 -0.020300 2.191570 
# 
# From -- ./inp_files/10044.got.cif
#   From: 2010.05.17/outbox.cif.g08.bks.cpg/sg2_6_cif.got.tgz:10044.got - 2010.06.03 11:33:40.
