data_PCOD9007162
_publ_section_title
;
Structure prediction by ZEFSAII (Michael W. Deem and Ramdas Pophale) SiO2 
 PCOD9007162
Probable space group: P -1
;
_chemical_formula_sum "Si O2"
_cell_formula_units_Z 14
_cell_length_a 12.747129
_cell_length_b 11.662403
_cell_length_c 9.142047
_cell_angle_alpha 133.995532
_cell_angle_beta 42.361590
_cell_angle_gamma 129.505145
_cell_volume 637.262349
_symmetry_space_group_name_H-M "P -1"
_symmetry_group_IT_number 2
_symmetry_cell_setting 'triclinic'
loop_
_space_group_symop_operation_xyz
x,y,z
-x,-y,-z
loop_
_atom_site_type_symbol
_atom_site_label
_atom_site_fract_x
_atom_site_fract_y
_atom_site_fract_z
Si Si1 0.535444 0.335117 0.887180
Si Si2 0.472923 0.149750 0.508521
Si Si3 0.069614 0.141563 0.432444
Si Si4 0.569599 0.511743 0.279601
Si Si5 0.831072 0.109698 0.088378
Si Si6 0.911083 0.624401 0.131380
Si Si7 0.806464 0.170345 0.497607
O O1 0.454467 0.182638 0.730821
O O2 0.719861 0.317641 0.685999
O O3 0.500000 0.500000 0.000000
O O4 0.492722 0.357293 0.118376
O O5 0.450184 0.315934 0.609279
O O6 0.654025 0.140211 0.282684
O O7 0.338975 0.989826 0.455960
O O8 0.149693 0.288804 0.589126
O O9 0.933351 0.192178 0.517621
O O10 0.000000 0.000000 0.500000
O O11 0.165799 0.061295 0.144697
O O12 0.500000 0.500000 0.500000
O O13 0.759311 0.531137 0.112185
O O14 0.872556 0.127204 0.233998
O O15 0.964731 0.245593 0.982396
O O16 0.000000 0.500000 0.000000
#
# Coordination Sequence:
#
# PCOD9007162 Si02
#       7
#     2   2   2   2   2   2   2
#     4   9  20  38  60  89 120 150 197 252 302 351
#     4  10  21  39  63  89 119 154 199 252 300 352
#     4  10  22  39  59  88 123 158 197 245 301 358
#     4  11  23  40  60  86 119 161 202 245 298 359
#     4  10  21  39  60  88 119 155 198 249 302 354
#     4  11  23  41  59  84 124 162 198 246 298 358
#     4  11  21  40  65  90 119 158 202 251 298 358
#
# _framework density 21.968973999999999
#
# number of rings (size 3 to 8) (size 9 to 14) (size 15 to 20)
#    0.000    1.714    0.000    5.571    0.000    3.429 
#    0.000   16.429    0.000    0.000    0.000    0.000 
#    0.000    0.000    0.000    0.000    0.000    0.000 
#
# Total GULP energy -78127.484473 kJ/mol
# GULP energy per Si atom -5580.534605 kJ/mol
# Density = 2.191897 g / cm^3
# Si number density = 21.968974 Si / 1000 Ang^3
#
#
#
# Elastic Constant Matrix: (Units=GPa)
#
#
# Indices 1 2 3 4 5 6 
#
# 1 106.2364 22.8747 33.8440 -1.5695 4.4308 -9.7450
# 2 22.8747 42.2757 22.1267 -8.1129 -3.9437 2.5115
# 3 33.8440 22.1267 126.8088 0.1087 14.3792 -8.1523
# 4 -1.5695 -8.1129 0.1087 37.7501 -8.3874 -0.7861
# 5 4.4308 -3.9437 14.3792 -8.3874 49.3272 8.2961
# 6 -9.7450 2.5115 -8.1523 -0.7861 8.2961 35.6487
#
#
#
# Elastic Compliance Matrix: (Units=1/GPa)
#
#
# Indices 1 2 3 4 5 6 
#
# 1 0.011624 -0.006068 -0.001595 -0.001157 -0.001875 0.003651
# 2 -0.006068 0.032323 -0.005266 0.008164 0.007167 -0.006628
# 3 -0.001595 -0.005266 0.009888 -0.002058 -0.004029 0.003088
# 4 -0.001157 0.008164 -0.002058 0.029662 0.006785 -0.002287
# 5 -0.001875 0.007167 -0.004029 0.006785 0.024607 -0.007516
# 6 0.003651 -0.006628 0.003088 -0.002287 -0.007516 0.031921
#
#
# Mechanical properties :
#
#
# Convention : Reuss Voigt Hill
#
# Bulk Modulus (GPa) = 35.74604 48.11241 41.92922
# Shear Modulus (GPa) = 28.53726 37.64356 33.09041
#
# Velocity S-wave (km/s) = 3.60805 4.14392 3.88523
# Velocity P-wave (km/s) = 5.80205 6.69655 6.26529
#
# Compressibility (1/GPa) = 0.02797513
#
# Stress axis : x y z
#
# Youngs Moduli (GPa) = 86.03043 30.93753 101.13547
#
# Poissons Ratio (x) = 0.18774 0.16132
# Poissons Ratio (y) = 0.52207 0.53261
# Poissons Ratio (z) = 0.13722 0.16293
#
# Static dielectric constant tensor:
#      x y z
#    x 1.777110 -0.047130 -0.007490 
#    y -0.047130 1.768820 0.004690 
#    z -0.007490 0.004690 1.818710 
# 
# From -- ./inp_files/154037.got.cif
#   From: 2010.05.17/outbox.cif.g08.bks.cpg/sg2_78_cif.got.tgz:154037.got - 2010.06.03 11:33:40.
