data_PCOD9007080
_publ_section_title
;
Structure prediction by ZEFSAII (Michael W. Deem and Ramdas Pophale) SiO2 
 PCOD9007080
Probable space group: P -1
;
_chemical_formula_sum "Si O2"
_cell_formula_units_Z 16
_cell_length_a 7.665435
_cell_length_b 15.314533
_cell_length_c 15.201617
_cell_angle_alpha 28.748249
_cell_angle_beta 96.575567
_cell_angle_gamma 114.091000
_cell_volume 652.175127
_symmetry_space_group_name_H-M "P -1"
_symmetry_group_IT_number 2
_symmetry_cell_setting 'triclinic'
loop_
_space_group_symop_operation_xyz
x,y,z
-x,-y,-z
loop_
_atom_site_type_symbol
_atom_site_label
_atom_site_fract_x
_atom_site_fract_y
_atom_site_fract_z
Si Si1 0.583741 0.934543 0.410766
Si Si2 0.182323 0.127620 0.993051
Si Si3 0.276524 0.603484 0.535171
Si Si4 0.466054 0.533980 0.868168
Si Si5 0.012147 0.982053 0.749309
Si Si6 0.119438 0.452161 0.372678
Si Si7 0.457876 0.181196 0.817579
Si Si8 0.392178 0.703667 0.010162
O O1 0.367644 0.752325 0.497978
O O2 0.527622 0.784185 0.628593
O O3 0.616425 0.170307 0.186236
O O4 0.791292 0.973600 0.337478
O O5 0.248409 0.376515 0.756712
O O6 0.215886 0.055999 0.963925
O O7 0.967484 0.000621 0.158561
O O8 0.370674 0.147025 0.050351
O O9 0.458466 0.741589 0.345599
O O10 0.037113 0.551324 0.561291
O O11 0.500000 0.500000 0.000000
O O12 0.212536 0.289820 0.044061
O O13 0.628162 0.513960 0.835008
O O14 0.013377 0.201180 0.544262
O O15 0.356176 0.574686 0.331566
O O16 0.199726 0.625636 0.140148
O O17 0.500000 0.000000 0.000000
#
# Coordination Sequence:
#
# PCOD9007080 Si02
#       8
#     2   2   2   2   2   2   2   2
#     4  12  23  43  72 100 137 183 227 272 345 411
#     4  10  21  39  59  93 132 179 224 275 331 389
#     4  12  21  38  66  96 134 182 230 280 329 393
#     4  11  25  48  72 104 139 169 223 287 342 416
#     4  11  22  45  71  97 136 180 226 271 349 402
#     4  11  22  41  68  96 139 186 228 278 339 400
#     4  11  23  40  58  98 141 179 236 288 327 390
#     4  10  21  42  65  98 135 177 222 273 332 410
#
# _framework density 24.533287999999999
#
# number of rings (size 3 to 8) (size 9 to 14) (size 15 to 20)
#    0.000    1.000    3.750    6.000    0.000    1.000 
#    0.000    2.500    0.000    0.000    0.000    0.000 
#    0.000    0.000    0.000    0.000    0.000    0.000 
#
# Total GULP energy -89222.645049 kJ/mol
# GULP energy per Si atom -5576.415316 kJ/mol
# Density = 2.447745 g / cm^3
# Si number density = 24.533288 Si / 1000 Ang^3
#
#
#
# Elastic Constant Matrix: (Units=GPa)
#
#
# Indices 1 2 3 4 5 6 
#
# 1 79.5945 -8.9443 21.0229 -8.7622 -12.9285 -8.7125
# 2 -8.9443 52.8409 5.6983 31.4133 -12.5153 8.2668
# 3 21.0229 5.6983 146.2731 24.7613 13.5183 9.8073
# 4 -8.7622 31.4133 24.7613 42.0054 -8.3236 9.3954
# 5 -12.9285 -12.5153 13.5183 -8.3236 42.8144 6.2771
# 6 -8.7125 8.2668 9.8073 9.3954 6.2771 15.0995
#
#
#
# Elastic Compliance Matrix: (Units=1/GPa)
#
#
# Indices 1 2 3 4 5 6 
#
# 1 0.016028 0.000643 -0.004229 0.005432 0.006611 0.005515
# 2 0.000643 0.037046 0.002873 -0.026243 0.006190 -0.008021
# 3 -0.004229 0.002873 0.009470 -0.008986 -0.004796 -0.002578
# 4 0.005432 -0.026243 -0.008986 0.055151 0.009731 -0.015023
# 5 0.006611 0.006190 -0.004796 0.009731 0.032945 -0.016210
# 6 0.005515 -0.008021 -0.002578 -0.015023 -0.016210 0.091562
#
#
# Mechanical properties :
#
#
# Convention : Reuss Voigt Hill
#
# Bulk Modulus (GPa) = 16.36214 34.91805 25.64010
# Shear Modulus (GPa) = 18.93929 37.37932 28.15930
#
# Velocity S-wave (km/s) = 2.78147 3.90759 3.39159
# Velocity P-wave (km/s) = 4.12302 5.88412 5.08046
#
# Compressibility (1/GPa) = 0.06111668
#
# Stress axis : x y z
#
# Youngs Moduli (GPa) = 62.38960 26.99360 105.59908
#
# Poissons Ratio (x) = -0.01735 0.44657
# Poissons Ratio (y) = -0.04010 -0.30334
# Poissons Ratio (z) = 0.26384 -0.07754
#
# Static dielectric constant tensor:
#      x y z
#    x 0.172020 -0.291810 -0.359780 
#    y -0.291810 1.908510 -0.068250 
#    z -0.359780 -0.068250 1.984770 
# 
# From -- ./inp_files/505035.got.cif
#   From: 2010.05.17/outbox.cif.g08.bks.cpg/sg2_253_cif.got.tgz:505035.got - 2010.06.03 11:33:40.
