data_PCOD9007591
_publ_section_title
;
Structure prediction by ZEFSAII (Michael W. Deem and Ramdas Pophale) SiO2 
 PCOD9007591
Probable space group: P -1
;
_chemical_formula_sum "Si O2"
_cell_formula_units_Z 16
_cell_length_a 6.268243
_cell_length_b 6.021543
_cell_length_c 26.979553
_cell_angle_alpha 103.327478
_cell_angle_beta 133.390846
_cell_angle_gamma 86.350588
_cell_volume 713.587043
_symmetry_space_group_name_H-M "P -1"
_symmetry_group_IT_number 2
_symmetry_cell_setting 'triclinic'
loop_
_space_group_symop_operation_xyz
x,y,z
-x,-y,-z
loop_
_atom_site_type_symbol
_atom_site_label
_atom_site_fract_x
_atom_site_fract_y
_atom_site_fract_z
Si Si1 0.610986 0.587107 0.144841
Si Si2 0.241960 0.176801 0.020809
Si Si3 0.215673 0.741600 0.396318
Si Si4 0.765869 0.341248 0.353006
Si Si5 0.893859 0.727238 0.763583
Si Si6 0.123774 0.144210 0.479676
Si Si7 0.817907 0.911150 0.103436
Si Si8 0.144033 0.045180 0.728599
O O1 0.321054 0.414288 0.075388
O O2 0.728047 0.717114 0.120114
O O3 0.861280 0.438516 0.196057
O O4 0.600882 0.780380 0.195088
O O5 0.543662 0.059747 0.062871
O O6 0.143758 0.197198 0.949470
O O7 0.000000 0.000000 0.000000
O O8 0.559926 0.710416 0.449886
O O9 0.093536 0.811963 0.327680
O O10 0.002918 0.527224 0.373608
O O11 0.184834 0.957111 0.438466
O O12 0.434689 0.402749 0.302671
O O13 0.891908 0.290608 0.424527
O O14 0.747532 0.109475 0.305300
O O15 0.988678 0.879870 0.738043
O O16 0.919972 0.905991 0.823211
O O17 0.000000 0.000000 0.500000
#
# Coordination Sequence:
#
# PCOD9007591 Si02
#       8
#     2   2   2   2   2   2   2   2
#     4  10  21  40  63  87 123 162 197 247 300 353
#     4  10  21  39  62  89 119 155 199 248 300 351
#     4  10  22  38  60  90 120 154 200 251 298 354
#     4  11  23  39  63  91 121 159 202 248 299 356
#     4  10  22  39  60  87 121 161 201 246 299 357
#     4  10  22  40  61  88 121 157 199 247 301 355
#     4   9  21  39  58  87 122 154 198 247 294 357
#     4  10  22  40  59  86 123 158 201 248 299 358
#
# _framework density 22.421934
#
# number of rings (size 3 to 8) (size 9 to 14) (size 15 to 20)
#    0.000    2.000    0.000    2.250    0.000   11.000 
#    0.000    6.250    0.000    0.000    0.000    0.000 
#    0.000    0.000    0.000    0.000    0.000    0.000 
#
# Total GULP energy -89483.881255 kJ/mol
# GULP energy per Si atom -5592.742578 kJ/mol
# Density = 2.237090 g / cm^3
# Si number density = 22.421934 Si / 1000 Ang^3
#
#
#
# Elastic Constant Matrix: (Units=GPa)
#
#
# Indices 1 2 3 4 5 6 
#
# 1 28.6063 5.8797 30.1378 -5.0339 -1.4376 0.4629
# 2 5.8797 74.0806 33.0716 -5.9366 -8.4702 15.9005
# 3 30.1378 33.0716 123.0318 -8.3255 -9.1505 10.2064
# 4 -5.0339 -5.9366 -8.3255 46.9053 6.9327 -7.5144
# 5 -1.4376 -8.4702 -9.1505 6.9327 40.8847 0.4375
# 6 0.4629 15.9005 10.2064 -7.5144 0.4375 31.2662
#
#
#
# Elastic Compliance Matrix: (Units=1/GPa)
#
#
# Indices 1 2 3 4 5 6 
#
# 1 0.048196 0.000965 -0.012225 0.003956 -0.001553 0.003759
# 2 0.000965 0.017132 -0.004019 -0.000047 0.002771 -0.007465
# 3 -0.012225 -0.004019 0.012468 -0.000145 0.001573 -0.001902
# 4 0.003956 -0.000047 -0.000145 0.023192 -0.003896 0.005641
# 5 -0.001553 0.002771 0.001573 -0.003896 0.026025 -0.003200
# 6 0.003759 -0.007465 -0.001902 0.005641 -0.003200 0.037745
#
#
# Mechanical properties :
#
#
# Convention : Reuss Voigt Hill
#
# Bulk Modulus (GPa) = 21.16981 40.43300 30.80141
# Shear Modulus (GPa) = 23.68964 34.25322 28.97143
#
# Velocity S-wave (km/s) = 3.25397 3.91278 3.59848
# Velocity P-wave (km/s) = 4.85591 6.20363 5.57068
#
# Compressibility (1/GPa) = 0.04723708
#
# Stress axis : x y z
#
# Youngs Moduli (GPa) = 20.74870 58.37066 80.20552
#
# Poissons Ratio (x) = -0.05633 0.98051
# Poissons Ratio (y) = -0.02002 0.32237
# Poissons Ratio (z) = 0.25365 0.23461
#
# Static dielectric constant tensor:
#      x y z
#    x 1.792050 -0.049620 -0.009320 
#    y -0.049620 1.814360 0.021270 
#    z -0.009320 0.021270 1.843260 
# 
# From -- ./inp_files/15001.got.cif
#   From: 2010.05.17/outbox.cif.g08.bks.cpg/sg2_8_cif.got.tgz:15001.got - 2010.06.03 11:33:40.
