data_PCOD9007742
_publ_section_title
;
Structure prediction by ZEFSAII (Michael W. Deem and Ramdas Pophale) SiO2 
 PCOD9007742
Probable space group: P -1
;
_chemical_formula_sum "Si O2"
_cell_formula_units_Z 16
_cell_length_a 6.911436
_cell_length_b 17.865625
_cell_length_c 9.554136
_cell_angle_alpha 54.774775
_cell_angle_beta 132.460208
_cell_angle_gamma 106.196890
_cell_volume 698.926462
_symmetry_space_group_name_H-M "P -1"
_symmetry_group_IT_number 2
_symmetry_cell_setting 'triclinic'
loop_
_space_group_symop_operation_xyz
x,y,z
-x,-y,-z
loop_
_atom_site_type_symbol
_atom_site_label
_atom_site_fract_x
_atom_site_fract_y
_atom_site_fract_z
Si Si1 0.573216 0.351359 0.917780
Si Si2 0.516140 0.100537 0.835953
Si Si3 0.086203 0.461151 0.434078
Si Si4 0.588231 0.146240 0.108784
Si Si5 0.645545 0.340955 0.275746
Si Si6 0.082403 0.409724 0.038937
Si Si7 0.070881 0.861893 0.451260
Si Si8 0.658918 0.009779 0.713578
O O1 0.397244 0.417219 0.649978
O O2 0.890012 0.338174 0.061150
O O3 0.478169 0.253635 0.967333
O O4 0.542099 0.384541 0.027312
O O5 0.567915 0.085193 0.713122
O O6 0.221641 0.159616 0.651793
O O7 0.683515 0.137323 0.002846
O O8 0.500000 0.000000 0.000000
O O9 0.000000 0.500000 0.500000
O O10 0.902116 0.385392 0.389624
O O11 0.018881 0.546497 0.204994
O O12 0.828259 0.116774 0.367640
O O13 0.368058 0.085568 0.116620
O O14 0.736799 0.230019 0.415602
O O15 0.395943 0.367844 0.229920
O O16 0.000000 0.500000 0.000000
O O17 0.086401 0.951990 0.264654
O O18 0.500000 0.000000 0.500000
#
# Coordination Sequence:
#
# PCOD9007742 Si02
#       8
#     2   2   2   2   2   2   2   2
#     4  11  23  43  66  98 134 173 222 275 334 398
#     4  10  21  39  62  94 127 166 219 270 319 382
#     4  12  23  43  70  93 134 174 219 275 339 397
#     4   9  21  40  63  90 130 167 211 269 318 378
#     4  11  24  44  65  98 139 172 218 287 328 393
#     4  12  24  44  70  97 132 177 225 272 340 401
#     4  10  22  41  65  91 130 176 216 264 334 387
#     4   9  20  40  64  93 127 169 212 255 323 387
#
# _framework density 22.892250000000001
#
# number of rings (size 3 to 8) (size 9 to 14) (size 15 to 20)
#    0.000    1.500    2.500    2.250    0.000    8.500 
#    4.500    6.250    0.000    0.000    0.000    0.000 
#    0.000    0.000    0.000    0.000    0.000    0.000 
#
# Total GULP energy -89173.131686 kJ/mol
# GULP energy per Si atom -5573.320730 kJ/mol
# Density = 2.284015 g / cm^3
# Si number density = 22.892250 Si / 1000 Ang^3
#
#
#
# Elastic Constant Matrix: (Units=GPa)
#
#
# Indices 1 2 3 4 5 6 
#
# 1 108.5695 28.5396 26.9672 11.1334 0.5743 -9.0627
# 2 28.5396 91.7854 18.8820 25.4789 -6.3782 -5.5912
# 3 26.9672 18.8820 59.6730 12.4729 -7.5580 -7.7666
# 4 11.1334 25.4789 12.4729 35.0953 -7.7927 -10.3625
# 5 0.5743 -6.3782 -7.5580 -7.7927 36.9903 5.3429
# 6 -9.0627 -5.5912 -7.7666 -10.3625 5.3429 39.7555
#
#
#
# Elastic Compliance Matrix: (Units=1/GPa)
#
#
# Indices 1 2 3 4 5 6 
#
# 1 0.011077 -0.002588 -0.004187 -0.000068 -0.001713 0.001556
# 2 -0.002588 0.014621 -0.001589 -0.009545 0.000427 -0.001389
# 3 -0.004187 -0.001589 0.020496 -0.003709 0.002987 0.001458
# 4 -0.000068 -0.009545 -0.003709 0.040138 0.004939 0.007716
# 5 -0.001713 0.000427 0.002987 0.004939 0.029128 -0.002374
# 6 0.001556 -0.001389 0.001458 0.007716 -0.002374 0.027928
#
#
# Mechanical properties :
#
#
# Convention : Reuss Voigt Hill
#
# Bulk Modulus (GPa) = 33.93711 45.42285 39.67998
# Shear Modulus (GPa) = 29.42243 34.74416 32.08329
#
# Velocity S-wave (km/s) = 3.58894 3.90003 3.74771
# Velocity P-wave (km/s) = 5.65958 6.33762 6.00817
#
# Compressibility (1/GPa) = 0.02946627
#
# Stress axis : x y z
#
# Youngs Moduli (GPa) = 90.27732 68.39429 48.78941
#
# Poissons Ratio (x) = 0.17703 0.20429
# Poissons Ratio (y) = 0.23367 0.07750
# Poissons Ratio (z) = 0.37801 0.10865
#
# Static dielectric constant tensor:
#      x y z
#    x 1.866780 -0.020790 0.010680 
#    y -0.020790 1.901900 0.038190 
#    z 0.010680 0.038190 1.919800 
# 
# From -- ./inp_files/138791.got.cif
#   From: 2010.05.17/outbox.cif.g08.bks.cpg/sg2_70_cif.got.tgz:138791.got - 2010.06.03 11:33:40.
