data_PCOD9007608
_publ_section_title
;
Structure prediction by ZEFSAII (Michael W. Deem and Ramdas Pophale) SiO2 
 PCOD9007608
Probable space group: P -1
;
_chemical_formula_sum "Si O2"
_cell_formula_units_Z 14
_cell_length_a 11.582261
_cell_length_b 8.686762
_cell_length_c 11.002896
_cell_angle_alpha 136.400972
_cell_angle_beta 60.452522
_cell_angle_gamma 117.042992
_cell_volume 655.294610
_symmetry_space_group_name_H-M "P -1"
_symmetry_group_IT_number 2
_symmetry_cell_setting 'triclinic'
loop_
_space_group_symop_operation_xyz
x,y,z
-x,-y,-z
loop_
_atom_site_type_symbol
_atom_site_label
_atom_site_fract_x
_atom_site_fract_y
_atom_site_fract_z
Si Si1 0.875610 0.633551 0.321822
Si Si2 0.610671 0.397967 0.458948
Si Si3 0.204127 0.183337 0.981727
Si Si4 0.069336 0.907708 0.567497
Si Si5 0.280962 0.615691 0.341369
Si Si6 0.523097 0.910340 0.300982
Si Si7 0.065789 0.828126 0.031292
O O1 0.751603 0.517484 0.399766
O O2 0.002551 0.734310 0.399237
O O3 0.848541 0.858798 0.395525
O O4 0.902493 0.421935 0.104732
O O5 0.500000 0.500000 0.500000
O O6 0.635079 0.431978 0.610597
O O7 0.557772 0.129191 0.323686
O O8 0.210595 0.383357 0.189206
O O9 0.164555 0.953367 0.948627
O O10 0.344112 0.201148 0.847964
O O11 0.082971 0.198346 0.962821
O O12 0.169438 0.777024 0.517797
O O13 0.947466 0.000460 0.753417
O O14 0.384956 0.740170 0.257951
O O15 0.500000 0.000000 0.500000
#
# Coordination Sequence:
#
# PCOD9007608 Si02
#       7
#     2   2   2   2   2   2   2
#     4  11  23  43  65  97 134 166 219 266 319 385
#     4  11  23  41  65  91 127 173 217 264 322 383
#     4  11  22  38  65  99 130 166 218 266 321 386
#     4  11  24  41  68  99 131 172 210 268 327 378
#     4  11  23  41  66  96 131 171 218 265 320 387
#     4  10  21  39  62  89 126 169 215 259 316 383
#     4  11  22  39  66  99 133 167 214 266 322 387
#
# _framework density 21.364436999999999
#
# number of rings (size 3 to 8) (size 9 to 14) (size 15 to 20)
#    0.000    1.143    2.857    4.286    2.000    2.286 
#    0.000    0.714    0.000    0.000    0.000    0.000 
#    0.000    0.000    0.000    0.000    0.000    0.000 
#
# Total GULP energy -78083.478516 kJ/mol
# GULP energy per Si atom -5577.391323 kJ/mol
# Density = 2.131581 g / cm^3
# Si number density = 21.364437 Si / 1000 Ang^3
#
#
#
# Elastic Constant Matrix: (Units=GPa)
#
#
# Indices 1 2 3 4 5 6 
#
# 1 46.2878 17.1760 18.0094 16.4826 -2.9649 -12.1990
# 2 17.1760 119.1744 23.0442 4.8854 -16.6939 9.2559
# 3 18.0094 23.0442 93.5380 9.9534 -13.4360 -1.2430
# 4 16.4826 4.8854 9.9534 39.0832 2.4621 -4.1625
# 5 -2.9649 -16.6939 -13.4360 2.4621 22.4199 -1.9263
# 6 -12.1990 9.2559 -1.2430 -4.1625 -1.9263 28.1968
#
#
#
# Elastic Compliance Matrix: (Units=1/GPa)
#
#
# Indices 1 2 3 4 5 6 
#
# 1 0.032131 -0.004393 -0.003617 -0.010696 0.001160 0.013684
# 2 -0.004393 0.010466 -0.000881 -0.000156 0.006274 -0.004969
# 3 -0.003617 -0.000881 0.012784 -0.002103 0.006710 -0.000564
# 4 -0.010696 -0.000156 -0.002103 0.030990 -0.006239 -0.000521
# 5 0.001160 0.006274 0.006710 -0.006239 0.054266 0.001525
# 6 0.013684 -0.004969 -0.000564 -0.000521 0.001525 0.043019
#
#
# Mechanical properties :
#
#
# Convention : Reuss Voigt Hill
#
# Bulk Modulus (GPa) = 26.59678 41.71770 34.15724
# Shear Modulus (GPa) = 23.36766 31.32468 27.34617
#
# Velocity S-wave (km/s) = 3.31080 3.83326 3.58157
# Velocity P-wave (km/s) = 5.20493 6.25787 5.75553
#
# Compressibility (1/GPa) = 0.03759854
#
# Stress axis : x y z
#
# Youngs Moduli (GPa) = 31.12261 95.54970 78.22042
#
# Poissons Ratio (x) = 0.41977 0.28295
# Poissons Ratio (y) = 0.13673 0.06889
# Poissons Ratio (z) = 0.11258 0.08416
#
# Static dielectric constant tensor:
#      x y z
#    x 1.807980 0.004690 0.019650 
#    y 0.004690 1.807040 -0.012910 
#    z 0.019650 -0.012910 1.856300 
# 
# From -- ./inp_files/257755.got.cif
#   From: 2010.05.17/outbox.cif.g08.bks.cpg/sg2_129_cif.got.tgz:257755.got - 2010.06.03 11:33:40.
