data_PCOD9007964
_publ_section_title
;
Structure prediction by ZEFSAII (Michael W. Deem and Ramdas Pophale) SiO2 
 PCOD9007964
Probable space group: P -1
;
_chemical_formula_sum "Si O2"
_cell_formula_units_Z 16
_cell_length_a 17.693949
_cell_length_b 12.446660
_cell_length_c 21.983142
_cell_angle_alpha 29.669799
_cell_angle_beta 150.596877
_cell_angle_gamma 159.469012
_cell_volume 793.064213
_symmetry_space_group_name_H-M "P -1"
_symmetry_group_IT_number 2
_symmetry_cell_setting 'triclinic'
loop_
_space_group_symop_operation_xyz
x,y,z
-x,-y,-z
loop_
_atom_site_type_symbol
_atom_site_label
_atom_site_fract_x
_atom_site_fract_y
_atom_site_fract_z
Si Si1 0.162708 0.225887 0.813113
Si Si2 0.436083 0.019846 0.316741
Si Si3 0.777547 0.211167 0.948586
Si Si4 0.887080 0.529771 0.740083
Si Si5 0.751936 0.861518 0.492854
Si Si6 0.176966 0.875842 0.452848
Si Si7 0.291402 0.843645 0.789946
Si Si8 0.994498 0.824009 0.138287
O O1 0.371678 0.612266 0.755522
O O2 0.941626 0.050824 0.702198
O O3 0.073579 0.149840 0.857270
O O4 0.247709 0.073388 0.933867
O O5 0.582007 0.977897 0.471286
O O6 0.298280 0.749133 0.301016
O O7 0.237420 0.946027 0.249141
O O8 0.811645 0.350417 0.838192
O O9 0.547321 0.081246 0.874460
O O10 0.000000 0.500000 0.000000
O O11 0.905438 0.808145 0.619871
O O12 0.126270 0.688553 0.807364
O O13 0.500000 0.500000 0.500000
O O14 0.807080 0.050066 0.500649
O O15 0.751412 0.003784 0.361790
O O16 0.000000 0.500000 0.500000
O O17 0.207564 0.551348 0.835961
O O18 0.000000 0.000000 0.000000
#
# Coordination Sequence:
#
# PCOD9007964 Si02
#       8
#     2   2   2   2   2   2   2   2
#     4  11  23  39  63  90 128 166 206 261 324 371
#     4  10  21  40  65  92 124 161 207 265 313 379
#     4  12  25  41  61  88 127 171 211 261 322 380
#     4  11  23  41  65  94 124 163 217 262 315 379
#     4  12  21  40  71  92 125 171 215 260 318 382
#     4  10  21  39  63  92 126 164 207 261 322 372
#     4  11  24  41  65  93 124 163 214 266 312 379
#     4  11  23  40  66  96 124 163 215 256 316 383
#
# _framework density 20.174911000000002
#
# number of rings (size 3 to 8) (size 9 to 14) (size 15 to 20)
#    0.000    1.000    2.500    5.625    0.000    2.500 
#    0.000    3.750    0.000    0.000    0.000    0.000 
#    0.000    0.000    0.000    0.000    0.000    0.000 
#
# Total GULP energy -89341.619374 kJ/mol
# GULP energy per Si atom -5583.851211 kJ/mol
# Density = 2.012899 g / cm^3
# Si number density = 20.174911 Si / 1000 Ang^3
#
#
#
# Elastic Constant Matrix: (Units=GPa)
#
#
# Indices 1 2 3 4 5 6 
#
# 1 34.5417 21.9282 -22.7045 15.8216 27.6277 2.4649
# 2 21.9282 95.6254 11.6797 14.5646 11.1026 6.5147
# 3 -22.7045 11.6797 64.1521 2.6534 29.1212 9.8452
# 4 15.8216 14.5646 2.6534 38.9008 3.1879 10.4525
# 5 27.6277 11.1026 29.1212 3.1879 7.9126 -11.0881
# 6 2.4649 6.5147 9.8452 10.4525 -11.0881 25.7085
#
#
#
# Elastic Compliance Matrix: (Units=1/GPa)
#
#
# Indices 1 2 3 4 5 6 
#
# 1 0.010924 -0.003974 -0.007871 -0.008660 0.022729 0.016298
# 2 -0.003974 0.012517 -0.001000 -0.001640 -0.004519 -0.003690
# 3 -0.007871 -0.001000 0.005663 0.000721 0.014448 0.004778
# 4 -0.008660 -0.001640 0.000721 0.034399 -0.005601 -0.015432
# 5 0.022729 -0.004519 0.014448 -0.005601 -0.009019 -0.008180
# 6 0.016298 -0.003690 0.004778 -0.015432 -0.008180 0.039187
#
#
# Mechanical properties :
#
#
# Convention : Reuss Voigt Hill
#
# Bulk Modulus (GPa) = 292.86190 24.01398 158.43794
# Shear Modulus (GPa) = 41.49487 26.73209 34.11348
#
# Velocity S-wave (km/s) = 4.54007 3.64403 4.11650
# Velocity P-wave (km/s) = 13.15141 5.44371 10.06463
#
# Compressibility (1/GPa) = 0.00341458
#
# Stress axis : x y z
#
# Youngs Moduli (GPa) = 91.54182 79.89306 176.59464
#
# Poissons Ratio (x) = 0.31749 1.38995
# Poissons Ratio (y) = 0.36378 0.17653
# Poissons Ratio (z) = 0.72051 0.07986
#
# Static dielectric constant tensor:
#      x y z
#    x 1.419730 -0.125990 -0.859160 
#    y -0.125990 1.622820 -0.435760 
#    z -0.859160 -0.435760 -1.035010 
# 
# From -- ./inp_files/470219.got.cif
#   From: 2010.05.17/outbox.cif.g08.bks.cpg/sg2_236_cif.got.tgz:470219.got - 2010.06.03 11:33:40.
