data_PCOD9007741
_publ_section_title
;
Structure prediction by ZEFSAII (Michael W. Deem and Ramdas Pophale) SiO2 
 PCOD9007741
Probable space group: P -1
;
_chemical_formula_sum "Si O2"
_cell_formula_units_Z 12
_cell_length_a 26.182042
_cell_length_b 9.977321
_cell_length_c 16.730895
_cell_angle_alpha 28.822239
_cell_angle_beta 18.042174
_cell_angle_gamma 24.739974
_cell_volume 563.830940
_symmetry_space_group_name_H-M "P -1"
_symmetry_group_IT_number 2
_symmetry_cell_setting 'triclinic'
loop_
_space_group_symop_operation_xyz
x,y,z
-x,-y,-z
loop_
_atom_site_type_symbol
_atom_site_label
_atom_site_fract_x
_atom_site_fract_y
_atom_site_fract_z
Si Si1 0.803551 0.297571 0.924092
Si Si2 0.490894 0.526941 0.861919
Si Si3 0.492239 0.077125 0.228730
Si Si4 0.829328 0.887221 0.619088
Si Si5 0.061071 0.261681 0.291460
Si Si6 0.164244 0.029872 0.785618
O O1 0.741154 0.673467 0.830727
O O2 0.022122 0.122088 0.660949
O O3 0.672030 0.278221 0.061707
O O4 0.791906 0.150378 0.101756
O O5 0.534061 0.754186 0.734208
O O6 0.673772 0.241219 0.694415
O O7 0.427366 0.345805 0.115529
O O8 0.362183 0.915100 0.504337
O O9 0.718873 0.858306 0.993917
O O10 0.949229 0.698055 0.618531
O O11 0.927744 0.585680 0.273652
O O12 0.000000 0.000000 0.500000
O O13 0.000000 0.000000 0.000000
#
# Coordination Sequence:
#
# PCOD9007741 Si02
#       6
#     2   2   2   2   2   2
#     4  11  23  38  62  94 134 166 208 270 321 378
#     4  10  21  42  66  93 121 170 219 263 315 383
#     4  10  23  41  68  93 126 170 220 263 312 387
#     4  10  21  39  62  94 126 172 212 256 321 387
#     4  11  22  44  71  93 126 175 219 259 320 387
#     4  12  25  42  62  98 136 168 211 269 324 376
#
# _framework density 21.282976000000001
#
# number of rings (size 3 to 8) (size 9 to 14) (size 15 to 20)
#    0.000    1.333    1.667    5.500    2.333    2.667 
#    0.000    5.833    0.000    0.000    0.000    0.000 
#    0.000    0.000    0.000    0.000    0.000    0.000 
#
# Total GULP energy -67089.527072 kJ/mol
# GULP energy per Si atom -5590.793923 kJ/mol
# Density = 2.123454 g / cm^3
# Si number density = 21.282976 Si / 1000 Ang^3
#
#
#
# Elastic Constant Matrix: (Units=GPa)
#
#
# Indices 1 2 3 4 5 6 
#
# 1 87.7540 -14.3772 19.4252 0.8766 -12.9454 -15.2651
# 2 -14.3772 42.2803 3.5269 7.1432 -2.3565 -4.4872
# 3 19.4252 3.5269 106.8999 15.3760 -10.0290 -14.5287
# 4 0.8766 7.1432 15.3760 19.3050 -0.9804 1.4381
# 5 -12.9454 -2.3565 -10.0290 -0.9804 26.3716 1.0651
# 6 -15.2651 -4.4872 -14.5287 1.4381 1.0651 37.4371
#
#
#
# Elastic Compliance Matrix: (Units=1/GPa)
#
#
# Indices 1 2 3 4 5 6 
#
# 1 0.014900 0.006634 -0.001044 -0.002409 0.007164 0.006354
# 2 0.006634 0.028892 0.001023 -0.012039 0.005502 0.006871
# 3 -0.001044 0.001023 0.011903 -0.009974 0.003549 0.004598
# 4 -0.002409 -0.012039 -0.009974 0.064788 -0.003292 -0.008691
# 5 0.007164 0.005502 0.003549 -0.003292 0.042999 0.003861
# 6 0.006354 0.006871 0.004598 -0.008691 0.003861 0.032134
#
#
# Mechanical properties :
#
#
# Convention : Reuss Voigt Hill
#
# Bulk Modulus (GPa) = 14.50936 28.23156 21.37046
# Shear Modulus (GPa) = 24.34696 31.84669 28.09683
#
# Velocity S-wave (km/s) = 3.38592 3.87246 3.63734
# Velocity P-wave (km/s) = 4.70299 5.76960 5.26338
#
# Compressibility (1/GPa) = 0.06892100
#
# Stress axis : x y z
#
# Youngs Moduli (GPa) = 67.11540 34.61143 84.01201
#
# Poissons Ratio (x) = -0.22962 0.08773
# Poissons Ratio (y) = -0.44527 -0.08594
# Poissons Ratio (z) = 0.07008 -0.03540
#
# Static dielectric constant tensor:
#      x y z
#    x 1.757890 0.027520 -0.041120 
#    y 0.027520 1.798430 0.000360 
#    z -0.041120 0.000360 1.822730 
# 
# From -- ./inp_files/167346.got.cif
#   From: 2010.05.17/outbox.cif.g08.bks.cpg/sg2_84_cif.got.tgz:167346.got - 2010.06.03 11:33:40.
