data_PCOD9007402
_publ_section_title
;
Structure prediction by ZEFSAII (Michael W. Deem and Ramdas Pophale) SiO2 
 PCOD9007402
Probable space group: P -1
;
_chemical_formula_sum "Si O2"
_cell_formula_units_Z 14
_cell_length_a 18.407427
_cell_length_b 9.040697
_cell_length_c 7.690698
_cell_angle_alpha 52.728301
_cell_angle_beta 127.355705
_cell_angle_gamma 135.498432
_cell_volume 677.903215
_symmetry_space_group_name_H-M "P -1"
_symmetry_group_IT_number 2
_symmetry_cell_setting 'triclinic'
loop_
_space_group_symop_operation_xyz
x,y,z
-x,-y,-z
loop_
_atom_site_type_symbol
_atom_site_label
_atom_site_fract_x
_atom_site_fract_y
_atom_site_fract_z
Si Si1 0.879808 0.316181 0.908188
Si Si2 0.925071 0.568297 0.440869
Si Si3 0.751836 0.925357 0.812000
Si Si4 0.693814 0.450829 0.055030
Si Si5 0.382965 0.841509 0.527637
Si Si6 0.252178 0.537784 0.246683
Si Si7 0.915007 0.961093 0.748136
O O1 0.873307 0.418390 0.641964
O O2 0.802626 0.319564 0.937503
O O3 0.844679 0.069799 0.989075
O O4 0.000000 0.500000 0.000000
O O5 0.820731 0.526502 0.211624
O O6 0.000000 0.500000 0.500000
O O7 0.009620 0.829243 0.414527
O O8 0.819441 0.973411 0.697023
O O9 0.674486 0.019033 0.643643
O O10 0.691357 0.665897 0.942175
O O11 0.620745 0.250972 0.220687
O O12 0.672635 0.406564 0.851182
O O13 0.318995 0.626163 0.459688
O O14 0.500000 0.000000 0.500000
O O15 0.151877 0.279731 0.269118
O O16 0.000000 0.000000 0.000000
#
# Coordination Sequence:
#
# PCOD9007402 Si02
#       7
#     2   2   2   2   2   2   2
#     4  11  21  33  53  90 132 165 210 243 298 386
#     4  12  20  33  60  89 131 180 195 241 320 362
#     4  10  21  39  61  91 126 167 208 261 310 374
#     4  11  22  42  66  87 129 161 211 266 315 372
#     4  11  25  47  66  89 126 164 215 278 321 363
#     4  10  22  38  62  94 122 164 217 254 309 385
#     4  11  19  34  61  92 131 165 203 250 305 383
#
# _framework density 20.651914999999999
#
# number of rings (size 3 to 8) (size 9 to 14) (size 15 to 20)
#    0.000    1.143    7.143    1.714    0.000    2.857 
#    0.000    7.143    0.000    0.000    0.000    0.000 
#    0.000    0.000    0.000    0.000    0.000    0.000 
#
# Total GULP energy -78040.178168 kJ/mol
# GULP energy per Si atom -5574.298441 kJ/mol
# Density = 2.060491 g / cm^3
# Si number density = 20.651915 Si / 1000 Ang^3
#
#
#
# Elastic Constant Matrix: (Units=GPa)
#
#
# Indices 1 2 3 4 5 6 
#
# 1 103.6221 42.2773 20.2343 -18.4145 -1.0562 0.4863
# 2 42.2773 71.8258 5.3292 -16.1734 -4.5259 -15.7544
# 3 20.2343 5.3292 40.8317 -16.6738 -2.6829 -4.2836
# 4 -18.4145 -16.1734 -16.6738 26.5345 0.4566 -4.9149
# 5 -1.0562 -4.5259 -2.6829 0.4566 21.4814 -3.9942
# 6 0.4863 -15.7544 -4.2836 -4.9149 -3.9942 42.9511
#
#
#
# Elastic Compliance Matrix: (Units=1/GPa)
#
#
# Indices 1 2 3 4 5 6 
#
# 1 0.014811 -0.009651 -0.007177 -0.000953 -0.003077 -0.004819
# 2 -0.009651 0.026665 0.011084 0.018959 0.008724 0.013976
# 3 -0.007177 0.011084 0.040443 0.029326 0.008706 0.012346
# 4 -0.000953 0.018959 0.029326 0.070331 0.009617 0.018832
# 5 -0.003077 0.008724 0.008706 0.009617 0.050970 0.009943
# 6 -0.004819 0.013976 0.012346 0.018832 0.009943 0.032774
#
#
# Mechanical properties :
#
#
# Convention : Reuss Voigt Hill
#
# Bulk Modulus (GPa) = 14.19838 39.10681 26.65259
# Shear Modulus (GPa) = 18.45279 28.08934 23.27107
#
# Velocity S-wave (km/s) = 2.99241 3.69200 3.36046
# Velocity P-wave (km/s) = 4.33929 6.09522 5.29061
#
# Compressibility (1/GPa) = 0.07043058
#
# Stress axis : x y z
#
# Youngs Moduli (GPa) = 67.51566 37.50204 24.72595
#
# Poissons Ratio (x) = 0.36194 0.17746
# Poissons Ratio (y) = 0.65160 -0.27406
# Poissons Ratio (z) = 0.48458 -0.41566
#
# Static dielectric constant tensor:
#      x y z
#    x 1.759440 -0.016110 0.022620 
#    y -0.016110 1.805970 0.072200 
#    z 0.022620 0.072200 1.896030 
# 
# From -- ./inp_files/170897.got.cif
#   From: 2010.05.17/outbox.cif.g08.bks.cpg/sg2_86_cif.got.tgz:170897.got - 2010.06.03 11:33:40.
