data_PCOD9007660
_publ_section_title
;
Structure prediction by ZEFSAII (Michael W. Deem and Ramdas Pophale) SiO2 
 PCOD9007660
Probable space group: P -1
;
_chemical_formula_sum "Si O2"
_cell_formula_units_Z 16
_cell_length_a 19.511822
_cell_length_b 4.804711
_cell_length_c 7.202333
_cell_angle_alpha 115.378119
_cell_angle_beta 108.033537
_cell_angle_gamma 74.368222
_cell_volume 572.683870
_symmetry_space_group_name_H-M "P -1"
_symmetry_group_IT_number 2
_symmetry_cell_setting 'triclinic'
loop_
_space_group_symop_operation_xyz
x,y,z
-x,-y,-z
loop_
_atom_site_type_symbol
_atom_site_label
_atom_site_fract_x
_atom_site_fract_y
_atom_site_fract_z
Si Si1 0.685840 0.304880 0.773349
Si Si2 0.575515 0.273218 0.003931
Si Si3 0.663821 0.630896 0.439704
Si Si4 0.438003 0.294737 0.391129
Si Si5 0.779108 0.621062 0.206298
Si Si6 0.133688 0.896342 0.458358
Si Si7 0.929036 0.583559 0.212085
Si Si8 0.090182 0.259221 0.182676
O O1 0.622999 0.337581 0.883379
O O2 0.648639 0.499636 0.617832
O O3 0.704774 0.941041 0.644540
O O4 0.743615 0.509831 0.957481
O O5 0.560480 0.927863 0.844893
O O6 0.500000 0.500000 0.000000
O O7 0.622055 0.325205 0.236369
O O8 0.579049 0.848990 0.465853
O O9 0.723270 0.573672 0.305706
O O10 0.500000 0.500000 0.500000
O O11 0.797621 0.971956 0.355898
O O12 0.862445 0.441496 0.209297
O O13 0.067690 0.125645 0.565850
O O14 0.123997 0.967783 0.251252
O O15 0.129583 0.538737 0.372229
O O16 0.004116 0.353946 0.185139
O O17 0.905548 0.725150 0.030636
#
# Coordination Sequence:
#
# PCOD9007660 Si02
#       8
#     2   2   2   2   2   2   2   2
#     4  10  22  41  60  88 131 167 219 275 338 417
#     4  10  21  39  62  91 124 161 209 275 334 409
#     4  10  22  41  60  87 129 170 217 276 340 416
#     4  11  23  38  65  97 123 171 224 282 347 418
#     4   9  23  42  59  94 126 181 224 285 346 431
#     4  10  24  42  69 103 139 190 239 298 361 427
#     4   9  23  40  67 103 135 184 239 292 361 424
#     4  11  22  44  71 102 144 183 241 307 356 423
#
# _framework density 27.938628000000001
#
# number of rings (size 3 to 8) (size 9 to 14) (size 15 to 20)
#    0.750    1.250    0.000    2.250    1.750   10.000 
#    6.750    0.000    0.000    0.000    0.000    0.000 
#    0.000    0.000    0.000    0.000    0.000    0.000 
#
# Total GULP energy -89214.236653 kJ/mol
# GULP energy per Si atom -5575.889791 kJ/mol
# Density = 2.787504 g / cm^3
# Si number density = 27.938628 Si / 1000 Ang^3
#
#
#
# Elastic Constant Matrix: (Units=GPa)
#
#
# Indices 1 2 3 4 5 6 
#
# 1 180.7431 25.0577 74.7731 3.2344 -2.0656 22.3907
# 2 25.0577 98.5170 71.6640 -5.8374 -0.0891 8.7106
# 3 74.7731 71.6640 217.3049 -9.8582 5.0884 9.5171
# 4 3.2344 -5.8374 -9.8582 37.5289 10.3893 -0.8989
# 5 -2.0656 -0.0891 5.0884 10.3893 65.2382 4.8797
# 6 22.3907 8.7106 9.5171 -0.8989 4.8797 19.4569
#
#
#
# Elastic Compliance Matrix: (Units=1/GPa)
#
#
# Indices 1 2 3 4 5 6 
#
# 1 0.007560 0.000533 -0.002534 -0.001797 0.001331 -0.008116
# 2 0.000533 0.013737 -0.004495 0.000621 0.000639 -0.004696
# 3 -0.002534 -0.004495 0.006976 0.001683 -0.001037 0.001855
# 4 -0.001797 0.000621 0.001683 0.028821 -0.005044 0.003564
# 5 0.001331 0.000639 -0.001037 -0.005044 0.016684 -0.005728
# 6 -0.008116 -0.004696 0.001855 0.003564 -0.005728 0.063532
#
#
# Mechanical properties :
#
#
# Convention : Reuss Voigt Hill
#
# Bulk Modulus (GPa) = 65.44319 93.28384 79.36351
# Shear Modulus (GPa) = 32.17586 46.11616 39.14601
#
# Velocity S-wave (km/s) = 3.39730 4.06719 3.74724
# Velocity P-wave (km/s) = 6.23407 7.45100 6.86953
#
# Compressibility (1/GPa) = 0.01528043
#
# Stress axis : x y z
#
# Youngs Moduli (GPa) = 132.27385 72.79489 143.35577
#
# Poissons Ratio (x) = -0.03880 0.36332
# Poissons Ratio (y) = -0.07050 0.64436
# Poissons Ratio (z) = 0.33523 0.32720
#
# Static dielectric constant tensor:
#      x y z
#    x 2.230760 -0.090350 0.061130 
#    y -0.090350 2.294100 0.009200 
#    z 0.061130 0.009200 2.201350 
# 
# From -- ./inp_files/340020.got.cif
#   From: 2010.05.17/outbox.cif.g08.bks.cpg/sg2_171_cif.got.tgz:340020.got - 2010.06.03 11:33:40.
