data_PCOD9008427
_publ_section_title
;
Structure prediction by ZEFSAII (Michael W. Deem and Ramdas Pophale) SiO2 
 PCOD9008427
Probable space group: P -1
;
_chemical_formula_sum "Si O2"
_cell_formula_units_Z 16
_cell_length_a 5.503004
_cell_length_b 11.358447
_cell_length_c 12.537844
_cell_angle_alpha 92.109543
_cell_angle_beta 89.157821
_cell_angle_gamma 60.221226
_cell_volume 679.246640
_symmetry_space_group_name_H-M "P -1"
_symmetry_group_IT_number 2
_symmetry_cell_setting 'triclinic'
loop_
_space_group_symop_operation_xyz
x,y,z
-x,-y,-z
loop_
_atom_site_type_symbol
_atom_site_label
_atom_site_fract_x
_atom_site_fract_y
_atom_site_fract_z
Si Si1 0.195755 0.163522 0.602980
Si Si2 0.250523 0.119723 0.368482
Si Si3 0.973173 0.971204 0.829463
Si Si4 0.890613 0.554793 0.384846
Si Si5 0.761802 0.846500 0.988427
Si Si6 0.855858 0.244948 0.823576
Si Si7 0.544967 0.767373 0.798044
Si Si8 0.472883 0.485691 0.261629
O O1 0.088170 0.169472 0.482882
O O2 0.283820 0.280044 0.608912
O O3 0.977170 0.200005 0.701355
O O4 0.452239 0.012959 0.612583
O O5 0.293065 0.232861 0.310188
O O6 0.111404 0.070781 0.280170
O O7 0.297356 0.923775 0.811916
O O8 0.970517 0.881777 0.923500
O O9 0.780389 0.130600 0.854659
O O10 0.306061 0.500560 0.663657
O O11 0.000000 0.500000 0.500000
O O12 0.172290 0.521210 0.316466
O O13 0.710153 0.750120 0.905455
O O14 0.899265 0.778047 0.096813
O O15 0.500000 0.000000 0.000000
O O16 0.611265 0.398909 0.823921
O O17 0.425199 0.665504 0.784453
#
# Coordination Sequence:
#
# PCOD9008427 Si02
#       8
#     2   2   2   2   2   2   2   2
#     4  10  21  40  64  98 130 177 221 282 343 399
#     4  10  21  39  64  96 135 167 228 281 337 405
#     4  11  22  40  69  93 129 174 224 283 335 406
#     4  11  24  45  67  96 138 190 231 274 338 420
#     4  11  23  42  71  99 128 175 233 282 344 400
#     4  11  22  44  65 100 134 177 226 287 336 416
#     4  11  24  42  66  98 130 179 226 279 339 406
#     4  11  27  43  68  98 141 179 228 282 348 403
#
# _framework density 23.555509000000001
#
# number of rings (size 3 to 8) (size 9 to 14) (size 15 to 20)
#    0.000    1.250    2.500    3.000    5.250    2.000 
#    2.250    0.625    0.000    0.000    0.000    0.000 
#    0.000    0.000    0.000    0.000    0.000    0.000 
#
# Total GULP energy -89351.538695 kJ/mol
# GULP energy per Si atom -5584.471168 kJ/mol
# Density = 2.350190 g / cm^3
# Si number density = 23.555509 Si / 1000 Ang^3
#
#
#
# Elastic Constant Matrix: (Units=GPa)
#
#
# Indices 1 2 3 4 5 6 
#
# 1 77.7602 25.6947 37.0345 -0.9204 26.0852 20.4069
# 2 25.6947 114.1968 26.2763 -13.1894 19.2905 26.5999
# 3 37.0345 26.2763 109.3044 2.0243 23.0123 1.5442
# 4 -0.9204 -13.1894 2.0243 22.1303 -5.1468 4.0791
# 5 26.0852 19.2905 23.0123 -5.1468 33.4578 10.0275
# 6 20.4069 26.5999 1.5442 4.0791 10.0275 43.1224
#
#
#
# Elastic Compliance Matrix: (Units=1/GPa)
#
#
# Indices 1 2 3 4 5 6 
#
# 1 0.020485 -0.000136 -0.004564 -0.000008 -0.010667 -0.006966
# 2 -0.000136 0.012573 -0.002714 0.008881 -0.001486 -0.008088
# 3 -0.004564 -0.002714 0.012626 -0.005320 -0.005960 0.005270
# 4 -0.000008 0.008881 -0.005320 0.055973 0.011099 -0.013159
# 5 -0.010667 -0.001486 -0.005960 0.011099 0.046578 -0.005702
# 6 -0.006966 -0.008088 0.005270 -0.013159 -0.005702 0.033858
#
#
# Mechanical properties :
#
#
# Convention : Reuss Voigt Hill
#
# Bulk Modulus (GPa) = 32.40693 53.25249 42.82971
# Shear Modulus (GPa) = 24.13090 33.89248 29.01169
#
# Velocity S-wave (km/s) = 3.20414 3.79731 3.51327
# Velocity P-wave (km/s) = 5.24178 6.47166 5.88892
#
# Compressibility (1/GPa) = 0.03085760
#
# Stress axis : x y z
#
# Youngs Moduli (GPa) = 48.81697 79.53804 79.20085
#
# Poissons Ratio (x) = 0.01078 0.36144
# Poissons Ratio (y) = 0.00662 0.21493
# Poissons Ratio (z) = 0.22278 0.21585
#
# Static dielectric constant tensor:
#      x y z
#    x 1.943450 -0.010060 -0.043050 
#    y -0.010060 1.951250 0.035330 
#    z -0.043050 0.035330 1.923610 
# 
# From -- ./inp_files/364299.got.cif
#   From: 2010.05.17/outbox.cif.g08.bks.cpg/sg2_183_cif.got.tgz:364299.got - 2010.06.03 11:33:40.
