data_PCOD9008279
_publ_section_title
;
Structure prediction by ZEFSAII (Michael W. Deem and Ramdas Pophale) SiO2 
 PCOD9008279
Probable space group: P -1
;
_chemical_formula_sum "Si O2"
_cell_formula_units_Z 16
_cell_length_a 7.848933
_cell_length_b 6.552632
_cell_length_c 14.374409
_cell_angle_alpha 93.656038
_cell_angle_beta 92.402205
_cell_angle_gamma 110.617692
_cell_volume 688.891743
_symmetry_space_group_name_H-M "P -1"
_symmetry_group_IT_number 2
_symmetry_cell_setting 'triclinic'
loop_
_space_group_symop_operation_xyz
x,y,z
-x,-y,-z
loop_
_atom_site_type_symbol
_atom_site_label
_atom_site_fract_x
_atom_site_fract_y
_atom_site_fract_z
Si Si1 0.940335 0.172336 0.560868
Si Si2 0.925783 0.178237 0.228798
Si Si3 0.404959 0.257006 0.755877
Si Si4 0.944846 0.077002 0.902999
Si Si5 0.188336 0.622350 0.608393
Si Si6 0.605271 0.206650 0.946315
Si Si7 0.551687 0.010515 0.610589
Si Si8 0.256550 0.526609 0.869248
O O1 0.855416 0.301799 0.491175
O O2 0.126406 0.360411 0.605633
O O3 0.768690 0.051748 0.621472
O O4 0.000000 0.000000 0.500000
O O5 0.955383 0.330646 0.323116
O O6 0.828275 0.292675 0.157939
O O7 0.784353 0.949083 0.256425
O O8 0.079202 0.119709 0.175779
O O9 0.498903 0.227684 0.853625
O O10 0.373473 0.481908 0.785767
O O11 0.515706 0.208822 0.670453
O O12 0.779432 0.157876 0.914091
O O13 0.104258 0.292070 0.877186
O O14 0.000000 0.000000 0.000000
O O15 0.397293 0.783325 0.637361
O O16 0.650961 0.402591 0.026694
O O17 0.500000 0.000000 0.000000
O O18 0.500000 0.000000 0.500000
#
# Coordination Sequence:
#
# PCOD9008279 Si02
#       8
#     2   2   2   2   2   2   2   2
#     4  10  21  39  64  92 124 160 209 258 316 374
#     4  10  21  40  61  87 122 163 205 248 309 375
#     4  10  22  39  61  91 122 158 209 257 306 374
#     4  11  23  40  61  86 122 162 208 251 306 375
#     4   9  21  40  61  89 126 160 204 261 308 375
#     4  12  22  40  60  88 126 159 205 261 305 365
#     4   9  20  41  63  88 126 162 203 257 313 373
#     4  11  22  41  62  84 122 167 203 249 318 368
#
# _framework density 23.225708999999998
#
# number of rings (size 3 to 8) (size 9 to 14) (size 15 to 20)
#    0.000    1.750    2.500    1.500    0.000    6.500 
#    2.250    6.250    0.000    0.000    0.000    0.000 
#    0.000    0.000    0.000    0.000    0.000    0.000 
#
# Total GULP energy -89271.077455 kJ/mol
# GULP energy per Si atom -5579.442341 kJ/mol
# Density = 2.317285 g / cm^3
# Si number density = 23.225709 Si / 1000 Ang^3
#
#
#
# Elastic Constant Matrix: (Units=GPa)
#
#
# Indices 1 2 3 4 5 6 
#
# 1 65.8257 40.8326 16.1460 12.3493 -32.9520 5.7212
# 2 40.8326 106.9054 31.1245 20.1401 -20.9934 -3.2951
# 3 16.1460 31.1245 123.8510 21.6040 -25.1899 -7.3528
# 4 12.3493 20.1401 21.6040 53.4570 -19.1097 -1.8858
# 5 -32.9520 -20.9934 -25.1899 -19.1097 43.9606 -1.1042
# 6 5.7212 -3.2951 -7.3528 -1.8858 -1.1042 27.5875
#
#
#
# Elastic Compliance Matrix: (Units=1/GPa)
#
#
# Indices 1 2 3 4 5 6 
#
# 1 0.030638 -0.008804 0.001595 0.002799 0.020743 -0.005959
# 2 -0.008804 0.013461 -0.002086 -0.003042 -0.002625 0.002565
# 3 0.001595 -0.002086 0.009859 -0.001635 0.005192 0.002144
# 4 0.002799 -0.003042 -0.001635 0.023431 0.009910 0.000618
# 5 0.020743 -0.002625 0.005192 0.009910 0.044305 -0.000781
# 6 -0.005959 0.002565 0.002144 0.000618 -0.000781 0.038373
#
#
# Mechanical properties :
#
#
# Convention : Reuss Voigt Hill
#
# Bulk Modulus (GPa) = 28.27437 52.53205 40.40321
# Shear Modulus (GPa) = 26.25395 38.89962 32.57679
#
# Velocity S-wave (km/s) = 3.36576 4.09694 3.74922
# Velocity P-wave (km/s) = 5.22539 6.71171 6.01463
#
# Compressibility (1/GPa) = 0.03536772
#
# Stress axis : x y z
#
# Youngs Moduli (GPa) = 32.63899 74.28864 101.43059
#
# Poissons Ratio (x) = 0.65407 -0.16180
# Poissons Ratio (y) = 0.28737 0.21157
# Poissons Ratio (z) = -0.05206 0.15496
#
# Static dielectric constant tensor:
#      x y z
#    x 1.963260 -0.055350 -0.023850 
#    y -0.055350 1.891750 0.040540 
#    z -0.023850 0.040540 1.883620 
# 
# From -- ./inp_files/46590.got.cif
#   From: 2010.05.17/outbox.cif.g08.bks.cpg/sg2_24_cif.got.tgz:46590.got - 2010.06.03 11:33:40.
