data_PCOD9008045
_publ_section_title
;
Structure prediction by ZEFSAII (Michael W. Deem and Ramdas Pophale) SiO2 
 PCOD9008045
Probable space group: P -1
;
_chemical_formula_sum "Si O2"
_cell_formula_units_Z 15
_cell_length_a 9.283886
_cell_length_b 7.120920
_cell_length_c 11.921757
_cell_angle_alpha 52.091805
_cell_angle_beta 101.423038
_cell_angle_gamma 91.149638
_cell_volume 604.241015
_symmetry_space_group_name_H-M "P -1"
_symmetry_group_IT_number 2
_symmetry_cell_setting 'triclinic'
loop_
_space_group_symop_operation_xyz
x,y,z
-x,-y,-z
loop_
_atom_site_type_symbol
_atom_site_label
_atom_site_fract_x
_atom_site_fract_y
_atom_site_fract_z
Si Si1 0.462858 0.328079 0.455922
Si Si2 0.473795 0.432073 0.832029
Si Si3 0.834892 0.488050 0.788039
Si Si4 0.398593 0.894570 0.750766
Si Si5 0.000000 0.500000 0.000000
Si Si6 0.948341 0.110772 0.334938
Si Si7 0.690955 0.981853 0.058119
Si Si8 0.030333 0.955303 0.171984
O O1 0.500000 0.500000 0.500000
O O2 0.567621 0.406442 0.344617
O O3 0.303228 0.363170 0.352125
O O4 0.466545 0.072016 0.610205
O O5 0.493113 0.636374 0.848728
O O6 0.354782 0.260953 0.910334
O O7 0.613909 0.230009 0.900111
O O8 0.837494 0.451475 0.936244
O O9 0.980949 0.640847 0.765550
O O10 0.874684 0.260706 0.796927
O O11 0.228310 0.859124 0.709142
O O12 0.379617 0.001160 0.833354
O O13 0.930084 0.776249 0.931383
O O14 0.016321 0.932329 0.312573
O O15 0.000000 0.000000 0.500000
O O16 0.865036 0.952092 0.103252
#
# Coordination Sequence:
#
# PCOD9008045 Si02
#       8
#     2   2   2   2   1   2   2   2
#     4  12  25  44  62  99 140 174 221 267 325 416
#     4  11  23  40  66  90 127 181 215 268 331 380
#     4  11  23  43  67  96 132 172 216 275 339 386
#     4  11  22  43  66  92 130 170 222 272 330 389
#     4  10  22  42  64  96 130 162 222 272 326 396
#     4  10  21  39  63  95 125 163 220 272 319 393
#     4  10  22  43  63  96 127 161 231 275 314 403
#     4  10  22  40  66  94 128 167 212 281 335 382
#
# _framework density 24.824534
#
# number of rings (size 3 to 8) (size 9 to 14) (size 15 to 20)
#    0.000    1.333    2.667    2.800    0.000    1.600 
#    7.200    4.000    0.000    0.000    0.000    0.000 
#    0.000    0.000    0.000    0.000    0.000    0.000 
#
# Total GULP energy -83514.331784 kJ/mol
# GULP energy per Si atom -5567.622119 kJ/mol
# Density = 2.476803 g / cm^3
# Si number density = 24.824534 Si / 1000 Ang^3
#
#
#
# Elastic Constant Matrix: (Units=GPa)
#
#
# Indices 1 2 3 4 5 6 
#
# 1 71.9795 36.4340 7.8174 0.2654 5.0294 6.1673
# 2 36.4340 168.3424 26.3152 -14.1426 9.5353 2.0711
# 3 7.8174 26.3152 83.7530 0.8591 -12.6147 -10.0158
# 4 0.2654 -14.1426 0.8591 50.4033 10.6163 -2.0794
# 5 5.0294 9.5353 -12.6147 10.6163 28.4735 7.1887
# 6 6.1673 2.0711 -10.0158 -2.0794 7.1887 43.7369
#
#
#
# Elastic Compliance Matrix: (Units=1/GPa)
#
#
# Indices 1 2 3 4 5 6 
#
# 1 0.015922 -0.003276 -0.000895 -0.000807 -0.001275 -0.002124
# 2 -0.003276 0.007588 -0.002736 0.003142 -0.004436 0.000354
# 3 -0.000895 -0.002736 0.014347 -0.002574 0.007853 0.002128
# 4 -0.000807 0.003142 -0.002574 0.023248 -0.011309 0.002340
# 5 -0.001275 -0.004436 0.007853 -0.011309 0.046019 -0.005913
# 6 -0.002124 0.000354 0.002128 0.002340 -0.005913 0.024717
#
#
# Mechanical properties :
#
#
# Convention : Reuss Voigt Hill
#
# Bulk Modulus (GPa) = 41.59114 51.68977 46.64046
# Shear Modulus (GPa) = 32.53754 41.42330 36.98042
#
# Velocity S-wave (km/s) = 3.62429 4.08933 3.86381
# Velocity P-wave (km/s) = 5.85699 6.56994 6.22368
#
# Compressibility (1/GPa) = 0.02404358
#
# Stress axis : x y z
#
# Youngs Moduli (GPa) = 62.80616 131.79122 69.70206
#
# Poissons Ratio (x) = 0.43169 0.06236
# Poissons Ratio (y) = 0.20573 0.19072
# Poissons Ratio (z) = 0.05619 0.36062
#
# Static dielectric constant tensor:
#      x y z
#    x 2.097430 0.038910 -0.010130 
#    y 0.038910 1.975510 -0.026080 
#    z -0.010130 -0.026080 1.878850 
# 
# From -- ./inp_files/409001.got.cif
#   From: 2010.05.17/outbox.cif.g08.bks.cpg/sg2_205_cif.got.tgz:409001.got - 2010.06.03 11:33:40.
