data_PCOD9008422
_publ_section_title
;
Structure prediction by ZEFSAII (Michael W. Deem and Ramdas Pophale) SiO2 
 PCOD9008422
Probable space group: P -1
;
_chemical_formula_sum "Si O2"
_cell_formula_units_Z 16
_cell_length_a 18.063468
_cell_length_b 9.310945
_cell_length_c 9.301834
_cell_angle_alpha 134.760067
_cell_angle_beta 137.509306
_cell_angle_gamma 63.945459
_cell_volume 739.842848
_symmetry_space_group_name_H-M "P -1"
_symmetry_group_IT_number 2
_symmetry_cell_setting 'triclinic'
loop_
_space_group_symop_operation_xyz
x,y,z
-x,-y,-z
loop_
_atom_site_type_symbol
_atom_site_label
_atom_site_fract_x
_atom_site_fract_y
_atom_site_fract_z
Si Si1 0.042810 0.721914 0.561428
Si Si2 0.095409 0.060274 0.060982
Si Si3 0.549630 0.193347 0.105779
Si Si4 0.618382 0.510114 0.858784
Si Si5 0.840350 0.624031 0.417169
Si Si6 0.042136 0.293737 0.872450
Si Si7 0.452407 0.100147 0.364600
Si Si8 0.696940 0.593416 0.710482
O O1 0.924086 0.697968 0.456652
O O2 0.028683 0.793184 0.429753
O O3 0.087595 0.508661 0.477705
O O4 0.126836 0.864021 0.888576
O O5 0.185259 0.204278 0.385960
O O6 0.040520 0.159939 0.918687
O O7 0.000000 0.000000 0.000000
O O8 0.455961 0.339889 0.066488
O O9 0.653702 0.361467 0.428405
O O10 0.500000 0.000000 0.000000
O O11 0.576414 0.082006 0.920123
O O12 0.550117 0.282740 0.581825
O O13 0.649306 0.598866 0.807241
O O14 0.728122 0.509798 0.108124
O O15 0.171283 0.351582 0.056934
O O16 0.000000 0.500000 0.000000
O O17 0.351674 0.231699 0.326868
O O18 0.500000 0.000000 0.500000
#
# Coordination Sequence:
#
# PCOD9008422 Si02
#       8
#     2   2   2   2   2   2   2   2
#     4  10  21  41  62  90 136 172 216 272 323 383
#     4  10  23  42  64  92 128 172 226 269 324 392
#     4  11  21  44  72 100 131 172 221 275 333 409
#     4  11  22  41  73  97 131 175 222 274 337 399
#     4  10  21  39  64  96 129 170 215 273 327 385
#     4  12  24  45  67  97 138 180 222 277 328 394
#     4  11  25  45  68 104 136 167 217 282 340 397
#     4  11  24  44  70  99 134 176 226 275 332 400
#
# _framework density 21.626215999999999
#
# number of rings (size 3 to 8) (size 9 to 14) (size 15 to 20)
#    0.000    1.250    5.000    1.125    0.000    6.000 
#    9.000    0.000    0.000    0.000    0.000    0.000 
#    0.000    0.000    0.000    0.000    0.000    0.000 
#
# Total GULP energy -89280.489231 kJ/mol
# GULP energy per Si atom -5580.030577 kJ/mol
# Density = 2.157699 g / cm^3
# Si number density = 21.626216 Si / 1000 Ang^3
#
#
#
# Elastic Constant Matrix: (Units=GPa)
#
#
# Indices 1 2 3 4 5 6 
#
# 1 36.6882 18.7318 17.5779 -0.5105 -3.0955 2.1128
# 2 18.7318 73.4315 6.4293 0.2660 -5.4481 7.1614
# 3 17.5779 6.4293 124.0994 6.5749 -18.2066 -12.3485
# 4 -0.5105 0.2660 6.5749 34.2848 -4.2870 -11.6719
# 5 -3.0955 -5.4481 -18.2066 -4.2870 31.3391 -3.4142
# 6 2.1128 7.1614 -12.3485 -11.6719 -3.4142 28.2038
#
#
#
# Elastic Compliance Matrix: (Units=1/GPa)
#
#
# Indices 1 2 3 4 5 6 
#
# 1 0.033706 -0.008014 -0.004789 0.000497 -0.001052 -0.002509
# 2 -0.008014 0.016131 0.000222 -0.001383 0.001540 -0.003784
# 3 -0.004789 0.000222 0.010176 0.000731 0.006210 0.005812
# 4 0.000497 -0.001383 0.000731 0.035381 0.006827 0.016102
# 5 -0.001052 0.001540 0.006210 0.006827 0.037682 0.009794
# 6 -0.002509 -0.003784 0.005812 0.016102 0.009794 0.046999
#
#
# Mechanical properties :
#
#
# Convention : Reuss Voigt Hill
#
# Bulk Modulus (GPa) = 28.69401 35.52189 32.10795
# Shear Modulus (GPa) = 23.05713 31.53090 27.29401
#
# Velocity S-wave (km/s) = 3.26876 3.82251 3.55643
# Velocity P-wave (km/s) = 5.24818 5.99526 5.63412
#
# Compressibility (1/GPa) = 0.03485048
#
# Stress axis : x y z
#
# Youngs Moduli (GPa) = 29.66869 61.99120 98.27448
#
# Poissons Ratio (x) = 0.49679 0.47066
# Poissons Ratio (y) = 0.23776 -0.02183
# Poissons Ratio (z) = 0.14209 -0.01377
#
# Static dielectric constant tensor:
#      x y z
#    x 1.774100 0.025750 -0.001300 
#    y 0.025750 1.816560 0.057770 
#    z -0.001300 0.057770 1.797850 
# 
# From -- ./inp_files/343892.got.cif
#   From: 2010.05.17/outbox.cif.g08.bks.cpg/sg2_172_cif.got.tgz:343892.got - 2010.06.03 11:33:40.
