data_PCOD9008670
_publ_section_title
;
Structure prediction by ZEFSAII (Michael W. Deem and Ramdas Pophale) SiO2 
 PCOD9008670
Probable space group: P -1
;
_chemical_formula_sum "Si O2"
_cell_formula_units_Z 12
_cell_length_a 4.914916
_cell_length_b 16.977696
_cell_length_c 9.817607
_cell_angle_alpha 55.433394
_cell_angle_beta 65.386026
_cell_angle_gamma 100.472546
_cell_volume 508.761702
_symmetry_space_group_name_H-M "P -1"
_symmetry_group_IT_number 2
_symmetry_cell_setting 'triclinic'
loop_
_space_group_symop_operation_xyz
x,y,z
-x,-y,-z
loop_
_atom_site_type_symbol
_atom_site_label
_atom_site_fract_x
_atom_site_fract_y
_atom_site_fract_z
Si Si1 0.363936 0.195419 0.305269
Si Si2 0.525245 0.576511 0.049483
Si Si3 0.274491 0.507716 0.661910
Si Si4 0.687236 0.764950 0.433774
Si Si5 0.503836 0.085673 0.805321
Si Si6 0.565139 0.974013 0.662024
O O1 0.514930 0.230487 0.392802
O O2 0.978949 0.071643 0.520402
O O3 0.545076 0.156461 0.195653
O O4 0.332667 0.295632 0.155357
O O5 0.755909 0.569844 0.127375
O O6 0.129780 0.526760 0.245647
O O7 0.500000 0.500000 0.000000
O O8 0.500000 0.500000 0.500000
O O9 0.496591 0.638190 0.541173
O O10 0.695662 0.848842 0.235168
O O11 0.078515 0.807977 0.369216
O O12 0.367232 0.005419 0.778572
O O13 0.500000 0.000000 0.000000
O O14 0.500000 0.000000 0.500000
#
# Coordination Sequence:
#
# PCOD9008670 Si02
#       6
#     2   2   2   2   2   2
#     4  10  23  39  66 102 131 177 229 290 340 401
#     4  12  26  45  76 105 134 184 247 286 336 427
#     4  12  28  47  70 104 144 185 230 290 362 407
#     4  11  23  43  68  92 141 179 220 290 348 406
#     4  11  24  41  66  97 132 180 228 272 347 421
#     4  10  21  39  65  93 137 171 222 286 348 393
#
# _framework density 23.586682
#
# number of rings (size 3 to 8) (size 9 to 14) (size 15 to 20)
#    0.000    1.000    3.333    2.500    4.667    2.667 
#    0.000    0.000    0.000    0.000    0.000    0.000 
#    0.000    0.000    0.000    0.000    0.000    0.000 
#
# Total GULP energy -66994.553915 kJ/mol
# GULP energy per Si atom -5582.879493 kJ/mol
# Density = 2.353300 g / cm^3
# Si number density = 23.586682 Si / 1000 Ang^3
#
#
#
# Elastic Constant Matrix: (Units=GPa)
#
#
# Indices 1 2 3 4 5 6 
#
# 1 91.6415 15.2202 8.4333 -4.6830 8.0078 -0.9646
# 2 15.2202 144.0487 45.7854 -37.7025 13.0023 -6.4556
# 3 8.4333 45.7854 86.3592 -11.1465 23.9878 -11.0505
# 4 -4.6830 -37.7025 -11.1465 33.0882 -6.2639 16.1001
# 5 8.0078 13.0023 23.9878 -6.2639 55.1904 -1.2497
# 6 -0.9646 -6.4556 -11.0505 16.1001 -1.2497 31.2113
#
#
#
# Elastic Compliance Matrix: (Units=1/GPa)
#
#
# Indices 1 2 3 4 5 6 
#
# 1 0.011212 -0.000936 -0.000223 0.000256 -0.001283 -0.000109
# 2 -0.000936 0.012796 -0.005968 0.016599 0.001418 -0.008001
# 3 -0.000223 -0.005968 0.016709 -0.006081 -0.006343 0.007558
# 4 0.000256 0.016599 -0.006081 0.063251 0.005169 -0.031132
# 5 -0.001283 0.001418 -0.006343 0.005169 0.021229 -0.003809
# 6 -0.000109 -0.008001 0.007558 -0.031132 -0.003809 0.048964
#
#
# Mechanical properties :
#
#
# Convention : Reuss Voigt Hill
#
# Bulk Modulus (GPa) = 37.78844 51.21416 44.50130
# Shear Modulus (GPa) = 25.35035 40.73867 33.04451
#
# Velocity S-wave (km/s) = 3.28193 4.16046 3.74703
# Velocity P-wave (km/s) = 5.51519 6.69623 6.13420
#
# Compressibility (1/GPa) = 0.02646312
#
# Stress axis : x y z
#
# Youngs Moduli (GPa) = 89.18951 78.15086 59.84631
#
# Poissons Ratio (x) = 0.07314 0.01337
# Poissons Ratio (y) = 0.08347 0.35715
# Poissons Ratio (z) = 0.01993 0.46639
#
# Static dielectric constant tensor:
#      x y z
#    x 0.616950 1.643230 -0.286820 
#    y 1.643230 -0.334660 0.317520 
#    z -0.286820 0.317520 1.980850 
# 
# From -- ./inp_files/29704.got.cif
#   From: 2010.05.17/outbox.cif.g08.bks.cpg/sg2_15_cif.got.tgz:29704.got - 2010.06.03 11:33:40.
