data_PCOD9008367
_publ_section_title
;
Structure prediction by ZEFSAII (Michael W. Deem and Ramdas Pophale) SiO2 
 PCOD9008367
Probable space group: P -1
;
_chemical_formula_sum "Si O2"
_cell_formula_units_Z 14
_cell_length_a 11.161398
_cell_length_b 9.744734
_cell_length_c 7.053153
_cell_angle_alpha 50.519783
_cell_angle_beta 80.701799
_cell_angle_gamma 63.312433
_cell_volume 520.410275
_symmetry_space_group_name_H-M "P -1"
_symmetry_group_IT_number 2
_symmetry_cell_setting 'triclinic'
loop_
_space_group_symop_operation_xyz
x,y,z
-x,-y,-z
loop_
_atom_site_type_symbol
_atom_site_label
_atom_site_fract_x
_atom_site_fract_y
_atom_site_fract_z
Si Si1 0.093988 0.700691 0.574844
Si Si2 0.847049 0.282447 0.885106
Si Si3 0.379576 0.482307 0.799994
Si Si4 0.381947 0.080396 0.248495
Si Si5 0.589389 0.640281 0.544640
Si Si6 0.802103 0.939212 0.364863
Si Si7 0.869811 0.742298 0.117056
O O1 0.120386 0.770052 0.300814
O O2 0.223566 0.651789 0.716969
O O3 0.099496 0.483921 0.734915
O O4 0.940464 0.851338 0.532500
O O5 0.734615 0.512023 0.717844
O O6 0.990553 0.245266 0.969234
O O7 0.782987 0.145655 0.099992
O O8 0.485453 0.568591 0.727887
O O9 0.389276 0.430633 0.617665
O O10 0.406422 0.275376 0.072493
O O11 0.317847 0.052474 0.483518
O O12 0.514980 0.877790 0.347763
O O13 0.264295 0.120217 0.087896
O O14 0.836189 0.795004 0.300217
#
# Coordination Sequence:
#
# PCOD9008367 Si02
#       7
#     2   2   2   2   2   2   2
#     4   9  19  41  67  97 126 175 218 271 333 385
#     4  10  21  39  64  94 133 172 215 271 324 393
#     4   9  21  41  69  95 129 176 226 267 321 403
#     4  11  25  43  69 101 129 175 223 269 332 395
#     4  10  22  42  69  93 134 182 214 269 336 383
#     4  11  23  39  65 101 136 161 222 276 328 390
#     4  10  22  42  71  95 128 175 218 274 333 384
#
# _framework density 26.901852000000002
#
# number of rings (size 3 to 8) (size 9 to 14) (size 15 to 20)
#    0.000    2.000    0.000    3.857    8.000    3.429 
#    7.714    0.714    0.000    0.000    0.000    0.000 
#    0.000    0.000    0.000    0.000    0.000    0.000 
#
# Total GULP energy -78620.150794 kJ/mol
# GULP energy per Si atom -5615.725057 kJ/mol
# Density = 2.684062 g / cm^3
# Si number density = 26.901852 Si / 1000 Ang^3
#
#
#
# Elastic Constant Matrix: (Units=GPa)
#
#
# Indices 1 2 3 4 5 6 
#
# 1 128.5608 22.1880 45.6719 -13.4051 12.3028 -10.4931
# 2 22.1880 70.0305 5.7846 -14.6292 16.3786 -17.0135
# 3 45.6719 5.7846 122.1423 -20.2096 -6.5680 -3.8302
# 4 -13.4051 -14.6292 -20.2096 44.8304 -9.0045 9.6633
# 5 12.3028 16.3786 -6.5680 -9.0045 51.1810 -9.1824
# 6 -10.4931 -17.0135 -3.8302 9.6633 -9.1824 26.9339
#
#
#
# Elastic Compliance Matrix: (Units=1/GPa)
#
#
# Indices 1 2 3 4 5 6 
#
# 1 0.009692 -0.002006 -0.003599 -0.000058 -0.001915 0.001365
# 2 -0.002006 0.018390 0.000491 0.003099 -0.003236 0.008690
# 3 -0.003599 0.000491 0.010373 0.004368 0.002764 -0.000242
# 4 -0.000058 0.003099 0.004368 0.027243 0.003281 -0.006099
# 5 -0.001915 -0.003236 0.002764 0.003281 0.022714 0.004170
# 6 0.001365 0.008690 -0.000242 -0.006099 0.004170 0.046724
#
#
# Mechanical properties :
#
#
# Convention : Reuss Voigt Hill
#
# Bulk Modulus (GPa) = 35.42788 52.00252 43.71520
# Shear Modulus (GPa) = 32.30524 41.06167 36.68345
#
# Velocity S-wave (km/s) = 3.46910 3.91109 3.69671
# Velocity P-wave (km/s) = 5.40778 6.30618 5.87418
#
# Compressibility (1/GPa) = 0.02822636
#
# Stress axis : x y z
#
# Youngs Moduli (GPa) = 103.18101 54.37792 96.40128
#
# Poissons Ratio (x) = 0.10909 0.34692
# Poissons Ratio (y) = 0.20699 -0.04728
# Poissons Ratio (z) = 0.37131 -0.02667
#
# Static dielectric constant tensor:
#      x y z
#    x 2.110340 0.024500 0.025260 
#    y 0.024500 2.095930 0.049150 
#    z 0.025260 0.049150 2.067430 
# 
# From -- ./inp_files/261283.got.cif
#   From: 2010.05.17/outbox.cif.g08.bks.cpg/sg2_131_cif.got.tgz:261283.got - 2010.06.03 11:33:40.
