data_PCOD9008735
_publ_section_title
;
Structure prediction by ZEFSAII (Michael W. Deem and Ramdas Pophale) SiO2 
 PCOD9008735
Probable space group: P -1
;
_chemical_formula_sum "Si O2"
_cell_formula_units_Z 16
_cell_length_a 22.547536
_cell_length_b 10.015474
_cell_length_c 11.189025
_cell_angle_alpha 60.652294
_cell_angle_beta 144.595444
_cell_angle_gamma 146.428608
_cell_volume 653.576428
_symmetry_space_group_name_H-M "P -1"
_symmetry_group_IT_number 2
_symmetry_cell_setting 'triclinic'
loop_
_space_group_symop_operation_xyz
x,y,z
-x,-y,-z
loop_
_atom_site_type_symbol
_atom_site_label
_atom_site_fract_x
_atom_site_fract_y
_atom_site_fract_z
Si Si1 0.653930 0.335586 0.112131
Si Si2 0.873145 0.178774 0.066897
Si Si3 0.749263 0.782152 0.437334
Si Si4 0.321293 0.614009 0.609029
Si Si5 0.675375 0.650217 0.641853
Si Si6 0.552098 0.950651 0.502191
Si Si7 0.919722 0.273514 0.371000
Si Si8 0.821840 0.804838 0.051701
O O1 0.644333 0.403812 0.194317
O O2 0.658093 0.463519 0.956849
O O3 0.873466 0.548067 0.386929
O O4 0.500000 0.000000 0.000000
O O5 0.859627 0.236041 0.151571
O O6 0.099128 0.404755 0.315613
O O7 0.762159 0.871994 0.005435
O O8 0.763388 0.142650 0.803551
O O9 0.626095 0.466673 0.349305
O O10 0.729294 0.790637 0.541612
O O11 0.753877 0.947524 0.299869
O O12 0.964499 0.991391 0.657324
O O13 0.446762 0.930935 0.658674
O O14 0.500000 0.500000 0.500000
O O15 0.607230 0.388484 0.624110
O O16 0.848583 0.882028 0.922887
O O17 0.500000 0.000000 0.500000
O O18 0.000000 0.500000 0.500000
#
# Coordination Sequence:
#
# PCOD9008735 Si02
#       8
#     2   2   2   2   2   2   2   2
#     4  10  21  39  65  96 126 164 209 269 328 373
#     4  10  22  42  65  92 124 172 215 261 323 387
#     4  10  22  42  65  92 124 172 215 261 323 387
#     4  10  21  41  66  93 127 169 215 262 322 389
#     4  12  24  41  61  94 134 168 215 266 320 377
#     4  12  24  41  61  94 134 168 215 266 320 377
#     4  10  23  43  64  93 127 167 216 266 318 394
#     4  10  21  41  66  93 127 169 215 262 322 389
#
# _framework density 24.480685999999999
#
# number of rings (size 3 to 8) (size 9 to 14) (size 15 to 20)
#    0.000    1.500    2.500    2.250    0.000    9.000 
#    4.500    0.625    0.000    0.000    0.000    0.000 
#    0.000    0.000    0.000    0.000    0.000    0.000 
#
# Total GULP energy -89168.782695 kJ/mol
# GULP energy per Si atom -5573.048918 kJ/mol
# Density = 2.442497 g / cm^3
# Si number density = 24.480686 Si / 1000 Ang^3
#
#
#
# Elastic Constant Matrix: (Units=GPa)
#
#
# Indices 1 2 3 4 5 6 
#
# 1 105.0761 17.4955 6.3800 -12.0559 -16.0875 -14.3324
# 2 17.4955 87.8436 -6.2205 8.0674 -1.3729 3.2289
# 3 6.3800 -6.2205 58.1421 -4.0871 9.0558 -5.0649
# 4 -12.0559 8.0674 -4.0871 20.6803 -0.0572 -9.1969
# 5 -16.0875 -1.3729 9.0558 -0.0572 42.0100 -4.5266
# 6 -14.3324 3.2289 -5.0649 -9.1969 -4.5266 36.2000
#
#
#
# Elastic Compliance Matrix: (Units=1/GPa)
#
#
# Indices 1 2 3 4 5 6 
#
# 1 0.014554 -0.004625 -0.001192 0.014796 0.006844 0.010623
# 2 -0.004625 0.013508 0.001064 -0.010336 -0.002197 -0.005788
# 3 -0.001192 0.001064 0.018558 0.003627 -0.004155 0.002431
# 4 0.014796 -0.010336 0.003627 0.073743 0.007552 0.026967
# 5 0.006844 -0.002197 -0.004155 0.007552 0.028095 0.007756
# 6 0.010623 -0.005788 0.002431 0.026967 0.007756 0.040508
#
#
# Mechanical properties :
#
#
# Convention : Reuss Voigt Hill
#
# Bulk Modulus (GPa) = 26.94497 31.81908 29.38203
# Shear Modulus (GPa) = 23.71429 35.33852 29.52640
#
# Velocity S-wave (km/s) = 3.11576 3.80350 3.47668
# Velocity P-wave (km/s) = 4.89637 5.68460 5.30514
#
# Compressibility (1/GPa) = 0.03711268
#
# Stress axis : x y z
#
# Youngs Moduli (GPa) = 68.71010 74.02967 53.88532
#
# Poissons Ratio (x) = 0.34242 0.06425
# Poissons Ratio (y) = 0.31782 -0.05734
# Poissons Ratio (z) = 0.08193 -0.07878
#
# Static dielectric constant tensor:
#      x y z
#    x 1.603750 0.217540 0.061790 
#    y 0.217540 1.952220 -0.001450 
#    z 0.061790 -0.001450 2.082910 
# 
# From -- ./inp_files/346106.got.cif
#   From: 2010.05.17/outbox.cif.g08.bks.cpg/sg2_174_cif.got.tgz:346106.got - 2010.06.03 11:33:40.
