data_PCOD9008161
_publ_section_title
;
Structure prediction by ZEFSAII (Michael W. Deem and Ramdas Pophale) SiO2 
 PCOD9008161
Probable space group: P -1
;
_chemical_formula_sum "Si O2"
_cell_formula_units_Z 16
_cell_length_a 5.745374
_cell_length_b 15.361594
_cell_length_c 12.253516
_cell_angle_alpha 135.088212
_cell_angle_beta 82.923620
_cell_angle_gamma 74.800649
_cell_volume 656.765770
_symmetry_space_group_name_H-M "P -1"
_symmetry_group_IT_number 2
_symmetry_cell_setting 'triclinic'
loop_
_space_group_symop_operation_xyz
x,y,z
-x,-y,-z
loop_
_atom_site_type_symbol
_atom_site_label
_atom_site_fract_x
_atom_site_fract_y
_atom_site_fract_z
Si Si1 0.590676 0.143451 0.119120
Si Si2 0.397267 0.573045 0.685973
Si Si3 0.644145 0.135445 0.520031
Si Si4 0.822735 0.769795 0.946495
Si Si5 0.459251 0.119155 0.732440
Si Si6 0.071874 0.625542 0.111298
Si Si7 0.444245 0.571346 0.235549
Si Si8 0.920040 0.022260 0.198838
O O1 0.597288 0.282482 0.202674
O O2 0.307926 0.173288 0.113466
O O3 0.664323 0.118824 0.220211
O O4 0.822045 0.013284 0.920336
O O5 0.500000 0.500000 0.500000
O O6 0.586069 0.474157 0.683219
O O7 0.088871 0.618184 0.779225
O O8 0.677203 0.116365 0.631981
O O9 0.478794 0.303989 0.656860
O O10 0.516784 0.035936 0.404200
O O11 0.893635 0.083816 0.375286
O O12 0.587629 0.802644 0.078287
O O13 0.920669 0.875022 0.080076
O O14 0.177183 0.227902 0.784232
O O15 0.180646 0.631837 0.229247
O O16 0.325820 0.568564 0.963345
O O17 0.000000 0.500000 0.000000
#
# Coordination Sequence:
#
# PCOD9008161 Si02
#       8
#     2   2   2   2   2   2   2   2
#     4  10  21  39  65  85 121 169 204 252 316 370
#     4  11  24  40  59  91 126 158 213 262 303 368
#     4  10  21  41  62  93 128 159 206 260 311 365
#     4  10  21  39  64  88 120 165 207 253 312 379
#     4  10  21  41  64  90 128 162 203 265 307 369
#     4  11  23  42  64  90 123 167 213 254 308 381
#     4  11  24  40  65  88 123 174 205 253 320 369
#     4   9  20  41  60  91 126 156 206 261 307 371
#
# _framework density 24.361806999999999
#
# number of rings (size 3 to 8) (size 9 to 14) (size 15 to 20)
#    0.000    1.750    2.500    1.125    1.750    1.000 
#    9.000    0.000    0.000    0.000    0.000    0.000 
#    0.000    0.000    0.000    0.000    0.000    0.000 
#
# Total GULP energy -89339.186412 kJ/mol
# GULP energy per Si atom -5583.699151 kJ/mol
# Density = 2.430636 g / cm^3
# Si number density = 24.361807 Si / 1000 Ang^3
#
#
#
# Elastic Constant Matrix: (Units=GPa)
#
#
# Indices 1 2 3 4 5 6 
#
# 1 36.0838 24.9798 25.1089 -2.2719 3.1424 -9.1772
# 2 24.9798 154.1131 65.4520 -25.8147 4.1121 -2.1856
# 3 25.1089 65.4520 137.3385 -15.7035 -2.4822 2.6233
# 4 -2.2719 -25.8147 -15.7035 45.0572 0.8126 0.6549
# 5 3.1424 4.1121 -2.4822 0.8126 11.3957 -3.1395
# 6 -9.1772 -2.1856 2.6233 0.6549 -3.1395 42.5663
#
#
#
# Elastic Compliance Matrix: (Units=1/GPa)
#
#
# Indices 1 2 3 4 5 6 
#
# 1 0.036469 -0.003635 -0.005459 -0.002116 -0.007724 0.007475
# 2 -0.003635 0.009258 -0.003342 0.004025 -0.003469 -0.000420
# 3 -0.005459 -0.003342 0.010130 0.001286 0.004366 -0.001671
# 4 -0.002116 0.004025 0.001286 0.024902 -0.002614 -0.000905
# 5 -0.007724 -0.003469 0.004366 -0.002614 0.093603 0.004831
# 6 0.007475 -0.000420 -0.001671 -0.000905 0.004831 0.025556
#
#
# Mechanical properties :
#
#
# Convention : Reuss Voigt Hill
#
# Bulk Modulus (GPa) = 32.27426 62.06853 47.17140
# Shear Modulus (GPa) = 21.26583 33.93681 27.60132
#
# Velocity S-wave (km/s) = 2.95772 3.73639 3.36962
# Velocity P-wave (km/s) = 4.99408 6.64434 5.87742
#
# Compressibility (1/GPa) = 0.03098444
#
# Stress axis : x y z
#
# Youngs Moduli (GPa) = 27.42041 108.01373 98.71630
#
# Poissons Ratio (x) = 0.39261 0.53894
# Poissons Ratio (y) = 0.09967 0.32992
# Poissons Ratio (z) = 0.14970 0.36099
#
# Static dielectric constant tensor:
#      x y z
#    x 2.054430 0.046780 -0.055010 
#    y 0.046780 1.965540 -0.015870 
#    z -0.055010 -0.015870 1.976590 
# 
# From -- ./inp_files/368057.got.cif
#   From: 2010.05.17/outbox.cif.g08.bks.cpg/sg2_185_cif.got.tgz:368057.got - 2010.06.03 11:33:40.
