data_PCOD9008211
_publ_section_title
;
Structure prediction by ZEFSAII (Michael W. Deem and Ramdas Pophale) SiO2 
 PCOD9008211
Probable space group: P -1
;
_chemical_formula_sum "Si O2"
_cell_formula_units_Z 16
_cell_length_a 11.088618
_cell_length_b 11.240356
_cell_length_c 9.073076
_cell_angle_alpha 106.175922
_cell_angle_beta 120.693310
_cell_angle_gamma 56.147878
_cell_volume 807.569758
_symmetry_space_group_name_H-M "P -1"
_symmetry_group_IT_number 2
_symmetry_cell_setting 'triclinic'
loop_
_space_group_symop_operation_xyz
x,y,z
-x,-y,-z
loop_
_atom_site_type_symbol
_atom_site_label
_atom_site_fract_x
_atom_site_fract_y
_atom_site_fract_z
Si Si1 0.623782 0.008181 0.694942
Si Si2 0.968962 0.378719 0.508828
Si Si3 0.911737 0.568380 0.117593
Si Si4 0.329066 0.118910 0.008891
Si Si5 0.792448 0.066175 0.258043
Si Si6 0.578398 0.267803 0.951681
Si Si7 0.747618 0.430646 0.137065
Si Si8 0.868669 0.941573 0.571834
O O1 0.564126 0.157842 0.795887
O O2 0.500000 0.000000 0.500000
O O3 0.657350 0.897994 0.811854
O O4 0.777618 0.982010 0.684193
O O5 0.974196 0.401827 0.692877
O O6 0.105071 0.215142 0.504424
O O7 0.000000 0.500000 0.500000
O O8 0.812074 0.396123 0.333270
O O9 0.874377 0.454329 0.132440
O O10 0.746297 0.719231 0.037979
O O11 0.000000 0.500000 0.000000
O O12 0.500000 0.000000 0.000000
O O13 0.200802 0.071199 0.861344
O O14 0.956313 0.069067 0.327509
O O15 0.773883 0.049486 0.414854
O O16 0.641516 0.195765 0.126029
O O17 0.413483 0.415987 0.908791
O O18 0.711761 0.312399 0.006892
#
# Coordination Sequence:
#
# PCOD9008211 Si02
#       8
#     2   2   2   2   2   2   2   2
#     4  11  26  38  65  94 127 162 218 266 314 381
#     4  10  22  39  65  86 124 166 204 259 314 384
#     4  11  24  38  63  95 122 163 213 265 314 380
#     4  11  23  41  64  90 130 168 207 264 326 383
#     4  10  21  39  64  90 123 166 207 258 317 382
#     4  10  22  42  63  91 120 172 206 260 318 380
#     4  10  22  42  65  86 129 164 210 252 324 387
#     4  11  22  40  63  96 123 165 211 263 321 372
#
# _framework density 19.812531
#
# number of rings (size 3 to 8) (size 9 to 14) (size 15 to 20)
#    0.000    1.500    2.500    2.250    7.000    3.000 
#    0.000    0.000    0.000    3.750    0.000    0.000 
#    0.000    0.000    0.000    0.000    0.000    0.000 
#
# Total GULP energy -89215.871649 kJ/mol
# GULP energy per Si atom -5575.991978 kJ/mol
# Density = 1.976744 g / cm^3
# Si number density = 19.812531 Si / 1000 Ang^3
#
#
#
# Elastic Constant Matrix: (Units=GPa)
#
#
# Indices 1 2 3 4 5 6 
#
# 1 74.5170 12.4933 34.8158 2.4309 -9.8033 7.1768
# 2 12.4933 78.9341 33.1815 -3.2198 -1.0095 10.5649
# 3 34.8158 33.1815 141.8873 -3.5754 -11.2293 -1.4590
# 4 2.4309 -3.2198 -3.5754 33.4649 9.2884 4.7306
# 5 -9.8033 -1.0095 -11.2293 9.2884 31.3087 8.7192
# 6 7.1768 10.5649 -1.4590 4.7306 8.7192 30.5102
#
#
#
# Elastic Compliance Matrix: (Units=1/GPa)
#
#
# Indices 1 2 3 4 5 6 
#
# 1 0.016571 -0.000431 -0.003600 -0.002583 0.006117 -0.005268
# 2 -0.000431 0.014991 -0.003400 0.001863 0.000130 -0.005578
# 3 -0.003600 -0.003400 0.008856 0.000231 0.001303 0.002040
# 4 -0.002583 0.001863 0.000231 0.033357 -0.009902 -0.002369
# 5 0.006117 0.000130 0.001303 -0.009902 0.040452 -0.011447
# 6 -0.005268 -0.005578 0.002040 -0.002369 -0.011447 0.039683
#
#
# Mechanical properties :
#
#
# Convention : Reuss Voigt Hill
#
# Bulk Modulus (GPa) = 39.13243 50.70217 44.91730
# Shear Modulus (GPa) = 28.20231 33.37994 30.79112
#
# Velocity S-wave (km/s) = 3.77697 4.10907 3.94651
# Velocity P-wave (km/s) = 6.23016 6.93968 6.59447
#
# Compressibility (1/GPa) = 0.02555425
#
# Stress axis : x y z
#
# Youngs Moduli (GPa) = 60.34798 66.70880 112.91381
#
# Poissons Ratio (x) = 0.02877 0.40653
# Poissons Ratio (y) = 0.02602 0.38391
# Poissons Ratio (z) = 0.21727 0.22681
#
# Static dielectric constant tensor:
#      x y z
#    x 1.733010 0.042380 0.031780 
#    y 0.042380 1.702940 -0.025020 
#    z 0.031780 -0.025020 1.748550 
# 
# From -- ./inp_files/262719.got.cif
#   From: 2010.05.17/outbox.cif.g08.bks.cpg/sg2_132_cif.got.tgz:262719.got - 2010.06.03 11:33:40.
