data_PCOD9008802
_publ_section_title
;
Structure prediction by ZEFSAII (Michael W. Deem and Ramdas Pophale) SiO2 
 PCOD9008802
Probable space group: P -1
;
_chemical_formula_sum "Si O2"
_cell_formula_units_Z 14
_cell_length_a 11.357454
_cell_length_b 9.792515
_cell_length_c 8.522762
_cell_angle_alpha 45.801373
_cell_angle_beta 69.838076
_cell_angle_gamma 53.039158
_cell_volume 538.392420
_symmetry_space_group_name_H-M "P -1"
_symmetry_group_IT_number 2
_symmetry_cell_setting 'triclinic'
loop_
_space_group_symop_operation_xyz
x,y,z
-x,-y,-z
loop_
_atom_site_type_symbol
_atom_site_label
_atom_site_fract_x
_atom_site_fract_y
_atom_site_fract_z
Si Si1 0.684759 0.334030 0.697707
Si Si2 0.187398 0.531724 0.991303
Si Si3 0.014979 0.796156 0.257744
Si Si4 0.648078 0.304426 0.376093
Si Si5 0.748367 0.849779 0.154623
Si Si6 0.978794 0.394489 0.284948
Si Si7 0.555709 0.965046 0.681745
O O1 0.685670 0.356989 0.489923
O O2 0.526523 0.506020 0.709002
O O3 0.805706 0.371369 0.695775
O O4 0.722238 0.080882 0.910520
O O5 0.102379 0.456847 0.208121
O O6 0.343276 0.290645 0.101757
O O7 0.254670 0.688297 0.815566
O O8 0.045298 0.662256 0.832590
O O9 0.883314 0.769215 0.280163
O O10 0.997662 0.794860 0.453706
O O11 0.000000 0.000000 0.000000
O O12 0.654830 0.072568 0.566597
O O13 0.821350 0.634160 0.182298
O O14 0.592843 0.906130 0.248884
O O15 0.500000 0.000000 0.500000
#
# Coordination Sequence:
#
# PCOD9008802 Si02
#       7
#     2   2   2   2   2   2   2
#     4  10  21  41  71 108 130 179 244 284 347 419
#     4  11  25  46  69 105 145 184 234 291 352 416
#     4  10  21  39  65  98 137 176 233 284 337 415
#     4  11  23  44  73 100 142 182 230 298 347 412
#     4  11  23  42  70 101 141 186 232 288 348 416
#     4  11  23  44  69 104 144 185 233 288 352 419
#     4  12  27  46  69 104 142 186 235 290 354 417
#
# _framework density 26.003339
#
# number of rings (size 3 to 8) (size 9 to 14) (size 15 to 20)
#    0.000    1.143    2.857    3.000    2.000    2.857 
#   12.857    2.143    0.000    0.000    0.000    0.000 
#    0.000    0.000    0.000    0.000    0.000    0.000 
#
# Total GULP energy -78119.230734 kJ/mol
# GULP energy per Si atom -5579.945052 kJ/mol
# Density = 2.594415 g / cm^3
# Si number density = 26.003339 Si / 1000 Ang^3
#
#
#
# Elastic Constant Matrix: (Units=GPa)
#
#
# Indices 1 2 3 4 5 6 
#
# 1 123.5759 -0.4696 41.8338 2.4298 -11.4827 -21.1106
# 2 -0.4696 54.5965 16.9961 -7.4511 -11.4213 -31.4812
# 3 41.8338 16.9961 130.4998 -4.6885 -19.9283 -13.2777
# 4 2.4298 -7.4511 -4.6885 32.0066 -5.4621 -8.1669
# 5 -11.4827 -11.4213 -19.9283 -5.4621 60.9269 1.5663
# 6 -21.1106 -31.4812 -13.2777 -8.1669 1.5663 37.6602
#
#
#
# Elastic Compliance Matrix: (Units=1/GPa)
#
#
# Indices 1 2 3 4 5 6 
#
# 1 0.012708 0.014069 -0.003032 0.007502 0.004218 0.019266
# 2 0.014069 0.068523 -0.002454 0.035461 0.016040 0.071324
# 3 -0.003032 -0.002454 0.009300 0.001315 0.002135 -0.000276
# 4 0.007502 0.035461 0.001315 0.052724 0.012055 0.045244
# 5 0.004218 0.016040 0.002135 0.012055 0.021525 0.018244
# 6 0.019266 0.071324 -0.000276 0.045244 0.018244 0.105930
#
#
# Mechanical properties :
#
#
# Convention : Reuss Voigt Hill
#
# Bulk Modulus (GPa) = 9.28546 47.26587 28.27567
# Shear Modulus (GPa) = 17.27458 42.80621 30.04039
#
# Velocity S-wave (km/s) = 2.58024 4.06172 3.40259
# Velocity P-wave (km/s) = 3.52923 6.34138 5.13169
#
# Compressibility (1/GPa) = 0.10769525
#
# Stress axis : x y z
#
# Youngs Moduli (GPa) = 78.69180 14.59372 107.53038
#
# Poissons Ratio (x) = -0.20531 0.32604
# Poissons Ratio (y) = -1.10709 0.26388
# Poissons Ratio (z) = 0.23860 0.03581
#
# Static dielectric constant tensor:
#      x y z
#    x 2.007040 -0.029820 -0.017470 
#    y -0.029820 1.939420 0.010760 
#    z -0.017470 0.010760 2.068150 
# 
# From -- ./inp_files/261293.got.cif
#   From: 2010.05.17/outbox.cif.g08.bks.cpg/sg2_131_cif.got.tgz:261293.got - 2010.06.03 11:33:40.
