data_PCOD9008816
_publ_section_title
;
Structure prediction by ZEFSAII (Michael W. Deem and Ramdas Pophale) SiO2 
 PCOD9008816
Probable space group: P -1
;
_chemical_formula_sum "Si O2"
_cell_formula_units_Z 16
_cell_length_a 18.152465
_cell_length_b 9.060901
_cell_length_c 6.189750
_cell_angle_alpha 50.589152
_cell_angle_beta 76.645549
_cell_angle_gamma 74.595442
_cell_volume 755.660807
_symmetry_space_group_name_H-M "P -1"
_symmetry_group_IT_number 2
_symmetry_cell_setting 'triclinic'
loop_
_space_group_symop_operation_xyz
x,y,z
-x,-y,-z
loop_
_atom_site_type_symbol
_atom_site_label
_atom_site_fract_x
_atom_site_fract_y
_atom_site_fract_z
Si Si1 0.938252 0.861167 0.711248
Si Si2 0.167970 0.808562 0.273327
Si Si3 0.709858 0.104016 0.571390
Si Si4 0.585173 0.947694 0.095754
Si Si5 0.169800 0.106711 0.630369
Si Si6 0.078562 0.443894 0.641070
Si Si7 0.409873 0.758110 0.813462
Si Si8 0.547808 0.577236 0.586968
O O1 0.904780 0.842760 0.515317
O O2 0.878065 0.003320 0.758387
O O3 0.949045 0.664118 0.026555
O O4 0.000000 0.000000 0.500000
O O5 0.242703 0.780066 0.403840
O O6 0.117593 0.636139 0.471699
O O7 0.178556 0.900810 0.943785
O O8 0.660478 0.235421 0.305770
O O9 0.761480 0.934786 0.552646
O O10 0.647779 0.017463 0.836624
O O11 0.600814 0.718764 0.324103
O O12 0.588705 0.046650 0.234990
O O13 0.500000 0.000000 0.000000
O O14 0.149949 0.290099 0.633759
O O15 0.000000 0.500000 0.500000
O O16 0.487063 0.700065 0.676599
O O17 0.408552 0.598192 0.145488
O O18 0.500000 0.500000 0.500000
#
# Coordination Sequence:
#
# PCOD9008816 Si02
#       8
#     2   2   2   2   2   2   2   2
#     4  10  21  39  66 100 131 169 217 271 330 398
#     4  10  23  44  63  92 140 174 222 276 332 412
#     4  11  24  44  66  91 135 186 220 279 352 402
#     4  12  23  43  71  96 131 172 229 286 341 407
#     4  10  23  43  63  92 135 176 221 271 340 405
#     4  11  23  41  72 103 132 176 227 278 330 395
#     4  11  23  42  68  95 129 173 222 283 346 399
#     4  11  23  41  66 101 130 162 225 294 332 405
#
# _framework density 21.17352
#
# number of rings (size 3 to 8) (size 9 to 14) (size 15 to 20)
#    0.000    1.250    2.500    2.625    0.000    6.000 
#    0.000   23.750    0.000    0.000    0.000    0.000 
#    0.000    0.000    0.000    0.000    0.000    0.000 
#
# Total GULP energy -89179.505856 kJ/mol
# GULP energy per Si atom -5573.719116 kJ/mol
# Density = 2.112533 g / cm^3
# Si number density = 21.173520 Si / 1000 Ang^3
#
#
#
# Elastic Constant Matrix: (Units=GPa)
#
#
# Indices 1 2 3 4 5 6 
#
# 1 113.4323 25.1233 68.3497 -7.0339 10.3170 27.0846
# 2 25.1233 90.5526 45.4327 -5.9140 -4.9038 15.4078
# 3 68.3497 45.4327 153.8838 -12.9916 15.8872 39.1221
# 4 -7.0339 -5.9140 -12.9916 34.9438 -2.7771 -6.2686
# 5 10.3170 -4.9038 15.8872 -2.7771 34.1522 8.3181
# 6 27.0846 15.4078 39.1221 -6.2686 8.3181 33.2538
#
#
#
# Elastic Compliance Matrix: (Units=1/GPa)
#
#
# Indices 1 2 3 4 5 6 
#
# 1 0.012696 -0.000664 -0.004083 -0.000042 -0.000808 -0.005035
# 2 -0.000664 0.013724 -0.003465 0.000770 0.004509 -0.002725
# 3 -0.004083 -0.003465 0.011750 0.001317 -0.002681 -0.007974
# 4 -0.000042 0.000770 0.001317 0.029943 0.001093 0.003499
# 5 -0.000808 0.004509 -0.002681 0.001093 0.033052 -0.006338
# 6 -0.005035 -0.002725 -0.007974 0.003499 -0.006338 0.047061
#
#
# Mechanical properties :
#
#
# Convention : Reuss Voigt Hill
#
# Bulk Modulus (GPa) = 45.98352 70.63111 58.30732
# Shear Modulus (GPa) = 29.08663 35.06751 32.07707
#
# Velocity S-wave (km/s) = 3.71040 4.07405 3.89647
# Velocity P-wave (km/s) = 6.33409 7.45394 6.91672
#
# Compressibility (1/GPa) = 0.02174692
#
# Stress axis : x y z
#
# Youngs Moduli (GPa) = 78.76190 72.86520 85.10502
#
# Poissons Ratio (x) = 0.04835 0.34752
# Poissons Ratio (y) = 0.05226 0.29488
# Poissons Ratio (z) = 0.32161 0.25247
#
# Static dielectric constant tensor:
#      x y z
#    x 1.804970 0.018850 0.039090 
#    y 0.018850 1.793840 0.028440 
#    z 0.039090 0.028440 1.872840 
# 
# From -- ./inp_files/106075.got.cif
#   From: 2010.05.17/outbox.cif.g08.bks.cpg/sg2_54_cif.got.tgz:106075.got - 2010.06.03 11:33:40.
