data_PCOD9008791
_publ_section_title
;
Structure prediction by ZEFSAII (Michael W. Deem and Ramdas Pophale) SiO2 
 PCOD9008791
Probable space group: P -1
;
_chemical_formula_sum "Si O2"
_cell_formula_units_Z 14
_cell_length_a 5.364588
_cell_length_b 9.979009
_cell_length_c 13.515867
_cell_angle_alpha 95.040511
_cell_angle_beta 118.617046
_cell_angle_gamma 96.413148
_cell_volume 622.843702
_symmetry_space_group_name_H-M "P -1"
_symmetry_group_IT_number 2
_symmetry_cell_setting 'triclinic'
loop_
_space_group_symop_operation_xyz
x,y,z
-x,-y,-z
loop_
_atom_site_type_symbol
_atom_site_label
_atom_site_fract_x
_atom_site_fract_y
_atom_site_fract_z
Si Si1 0.864596 0.855029 0.923340
Si Si2 0.525078 0.403036 0.639780
Si Si3 0.019272 0.148461 0.463384
Si Si4 0.829922 0.210380 0.225403
Si Si5 0.755777 0.380908 0.490185
Si Si6 0.848517 0.609462 0.033519
Si Si7 0.286687 0.498595 0.800197
O O1 0.517051 0.843700 0.845698
O O2 0.012001 0.816088 0.847736
O O3 0.955950 0.755329 0.017624
O O4 0.000000 0.000000 0.000000
O O5 0.781612 0.376184 0.613471
O O6 0.504891 0.553608 0.598180
O O7 0.456254 0.429985 0.742968
O O8 0.287874 0.266793 0.556624
O O9 0.988928 0.143355 0.339227
O O10 0.758224 0.228366 0.446729
O O11 0.000000 0.000000 0.500000
O O12 0.849897 0.373820 0.256728
O O13 0.000000 0.500000 0.500000
O O14 0.888198 0.600928 0.157671
O O15 0.523438 0.578262 0.927948
O O16 0.000000 0.500000 0.000000
#
# Coordination Sequence:
#
# PCOD9008791 Si02
#       7
#     2   2   2   2   2   2   2
#     4  11  25  46  73  98 138 180 228 280 351 420
#     4  10  21  39  66  93 132 177 224 283 336 413
#     4  11  25  42  63  97 141 179 231 282 343 418
#     4  11  24  44  72  98 136 185 227 285 345 412
#     4   9  20  38  64  92 124 171 231 276 331 407
#     4  10  21  39  65  98 130 167 225 291 331 404
#     4  10  21  39  67  99 131 173 227 281 347 396
#
# _framework density 22.477550000000001
#
# number of rings (size 3 to 8) (size 9 to 14) (size 15 to 20)
#    0.000    1.714    2.857    0.429    2.000    7.429 
#    2.571    0.000    0.000    0.000    0.000    0.000 
#    0.000    0.000    0.000    0.000    0.000    0.000 
#
# Total GULP energy -77951.123016 kJ/mol
# GULP energy per Si atom -5567.937358 kJ/mol
# Density = 2.242639 g / cm^3
# Si number density = 22.477550 Si / 1000 Ang^3
#
#
#
# Elastic Constant Matrix: (Units=GPa)
#
#
# Indices 1 2 3 4 5 6 
#
# 1 105.5356 25.2640 35.3324 -1.0958 -27.2588 18.4310
# 2 25.2640 192.5582 59.1260 -14.0888 -15.1848 15.9097
# 3 35.3324 59.1260 124.2443 -16.1439 -38.1920 32.0964
# 4 -1.0958 -14.0888 -16.1439 42.0038 9.9593 -2.7600
# 5 -27.2588 -15.1848 -38.1920 9.9593 53.4952 -5.8724
# 6 18.4310 15.9097 32.0964 -2.7600 -5.8724 19.4637
#
#
#
# Elastic Compliance Matrix: (Units=1/GPa)
#
#
# Indices 1 2 3 4 5 6 
#
# 1 0.012995 -0.000801 0.001839 -0.001635 0.006593 -0.012926
# 2 -0.000801 0.006184 -0.002985 0.001163 -0.000945 0.000507
# 3 0.001839 -0.002985 0.019944 0.002280 0.010763 -0.028620
# 4 -0.001635 0.001163 0.002280 0.025882 -0.003763 -0.000627
# 5 0.006593 -0.000945 0.010763 -0.003763 0.028505 -0.015151
# 6 -0.012926 0.000507 -0.028620 -0.000627 -0.015151 0.105739
#
#
# Mechanical properties :
#
#
# Convention : Reuss Voigt Hill
#
# Bulk Modulus (GPa) = 28.38645 73.53144 50.95895
# Shear Modulus (GPa) = 23.26806 43.16691 33.21749
#
# Velocity S-wave (km/s) = 3.22089 4.38704 3.84840
# Velocity P-wave (km/s) = 5.14669 7.64499 6.51668
#
# Compressibility (1/GPa) = 0.03522807
#
# Stress axis : x y z
#
# Youngs Moduli (GPa) = 76.95350 161.71562 50.13978
#
# Poissons Ratio (x) = 0.12961 -0.09222
# Poissons Ratio (y) = 0.06168 0.14967
# Poissons Ratio (z) = -0.14154 0.48274
#
# Static dielectric constant tensor:
#      x y z
#    x 2.144710 0.036180 0.132010 
#    y 0.036180 1.906840 -0.084680 
#    z 0.132010 -0.084680 2.052080 
# 
# From -- ./inp_files/480687.got.cif
#   From: 2010.05.17/outbox.cif.g08.bks.cpg/sg2_241_cif.got.tgz:480687.got - 2010.06.03 11:33:40.
