data_PCOD9008952
_publ_section_title
;
Structure prediction by ZEFSAII (Michael W. Deem and Ramdas Pophale) SiO2 
 PCOD9008952
Probable space group: P -1
;
_chemical_formula_sum "Si O2"
_cell_formula_units_Z 12
_cell_length_a 10.611716
_cell_length_b 5.080365
_cell_length_c 12.924411
_cell_angle_alpha 85.989546
_cell_angle_beta 92.647907
_cell_angle_gamma 55.376186
_cell_volume 568.827780
_symmetry_space_group_name_H-M "P -1"
_symmetry_group_IT_number 2
_symmetry_cell_setting 'triclinic'
loop_
_space_group_symop_operation_xyz
x,y,z
-x,-y,-z
loop_
_atom_site_type_symbol
_atom_site_label
_atom_site_fract_x
_atom_site_fract_y
_atom_site_fract_z
Si Si1 0.921274 0.667412 0.101391
Si Si2 0.421512 0.854366 0.946237
Si Si3 0.590709 0.631957 0.549292
Si Si4 0.618094 0.137710 0.286305
Si Si5 0.128887 0.522798 0.561282
Si Si6 0.890317 0.168242 0.244371
O O1 0.903465 0.414512 0.169550
O O2 0.758066 0.965522 0.047019
O O3 0.964772 0.838540 0.187094
O O4 0.000000 0.500000 0.000000
O O5 0.427685 0.915332 0.824222
O O6 0.500000 0.500000 0.000000
O O7 0.500000 0.000000 0.000000
O O8 0.500000 0.500000 0.500000
O O9 0.542706 0.650633 0.665350
O O10 0.763181 0.454227 0.518502
O O11 0.500000 0.000000 0.500000
O O12 0.714166 0.287295 0.258474
O O13 0.746879 0.812873 0.362792
O O14 0.057741 0.803211 0.638499
O O15 0.000000 0.500000 0.500000
#
# Coordination Sequence:
#
# PCOD9008952 Si02
#       6
#     2   2   2   2   2   2
#     4  11  24  44  70  96 138 183 230 288 357 410
#     4  11  23  40  69  97 128 175 228 280 341 409
#     4  10  21  39  66  94 130 178 221 276 335 408
#     4  10  22  43  68  94 138 177 228 281 349 409
#     4  11  23  42  70 104 140 182 232 283 351 415
#     4  11  20  41  69  96 134 185 220 283 352 409
#
# _framework density 21.096015999999999
#
# number of rings (size 3 to 8) (size 9 to 14) (size 15 to 20)
#    0.000    1.333    5.000    2.500    0.000    0.667 
#    3.000    1.667    0.000    0.000    0.000    0.000 
#    0.000    0.000    0.000    0.000    0.000    0.000 
#
# Total GULP energy -66825.282679 kJ/mol
# GULP energy per Si atom -5568.773557 kJ/mol
# Density = 2.104800 g / cm^3
# Si number density = 21.096016 Si / 1000 Ang^3
#
#
#
# Elastic Constant Matrix: (Units=GPa)
#
#
# Indices 1 2 3 4 5 6 
#
# 1 125.7061 51.9894 88.3136 24.0833 -2.3411 16.2282
# 2 51.9894 114.9296 66.2283 18.8465 -7.5226 14.2892
# 3 88.3136 66.2283 166.9879 42.6672 5.5283 -13.5151
# 4 24.0833 18.8465 42.6672 43.3747 0.9081 -4.0462
# 5 -2.3411 -7.5226 5.5283 0.9081 52.9173 11.9828
# 6 16.2282 14.2892 -13.5151 -4.0462 11.9828 45.3106
#
#
#
# Elastic Compliance Matrix: (Units=1/GPa)
#
#
# Indices 1 2 3 4 5 6 
#
# 1 0.015724 -0.000586 -0.008729 -0.000810 0.003593 -0.009073
# 2 -0.000586 0.013341 -0.005448 -0.000825 0.003982 -0.006749
# 3 -0.008729 -0.005448 0.015549 -0.007029 -0.004967 0.010169
# 4 -0.000810 -0.000825 -0.007029 0.030901 -0.000238 0.001276
# 5 0.003593 0.003982 -0.004967 -0.000238 0.022403 -0.009970
# 6 -0.009073 -0.006749 0.010169 0.001276 -0.009970 0.033231
#
#
# Mechanical properties :
#
#
# Convention : Reuss Voigt Hill
#
# Bulk Modulus (GPa) = 66.28774 91.18737 78.73755
# Shear Modulus (GPa) = 30.17389 41.72666 35.95028
#
# Velocity S-wave (km/s) = 3.78605 4.45223 4.13258
# Velocity P-wave (km/s) = 7.11353 8.35156 7.75728
#
# Compressibility (1/GPa) = 0.01508575
#
# Stress axis : x y z
#
# Youngs Moduli (GPa) = 63.59842 74.95811 64.31169
#
# Poissons Ratio (x) = 0.04396 0.56140
# Poissons Ratio (y) = 0.03730 0.35039
# Poissons Ratio (z) = 0.55517 0.40839
#
# Static dielectric constant tensor:
#      x y z
#    x 1.773330 0.028730 -0.010460 
#    y 0.028730 1.794510 0.107560 
#    z -0.010460 0.107560 1.961600 
# 
# From -- ./inp_files/410560.got.cif
#   From: 2010.05.17/outbox.cif.g08.bks.cpg/sg2_206_cif.got.tgz:410560.got - 2010.06.03 11:33:40.
