data_PCOD9008897
_publ_section_title
;
Structure prediction by ZEFSAII (Michael W. Deem and Ramdas Pophale) SiO2 
 PCOD9008897
Probable space group: P -1
;
_chemical_formula_sum "Si O2"
_cell_formula_units_Z 16
_cell_length_a 8.620381
_cell_length_b 15.228927
_cell_length_c 8.827859
_cell_angle_alpha 140.747435
_cell_angle_beta 83.654293
_cell_angle_gamma 113.938963
_cell_volume 627.267982
_symmetry_space_group_name_H-M "P -1"
_symmetry_group_IT_number 2
_symmetry_cell_setting 'triclinic'
loop_
_space_group_symop_operation_xyz
x,y,z
-x,-y,-z
loop_
_atom_site_type_symbol
_atom_site_label
_atom_site_fract_x
_atom_site_fract_y
_atom_site_fract_z
Si Si1 0.642865 0.083329 0.735312
Si Si2 0.186606 0.157083 0.004023
Si Si3 0.366285 0.617290 0.305714
Si Si4 0.954514 0.442775 0.097849
Si Si5 0.872262 0.915649 0.544464
Si Si6 0.855811 0.549756 0.520659
Si Si7 0.582305 0.660970 0.066276
Si Si8 0.480218 0.780892 0.798147
O O1 0.500000 0.000000 0.500000
O O2 0.733960 0.981491 0.642522
O O3 0.810045 0.256108 0.892111
O O4 0.561510 0.118958 0.941866
O O5 0.117958 0.282993 0.202005
O O6 0.310515 0.164085 0.137198
O O7 0.330422 0.225271 0.936988
O O8 0.014435 0.983063 0.755004
O O9 0.421159 0.657505 0.176709
O O10 0.426288 0.768658 0.611612
O O11 0.156625 0.496475 0.203221
O O12 0.462548 0.516502 0.207506
O O13 0.885206 0.546039 0.333416
O O14 0.000000 0.500000 0.000000
O O15 0.747927 0.730985 0.264675
O O16 0.000000 0.000000 0.500000
O O17 0.653651 0.404575 0.382591
O O18 0.000000 0.500000 0.500000
#
# Coordination Sequence:
#
# PCOD9008897 Si02
#       8
#     2   2   2   2   2   2   2   2
#     4  11  24  43  68  96 132 174 222 269 323 395
#     4  11  21  38  65  94 119 171 225 265 318 391
#     4  11  23  40  62  96 137 165 211 277 335 375
#     4  11  25  39  65  95 132 170 215 271 328 385
#     4  10  21  39  66  91 126 170 221 261 321 396
#     4  11  20  38  61  91 129 165 218 268 322 379
#     4  10  22  39  65  91 128 170 212 269 327 385
#     4  11  23  38  63  97 128 168 219 270 321 391
#
# _framework density 25.507439000000002
#
# number of rings (size 3 to 8) (size 9 to 14) (size 15 to 20)
#    0.000    1.250    2.500    4.875    5.250    1.000 
#    0.000    2.500    0.000    0.000    0.000    0.000 
#    0.000    0.000    0.000    0.000    0.000    0.000 
#
# Total GULP energy -89469.454012 kJ/mol
# GULP energy per Si atom -5591.840876 kJ/mol
# Density = 2.544938 g / cm^3
# Si number density = 25.507439 Si / 1000 Ang^3
#
#
#
# Elastic Constant Matrix: (Units=GPa)
#
#
# Indices 1 2 3 4 5 6 
#
# 1 99.0297 14.2565 44.2490 -5.6157 7.7286 20.3318
# 2 14.2565 94.2614 25.4551 -9.9585 -14.1876 35.6327
# 3 44.2490 25.4551 145.3005 -15.2695 1.4093 19.3623
# 4 -5.6157 -9.9585 -15.2695 39.9466 18.1130 -2.9626
# 5 7.7286 -14.1876 1.4093 18.1130 51.1832 -2.2178
# 6 20.3318 35.6327 19.3623 -2.9626 -2.2178 36.8392
#
#
#
# Elastic Compliance Matrix: (Units=1/GPa)
#
#
# Indices 1 2 3 4 5 6 
#
# 1 0.012950 0.001223 -0.003078 0.001520 -0.002361 -0.006732
# 2 0.001223 0.017839 -0.001129 0.001295 0.003596 -0.017016
# 3 -0.003078 -0.001129 0.008547 0.002987 -0.001207 -0.001534
# 4 0.001520 0.001295 0.002987 0.031675 -0.011240 -0.001791
# 5 -0.002361 0.003596 -0.001207 -0.011240 0.024861 -0.000948
# 6 -0.006732 -0.017016 -0.001534 -0.001791 -0.000948 0.047924
#
#
# Mechanical properties :
#
#
# Convention : Reuss Voigt Hill
#
# Bulk Modulus (GPa) = 29.96928 56.27919 43.12424
# Shear Modulus (GPa) = 31.07759 42.56919 36.82339
#
# Velocity S-wave (km/s) = 3.49431 4.08964 3.80364
# Velocity P-wave (km/s) = 5.29670 6.66423 6.01942
#
# Compressibility (1/GPa) = 0.03336750
#
# Stress axis : x y z
#
# Youngs Moduli (GPa) = 77.22016 56.05707 116.99380
#
# Poissons Ratio (x) = -0.06853 0.36013
# Poissons Ratio (y) = -0.09440 0.13206
# Poissons Ratio (z) = 0.23770 0.06328
#
# Static dielectric constant tensor:
#      x y z
#    x 2.075010 -0.035300 0.090560 
#    y -0.035300 2.037800 -0.068470 
#    z 0.090560 -0.068470 2.127950 
# 
# From -- ./inp_files/218867.got.cif
#   From: 2010.05.17/outbox.cif.g08.bks.cpg/sg2_110_cif.got.tgz:218867.got - 2010.06.03 11:33:40.
