data_PCOD9008833
_publ_section_title
;
Structure prediction by ZEFSAII (Michael W. Deem and Ramdas Pophale) SiO2 
 PCOD9008833
Probable space group: P -1
;
_chemical_formula_sum "Si O2"
_cell_formula_units_Z 16
_cell_length_a 11.807330
_cell_length_b 18.086435
_cell_length_c 12.675125
_cell_angle_alpha 36.358985
_cell_angle_beta 54.228220
_cell_angle_gamma 26.128973
_cell_volume 599.136387
_symmetry_space_group_name_H-M "P -1"
_symmetry_group_IT_number 2
_symmetry_cell_setting 'triclinic'
loop_
_space_group_symop_operation_xyz
x,y,z
-x,-y,-z
loop_
_atom_site_type_symbol
_atom_site_label
_atom_site_fract_x
_atom_site_fract_y
_atom_site_fract_z
Si Si1 0.122055 0.609178 0.459802
Si Si2 0.232637 0.438567 0.817885
Si Si3 0.200193 0.476540 0.335953
Si Si4 0.344179 0.090151 0.258305
Si Si5 0.650052 0.318206 0.820346
Si Si6 0.790885 0.167956 0.316152
Si Si7 0.357113 0.837182 0.805576
Si Si8 0.014258 0.711167 0.970661
O O1 0.214467 0.447646 0.691340
O O2 0.354932 0.540049 0.388142
O O3 0.103523 0.560309 0.412761
O O4 0.823775 0.916934 0.312723
O O5 0.443385 0.389526 0.784466
O O6 0.908204 0.712005 0.739417
O O7 0.370337 0.207827 0.063542
O O8 0.465070 0.370966 0.295919
O O9 0.936314 0.725073 0.113264
O O10 0.360956 0.219569 0.514063
O O11 0.221164 0.111389 0.198866
O O12 0.572491 0.341497 0.955881
O O13 0.000000 0.000000 0.000000
O O14 0.835734 0.045325 0.328132
O O15 0.859664 0.248954 0.137535
O O16 0.000000 0.000000 0.500000
O O17 0.698768 0.603310 0.858255
#
# Coordination Sequence:
#
# PCOD9008833 Si02
#       8
#     2   2   2   2   2   2   2   2
#     4  11  24  41  69 102 139 181 230 291 361 404
#     4  11  24  46  70 102 138 182 240 289 339 426
#     4  11  24  42  66 104 141 186 229 291 353 413
#     4  11  25  47  72 102 139 190 240 281 344 419
#     4  10  21  41  68 103 137 173 225 293 356 401
#     4  11  21  36  68 101 139 177 234 294 345 406
#     4  10  21  39  66 101 138 177 230 290 347 415
#     4  11  21  43  68  99 141 183 233 291 345 408
#
# _framework density 26.705105
#
# number of rings (size 3 to 8) (size 9 to 14) (size 15 to 20)
#    0.000    1.250    2.500    4.875    0.000    2.500 
#    9.000    2.500    0.000    0.000    0.000    0.000 
#    0.000    0.000    0.000    0.000    0.000    0.000 
#
# Total GULP energy -89570.835068 kJ/mol
# GULP energy per Si atom -5598.177192 kJ/mol
# Density = 2.664432 g / cm^3
# Si number density = 26.705105 Si / 1000 Ang^3
#
#
#
# Elastic Constant Matrix: (Units=GPa)
#
#
# Indices 1 2 3 4 5 6 
#
# 1 76.8407 36.1357 35.2776 19.1668 10.7315 14.0662
# 2 36.1357 82.7518 46.1500 23.4999 9.7544 14.3624
# 3 35.2776 46.1500 157.3587 40.1829 11.4711 16.5340
# 4 19.1668 23.4999 40.1829 43.4075 15.1367 5.0244
# 5 10.7315 9.7544 11.4711 15.1367 54.7792 12.5771
# 6 14.0662 14.3624 16.5340 5.0244 12.5771 51.5279
#
#
#
# Elastic Compliance Matrix: (Units=1/GPa)
#
#
# Indices 1 2 3 4 5 6 
#
# 1 0.017499 -0.005612 -0.001200 -0.003026 -0.000805 -0.002336
# 2 -0.005612 0.017582 -0.002530 -0.004534 0.000251 -0.002176
# 3 -0.001200 -0.002530 0.009179 -0.006765 0.000975 -0.001491
# 4 -0.003026 -0.004534 -0.006765 0.035427 -0.007582 0.002657
# 5 -0.000805 0.000251 0.000975 -0.007582 0.021322 -0.004628
# 6 -0.002336 -0.002176 -0.001491 0.002657 -0.004628 0.022000
#
#
# Mechanical properties :
#
#
# Convention : Reuss Voigt Hill
#
# Bulk Modulus (GPa) = 39.10128 61.34197 50.22162
# Shear Modulus (GPa) = 33.28475 43.23545 38.26010
#
# Velocity S-wave (km/s) = 3.53424 4.02804 3.78919
# Velocity P-wave (km/s) = 5.59716 6.68232 6.16367
#
# Compressibility (1/GPa) = 0.02557461
#
# Stress axis : x y z
#
# Youngs Moduli (GPa) = 57.14560 56.87741 108.94392
#
# Poissons Ratio (x) = 0.31922 0.13075
# Poissons Ratio (y) = 0.32073 0.27563
# Poissons Ratio (z) = 0.06858 0.14390
#
# Static dielectric constant tensor:
#      x y z
#    x 2.101020 0.069200 -0.022180 
#    y 0.069200 1.981350 0.041310 
#    z -0.022180 0.041310 2.085280 
# 
# From -- ./inp_files/523883.got.cif
#   From: 2010.05.17/outbox.cif.g08.bks.cpg/sg2_262_cif.got.tgz:523883.got - 2010.06.03 11:33:40.
