data_PCOD9008878
_publ_section_title
;
Structure prediction by ZEFSAII (Michael W. Deem and Ramdas Pophale) SiO2 
 PCOD9008878
Probable space group: P -1
;
_chemical_formula_sum "Si O2"
_cell_formula_units_Z 16
_cell_length_a 24.348619
_cell_length_b 11.777003
_cell_length_c 17.731688
_cell_angle_alpha 27.957722
_cell_angle_beta 160.341077
_cell_angle_gamma 140.744455
_cell_volume 746.802901
_symmetry_space_group_name_H-M "P -1"
_symmetry_group_IT_number 2
_symmetry_cell_setting 'triclinic'
loop_
_space_group_symop_operation_xyz
x,y,z
-x,-y,-z
loop_
_atom_site_type_symbol
_atom_site_label
_atom_site_fract_x
_atom_site_fract_y
_atom_site_fract_z
Si Si1 0.683460 0.271418 0.656294
Si Si2 0.294516 0.661253 0.516610
Si Si3 0.874861 0.605352 0.424187
Si Si4 0.124518 0.730518 0.784026
Si Si5 0.989296 0.908981 0.181820
Si Si6 0.520140 0.939992 0.701169
Si Si7 0.515629 0.637987 0.360151
Si Si8 0.738669 0.808927 0.645915
O O1 0.672345 0.438961 0.467729
O O2 0.639362 0.440284 0.575323
O O3 0.541114 0.130713 0.552083
O O4 0.873357 0.040560 0.027507
O O5 0.208286 0.518380 0.544595
O O6 0.466526 0.700794 0.746910
O O7 0.150295 0.952325 0.146638
O O8 0.030882 0.673407 0.622609
O O9 0.942089 0.394051 0.568481
O O10 0.707403 0.843248 0.040532
O O11 0.316958 0.740516 0.013271
O O12 0.147204 0.492965 0.011407
O O13 0.000000 0.000000 0.500000
O O14 0.144077 0.018970 0.312977
O O15 0.377936 0.097571 0.485329
O O16 0.500000 0.500000 0.500000
O O17 0.609704 0.831466 0.395623
#
# Coordination Sequence:
#
# PCOD9008878 Si02
#       8
#     2   2   2   2   2   2   2   2
#     4  10  23  39  65  98 128 175 212 270 325 382
#     4  10  22  39  62  94 134 169 216 252 336 377
#     4  12  23  39  67  99 136 171 217 268 319 392
#     4  11  22  37  63  99 123 164 224 269 308 380
#     4  10  23  40  65  95 131 173 213 259 332 379
#     4  12  22  38  68  99 129 174 217 264 321 392
#     4  10  21  39  66  90 122 174 220 261 316 392
#     4  11  21  41  69  90 128 176 225 254 322 398
#
# _framework density 21.424662000000001
#
# number of rings (size 3 to 8) (size 9 to 14) (size 15 to 20)
#    0.750    0.500    5.000    2.625    1.750    1.000 
#    0.000    0.000    0.000    3.750    0.000    0.000 
#    0.000    0.000    0.000    0.000    0.000    0.000 
#
# Total GULP energy -89263.546492 kJ/mol
# GULP energy per Si atom -5578.971656 kJ/mol
# Density = 2.137590 g / cm^3
# Si number density = 21.424662 Si / 1000 Ang^3
#
#
#
# Elastic Constant Matrix: (Units=GPa)
#
#
# Indices 1 2 3 4 5 6 
#
# 1 101.3627 15.1928 26.4849 -3.5878 28.6919 -5.1537
# 2 15.1928 95.3612 43.4072 27.2549 13.1069 -19.3350
# 3 26.4849 43.4072 81.7503 15.2439 21.7594 -5.9616
# 4 -3.5878 27.2549 15.2439 43.2677 -4.7214 1.7998
# 5 28.6919 13.1069 21.7594 -4.7214 27.6744 0.7796
# 6 -5.1537 -19.3350 -5.9616 1.7998 0.7796 27.1627
#
#
#
# Elastic Compliance Matrix: (Units=1/GPa)
#
#
# Indices 1 2 3 4 5 6 
#
# 1 0.014331 0.001306 -0.000788 -0.001178 -0.015170 0.003989
# 2 0.001306 0.020696 -0.005450 -0.012659 -0.009450 0.014893
# 3 -0.000788 -0.005450 0.019922 -0.005132 -0.013171 0.001061
# 4 -0.001178 -0.012659 -0.005132 0.035271 0.017641 -0.013204
# 5 -0.015170 -0.009450 -0.013171 0.017641 0.070146 -0.015678
# 6 0.003989 0.014893 0.001061 -0.013204 -0.015678 0.049731
#
#
# Mechanical properties :
#
#
# Convention : Reuss Voigt Hill
#
# Bulk Modulus (GPa) = 22.18060 49.84933 36.01497
# Shear Modulus (GPa) = 21.27772 32.51359 26.89565
#
# Velocity S-wave (km/s) = 3.15483 3.89984 3.54695
# Velocity P-wave (km/s) = 4.86271 6.60273 5.79836
#
# Compressibility (1/GPa) = 0.04508443
#
# Stress axis : x y z
#
# Youngs Moduli (GPa) = 69.77905 48.31941 50.19648
#
# Poissons Ratio (x) = -0.06311 0.03955
# Poissons Ratio (y) = -0.09114 0.27358
# Poissons Ratio (z) = 0.05497 0.26335
#
# Static dielectric constant tensor:
#      x y z
#    x 1.798250 0.016730 -0.040530 
#    y 0.016730 1.807320 -0.013060 
#    z -0.040530 -0.013060 1.824150 
# 
# From -- ./inp_files/579143.got.cif
#   From: 2010.05.17/outbox.cif.g08.bks.cpg/sg2_290_cif.got.tgz:579143.got - 2010.06.03 11:33:40.
