data_PCOD9008020
_publ_section_title
;
Structure prediction by ZEFSAII (Michael W. Deem and Ramdas Pophale) SiO2 
 PCOD9008020
Probable space group: P -1
;
_chemical_formula_sum "Si O2"
_cell_formula_units_Z 16
_cell_length_a 6.560210
_cell_length_b 8.504894
_cell_length_c 23.707112
_cell_angle_alpha 56.578960
_cell_angle_beta 138.299369
_cell_angle_gamma 124.611577
_cell_volume 704.536684
_symmetry_space_group_name_H-M "P -1"
_symmetry_group_IT_number 2
_symmetry_cell_setting 'triclinic'
loop_
_space_group_symop_operation_xyz
x,y,z
-x,-y,-z
loop_
_atom_site_type_symbol
_atom_site_label
_atom_site_fract_x
_atom_site_fract_y
_atom_site_fract_z
Si Si1 0.986591 0.621059 0.233284
Si Si2 0.121130 0.914418 0.423159
Si Si3 0.687956 0.117886 0.652134
Si Si4 0.201550 0.319199 0.495143
Si Si5 0.539035 0.214998 0.039692
Si Si6 0.258957 0.776151 0.681494
Si Si7 0.979403 0.540454 0.126688
Si Si8 0.405521 0.776939 0.076528
O O1 0.768664 0.405560 0.247625
O O2 0.136440 0.591387 0.210215
O O3 0.767899 0.766799 0.151418
O O4 0.212514 0.713896 0.313312
O O5 0.094382 0.861542 0.361639
O O6 0.951401 0.726726 0.464784
O O7 0.500000 0.000000 0.500000
O O8 0.941310 0.082115 0.362693
O O9 0.351762 0.136989 0.554594
O O10 0.605561 0.912363 0.708570
O O11 0.500000 0.500000 0.500000
O O12 0.917819 0.311700 0.395360
O O13 0.774017 0.317249 0.117893
O O14 0.393973 0.982690 0.059678
O O15 0.269706 0.329287 0.957822
O O16 0.710651 0.243691 0.007956
O O17 0.221463 0.606028 0.112981
#
# Coordination Sequence:
#
# PCOD9008020 Si02
#       8
#     2   2   2   2   2   2   2   2
#     4  11  26  39  55  91 129 164 202 247 311 377
#     4  11  21  39  65  89 111 158 216 265 317 366
#     4  11  23  42  61  88 122 163 211 261 314 372
#     4  11  21  40  66  90 119 154 212 273 312 368
#     4   9  20  39  67  94 120 154 204 253 285 359
#     4  11  23  42  61  86 126 161 205 268 314 367
#     4  10  21  40  64  92 124 161 201 241 307 360
#     4  10  21  39  63  94 124 158 203 246 300 362
#
# _framework density 22.709958
#
# number of rings (size 3 to 8) (size 9 to 14) (size 15 to 20)
#    0.000    1.500    3.750    1.500    0.000    6.500 
#    2.250    2.500    0.000    0.000    0.000    0.000 
#    0.000    0.000    0.000    0.000    0.000    0.000 
#
# Total GULP energy -89269.734381 kJ/mol
# GULP energy per Si atom -5579.358399 kJ/mol
# Density = 2.265827 g / cm^3
# Si number density = 22.709958 Si / 1000 Ang^3
#
#
#
# Elastic Constant Matrix: (Units=GPa)
#
#
# Indices 1 2 3 4 5 6 
#
# 1 83.8313 27.1627 17.2932 14.6972 -16.7167 12.2568
# 2 27.1627 76.8471 23.1425 3.9028 -7.2872 12.2743
# 3 17.2932 23.1425 45.2716 7.3277 -16.2333 -9.8966
# 4 14.6972 3.9028 7.3277 33.9159 -8.9946 -8.4683
# 5 -16.7167 -7.2872 -16.2333 -8.9946 26.5899 -13.0925
# 6 12.2568 12.2743 -9.8966 -8.4683 -13.0925 32.8828
#
#
#
# Elastic Compliance Matrix: (Units=1/GPa)
#
#
# Indices 1 2 3 4 5 6 
#
# 1 0.016733 -0.001255 -0.008582 -0.009608 -0.004533 -0.012631
# 2 -0.001255 0.026011 -0.031156 -0.014178 -0.035378 -0.036356
# 3 -0.008582 -0.031156 0.090315 0.036355 0.098012 0.090397
# 4 -0.009608 -0.014178 0.036355 0.058449 0.061208 0.059238
# 5 -0.004533 -0.035378 0.098012 0.061208 0.168200 0.127127
# 6 -0.012631 -0.036356 0.090397 0.059238 0.127127 0.141768
#
#
# Mechanical properties :
#
#
# Convention : Reuss Voigt Hill
#
# Bulk Modulus (GPa) = 19.57908 37.90521 28.74214
# Shear Modulus (GPa) = 8.32661 27.90116 18.11389
#
# Velocity S-wave (km/s) = 1.91689 3.50892 2.82728
# Velocity P-wave (km/s) = 3.67959 5.75708 4.83132
#
# Compressibility (1/GPa) = 0.05107493
#
# Stress axis : x y z
#
# Youngs Moduli (GPa) = 59.76262 38.44538 11.07238
#
# Poissons Ratio (x) = 0.04823 0.09502
# Poissons Ratio (y) = 0.07497 0.34497
# Poissons Ratio (z) = 0.51286 1.19779
#
# Static dielectric constant tensor:
#      x y z
#    x 1.881160 0.020230 -0.001770 
#    y 0.020230 1.886630 0.008160 
#    z -0.001770 0.008160 1.920340 
# 
# From -- ./inp_files/56180.got.cif
#   From: 2010.05.17/outbox.cif.g08.bks.cpg/sg2_29_cif.got.tgz:56180.got - 2010.06.03 11:33:40.
