data_PCOD9008170
_publ_section_title
;
Structure prediction by ZEFSAII (Michael W. Deem and Ramdas Pophale) SiO2 
 PCOD9008170
Probable space group: P -1
;
_chemical_formula_sum "Si O2"
_cell_formula_units_Z 12
_cell_length_a 15.443905
_cell_length_b 9.328530
_cell_length_c 15.159106
_cell_angle_alpha 42.315059
_cell_angle_beta 27.067757
_cell_angle_gamma 35.196993
_cell_volume 572.234913
_symmetry_space_group_name_H-M "P -1"
_symmetry_group_IT_number 2
_symmetry_cell_setting 'triclinic'
loop_
_space_group_symop_operation_xyz
x,y,z
-x,-y,-z
loop_
_atom_site_type_symbol
_atom_site_label
_atom_site_fract_x
_atom_site_fract_y
_atom_site_fract_z
Si Si1 0.422037 0.537418 0.451899
Si Si2 0.008683 0.294377 0.149739
Si Si3 0.123445 0.806865 0.167676
Si Si4 0.616260 0.707499 0.759676
Si Si5 0.677503 0.992476 0.412614
Si Si6 0.492281 0.962704 0.126613
O O1 0.500000 0.500000 0.500000
O O2 0.411596 0.774245 0.310804
O O3 0.176758 0.582817 0.662872
O O4 0.590966 0.283937 0.365791
O O5 0.999341 0.073996 0.207798
O O6 0.251936 0.165768 0.023782
O O7 0.000000 0.500000 0.000000
O O8 0.190826 0.582632 0.278494
O O9 0.949936 0.838039 0.233671
O O10 0.371591 0.746717 0.944042
O O11 0.643458 0.877920 0.586176
O O12 0.620574 0.804817 0.809967
O O13 0.500000 0.000000 0.500000
O O14 0.500000 0.000000 0.000000
#
# Coordination Sequence:
#
# PCOD9008170 Si02
#       6
#     2   2   2   2   2   2
#     4  12  21  41  67  90 126 168 211 258 315 374
#     4  11  20  39  68  92 121 172 213 256 315 380
#     4  10  21  39  64  88 125 167 205 256 323 372
#     4  10  22  42  63  88 128 168 206 260 321 375
#     4  12  25  39  64  96 125 164 214 262 312 379
#     4  11  24  40  65  96 125 163 218 263 310 376
#
# _framework density 20.970407999999999
#
# number of rings (size 3 to 8) (size 9 to 14) (size 15 to 20)
#    0.000    1.000    5.000    1.500    0.000    6.667 
#    0.000    0.000    0.000    0.000    0.000    0.000 
#    0.000    0.000    0.000    0.000    0.000    0.000 
#
# Total GULP energy -66903.054424 kJ/mol
# GULP energy per Si atom -5575.254535 kJ/mol
# Density = 2.092268 g / cm^3
# Si number density = 20.970408 Si / 1000 Ang^3
#
#
#
# Elastic Constant Matrix: (Units=GPa)
#
#
# Indices 1 2 3 4 5 6 
#
# 1 102.0850 35.4728 8.5419 -9.1501 1.1106 -3.8230
# 2 35.4728 107.4293 19.9240 -5.4092 -5.7614 -5.4746
# 3 8.5419 19.9240 84.6139 -15.9407 -4.7910 1.1729
# 4 -9.1501 -5.4092 -15.9407 37.0415 -12.5901 -3.4895
# 5 1.1106 -5.7614 -4.7910 -12.5901 33.7471 -1.1386
# 6 -3.8230 -5.4746 1.1729 -3.4895 -1.1386 8.9507
#
#
#
# Elastic Compliance Matrix: (Units=1/GPa)
#
#
# Indices 1 2 3 4 5 6 
#
# 1 0.011370 -0.003430 0.000151 0.002821 0.000245 0.003869
# 2 -0.003430 0.011358 -0.002008 0.001429 0.002523 0.006623
# 3 0.000151 -0.002008 0.013877 0.007224 0.004330 0.000385
# 4 0.002821 0.001429 0.007224 0.038156 0.016021 0.018045
# 5 0.000245 0.002523 0.004330 0.016021 0.037053 0.012039
# 6 0.003869 0.006623 0.000385 0.018045 0.012039 0.125943
#
#
# Mechanical properties :
#
#
# Convention : Reuss Voigt Hill
#
# Bulk Modulus (GPa) = 38.41465 46.88953 42.65209
# Shear Modulus (GPa) = 19.45466 31.29381 25.37423
#
# Velocity S-wave (km/s) = 3.04915 3.86720 3.48228
# Velocity P-wave (km/s) = 5.54569 6.50759 6.04580
#
# Compressibility (1/GPa) = 0.02603174
#
# Stress axis : x y z
#
# Youngs Moduli (GPa) = 87.95038 88.04151 72.06290
#
# Poissons Ratio (x) = 0.30199 -0.01091
# Poissons Ratio (y) = 0.30168 0.14470
# Poissons Ratio (z) = -0.01332 0.17679
#
# Static dielectric constant tensor:
#      x y z
#    x 1.817690 0.020660 -0.061200 
#    y 0.020660 1.877730 0.170380 
#    z -0.061200 0.170380 1.931950 
# 
# From -- ./inp_files/173700.got.cif
#   From: 2010.05.17/outbox.cif.g08.bks.cpg/sg2_87_cif.got.tgz:173700.got - 2010.06.03 11:33:40.
