data_PCOD9008231
_publ_section_title
;
Structure prediction by ZEFSAII (Michael W. Deem and Ramdas Pophale) SiO2 
 PCOD9008231
Probable space group: P -1
;
_chemical_formula_sum "Si O2"
_cell_formula_units_Z 14
_cell_length_a 19.713938
_cell_length_b 11.754970
_cell_length_c 13.484233
_cell_angle_alpha 147.753889
_cell_angle_beta 23.130187
_cell_angle_gamma 147.798258
_cell_volume 619.076398
_symmetry_space_group_name_H-M "P -1"
_symmetry_group_IT_number 2
_symmetry_cell_setting 'triclinic'
loop_
_space_group_symop_operation_xyz
x,y,z
-x,-y,-z
loop_
_atom_site_type_symbol
_atom_site_label
_atom_site_fract_x
_atom_site_fract_y
_atom_site_fract_z
Si Si1 0.233812 0.731489 0.472190
Si Si2 0.542678 0.756211 0.600015
Si Si3 0.135169 0.254354 0.354518
Si Si4 0.239248 0.812665 0.290863
Si Si5 0.376521 0.929864 0.781720
Si Si6 0.076733 0.540902 0.816456
Si Si7 0.860593 0.655870 0.020097
O O1 0.230443 0.489822 0.342249
O O2 0.235597 0.733495 0.351946
O O3 0.040167 0.751172 0.781720
O O4 0.416444 0.915667 0.403796
O O5 0.500000 0.500000 0.500000
O O6 0.389801 0.807397 0.777661
O O7 0.607513 0.943804 0.735434
O O8 0.722236 0.793358 0.316188
O O9 0.093318 0.328595 0.575778
O O10 0.946078 0.152700 0.473980
O O11 0.254279 0.091328 0.075463
O O12 0.247139 0.598327 0.059611
O O13 0.275187 0.732168 0.696673
O O14 0.942967 0.634199 0.000522
O O15 0.000000 0.500000 0.000000
#
# Coordination Sequence:
#
# PCOD9008231 Si02
#       7
#     2   2   2   2   2   2   2
#     4   9  20  40  64  91 121 157 204 251 305 368
#     4  11  24  41  61  89 122 160 211 253 293 363
#     4  10  21  39  64  91 122 160 199 250 309 361
#     4   9  20  40  65  88 117 162 201 247 306 360
#     4  11  23  37  61  94 124 158 198 255 313 354
#     4  10  22  41  62  89 123 162 208 247 295 365
#     4  10  21  40  64  87 118 163 204 248 305 362
#
# _framework density 22.614332000000001
#
# number of rings (size 3 to 8) (size 9 to 14) (size 15 to 20)
#    0.000    2.286    0.000    3.857    0.000    8.000 
#    0.000   15.714    0.000    0.857    0.000    0.000 
#    0.000    0.000    0.000    0.000    0.000    0.000 
#
# Total GULP energy -78236.611752 kJ/mol
# GULP energy per Si atom -5588.329411 kJ/mol
# Density = 2.256286 g / cm^3
# Si number density = 22.614332 Si / 1000 Ang^3
#
#
#
# Elastic Constant Matrix: (Units=GPa)
#
#
# Indices 1 2 3 4 5 6 
#
# 1 123.1874 59.4283 30.3928 1.9859 2.4856 16.4984
# 2 59.4283 99.9882 23.6023 0.4478 15.6112 8.8629
# 3 30.3928 23.6023 88.3911 11.0353 -12.6250 2.5313
# 4 1.9859 0.4478 11.0353 24.8566 -6.5140 -5.7005
# 5 2.4856 15.6112 -12.6250 -6.5140 33.7872 4.5957
# 6 16.4984 8.8629 2.5313 -5.7005 4.5957 35.6743
#
#
#
# Elastic Compliance Matrix: (Units=1/GPa)
#
#
# Indices 1 2 3 4 5 6 
#
# 1 0.012457 -0.006871 -0.001986 -0.000436 0.002009 -0.004242
# 2 -0.006871 0.016050 -0.003049 -0.000443 -0.008188 0.000390
# 3 -0.001986 -0.003049 0.014299 -0.004737 0.006104 -0.000882
# 4 -0.000436 -0.000443 -0.004737 0.045664 0.006300 0.007133
# 5 0.002009 -0.008188 0.006104 0.006300 0.037151 -0.003107
# 6 -0.004242 0.000390 -0.000882 0.007133 -0.003107 0.031499
#
#
# Mechanical properties :
#
#
# Convention : Reuss Voigt Hill
#
# Bulk Modulus (GPa) = 52.64395 59.82374 56.23384
# Shear Modulus (GPa) = 26.70067 32.07315 29.38691
#
# Velocity S-wave (km/s) = 3.43985 3.77007 3.60874
# Velocity P-wave (km/s) = 6.25351 6.74260 6.50265
#
# Compressibility (1/GPa) = 0.01899554
#
# Stress axis : x y z
#
# Youngs Moduli (GPa) = 80.27743 62.30405 69.93619
#
# Poissons Ratio (x) = 0.42808 0.13887
# Poissons Ratio (y) = 0.55157 0.21321
# Poissons Ratio (z) = 0.15941 0.18995
#
# Static dielectric constant tensor:
#      x y z
#    x 1.809360 -0.034070 0.026310 
#    y -0.034070 1.915280 -0.061860 
#    z 0.026310 -0.061860 1.827890 
# 
# From -- ./inp_files/464086.got.cif
#   From: 2010.05.17/outbox.cif.g08.bks.cpg/sg2_233_cif.got.tgz:464086.got - 2010.06.03 11:33:40.
