data_PCOD9008769
_publ_section_title
;
Structure prediction by ZEFSAII (Michael W. Deem and Ramdas Pophale) SiO2 
 PCOD9008769
Probable space group: P -1
;
_chemical_formula_sum "Si O2"
_cell_formula_units_Z 12
_cell_length_a 11.547934
_cell_length_b 8.347624
_cell_length_c 8.031830
_cell_angle_alpha 111.205842
_cell_angle_beta 116.655473
_cell_angle_gamma 51.727658
_cell_volume 539.351329
_symmetry_space_group_name_H-M "P -1"
_symmetry_group_IT_number 2
_symmetry_cell_setting 'triclinic'
loop_
_space_group_symop_operation_xyz
x,y,z
-x,-y,-z
loop_
_atom_site_type_symbol
_atom_site_label
_atom_site_fract_x
_atom_site_fract_y
_atom_site_fract_z
Si Si1 0.116546 0.338685 0.159150
Si Si2 0.108420 0.773780 0.906025
Si Si3 0.170510 0.874839 0.622334
Si Si4 0.649135 0.550898 0.546134
Si Si5 0.370520 0.960358 0.959456
Si Si6 0.440409 0.486985 0.177598
O O1 0.216421 0.405136 0.352417
O O2 0.999881 0.314393 0.187704
O O3 0.000000 0.500000 0.000000
O O4 0.253123 0.120737 0.082861
O O5 0.160145 0.787056 0.760247
O O6 0.266489 0.635963 0.059534
O O7 0.000000 0.000000 0.000000
O O8 0.263337 0.694412 0.484814
O O9 0.250886 0.997657 0.749421
O O10 0.000000 0.000000 0.500000
O O11 0.528695 0.597551 0.335893
O O12 0.568088 0.620875 0.698504
O O13 0.460547 0.711956 0.953971
O O14 0.500000 0.000000 0.000000
#
# Coordination Sequence:
#
# PCOD9008769 Si02
#       6
#     2   2   2   2   2   2
#     4  12  22  42  69 104 135 174 222 273 327 397
#     4  12  24  44  69  99 132 180 223 271 334 400
#     4  11  24  42  67  96 132 175 224 274 335 391
#     4  10  21  39  65  97 132 170 216 270 332 377
#     4  11  21  40  68 100 128 177 222 265 335 393
#     4  10  22  41  67  95 135 173 222 269 329 397
#
# _framework density 22.248947999999999
#
# number of rings (size 3 to 8) (size 9 to 14) (size 15 to 20)
#    0.000    1.000    5.000    2.000    0.000    3.333 
#    0.000    2.500    0.000    0.000    0.000    0.000 
#    0.000    0.000    0.000    0.000    0.000    0.000 
#
# Total GULP energy -66917.195378 kJ/mol
# GULP energy per Si atom -5576.432948 kJ/mol
# Density = 2.219831 g / cm^3
# Si number density = 22.248948 Si / 1000 Ang^3
#
#
#
# Elastic Constant Matrix: (Units=GPa)
#
#
# Indices 1 2 3 4 5 6 
#
# 1 145.0699 23.2108 64.8539 -12.1363 48.9330 -4.9254
# 2 23.2108 87.0393 46.3156 -10.0776 16.1080 -32.7901
# 3 64.8539 46.3156 145.3148 -8.8544 56.6503 -1.3461
# 4 -12.1363 -10.0776 -8.8544 39.3645 -6.4660 9.2421
# 5 48.9330 16.1080 56.6503 -6.4660 65.7296 0.4372
# 6 -4.9254 -32.7901 -1.3461 9.2421 0.4372 38.3762
#
#
#
# Elastic Compliance Matrix: (Units=1/GPa)
#
#
# Indices 1 2 3 4 5 6 
#
# 1 0.009814 0.000094 -0.002272 0.001451 -0.005235 0.000971
# 2 0.000094 0.022250 -0.007172 -0.000223 0.000512 0.018819
# 3 -0.002272 -0.007172 0.013220 0.000556 -0.007851 -0.006001
# 4 0.001451 -0.000223 0.000556 0.027692 0.001263 -0.006668
# 5 -0.005235 0.000512 -0.007851 0.001263 0.025883 -0.001109
# 6 0.000971 0.018819 -0.006001 -0.006668 -0.001109 0.043670
#
#
# Mechanical properties :
#
#
# Convention : Reuss Voigt Hill
#
# Bulk Modulus (GPa) = 37.61638 71.79829 54.70734
# Shear Modulus (GPa) = 29.39602 44.89697 37.14650
#
# Velocity S-wave (km/s) = 3.63882 4.49702 4.09049
# Velocity P-wave (km/s) = 5.88204 7.70096 6.85212
#
# Compressibility (1/GPa) = 0.02658416
#
# Stress axis : x y z
#
# Youngs Moduli (GPa) = 101.89692 44.94425 75.64083
#
# Poissons Ratio (x) = -0.00423 0.17184
# Poissons Ratio (y) = -0.00960 0.54253
# Poissons Ratio (z) = 0.23148 0.32236
#
# Static dielectric constant tensor:
#      x y z
#    x 1.827730 0.023060 -0.080780 
#    y 0.023060 1.857720 0.070380 
#    z -0.080780 0.070380 1.911730 
# 
# From -- ./inp_files/152966.got.cif
#   From: 2010.05.17/outbox.cif.g08.bks.cpg/sg2_77_cif.got.tgz:152966.got - 2010.06.03 11:33:40.
