data_PCOD9008178
_publ_section_title
;
Structure prediction by ZEFSAII (Michael W. Deem and Ramdas Pophale) SiO2 
 PCOD9008178
Probable space group: P -1
;
_chemical_formula_sum "Si O2"
_cell_formula_units_Z 16
_cell_length_a 17.612398
_cell_length_b 20.347927
_cell_length_c 7.881967
_cell_angle_alpha 45.368294
_cell_angle_beta 54.259829
_cell_angle_gamma 19.782573
_cell_volume 644.664266
_symmetry_space_group_name_H-M "P -1"
_symmetry_group_IT_number 2
_symmetry_cell_setting 'triclinic'
loop_
_space_group_symop_operation_xyz
x,y,z
-x,-y,-z
loop_
_atom_site_type_symbol
_atom_site_label
_atom_site_fract_x
_atom_site_fract_y
_atom_site_fract_z
Si Si1 0.449241 0.152600 0.251951
Si Si2 0.026385 0.167855 0.419682
Si Si3 0.066334 0.319400 0.921967
Si Si4 0.940155 0.759589 0.298985
Si Si5 0.795371 0.174081 0.094130
Si Si6 0.453071 0.469502 0.465049
Si Si7 0.199832 0.364659 0.861899
Si Si8 0.038266 0.078562 0.200982
O O1 0.208983 0.402627 0.199839
O O2 0.500000 0.000000 0.500000
O O3 0.679673 0.998789 0.286048
O O4 0.408869 0.196536 0.022559
O O5 0.785272 0.372808 0.469883
O O6 0.957323 0.192626 0.277898
O O7 0.107966 0.197752 0.220974
O O8 0.225157 0.917485 0.687529
O O9 0.090267 0.263272 0.801516
O O10 0.221004 0.268197 0.863679
O O11 0.107942 0.542660 0.581236
O O12 0.016917 0.792732 0.099064
O O13 0.905489 0.111200 0.239782
O O14 0.591854 0.424441 0.832543
O O15 0.000000 0.000000 0.000000
O O16 0.500000 0.500000 0.500000
O O17 0.681801 0.196684 0.654592
O O18 0.000000 0.500000 0.000000
#
# Coordination Sequence:
#
# PCOD9008178 Si02
#       8
#     2   2   2   2   2   2   2   2
#     4  11  22  41  63  90 118 163 201 244 307 352
#     4  10  22  41  62  91 125 158 201 251 297 359
#     4  10  22  41  62  91 125 158 201 251 297 359
#     4  11  23  41  64  89 124 161 199 251 303 354
#     4  10  21  39  64  89 121 160 200 247 301 357
#     4  11  22  41  63  90 118 163 201 244 307 352
#     4  10  21  39  64  89 121 160 200 247 301 357
#     4  11  23  41  64  89 124 161 199 251 303 354
#
# _framework density 24.819120000000002
#
# number of rings (size 3 to 8) (size 9 to 14) (size 15 to 20)
#    0.000    1.500    5.000    1.500    0.000    6.000 
#    0.000    0.000    0.000    0.000    0.000    0.000 
#    0.000    0.000    0.000    0.000    0.000    0.000 
#
# Total GULP energy -89579.091772 kJ/mol
# GULP energy per Si atom -5598.693236 kJ/mol
# Density = 2.476263 g / cm^3
# Si number density = 24.819120 Si / 1000 Ang^3
#
#
#
# Elastic Constant Matrix: (Units=GPa)
#
#
# Indices 1 2 3 4 5 6 
#
# 1 65.2563 11.2379 15.5634 -9.4438 2.9428 11.6674
# 2 11.2379 75.0644 31.0217 -14.5055 2.7396 12.6287
# 3 15.5634 31.0217 212.8981 -19.9735 -16.6340 -14.8279
# 4 -9.4438 -14.5055 -19.9735 31.1058 2.1884 1.3827
# 5 2.9428 2.7396 -16.6340 2.1884 44.7291 6.5643
# 6 11.6674 12.6287 -14.8279 1.3827 6.5643 22.1083
#
#
#
# Elastic Compliance Matrix: (Units=1/GPa)
#
#
# Indices 1 2 3 4 5 6 
#
# 1 0.018513 0.001061 -0.001856 0.005485 -0.000508 -0.011813
# 2 0.001061 0.018076 -0.002982 0.007472 -0.000723 -0.013138
# 3 -0.001856 -0.002982 0.005954 0.001488 0.001548 0.006124
# 4 0.005485 0.007472 0.001488 0.038689 -0.000939 -0.008305
# 5 -0.000508 -0.000723 0.001548 -0.000939 0.023834 -0.005299
# 6 -0.011813 -0.013138 0.006124 -0.008305 -0.005299 0.065171
#
#
# Mechanical properties :
#
#
# Convention : Reuss Voigt Hill
#
# Bulk Modulus (GPa) = 28.57986 52.09608 40.33797
# Shear Modulus (GPa) = 26.39185 39.28167 32.83676
#
# Velocity S-wave (km/s) = 3.26447 3.98265 3.64131
# Velocity P-wave (km/s) = 5.07437 6.49497 5.82812
#
# Compressibility (1/GPa) = 0.03498967
#
# Stress axis : x y z
#
# Youngs Moduli (GPa) = 54.01673 55.32220 167.94569
#
# Poissons Ratio (x) = -0.05871 0.31168
# Poissons Ratio (y) = -0.05732 0.50082
# Poissons Ratio (z) = 0.10025 0.16497
#
# Static dielectric constant tensor:
#      x y z
#    x 1.705920 0.221130 0.106160 
#    y 0.221130 1.834970 -0.059280 
#    z 0.106160 -0.059280 1.932860 
# 
# From -- ./inp_files/349861.got.cif
#   From: 2010.05.17/outbox.cif.g08.bks.cpg/sg2_175_cif.got.tgz:349861.got - 2010.06.03 11:33:40.
