data_PCOD9008469
_publ_section_title
;
Structure prediction by ZEFSAII (Michael W. Deem and Ramdas Pophale) SiO2 
 PCOD9008469
Probable space group: P -1
;
_chemical_formula_sum "Si O2"
_cell_formula_units_Z 14
_cell_length_a 11.767879
_cell_length_b 6.930393
_cell_length_c 8.245882
_cell_angle_alpha 102.656646
_cell_angle_beta 74.925118
_cell_angle_gamma 120.333091
_cell_volume 557.347741
_symmetry_space_group_name_H-M "P -1"
_symmetry_group_IT_number 2
_symmetry_cell_setting 'triclinic'
loop_
_space_group_symop_operation_xyz
x,y,z
-x,-y,-z
loop_
_atom_site_type_symbol
_atom_site_label
_atom_site_fract_x
_atom_site_fract_y
_atom_site_fract_z
Si Si1 0.275773 0.955911 0.888053
Si Si2 0.606964 0.672617 0.868477
Si Si3 0.671990 0.379032 0.545183
Si Si4 0.973054 0.692020 0.460668
Si Si5 0.009321 0.861197 0.814032
Si Si6 0.469023 0.059197 0.308446
Si Si7 0.112841 0.609634 0.115670
O O1 0.275695 0.154211 0.029138
O O2 0.243492 0.758421 0.992787
O O3 0.561435 0.829282 0.812847
O O4 0.157092 0.880810 0.789694
O O5 0.645287 0.536724 0.703794
O O6 0.500000 0.500000 0.000000
O O7 0.578497 0.975008 0.219490
O O8 0.816053 0.545461 0.444943
O O9 0.550892 0.261680 0.441013
O O10 0.658018 0.158857 0.608828
O O11 0.001652 0.880073 0.624023
O O12 0.000000 0.500000 0.500000
O O13 0.067301 0.748358 0.278059
O O14 0.894065 0.604798 0.834894
O O15 0.000000 0.000000 0.000000
O O16 0.000000 0.500000 0.000000
#
# Coordination Sequence:
#
# PCOD9008469 Si02
#       7
#     2   2   2   2   2   2   2
#     4  11  23  44  66  98 140 181 229 289 352 414
#     4  12  26  44  68 105 135 181 243 283 351 415
#     4  11  24  46  69 101 142 177 234 291 345 433
#     4  10  21  39  70  97 133 185 227 274 357 419
#     4  10  21  39  64  99 136 178 229 283 344 416
#     4  11  25  44  72  99 139 188 227 290 362 405
#     4   9  20  39  63  91 133 177 224 269 347 415
#
# _framework density 25.118969
#
# number of rings (size 3 to 8) (size 9 to 14) (size 15 to 20)
#    0.000    1.429    1.429    4.286    4.000    1.143 
#    0.000    7.857    0.000    0.000    0.000    0.000 
#    0.000    0.000    0.000    0.000    0.000    0.000 
#
# Total GULP energy -78215.926040 kJ/mol
# GULP energy per Si atom -5586.851860 kJ/mol
# Density = 2.506180 g / cm^3
# Si number density = 25.118969 Si / 1000 Ang^3
#
#
#
# Elastic Constant Matrix: (Units=GPa)
#
#
# Indices 1 2 3 4 5 6 
#
# 1 80.2255 21.4522 26.9769 5.7577 9.9629 5.4029
# 2 21.4522 65.9600 18.3586 9.6631 13.3558 17.3734
# 3 26.9769 18.3586 159.5895 28.4500 -0.6987 2.1402
# 4 5.7577 9.6631 28.4500 56.7041 -6.5812 -2.9746
# 5 9.9629 13.3558 -0.6987 -6.5812 40.3353 0.5386
# 6 5.4029 17.3734 2.1402 -2.9746 0.5386 33.2901
#
#
#
# Elastic Compliance Matrix: (Units=1/GPa)
#
#
# Indices 1 2 3 4 5 6 
#
# 1 0.014421 -0.003519 -0.002011 -0.000159 -0.002453 -0.000350
# 2 -0.003519 0.021407 -0.001016 -0.004133 -0.006767 -0.010795
# 3 -0.002011 -0.001016 0.007299 -0.003230 0.000431 0.000092
# 4 -0.000159 -0.004133 -0.003230 0.020738 0.004680 0.004168
# 5 -0.002453 -0.006767 0.000431 0.004680 0.028358 0.003861
# 6 -0.000350 -0.010795 0.000092 0.004168 0.003861 0.036033
#
#
# Mechanical properties :
#
#
# Convention : Reuss Voigt Hill
#
# Bulk Modulus (GPa) = 33.29212 48.81671 41.05442
# Shear Modulus (GPa) = 33.03376 41.99840 37.51608
#
# Velocity S-wave (km/s) = 3.63035 4.09342 3.86882
# Velocity P-wave (km/s) = 5.55474 6.46667 6.02798
#
# Compressibility (1/GPa) = 0.03003714
#
# Stress axis : x y z
#
# Youngs Moduli (GPa) = 69.34110 46.71415 136.99877
#
# Poissons Ratio (x) = 0.16437 0.27547
# Poissons Ratio (y) = 0.24398 0.13918
# Poissons Ratio (z) = 0.13943 0.04746
#
# Static dielectric constant tensor:
#      x y z
#    x 1.999650 -0.030550 0.032470 
#    y -0.030550 2.071460 -0.029550 
#    z 0.032470 -0.029550 2.085010 
# 
# From -- ./inp_files/293206.got.cif
#   From: 2010.05.17/outbox.cif.g08.bks.cpg/sg2_147_cif.got.tgz:293206.got - 2010.06.03 11:33:40.
