data_PCOD9008129
_publ_section_title
;
Structure prediction by ZEFSAII (Michael W. Deem and Ramdas Pophale) SiO2 
 PCOD9008129
Probable space group: P -1
;
_chemical_formula_sum "Si O2"
_cell_formula_units_Z 16
_cell_length_a 16.266034
_cell_length_b 7.227317
_cell_length_c 8.760772
_cell_angle_alpha 117.607942
_cell_angle_beta 138.365604
_cell_angle_gamma 67.215214
_cell_volume 604.874539
_symmetry_space_group_name_H-M "P -1"
_symmetry_group_IT_number 2
_symmetry_cell_setting 'triclinic'
loop_
_space_group_symop_operation_xyz
x,y,z
-x,-y,-z
loop_
_atom_site_type_symbol
_atom_site_label
_atom_site_fract_x
_atom_site_fract_y
_atom_site_fract_z
Si Si1 0.179294 0.321419 0.642058
Si Si2 0.879458 0.918138 0.084546
Si Si3 0.443644 0.839060 0.243305
Si Si4 0.686085 0.241033 0.525856
Si Si5 0.132228 0.879434 0.521261
Si Si6 0.803042 0.314609 0.002467
Si Si7 0.711340 0.773501 0.541734
Si Si8 0.432164 0.156995 0.085564
O O1 0.117457 0.109847 0.511073
O O2 0.201725 0.356536 0.508176
O O3 0.128642 0.517379 0.743847
O O4 0.315627 0.275227 0.891607
O O5 0.004527 0.784606 0.255202
O O6 0.856957 0.059979 0.262891
O O7 0.887343 0.099036 0.036938
O O8 0.774640 0.793067 0.803316
O O9 0.327940 0.731878 0.113445
O O10 0.570173 0.702535 0.321491
O O11 0.500000 0.000000 0.500000
O O12 0.397418 0.997080 0.106322
O O13 0.762194 0.374494 0.798594
O O14 0.539956 0.300727 0.343368
O O15 0.750201 0.229913 0.445529
O O16 0.695846 0.005476 0.526074
O O17 0.500000 0.000000 0.000000
#
# Coordination Sequence:
#
# PCOD9008129 Si02
#       8
#     2   2   2   2   2   2   2   2
#     4  11  23  36  55  88 121 149 183 232 291 335
#     4  10  21  39  64  84 103 148 201 236 276 337
#     4  11  18  35  60  81 112 153 193 228 271 334
#     4   9  19  35  56  82 111 150 192 224 275 336
#     4  10  21  39  64  84 103 148 201 236 276 337
#     4  11  23  36  55  88 121 149 183 232 291 335
#     4   9  19  35  56  82 111 150 192 224 275 336
#     4  11  18  35  60  81 112 153 193 228 271 334
#
# _framework density 26.451767
#
# number of rings (size 3 to 8) (size 9 to 14) (size 15 to 20)
#    0.000    1.750    7.500    0.750    0.000    6.000 
#    0.000    1.250    0.000    3.000    0.000    0.000 
#    0.000    0.000    0.000    0.000    0.000    0.000 
#
# Total GULP energy -89359.869776 kJ/mol
# GULP energy per Si atom -5584.991861 kJ/mol
# Density = 2.639156 g / cm^3
# Si number density = 26.451767 Si / 1000 Ang^3
#
#
#
# Elastic Constant Matrix: (Units=GPa)
#
#
# Indices 1 2 3 4 5 6 
#
# 1 67.4681 -3.0936 37.6924 -1.8367 -20.1415 6.3877
# 2 -3.0936 49.4910 -0.6329 -1.3823 -4.4041 20.2834
# 3 37.6924 -0.6329 182.5371 -18.9602 2.8078 -0.5110
# 4 -1.8367 -1.3823 -18.9602 24.6394 -8.7723 -5.5002
# 5 -20.1415 -4.4041 2.8078 -8.7723 47.4923 -4.1316
# 6 6.3877 20.2834 -0.5110 -5.5002 -4.1316 22.8268
#
#
#
# Elastic Compliance Matrix: (Units=1/GPa)
#
#
# Indices 1 2 3 4 5 6 
#
# 1 0.021260 0.006185 -0.004608 -0.000723 0.008848 -0.010121
# 2 0.006185 0.034181 -0.001882 -0.005784 0.001949 -0.033187
# 3 -0.004608 -0.001882 0.007023 0.005485 -0.001163 0.004231
# 4 -0.000723 -0.005784 0.005485 0.052549 0.010278 0.019987
# 5 0.008848 0.001949 -0.001163 0.010278 0.027232 0.003172
# 6 -0.010121 -0.033187 0.004231 0.019987 0.003172 0.081614
#
#
# Mechanical properties :
#
#
# Convention : Reuss Voigt Hill
#
# Bulk Modulus (GPa) = 16.16720 40.82534 28.49627
# Shear Modulus (GPa) = 20.40084 36.69373 28.54729
#
# Velocity S-wave (km/s) = 2.78015 3.72855 3.28871
# Velocity P-wave (km/s) = 4.05350 5.83125 5.02167
#
# Compressibility (1/GPa) = 0.06185362
#
# Stress axis : x y z
#
# Youngs Moduli (GPa) = 47.03700 29.25567 142.39223
#
# Poissons Ratio (x) = -0.18095 0.65616
# Poissons Ratio (y) = -0.29094 0.26804
# Poissons Ratio (z) = 0.21675 0.05507
#
# Static dielectric constant tensor:
#      x y z
#    x 2.178770 -0.032340 0.026300 
#    y -0.032340 2.122940 0.032180 
#    z 0.026300 0.032180 2.178020 
# 
# From -- ./inp_files/223065.got.cif
#   From: 2010.05.17/outbox.cif.g08.bks.cpg/sg2_112_cif.got.tgz:223065.got - 2010.06.03 11:33:40.
