data_PCOD9008438
_publ_section_title
;
Structure prediction by ZEFSAII (Michael W. Deem and Ramdas Pophale) SiO2 
 PCOD9008438
Probable space group: P -1
;
_chemical_formula_sum "Si O2"
_cell_formula_units_Z 10
_cell_length_a 8.780551
_cell_length_b 9.664634
_cell_length_c 11.790776
_cell_angle_alpha 120.247686
_cell_angle_beta 35.929601
_cell_angle_gamma 111.192759
_cell_volume 505.065587
_symmetry_space_group_name_H-M "P -1"
_symmetry_group_IT_number 2
_symmetry_cell_setting 'triclinic'
loop_
_space_group_symop_operation_xyz
x,y,z
-x,-y,-z
loop_
_atom_site_type_symbol
_atom_site_label
_atom_site_fract_x
_atom_site_fract_y
_atom_site_fract_z
Si Si1 0.764219 0.139421 0.187240
Si Si2 0.101828 0.671299 0.038144
Si Si3 0.411690 0.440528 0.151110
Si Si4 0.699807 0.960806 0.468376
Si Si5 0.113201 0.726202 0.592110
O O1 0.803486 0.245431 0.098245
O O2 0.775922 0.246768 0.337850
O O3 0.492736 0.057720 0.318281
O O4 0.000000 0.000000 0.000000
O O5 0.338009 0.644154 0.971986
O O6 0.000000 0.500000 0.000000
O O7 0.871782 0.794801 0.276511
O O8 0.294224 0.591380 0.360210
O O9 0.175679 0.327254 0.240503
O O10 0.500000 0.500000 0.000000
O O11 0.500000 0.000000 0.500000
O O12 0.876488 0.108771 0.416705
#
# Coordination Sequence:
#
# PCOD9008438 Si02
#       5
#     2   2   2   2   2
#     4  11  22  41  72  95 128 171 216 277 323 383
#     4  12  24  40  69 102 128 171 223 269 329 385
#     4  11  26  43  65  94 140 177 213 273 325 385
#     4  10  21  39  64  97 129 167 216 264 323 392
#     4  10  23  43  66  95 134 175 218 263 332 390
#
# _framework density 19.799410000000002
#
# number of rings (size 3 to 8) (size 9 to 14) (size 15 to 20)
#    0.000    1.200    4.000    3.600    2.800    7.200 
#    0.000    2.000    0.000    0.000    0.000    0.000 
#    0.000    0.000    0.000    0.000    0.000    0.000 
#
# Total GULP energy -55880.205327 kJ/mol
# GULP energy per Si atom -5588.020533 kJ/mol
# Density = 1.975435 g / cm^3
# Si number density = 19.799410 Si / 1000 Ang^3
#
#
#
# Elastic Constant Matrix: (Units=GPa)
#
#
# Indices 1 2 3 4 5 6 
#
# 1 90.3389 50.0643 50.0655 -8.3141 -11.8922 -19.3998
# 2 50.0643 167.7054 80.9521 -24.4043 -14.1689 -14.2112
# 3 50.0655 80.9521 144.1730 -19.0426 -19.1473 -9.4827
# 4 -8.3141 -24.4043 -19.0426 45.3284 -9.2663 3.9807
# 5 -11.8922 -14.1689 -19.1473 -9.2663 31.7177 -0.9062
# 6 -19.3998 -14.2112 -9.4827 3.9807 -0.9062 35.2114
#
#
#
# Elastic Compliance Matrix: (Units=1/GPa)
#
#
# Indices 1 2 3 4 5 6 
#
# 1 0.016213 -0.002255 -0.003400 0.000386 0.003336 0.007149
# 2 -0.002255 0.009101 -0.003533 0.003328 0.002092 0.001157
# 3 -0.003400 -0.003533 0.011116 0.003166 0.004767 -0.000541
# 4 0.000386 0.003328 0.003166 0.027665 0.011613 -0.000420
# 5 0.003336 0.002092 0.004767 0.011613 0.040089 0.003685
# 6 0.007149 0.001157 -0.000541 -0.000420 0.003685 0.032802
#
#
# Mechanical properties :
#
#
# Convention : Reuss Voigt Hill
#
# Bulk Modulus (GPa) = 55.39015 84.93123 70.16069
# Shear Modulus (GPa) = 30.98257 37.19386 34.08822
#
# Velocity S-wave (km/s) = 3.96008 4.33891 4.15381
# Velocity P-wave (km/s) = 6.99614 8.25169 7.64972
#
# Compressibility (1/GPa) = 0.01805375
#
# Stress axis : x y z
#
# Youngs Moduli (GPa) = 61.67786 109.88215 89.95725
#
# Poissons Ratio (x) = 0.24781 0.30583
# Poissons Ratio (y) = 0.13910 0.31785
# Poissons Ratio (z) = 0.20969 0.38825
#
# Static dielectric constant tensor:
#      x y z
#    x 1.651280 0.062630 0.032300 
#    y 0.062630 1.702990 -0.041680 
#    z 0.032300 -0.041680 1.684300 
# 
# From -- ./inp_files/147931.got.cif
#   From: 2010.05.17/outbox.cif.g08.bks.cpg/sg2_74_cif.got.tgz:147931.got - 2010.06.03 11:33:40.
