data_PCOD9008175
_publ_section_title
;
Structure prediction by ZEFSAII (Michael W. Deem and Ramdas Pophale) SiO2 
 PCOD9008175
Probable space group: P -1
;
_chemical_formula_sum "Si O2"
_cell_formula_units_Z 16
_cell_length_a 5.900671
_cell_length_b 17.326272
_cell_length_c 8.487039
_cell_angle_alpha 51.082704
_cell_angle_beta 89.787858
_cell_angle_gamma 84.922918
_cell_volume 670.948624
_symmetry_space_group_name_H-M "P -1"
_symmetry_group_IT_number 2
_symmetry_cell_setting 'triclinic'
loop_
_space_group_symop_operation_xyz
x,y,z
-x,-y,-z
loop_
_atom_site_type_symbol
_atom_site_label
_atom_site_fract_x
_atom_site_fract_y
_atom_site_fract_z
Si Si1 0.028301 0.607630 0.940041
Si Si2 0.504446 0.591614 0.553020
Si Si3 0.131768 0.759547 0.236468
Si Si4 0.754913 0.745475 0.515337
Si Si5 0.310300 0.395179 0.788599
Si Si6 0.598470 0.080346 0.786349
Si Si7 0.697185 0.253130 0.084143
Si Si8 0.258636 0.961127 0.490438
O O1 0.902639 0.698271 0.719807
O O2 0.257379 0.655158 0.920249
O O3 0.918631 0.598959 0.122995
O O4 0.000000 0.500000 0.000000
O O5 0.279799 0.653318 0.403051
O O6 0.589386 0.660555 0.596497
O O7 0.443763 0.484946 0.737655
O O8 0.691874 0.583740 0.423867
O O9 0.267620 0.845532 0.203240
O O10 0.905821 0.757137 0.343283
O O11 0.128697 0.769451 0.035163
O O12 0.604492 0.850972 0.391252
O O13 0.455352 0.289228 0.957147
O O14 0.748624 0.028573 0.712146
O O15 0.500000 0.000000 0.000000
O O16 0.707090 0.154459 0.311485
O O17 0.500000 0.000000 0.500000
O O18 0.000000 0.000000 0.500000
#
# Coordination Sequence:
#
# PCOD9008175 Si02
#       8
#     2   2   2   2   2   2   2   2
#     4  12  25  39  65 102 140 187 228 294 368 453
#     4   9  20  39  61  95 124 181 222 296 342 442
#     4  10  22  42  69  98 133 183 240 300 366 439
#     4  11  23  39  66  94 138 171 233 287 366 427
#     4  10  21  39  64  88 136 170 237 278 364 420
#     4  11  26  46  73 102 138 186 246 311 375 441
#     4  11  25  44  70  99 141 189 240 302 371 444
#     4  12  30  50  78 112 153 198 252 312 386 452
#
# _framework density 23.846834999999999
#
# number of rings (size 3 to 8) (size 9 to 14) (size 15 to 20)
#    0.000    1.250    0.000    4.500    7.000    4.500 
#    0.000    5.000    0.000    0.000    0.000    0.000 
#    0.000    0.000    0.000    0.000    0.000    0.000 
#
# Total GULP energy -89381.473935 kJ/mol
# GULP energy per Si atom -5586.342121 kJ/mol
# Density = 2.379256 g / cm^3
# Si number density = 23.846835 Si / 1000 Ang^3
#
#
#
# Elastic Constant Matrix: (Units=GPa)
#
#
# Indices 1 2 3 4 5 6 
#
# 1 64.5785 44.6579 38.2289 -3.9890 -15.1472 1.7262
# 2 44.6579 111.6711 42.4120 -7.4190 -22.5450 2.2897
# 3 38.2289 42.4120 120.1759 -13.0909 -19.0400 4.3657
# 4 -3.9890 -7.4190 -13.0909 42.5484 -9.4908 -13.2833
# 5 -15.1472 -22.5450 -19.0400 -9.4908 32.8955 8.9153
# 6 1.7262 2.2897 4.3657 -13.2833 8.9153 38.5236
#
#
#
# Elastic Compliance Matrix: (Units=1/GPa)
#
#
# Indices 1 2 3 4 5 6 
#
# 1 0.023969 -0.007064 -0.004445 0.000221 0.003955 -0.000989
# 2 -0.007064 0.013743 -0.001286 0.002457 0.006399 -0.000988
# 3 -0.004445 -0.001286 0.011416 0.003705 0.004991 -0.000896
# 4 0.000221 0.002457 0.003705 0.029699 0.010541 0.007225
# 5 0.003955 0.006399 0.004991 0.010541 0.044656 -0.007823
# 6 -0.000989 -0.000988 -0.000896 0.007225 -0.007823 0.030464
#
#
# Mechanical properties :
#
#
# Convention : Reuss Voigt Hill
#
# Bulk Modulus (GPa) = 42.48303 60.78035 51.63169
# Shear Modulus (GPa) = 26.68328 34.20195 30.44261
#
# Velocity S-wave (km/s) = 3.34869 3.79124 3.57681
# Velocity P-wave (km/s) = 5.72759 6.68639 6.22547
#
# Compressibility (1/GPa) = 0.02353881
#
# Stress axis : x y z
#
# Youngs Moduli (GPa) = 41.72063 72.76199 87.59714
#
# Poissons Ratio (x) = 0.51396 0.38939
# Poissons Ratio (y) = 0.29470 0.11264
# Poissons Ratio (z) = 0.18546 0.09356
#
# Static dielectric constant tensor:
#      x y z
#    x 2.006480 -0.002030 -0.011820 
#    y -0.002030 1.947510 0.033400 
#    z -0.011820 0.033400 1.875460 
# 
# From -- ./inp_files/39902.got.cif
#   From: 2010.05.17/outbox.cif.g08.bks.cpg/sg2_20_cif.got.tgz:39902.got - 2010.06.03 11:33:40.
