data_PCOD9008708
_publ_section_title
;
Structure prediction by ZEFSAII (Michael W. Deem and Ramdas Pophale) SiO2 
 PCOD9008708
Probable space group: P -1
;
_chemical_formula_sum "Si O2"
_cell_formula_units_Z 16
_cell_length_a 11.570602
_cell_length_b 11.531391
_cell_length_c 11.810456
_cell_angle_alpha 60.780184
_cell_angle_beta 47.120609
_cell_angle_gamma 98.290723
_cell_volume 672.426018
_symmetry_space_group_name_H-M "P -1"
_symmetry_group_IT_number 2
_symmetry_cell_setting 'triclinic'
loop_
_space_group_symop_operation_xyz
x,y,z
-x,-y,-z
loop_
_atom_site_type_symbol
_atom_site_label
_atom_site_fract_x
_atom_site_fract_y
_atom_site_fract_z
Si Si1 0.166129 0.637672 0.094678
Si Si2 0.737316 0.794490 0.813607
Si Si3 0.906871 0.935960 0.257514
Si Si4 0.781082 0.160331 0.242926
Si Si5 0.260544 0.742903 0.545662
Si Si6 0.515293 0.395616 0.162746
Si Si7 0.382093 0.279112 0.676353
Si Si8 0.514628 0.103824 0.047943
O O1 0.925350 0.406461 0.356659
O O2 0.126825 0.738938 0.990338
O O3 0.352377 0.662739 0.887884
O O4 0.239916 0.709389 0.140487
O O5 0.557622 0.661118 0.892400
O O6 0.623255 0.850850 0.919645
O O7 0.697225 0.623727 0.975053
O O8 0.000000 0.000000 0.500000
O O9 0.742918 0.749709 0.540253
O O10 0.781582 0.822465 0.277117
O O11 0.851535 0.053863 0.266672
O O12 0.189954 0.111145 0.978768
O O13 0.853128 0.291227 0.241741
O O14 0.500000 0.000000 0.500000
O O15 0.427801 0.719772 0.460766
O O16 0.392711 0.954971 0.308536
O O17 0.500000 0.500000 0.500000
O O18 0.500000 0.000000 0.000000
#
# Coordination Sequence:
#
# PCOD9008708 Si02
#       8
#     2   2   2   2   2   2   2   2
#     4  11  22  40  68 100 129 165 218 270 322 389
#     4  10  22  42  65  92 122 160 216 274 322 378
#     4  11  23  41  64  93 135 171 211 265 318 392
#     4  12  19  41  70  97 130 163 212 270 320 379
#     4  12  24  42  69  96 128 173 218 268 325 383
#     4  10  21  39  65  95 124 161 213 272 326 373
#     4  11  25  42  60  94 136 175 211 256 324 394
#     4  11  25  44  64  90 130 173 217 266 320 385
#
# _framework density 23.794439000000001
#
# number of rings (size 3 to 8) (size 9 to 14) (size 15 to 20)
#    0.000    1.000    3.750    2.625    0.000    5.500 
#    0.000    0.000    0.000    0.000    0.000    0.000 
#    0.000    0.000    0.000    0.000    0.000    0.000 
#
# Total GULP energy -89275.571780 kJ/mol
# GULP energy per Si atom -5579.723236 kJ/mol
# Density = 2.374028 g / cm^3
# Si number density = 23.794439 Si / 1000 Ang^3
#
#
#
# Elastic Constant Matrix: (Units=GPa)
#
#
# Indices 1 2 3 4 5 6 
#
# 1 55.4266 46.5847 -0.7671 -6.5960 -3.1306 15.1330
# 2 46.5847 169.0062 46.5314 -13.5809 -10.0527 4.6417
# 3 -0.7671 46.5314 65.1693 -20.6039 -4.7684 -4.2214
# 4 -6.5960 -13.5809 -20.6039 34.6193 4.4727 2.5013
# 5 -3.1306 -10.0527 -4.7684 4.4727 29.3733 -9.2465
# 6 15.1330 4.6417 -4.2214 2.5013 -9.2465 34.4114
#
#
#
# Elastic Compliance Matrix: (Units=1/GPa)
#
#
# Indices 1 2 3 4 5 6 
#
# 1 0.031302 -0.010412 0.009509 0.009009 -0.004135 -0.012960
# 2 -0.010412 0.010970 -0.008632 -0.003385 0.002707 0.003014
# 3 0.009509 -0.008632 0.025967 0.013960 -0.000128 -0.000881
# 4 0.009009 -0.003385 0.013960 0.038774 -0.005777 -0.006163
# 5 -0.004135 0.002707 -0.000128 -0.005777 0.039298 0.012417
# 6 -0.012960 0.003014 -0.000881 -0.006163 0.012417 0.038030
#
#
# Mechanical properties :
#
#
# Convention : Reuss Voigt Hill
#
# Bulk Modulus (GPa) = 20.33823 52.69999 36.51911
# Shear Modulus (GPa) = 22.74795 32.83102 27.78948
#
# Velocity S-wave (km/s) = 3.09531 3.71856 3.42116
# Velocity P-wave (km/s) = 4.61959 6.37441 5.56658
#
# Compressibility (1/GPa) = 0.04916848
#
# Stress axis : x y z
#
# Youngs Moduli (GPa) = 31.94711 91.15973 38.51020
#
# Poissons Ratio (x) = 0.94916 -0.36620
# Poissons Ratio (y) = 0.33264 0.33242
# Poissons Ratio (z) = -0.30379 0.78690
#
# Static dielectric constant tensor:
#      x y z
#    x 2.042640 -0.013480 0.051080 
#    y -0.013480 1.953150 0.041500 
#    z 0.051080 0.041500 1.972260 
# 
# From -- ./inp_files/427751.got.cif
#   From: 2010.05.17/outbox.cif.g08.bks.cpg/sg2_214_cif.got.tgz:427751.got - 2010.06.03 11:33:40.
