data_PCOD9008289
_publ_section_title
;
Structure prediction by ZEFSAII (Michael W. Deem and Ramdas Pophale) SiO2 
 PCOD9008289
Probable space group: P -1
;
_chemical_formula_sum "Si O2"
_cell_formula_units_Z 16
_cell_length_a 9.264477
_cell_length_b 12.476038
_cell_length_c 10.918524
_cell_angle_alpha 92.049850
_cell_angle_beta 62.592617
_cell_angle_gamma 49.194388
_cell_volume 733.980634
_symmetry_space_group_name_H-M "P -1"
_symmetry_group_IT_number 2
_symmetry_cell_setting 'triclinic'
loop_
_space_group_symop_operation_xyz
x,y,z
-x,-y,-z
loop_
_atom_site_type_symbol
_atom_site_label
_atom_site_fract_x
_atom_site_fract_y
_atom_site_fract_z
Si Si1 0.111570 0.168361 0.687167
Si Si2 0.596919 0.788630 0.539661
Si Si3 0.086851 0.149390 0.166084
Si Si4 0.010368 0.671666 0.013180
Si Si5 0.205728 0.824974 0.348864
Si Si6 0.592935 0.334211 0.483092
Si Si7 0.598626 0.829182 0.828630
Si Si8 0.651369 0.690131 0.044888
O O1 0.192859 0.244268 0.608182
O O2 0.013849 0.231947 0.865024
O O3 0.916447 0.212580 0.675006
O O4 0.346320 0.971794 0.596850
O O5 0.580158 0.673086 0.503733
O O6 0.613454 0.791510 0.679973
O O7 0.234374 0.148477 0.207757
O O8 0.872289 0.184869 0.311100
O O9 0.937138 0.299533 0.135265
O O10 0.312435 0.990313 0.989149
O O11 0.751646 0.738794 0.089389
O O12 0.199395 0.487750 0.977207
O O13 0.381059 0.698312 0.384304
O O14 0.365902 0.813650 0.190628
O O15 0.000000 0.000000 0.500000
O O16 0.500000 0.500000 0.500000
O O17 0.693761 0.696141 0.886536
#
# Coordination Sequence:
#
# PCOD9008289 Si02
#       8
#     2   2   2   2   2   2   2   2
#     4  11  24  41  68  94 127 170 218 265 313 382
#     4  11  24  42  65  97 128 167 217 267 317 379
#     4  10  21  39  64  92 128 165 208 258 320 380
#     4  10  21  42  64  93 129 173 207 256 322 386
#     4  12  24  42  65  97 130 172 216 263 316 381
#     4  12  26  43  65  95 132 169 210 265 325 379
#     4  10  21  39  65  96 125 163 211 267 316 372
#     4  10  23  39  65  95 132 167 210 259 322 383
#
# _framework density 21.798942
#
# number of rings (size 3 to 8) (size 9 to 14) (size 15 to 20)
#    0.000    1.250    2.500    3.000    1.750    5.000 
#    0.000    1.875    0.000    0.000    0.000    0.000 
#    0.000    0.000    0.000    0.000    0.000    0.000 
#
# Total GULP energy -89480.227388 kJ/mol
# GULP energy per Si atom -5592.514212 kJ/mol
# Density = 2.174933 g / cm^3
# Si number density = 21.798942 Si / 1000 Ang^3
#
#
#
# Elastic Constant Matrix: (Units=GPa)
#
#
# Indices 1 2 3 4 5 6 
#
# 1 135.1384 20.1525 49.2373 -16.2154 20.2466 2.5770
# 2 20.1525 86.1514 4.7741 -12.6296 12.2156 -2.5322
# 3 49.2373 4.7741 58.2118 -16.2275 -6.3611 -3.3338
# 4 -16.2154 -12.6296 -16.2275 31.3414 -4.0486 4.0434
# 5 20.2466 12.2156 -6.3611 -4.0486 37.2231 -9.4008
# 6 2.5770 -2.5322 -3.3338 4.0434 -9.4008 32.7286
#
#
#
# Elastic Compliance Matrix: (Units=1/GPa)
#
#
# Indices 1 2 3 4 5 6 
#
# 1 0.014321 -0.001297 -0.013850 -0.001000 -0.011294 -0.005759
# 2 -0.001297 0.012954 0.001023 0.004730 -0.002910 -0.000212
# 3 -0.013850 0.001023 0.034450 0.012185 0.016401 0.007884
# 4 -0.001000 0.004730 0.012185 0.040493 0.005004 -0.001880
# 5 -0.011294 -0.002910 0.016401 0.005004 0.040696 0.013406
# 6 -0.005759 -0.000212 0.007884 -0.001880 0.013406 0.035877
#
#
# Mechanical properties :
#
#
# Convention : Reuss Voigt Hill
#
# Bulk Modulus (GPa) = 29.87036 47.53661 38.70349
# Shear Modulus (GPa) = 22.91491 33.94780 28.43135
#
# Velocity S-wave (km/s) = 3.24573 3.95056 3.61536
# Velocity P-wave (km/s) = 5.27056 6.53173 5.93474
#
# Compressibility (1/GPa) = 0.03347800
#
# Stress axis : x y z
#
# Youngs Moduli (GPa) = 69.82591 77.19637 29.02760
#
# Poissons Ratio (x) = 0.10012 0.40203
# Poissons Ratio (y) = 0.09056 -0.02970
# Poissons Ratio (z) = 0.96708 -0.07899
#
# Static dielectric constant tensor:
#      x y z
#    x 1.747080 0.006750 -0.026770 
#    y 0.006750 1.850950 0.020100 
#    z -0.026770 0.020100 1.782910 
# 
# From -- ./inp_files/392584.got.cif
#   From: 2010.05.17/outbox.cif.g08.bks.cpg/sg2_197_cif.got.tgz:392584.got - 2010.06.03 11:33:40.
