data_PCOD9008253
_publ_section_title
;
Structure prediction by ZEFSAII (Michael W. Deem and Ramdas Pophale) SiO2 
 PCOD9008253
Probable space group: P -1
;
_chemical_formula_sum "Si O2"
_cell_formula_units_Z 16
_cell_length_a 14.015129
_cell_length_b 26.065458
_cell_length_c 8.314798
_cell_angle_alpha 41.958580
_cell_angle_beta 126.930397
_cell_angle_gamma 159.220433
_cell_volume 660.956446
_symmetry_space_group_name_H-M "P -1"
_symmetry_group_IT_number 2
_symmetry_cell_setting 'triclinic'
loop_
_space_group_symop_operation_xyz
x,y,z
-x,-y,-z
loop_
_atom_site_type_symbol
_atom_site_label
_atom_site_fract_x
_atom_site_fract_y
_atom_site_fract_z
Si Si1 0.563165 0.334989 0.048452
Si Si2 0.955812 0.914389 0.299011
Si Si3 0.627714 0.361595 0.689535
Si Si4 0.614840 0.922618 0.031854
Si Si5 0.160961 0.295711 0.185628
Si Si6 0.113775 0.148984 0.199656
Si Si7 0.262777 0.704743 0.514832
Si Si8 0.570319 0.024559 0.201552
O O1 0.450333 0.335991 0.048353
O O2 0.776964 0.401529 0.196315
O O3 0.649276 0.406740 0.787474
O O4 0.259069 0.108868 0.242686
O O5 0.628726 0.747539 0.416156
O O6 0.902046 0.792348 0.513328
O O7 0.000000 0.000000 0.000000
O O8 0.527860 0.213959 0.930564
O O9 0.950312 0.554997 0.496414
O O10 0.449642 0.806144 0.305202
O O11 0.570111 0.987138 0.816231
O O12 0.937572 0.078979 0.031023
O O13 0.057973 0.178597 0.210418
O O14 0.920201 0.221380 0.119683
O O15 0.500000 0.500000 0.000000
O O16 0.000000 0.000000 0.500000
O O17 0.412164 0.849125 0.460431
O O18 0.500000 0.000000 0.000000
#
# Coordination Sequence:
#
# PCOD9008253 Si02
#       8
#     2   2   2   2   2   2   2   2
#     4  11  21  40  65  87 127 171 213 268 325 378
#     4  10  21  39  64  91 127 171 214 262 327 379
#     4  11  24  36  63  97 124 161 224 267 311 383
#     4  11  21  37  63  93 122 167 211 265 321 391
#     4  12  24  39  67 103 130 164 224 279 321 387
#     4  12  19  39  67  92 122 169 220 266 326 382
#     4  11  21  39  63  86 130 164 215 258 333 377
#     4  10  21  40  59  88 131 171 197 263 340 384
#
# _framework density 24.207343000000002
#
# number of rings (size 3 to 8) (size 9 to 14) (size 15 to 20)
#    0.000    1.000    7.500    0.750    3.500    1.000 
#    0.000    0.625    5.500    2.250    0.000    0.000 
#    0.000    0.000    0.000    0.000    0.000    0.000 
#
# Total GULP energy -89171.926340 kJ/mol
# GULP energy per Si atom -5573.245396 kJ/mol
# Density = 2.415225 g / cm^3
# Si number density = 24.207343 Si / 1000 Ang^3
#
#
#
# Elastic Constant Matrix: (Units=GPa)
#
#
# Indices 1 2 3 4 5 6 
#
# 1 92.0963 -6.2837 -3.3599 13.6641 5.2770 19.7964
# 2 -6.2837 114.2415 10.1301 -3.8970 9.4067 39.4522
# 3 -3.3599 10.1301 51.1720 10.5528 2.5230 10.0052
# 4 13.6641 -3.8970 10.5528 24.8315 5.7425 1.7591
# 5 5.2770 9.4067 2.5230 5.7425 21.0349 12.5736
# 6 19.7964 39.4522 10.0052 1.7591 12.5736 36.3191
#
#
#
# Elastic Compliance Matrix: (Units=1/GPa)
#
#
# Indices 1 2 3 4 5 6 
#
# 1 0.016826 0.006128 0.005549 -0.010871 0.006810 -0.019188
# 2 0.006128 0.016640 0.001681 -0.001009 0.005225 -0.023639
# 3 0.005549 0.001681 0.024705 -0.013879 0.006617 -0.013274
# 4 -0.010871 -0.001009 -0.013879 0.055365 -0.019104 0.014777
# 5 0.006810 0.005225 0.006617 -0.019104 0.068172 -0.033887
# 6 -0.019188 -0.023639 -0.013274 0.014777 -0.033887 0.078344
#
#
# Mechanical properties :
#
#
# Convention : Reuss Voigt Hill
#
# Bulk Modulus (GPa) = 11.78030 28.72030 20.25030
# Shear Modulus (GPa) = 19.11084 33.57198 26.34141
#
# Velocity S-wave (km/s) = 2.81279 3.72808 3.30230
# Velocity P-wave (km/s) = 3.92760 5.51557 4.78788
#
# Compressibility (1/GPa) = 0.08488751
#
# Stress axis : x y z
#
# Youngs Moduli (GPa) = 59.43180 60.09475 40.47780
#
# Poissons Ratio (x) = -0.36828 -0.22463
# Poissons Ratio (y) = -0.36421 -0.06802
# Poissons Ratio (z) = -0.32981 -0.10099
#
# Static dielectric constant tensor:
#      x y z
#    x 2.096900 -0.016220 -0.003790 
#    y -0.016220 1.988420 0.038970 
#    z -0.003790 0.038970 2.036320 
# 
# From -- ./inp_files/320936.got.cif
#   From: 2010.05.17/outbox.cif.g08.bks.cpg/sg2_161_cif.got.tgz:320936.got - 2010.06.03 11:33:40.
