data_PCOD9008201
_publ_section_title
;
Structure prediction by ZEFSAII (Michael W. Deem and Ramdas Pophale) SiO2 
 PCOD9008201
Probable space group: P -1
;
_chemical_formula_sum "Si O2"
_cell_formula_units_Z 16
_cell_length_a 9.689174
_cell_length_b 15.975440
_cell_length_c 8.796983
_cell_angle_alpha 98.077998
_cell_angle_beta 57.679709
_cell_angle_gamma 60.920707
_cell_volume 845.069460
_symmetry_space_group_name_H-M "P -1"
_symmetry_group_IT_number 2
_symmetry_cell_setting 'triclinic'
loop_
_space_group_symop_operation_xyz
x,y,z
-x,-y,-z
loop_
_atom_site_type_symbol
_atom_site_label
_atom_site_fract_x
_atom_site_fract_y
_atom_site_fract_z
Si Si1 0.430104 0.435107 0.088252
Si Si2 0.943327 0.427537 0.446685
Si Si3 0.183442 0.173210 0.332801
Si Si4 0.147276 0.416647 0.029019
Si Si5 0.625985 0.952003 0.129046
Si Si6 0.878243 0.987411 0.195660
Si Si7 0.436289 0.841772 0.335581
Si Si8 0.845037 0.174897 0.725612
O O1 0.308167 0.494269 0.334333
O O2 0.259699 0.451352 0.073330
O O3 0.500000 0.500000 0.000000
O O4 0.640540 0.301661 0.937638
O O5 0.000000 0.500000 0.500000
O O6 0.084279 0.301484 0.402557
O O7 0.001650 0.412711 0.231769
O O8 0.013640 0.174953 0.529991
O O9 0.424932 0.085841 0.244858
O O10 0.232957 0.115808 0.122974
O O11 0.348835 0.290740 0.818552
O O12 0.000000 0.500000 0.000000
O O13 0.510942 0.905881 0.240590
O O14 0.779882 0.938317 0.162463
O O15 0.677599 0.106964 0.422342
O O16 0.034024 0.908317 0.223872
O O17 0.000000 0.000000 0.000000
O O18 0.261866 0.858458 0.329265
#
# Coordination Sequence:
#
# PCOD9008201 Si02
#       8
#     2   2   2   2   2   2   2   2
#     4  10  21  39  64  90 120 162 214 250 310 376
#     4  10  21  40  64  94 122 164 211 258 305 377
#     4  11  22  41  68  91 128 166 216 255 322 373
#     4  10  23  40  62  91 125 163 204 262 314 365
#     4  11  25  40  67  98 123 167 210 265 312 379
#     4  12  27  41  61  95 132 162 210 261 317 368
#     4  11  23  43  65  91 129 166 218 249 319 385
#     4  11  24  41  65  91 127 173 203 264 316 374
#
# _framework density 18.933354999999999
#
# number of rings (size 3 to 8) (size 9 to 14) (size 15 to 20)
#    0.000    1.250    3.750    1.500    3.500    4.000 
#    0.000    0.625    0.000    0.000    0.000    0.000 
#    0.000    0.000    0.000    0.000    0.000    0.000 
#
# Total GULP energy -89362.834313 kJ/mol
# GULP energy per Si atom -5585.177145 kJ/mol
# Density = 1.889026 g / cm^3
# Si number density = 18.933355 Si / 1000 Ang^3
#
#
#
# Elastic Constant Matrix: (Units=GPa)
#
#
# Indices 1 2 3 4 5 6 
#
# 1 63.5076 50.1234 42.8663 3.7203 -2.5428 -3.0945
# 2 50.1234 128.5074 73.8785 -8.2277 -1.2716 0.6963
# 3 42.8663 73.8785 166.2660 -9.9470 -8.2828 -6.5572
# 4 3.7203 -8.2277 -9.9470 36.6152 6.0760 -3.4106
# 5 -2.5428 -1.2716 -8.2828 6.0760 20.1286 -3.3648
# 6 -3.0945 0.6963 -6.5572 -3.4106 -3.3648 29.2168
#
#
#
# Elastic Compliance Matrix: (Units=1/GPa)
#
#
# Indices 1 2 3 4 5 6 
#
# 1 0.024809 -0.008441 -0.002727 -0.005553 0.003484 0.001970
# 2 -0.008441 0.013475 -0.003858 0.003159 -0.003102 -0.002070
# 3 -0.002727 -0.003858 0.008759 0.001514 0.002941 0.002284
# 4 -0.005553 0.003159 0.001514 0.030659 -0.008758 0.002247
# 5 0.003484 -0.003102 0.002941 -0.008758 0.054848 0.006397
# 6 0.001970 -0.002070 0.002284 0.002247 0.006397 0.035997
#
#
# Mechanical properties :
#
#
# Convention : Reuss Voigt Hill
#
# Bulk Modulus (GPa) = 58.85279 76.89083 67.87181
# Shear Modulus (GPa) = 24.47825 29.95296 27.21561
#
# Velocity S-wave (km/s) = 3.59954 3.98178 3.79547
# Velocity P-wave (km/s) = 6.95897 7.86377 7.42516
#
# Compressibility (1/GPa) = 0.01699155
#
# Stress axis : x y z
#
# Youngs Moduli (GPa) = 40.30737 74.21167 114.16774
#
# Poissons Ratio (x) = 0.62642 0.31129
# Poissons Ratio (y) = 0.34023 0.44050
# Poissons Ratio (z) = 0.10990 0.28634
#
# Static dielectric constant tensor:
#      x y z
#    x 1.635380 0.016690 -0.005320 
#    y 0.016690 1.639190 0.018610 
#    z -0.005320 0.018610 1.648080 
# 
# From -- ./inp_files/189545.got.cif
#   From: 2010.05.17/outbox.cif.g08.bks.cpg/sg2_95_cif.got.tgz:189545.got - 2010.06.03 11:33:40.
