data_PCOD9008157
_publ_section_title
;
Structure prediction by ZEFSAII (Michael W. Deem and Ramdas Pophale) SiO2 
 PCOD9008157
Probable space group: P -1
;
_chemical_formula_sum "Si O2"
_cell_formula_units_Z 16
_cell_length_a 13.257412
_cell_length_b 7.791837
_cell_length_c 15.004532
_cell_angle_alpha 76.382558
_cell_angle_beta 149.178268
_cell_angle_gamma 109.660760
_cell_volume 743.243327
_symmetry_space_group_name_H-M "P -1"
_symmetry_group_IT_number 2
_symmetry_cell_setting 'triclinic'
loop_
_space_group_symop_operation_xyz
x,y,z
-x,-y,-z
loop_
_atom_site_type_symbol
_atom_site_label
_atom_site_fract_x
_atom_site_fract_y
_atom_site_fract_z
Si Si1 0.410373 0.686603 0.446113
Si Si2 0.860990 0.668306 0.736831
Si Si3 0.407694 0.700430 0.806264
Si Si4 0.740035 0.208465 0.871366
Si Si5 0.735043 0.689793 0.191860
Si Si6 0.113305 0.033938 0.419619
Si Si7 0.600253 0.877956 0.228287
Si Si8 0.472517 0.866929 0.655881
O O1 0.639916 0.667089 0.609864
O O2 0.218018 0.521503 0.352827
O O3 0.333782 0.720792 0.285162
O O4 0.448579 0.825214 0.539908
O O5 0.946223 0.832863 0.712492
O O6 0.031904 0.690378 0.939018
O O7 0.253695 0.512714 0.747438
O O8 0.414124 0.704469 0.703265
O O9 0.383300 0.902003 0.792520
O O10 0.620336 0.684741 0.011602
O O11 0.593868 0.212552 0.844986
O O12 0.694427 0.991968 0.839783
O O13 0.598309 0.768891 0.149298
O O14 0.945717 0.844990 0.329428
O O15 0.314275 0.986513 0.540170
O O16 0.194812 0.131323 0.562337
#
# Coordination Sequence:
#
# PCOD9008157 Si02
#       8
#     2   2   2   2   2   2   2   2
#     4  11  23  42  63  93 127 167 207 266 323 376
#     4  11  23  39  66  90 129 163 217 260 313 390
#     4   9  22  39  57  93 122 163 213 265 306 385
#     4  10  21  42  63  94 129 162 214 262 313 389
#     4  11  21  39  64  88 128 166 215 257 321 381
#     4  10  21  40  58  93 121 162 214 255 308 392
#     4  10  21  39  64  87 131 168 202 270 317 372
#     4  10  22  41  63  85 135 161 205 272 313 372
#
# _framework density 21.527272
#
# number of rings (size 3 to 8) (size 9 to 14) (size 15 to 20)
#    0.000    2.000    2.500    3.000    1.750    2.500 
#    9.000    0.000    0.000    0.000    0.000    0.000 
#    0.000    0.000    0.000    0.000    0.000    0.000 
#
# Total GULP energy -89115.860401 kJ/mol
# GULP energy per Si atom -5569.741275 kJ/mol
# Density = 2.147827 g / cm^3
# Si number density = 21.527272 Si / 1000 Ang^3
#
#
#
# Elastic Constant Matrix: (Units=GPa)
#
#
# Indices 1 2 3 4 5 6 
#
# 1 46.4422 22.1534 33.3399 3.1392 -13.5348 3.2532
# 2 22.1534 73.9380 14.2165 -1.9254 -7.1625 19.2765
# 3 33.3399 14.2165 126.2664 12.5015 -6.8012 11.5561
# 4 3.1392 -1.9254 12.5015 34.6647 8.7718 -1.6519
# 5 -13.5348 -7.1625 -6.8012 8.7718 22.7563 3.6678
# 6 3.2532 19.2765 11.5561 -1.6519 3.6678 17.6931
#
#
#
# Elastic Compliance Matrix: (Units=1/GPa)
#
#
# Indices 1 2 3 4 5 6 
#
# 1 0.036540 -0.008755 -0.007421 -0.005613 0.018386 0.003332
# 2 -0.008755 0.023686 0.002926 -0.002464 0.008605 -0.028121
# 3 -0.007421 0.002926 0.011089 -0.004450 0.003171 -0.010139
# 4 -0.005613 -0.002464 -0.004450 0.037120 -0.022117 0.014674
# 5 0.018386 0.008605 0.003171 -0.022117 0.072195 -0.031857
# 6 0.003332 -0.028121 -0.010139 0.014674 -0.031857 0.101141
#
#
# Mechanical properties :
#
#
# Convention : Reuss Voigt Hill
#
# Bulk Modulus (GPa) = 22.31388 42.89624 32.60506
# Shear Modulus (GPa) = 15.46976 26.81862 21.14419
#
# Velocity S-wave (km/s) = 2.68360 3.53341 3.13741
# Velocity P-wave (km/s) = 4.47104 6.05115 5.32009
#
# Compressibility (1/GPa) = 0.04481515
#
# Stress axis : x y z
#
# Youngs Moduli (GPa) = 27.36706 42.21831 90.17774
#
# Poissons Ratio (x) = 0.36962 0.66925
# Poissons Ratio (y) = 0.23960 -0.26386
# Poissons Ratio (z) = 0.20310 -0.12353
#
# Static dielectric constant tensor:
#      x y z
#    x 1.825180 -0.010600 -0.030110 
#    y -0.010600 1.949230 0.016740 
#    z -0.030110 0.016740 1.817530 
# 
# From -- ./inp_files/528432.got.cif
#   From: 2010.05.17/outbox.cif.g08.bks.cpg/sg2_265_cif.got.tgz:528432.got - 2010.06.03 11:33:40.
