data_PCOD9008197
_publ_section_title
;
Structure prediction by ZEFSAII (Michael W. Deem and Ramdas Pophale) SiO2 
 PCOD9008197
Probable space group: P -1
;
_chemical_formula_sum "Si O2"
_cell_formula_units_Z 15
_cell_length_a 10.107951
_cell_length_b 16.723401
_cell_length_c 7.475543
_cell_angle_alpha 80.307385
_cell_angle_beta 97.349495
_cell_angle_gamma 31.314552
_cell_volume 548.807618
_symmetry_space_group_name_H-M "P -1"
_symmetry_group_IT_number 2
_symmetry_cell_setting 'triclinic'
loop_
_space_group_symop_operation_xyz
x,y,z
-x,-y,-z
loop_
_atom_site_type_symbol
_atom_site_label
_atom_site_fract_x
_atom_site_fract_y
_atom_site_fract_z
Si Si1 0.819936 0.726040 0.289195
Si Si2 0.803624 0.885564 0.960818
Si Si3 0.585972 0.366986 0.382470
Si Si4 0.852425 0.152583 0.027287
Si Si5 0.293266 0.520003 0.671253
Si Si6 0.500000 0.000000 0.500000
Si Si7 0.812861 0.000034 0.485412
Si Si8 0.782910 0.570073 0.805336
O O1 0.945978 0.680219 0.525290
O O2 0.021409 0.548743 0.297470
O O3 0.469155 0.899555 0.158744
O O4 0.819890 0.811124 0.148312
O O5 0.087538 0.788654 0.056977
O O6 0.718697 0.885325 0.765779
O O7 0.420284 0.455126 0.512490
O O8 0.677188 0.402954 0.297248
O O9 0.346466 0.450932 0.184085
O O10 0.913341 0.147880 0.552046
O O11 0.002205 0.078331 0.274447
O O12 0.492165 0.346441 0.874651
O O13 0.000000 0.000000 0.000000
O O14 0.660739 0.995603 0.460156
O O15 0.529165 0.212772 0.342639
O O16 0.000000 0.500000 0.000000
#
# Coordination Sequence:
#
# PCOD9008197 Si02
#       8
#     2   2   2   2   2   1   2   2
#     4  10  21  40  64  90 114 152 206 248 292 343
#     4  10  21  39  65  87 117 159 195 243 298 352
#     4  10  21  40  65  91 115 153 206 247 294 348
#     4  11  23  39  57  86 126 159 190 236 298 358
#     4  10  21  39  64  90 117 150 200 255 288 345
#     4  10  22  40  58  86 120 156 196 234 294 358
#     4  11  24  41  62  87 122 162 196 242 300 358
#     4  11  23  38  61  92 123 152 198 255 293 344
#
# _framework density 27.331985
#
# number of rings (size 3 to 8) (size 9 to 14) (size 15 to 20)
#    0.000    1.600    0.000    6.000    0.000    5.867 
#    0.000   12.667    0.000    1.600    0.000    0.000 
#    0.000    0.000    0.000    0.000    0.000    0.000 
#
# Total GULP energy -83726.116088 kJ/mol
# GULP energy per Si atom -5581.741073 kJ/mol
# Density = 2.726978 g / cm^3
# Si number density = 27.331985 Si / 1000 Ang^3
#
#
#
# Elastic Constant Matrix: (Units=GPa)
#
#
# Indices 1 2 3 4 5 6 
#
# 1 106.8522 12.1402 22.3204 6.8941 35.4168 14.3151
# 2 12.1402 93.0184 30.0873 -19.2680 13.0906 10.6469
# 3 22.3204 30.0873 152.3595 -16.5131 41.2327 17.0781
# 4 6.8941 -19.2680 -16.5131 61.6366 -3.4377 8.4836
# 5 35.4168 13.0906 41.2327 -3.4377 41.0514 6.9238
# 6 14.3151 10.6469 17.0781 8.4836 6.9238 36.2061
#
#
#
# Elastic Compliance Matrix: (Units=1/GPa)
#
#
# Indices 1 2 3 4 5 6 
#
# 1 0.014000 -0.000476 0.001877 -0.001493 -0.013368 -0.003375
# 2 -0.000476 0.012675 -0.001172 0.004123 -0.001490 -0.003667
# 3 0.001877 -0.001172 0.009978 0.002002 -0.010499 -0.003565
# 4 -0.001493 0.004123 0.002002 0.019097 0.000600 -0.006156
# 5 -0.013368 -0.001490 -0.010499 0.000600 0.046692 0.001606
# 6 -0.003375 -0.003667 -0.003565 -0.006156 0.001606 0.032849
#
#
# Mechanical properties :
#
#
# Convention : Reuss Voigt Hill
#
# Bulk Modulus (GPa) = 26.94603 53.48068 40.21336
# Shear Modulus (GPa) = 33.96637 46.95762 40.46199
#
# Velocity S-wave (km/s) = 3.52907 4.14943 3.85176
# Velocity P-wave (km/s) = 5.14645 6.52431 5.87590
#
# Compressibility (1/GPa) = 0.03711121
#
# Stress axis : x y z
#
# Youngs Moduli (GPa) = 71.42864 78.89284 100.22339
#
# Poissons Ratio (x) = 0.03756 -0.18814
# Poissons Ratio (y) = 0.03401 0.11747
# Poissons Ratio (z) = -0.13409 0.09247
#
# Static dielectric constant tensor:
#      x y z
#    x 2.108350 -0.017920 -0.062730 
#    y -0.017920 2.328290 -0.014890 
#    z -0.062730 -0.014890 2.121290 
# 
# From -- ./inp_files/277932.got.cif
#   From: 2010.05.17/outbox.cif.g08.bks.cpg/sg2_139_cif.got.tgz:277932.got - 2010.06.03 11:33:40.
