data_PCOD9008551
_publ_section_title
;
Structure prediction by ZEFSAII (Michael W. Deem and Ramdas Pophale) SiO2 
 PCOD9008551
Probable space group: P -1
;
_chemical_formula_sum "Si O2"
_cell_formula_units_Z 14
_cell_length_a 24.358036
_cell_length_b 8.582026
_cell_length_c 15.449339
_cell_angle_alpha 124.962440
_cell_angle_beta 24.626942
_cell_angle_gamma 140.764163
_cell_volume 738.538264
_symmetry_space_group_name_H-M "P -1"
_symmetry_group_IT_number 2
_symmetry_cell_setting 'triclinic'
loop_
_space_group_symop_operation_xyz
x,y,z
-x,-y,-z
loop_
_atom_site_type_symbol
_atom_site_label
_atom_site_fract_x
_atom_site_fract_y
_atom_site_fract_z
Si Si1 0.405454 0.033079 0.421900
Si Si2 0.572186 0.636578 0.654936
Si Si3 0.407452 0.154295 0.961666
Si Si4 0.161785 0.081124 0.139384
Si Si5 0.745898 0.819163 0.650212
Si Si6 0.018314 0.541522 0.089836
Si Si7 0.607864 0.290858 0.389486
O O1 0.396170 0.174603 0.403931
O O2 0.487339 0.209009 0.449790
O O3 0.545217 0.007397 0.186875
O O4 0.190698 0.719542 0.650271
O O5 0.701284 0.809204 0.610495
O O6 0.619139 0.479428 0.498107
O O7 0.344438 0.384928 0.930712
O O8 0.607932 0.491392 0.769915
O O9 0.249151 0.083312 0.102525
O O10 0.329075 0.094270 0.152035
O O11 0.971836 0.007711 0.401730
O O12 0.096099 0.833421 0.095292
O O13 0.000000 0.500000 0.000000
O O14 0.178549 0.558105 0.894149
O O15 0.500000 0.000000 0.500000
#
# Coordination Sequence:
#
# PCOD9008551 Si02
#       7
#     2   2   2   2   2   2   2
#     4  12  24  40  59  94 127 154 196 249 310 354
#     4  11  25  39  60  91 128 158 192 252 305 354
#     4  10  21  39  65  90 118 159 204 253 291 350
#     4  11  20  40  63  89 115 161 208 243 294 354
#     4  10  21  40  64  90 118 158 210 245 291 357
#     4  12  22  35  66  88 115 160 200 244 294 359
#     4  12  21  40  62  86 121 157 205 244 292 355
#
# _framework density 18.956364000000001
#
# number of rings (size 3 to 8) (size 9 to 14) (size 15 to 20)
#    0.000    0.857    5.714    2.571    0.000    2.286 
#    0.000    0.714    0.000    0.000    0.000    0.000 
#    0.000    0.000    0.000    0.000    0.000    0.000 
#
# Total GULP energy -78265.955165 kJ/mol
# GULP energy per Si atom -5590.425369 kJ/mol
# Density = 1.891322 g / cm^3
# Si number density = 18.956364 Si / 1000 Ang^3
#
#
#
# Elastic Constant Matrix: (Units=GPa)
#
#
# Indices 1 2 3 4 5 6 
#
# 1 99.2316 33.9087 55.2903 0.7544 12.3813 -7.7646
# 2 33.9087 43.9930 24.5047 0.1215 12.2769 9.2131
# 3 55.2903 24.5047 109.5130 4.5561 -11.6949 4.7925
# 4 0.7544 0.1215 4.5561 20.3358 13.6481 4.9611
# 5 12.3813 12.2769 -11.6949 13.6481 30.7828 -1.7503
# 6 -7.7646 9.2131 4.7925 4.9611 -1.7503 23.2612
#
#
#
# Elastic Compliance Matrix: (Units=1/GPa)
#
#
# Indices 1 2 3 4 5 6 
#
# 1 0.021570 -0.010257 -0.010462 0.005898 -0.010528 0.011368
# 2 -0.010257 0.056671 -0.012219 0.040161 -0.042923 -0.035147
# 3 -0.010462 -0.012219 0.020942 -0.024010 0.027925 0.004254
# 4 0.005898 0.040161 -0.024010 0.119662 -0.082883 -0.040749
# 5 -0.010528 -0.042923 0.027925 -0.082883 0.103081 0.033166
# 6 0.011368 -0.035147 0.004254 -0.040749 0.033166 0.071015
#
#
# Mechanical properties :
#
#
# Convention : Reuss Voigt Hill
#
# Bulk Modulus (GPa) = 30.02339 53.34945 41.68642
# Shear Modulus (GPa) = 10.64011 24.14487 17.39249
#
# Velocity S-wave (km/s) = 2.37174 3.57278 3.03231
# Velocity P-wave (km/s) = 4.83453 6.72488 5.85648
#
# Compressibility (1/GPa) = 0.03330736
#
# Stress axis : x y z
#
# Youngs Moduli (GPa) = 46.36042 17.64580 47.75025
#
# Poissons Ratio (x) = 0.18099 0.49958
# Poissons Ratio (y) = 0.47552 0.58344
# Poissons Ratio (z) = 0.48503 0.21561
#
# Static dielectric constant tensor:
#      x y z
#    x 1.648300 0.024140 -0.006860 
#    y 0.024140 1.640950 0.000240 
#    z -0.006860 0.000240 1.658440 
# 
# From -- ./inp_files/45388.got.cif
#   From: 2010.05.17/outbox.cif.g08.bks.cpg/sg2_23_cif.got.tgz:45388.got - 2010.06.03 11:33:40.
