data_PCOD9008521
_publ_section_title
;
Structure prediction by ZEFSAII (Michael W. Deem and Ramdas Pophale) SiO2 
 PCOD9008521
Probable space group: P -1
;
_chemical_formula_sum "Si O2"
_cell_formula_units_Z 12
_cell_length_a 13.679407
_cell_length_b 8.496933
_cell_length_c 8.952117
_cell_angle_alpha 50.078138
_cell_angle_beta 40.872049
_cell_angle_gamma 44.801605
_cell_volume 467.141606
_symmetry_space_group_name_H-M "P -1"
_symmetry_group_IT_number 2
_symmetry_cell_setting 'triclinic'
loop_
_space_group_symop_operation_xyz
x,y,z
-x,-y,-z
loop_
_atom_site_type_symbol
_atom_site_label
_atom_site_fract_x
_atom_site_fract_y
_atom_site_fract_z
Si Si1 0.983398 0.784237 0.977143
Si Si2 0.149369 0.474797 0.511825
Si Si3 0.429765 0.558607 0.298000
Si Si4 0.158909 0.261012 0.115322
Si Si5 0.640338 0.772258 0.825828
Si Si6 0.297003 0.829986 0.594213
O O1 0.100541 0.905214 0.796459
O O2 0.863485 0.872394 0.918190
O O3 0.116979 0.516852 0.949043
O O4 0.883877 0.731873 0.255721
O O5 0.308612 0.476210 0.407183
O O6 0.195297 0.440056 0.305958
O O7 0.988380 0.698347 0.620233
O O8 0.340880 0.706985 0.456136
O O9 0.598358 0.349772 0.290589
O O10 0.489586 0.707715 0.033481
O O11 0.321743 0.188008 0.071275
O O12 0.633116 0.983142 0.611601
#
# Coordination Sequence:
#
# PCOD9008521 Si02
#       6
#     2   2   2   2   2   2
#     4   9  18  40  62  86 112 166 195 230 306 341
#     4  10  21  39  65  87 121 160 190 250 303 342
#     4  11  22  43  60  82 129 160 194 239 302 356
#     4   9  18  38  63  86 116 156 200 235 293 356
#     4  12  24  37  62  97 118 149 206 245 297 351
#     4  11  23  39  65  87 117 163 199 245 288 357
#
# _framework density 25.688144000000001
#
# number of rings (size 3 to 8) (size 9 to 14) (size 15 to 20)
#    1.000    0.667    3.333    1.500    2.333    2.000 
#    0.000    0.000    0.000    0.000    0.000    0.000 
#    0.000    0.000    0.000    0.000    0.000    0.000 
#
# Total GULP energy -67094.458866 kJ/mol
# GULP energy per Si atom -5591.204905 kJ/mol
# Density = 2.562968 g / cm^3
# Si number density = 25.688144 Si / 1000 Ang^3
#
#
#
# Elastic Constant Matrix: (Units=GPa)
#
#
# Indices 1 2 3 4 5 6 
#
# 1 131.3690 24.8507 56.7114 -8.2561 -32.2652 6.0117
# 2 24.8507 36.4967 34.8262 -12.8467 -4.6536 5.1541
# 3 56.7114 34.8262 179.1666 -9.9080 -42.9613 13.0792
# 4 -8.2561 -12.8467 -9.9080 35.2463 9.4734 -7.1063
# 5 -32.2652 -4.6536 -42.9613 9.4734 39.0866 -8.4588
# 6 6.0117 5.1541 13.0792 -7.1063 -8.4588 20.1467
#
#
#
# Elastic Compliance Matrix: (Units=1/GPa)
#
#
# Indices 1 2 3 4 5 6 
#
# 1 0.011035 -0.007176 -0.000200 -0.002149 0.008914 0.001658
# 2 -0.007176 0.044863 -0.008877 0.015309 -0.015019 -0.004479
# 3 -0.000200 -0.008877 0.009650 -0.003453 0.010017 -0.000946
# 4 -0.002149 0.015309 -0.003453 0.036943 -0.011113 0.007331
# 5 0.008914 -0.015019 0.010017 -0.011113 0.047141 0.010552
# 6 0.001658 -0.004479 -0.000946 0.007331 0.010552 0.057918
#
#
# Mechanical properties :
#
#
# Convention : Reuss Voigt Hill
#
# Bulk Modulus (GPa) = 30.26526 64.42322 47.34424
# Shear Modulus (GPa) = 19.91484 34.27219 27.09352
#
# Velocity S-wave (km/s) = 2.78736 3.65658 3.25115
# Velocity P-wave (km/s) = 4.70814 6.55446 5.70646
#
# Compressibility (1/GPa) = 0.03304119
#
# Stress axis : x y z
#
# Youngs Moduli (GPa) = 90.62479 22.29026 103.62469
#
# Poissons Ratio (x) = 0.15996 0.02076
# Poissons Ratio (y) = 0.65034 0.91983
# Poissons Ratio (z) = 0.01815 0.19786
#
# Static dielectric constant tensor:
#      x y z
#    x 1.976090 -0.007090 -0.013890 
#    y -0.007090 2.124920 0.025320 
#    z -0.013890 0.025320 1.976780 
# 
# From -- ./inp_files/293826.got.cif
#   From: 2010.05.17/outbox.cif.g08.bks.cpg/sg2_147_cif.got.tgz:293826.got - 2010.06.03 11:33:40.
