data_PCOD9008226
_publ_section_title
;
Structure prediction by ZEFSAII (Michael W. Deem and Ramdas Pophale) SiO2 
 PCOD9008226
Probable space group: P -1
;
_chemical_formula_sum "Si O2"
_cell_formula_units_Z 14
_cell_length_a 5.510524
_cell_length_b 25.553225
_cell_length_c 15.124920
_cell_angle_alpha 162.359625
_cell_angle_beta 81.152207
_cell_angle_gamma 106.434262
_cell_volume 567.787811
_symmetry_space_group_name_H-M "P -1"
_symmetry_group_IT_number 2
_symmetry_cell_setting 'triclinic'
loop_
_space_group_symop_operation_xyz
x,y,z
-x,-y,-z
loop_
_atom_site_type_symbol
_atom_site_label
_atom_site_fract_x
_atom_site_fract_y
_atom_site_fract_z
Si Si1 0.662017 0.390924 0.740147
Si Si2 0.328180 0.583927 0.725108
Si Si3 0.329705 0.119317 0.683620
Si Si4 0.573034 0.752108 0.308588
Si Si5 0.099452 0.042241 0.230046
Si Si6 0.533030 0.764279 0.836259
Si Si7 0.148738 0.686367 0.572711
O O1 0.687399 0.347717 0.771848
O O2 0.813608 0.332592 0.563046
O O3 0.329934 0.248198 0.512445
O O4 0.715226 0.609274 0.077162
O O5 0.311005 0.694305 0.815574
O O6 0.335346 0.380596 0.381129
O O7 0.081174 0.514440 0.697211
O O8 0.598680 0.729940 0.997565
O O9 0.457195 0.222828 0.750738
O O10 0.500000 0.000000 0.500000
O O11 0.000000 0.000000 0.500000
O O12 0.767532 0.949828 0.667701
O O13 0.101116 0.873663 0.896937
O O14 0.781037 0.980515 0.167529
O O15 0.408546 0.723850 0.680612
#
# Coordination Sequence:
#
# PCOD9008226 Si02
#       7
#     2   2   2   2   2   2   2
#     4   9  20  40  70  94 146 181 231 286 353 429
#     4  10  24  40  62  97 130 186 228 287 359 413
#     4  12  28  46  76 104 143 186 242 300 358 431
#     4   9  21  44  66  97 142 183 232 285 362 420
#     4   9  20  39  63  97 130 178 232 281 353 412
#     4  10  21  39  64  90 139 176 228 293 346 428
#     4  11  21  37  67  95 134 171 236 287 349 417
#
# _framework density 24.657098999999999
#
# number of rings (size 3 to 8) (size 9 to 14) (size 15 to 20)
#    0.857    1.143    0.000    2.571    6.000    0.571 
#    0.000    2.143    6.286    0.000    0.000    0.000 
#    0.000    0.000    0.000    0.000    0.000    0.000 
#
# Total GULP energy -78102.132894 kJ/mol
# GULP energy per Si atom -5578.723778 kJ/mol
# Density = 2.460098 g / cm^3
# Si number density = 24.657099 Si / 1000 Ang^3
#
#
#
# Elastic Constant Matrix: (Units=GPa)
#
#
# Indices 1 2 3 4 5 6 
#
# 1 54.2667 6.8021 14.2982 15.6138 -3.2817 0.1861
# 2 6.8021 108.5478 12.1661 -12.0018 -49.5805 6.5454
# 3 14.2982 12.1661 82.4261 -8.6816 -17.3060 12.6744
# 4 15.6138 -12.0018 -8.6816 36.7887 11.7282 2.1409
# 5 -3.2817 -49.5805 -17.3060 11.7282 -0.4613 19.9666
# 6 0.1861 6.5454 12.6744 2.1409 19.9666 26.3161
#
#
#
# Elastic Compliance Matrix: (Units=1/GPa)
#
#
# Indices 1 2 3 4 5 6 
#
# 1 0.023710 -0.001692 -0.005231 -0.012518 0.001633 0.002552
# 2 -0.001692 0.005274 -0.003186 0.004367 -0.009735 0.007266
# 3 -0.005231 -0.003186 0.013075 0.006313 -0.006183 -0.001290
# 4 -0.012518 0.004367 0.006313 0.035866 -0.000188 -0.006813
# 5 0.001633 -0.009735 -0.006183 -0.000188 -0.019859 0.020470
# 6 0.002552 0.007266 -0.001290 -0.006813 0.020470 0.021819
#
#
# Mechanical properties :
#
#
# Convention : Reuss Voigt Hill
#
# Bulk Modulus (GPa) = 45.78817 34.64147 40.21482
# Shear Modulus (GPa) = 46.56238 26.66031 36.61135
#
# Velocity S-wave (km/s) = 4.35028 3.29179 3.85752
# Velocity P-wave (km/s) = 6.62145 5.34113 6.01545
#
# Compressibility (1/GPa) = 0.02183970
#
# Stress axis : x y z
#
# Youngs Moduli (GPa) = 42.17682 189.61787 76.48290
#
# Poissons Ratio (x) = 0.32079 0.40011
# Poissons Ratio (y) = 0.07135 0.24369
# Poissons Ratio (z) = 0.22064 0.60415
#
# Static dielectric constant tensor:
#      x y z
#    x 2.082420 0.053280 -0.015130 
#    y 0.053280 2.038950 0.018430 
#    z -0.015130 0.018430 1.950780 
# 
# From -- ./inp_files/486172.got.cif
#   From: 2010.05.17/outbox.cif.g08.bks.cpg/sg2_244_cif.got.tgz:486172.got - 2010.06.03 11:33:40.
