data_PCOD9008528
_publ_section_title
;
Structure prediction by ZEFSAII (Michael W. Deem and Ramdas Pophale) SiO2 
 PCOD9008528
Probable space group: P -1
;
_chemical_formula_sum "Si O2"
_cell_formula_units_Z 14
_cell_length_a 9.072231
_cell_length_b 19.951683
_cell_length_c 9.658031
_cell_angle_alpha 68.773329
_cell_angle_beta 31.274794
_cell_angle_gamma 54.800469
_cell_volume 705.580613
_symmetry_space_group_name_H-M "P -1"
_symmetry_group_IT_number 2
_symmetry_cell_setting 'triclinic'
loop_
_space_group_symop_operation_xyz
x,y,z
-x,-y,-z
loop_
_atom_site_type_symbol
_atom_site_label
_atom_site_fract_x
_atom_site_fract_y
_atom_site_fract_z
Si Si1 0.416959 0.728740 0.379691
Si Si2 0.363445 0.483092 0.258628
Si Si3 0.763041 0.092641 0.698576
Si Si4 0.887867 0.293979 0.086799
Si Si5 0.733533 0.881681 0.154449
Si Si6 0.411941 0.451714 0.719402
Si Si7 0.066852 0.984057 0.794011
O O1 0.205740 0.825782 0.412539
O O2 0.279438 0.731104 0.640958
O O3 0.424932 0.649974 0.358910
O O4 0.807759 0.700287 0.099704
O O5 0.602947 0.384797 0.187845
O O6 0.420571 0.536712 0.287754
O O7 0.000000 0.500000 0.500000
O O8 0.500000 0.500000 0.000000
O O9 0.425473 0.120672 0.863265
O O10 0.000000 0.000000 0.500000
O O11 0.816657 0.066833 0.836114
O O12 0.051804 0.217537 0.899347
O O13 0.442975 0.942173 0.455732
O O14 0.966039 0.915825 0.904194
O O15 0.500000 0.500000 0.500000
O O16 0.000000 0.500000 0.000000
O O17 0.000000 0.000000 0.000000
#
# Coordination Sequence:
#
# PCOD9008528 Si02
#       7
#     2   2   2   2   2   2   2
#     4  11  21  38  68  96 120 167 223 278 313 375
#     4  12  25  41  65  95 133 170 215 270 337 395
#     4   9  20  38  65  94 122 161 216 262 309 381
#     4  11  21  40  66  93 124 165 224 262 320 388
#     4  10  21  39  65  88 119 170 215 259 306 387
#     4  12  22  43  68  94 128 171 223 271 326 392
#     4  11  22  39  61  92 132 164 200 260 332 381
#
# _framework density 19.841813999999999
#
# number of rings (size 3 to 8) (size 9 to 14) (size 15 to 20)
#    0.000    1.143    2.857    5.143    0.000    3.429 
#    2.571    0.000    9.429    0.000    0.000    0.000 
#    0.000    0.000    0.000    0.000    0.000    0.000 
#
# Total GULP energy -77986.967988 kJ/mol
# GULP energy per Si atom -5570.497713 kJ/mol
# Density = 1.979665 g / cm^3
# Si number density = 19.841814 Si / 1000 Ang^3
#
#
#
# Elastic Constant Matrix: (Units=GPa)
#
#
# Indices 1 2 3 4 5 6 
#
# 1 112.7099 62.0167 42.5725 -8.6560 13.5224 0.9085
# 2 62.0167 183.2278 36.7364 -6.1052 2.8988 7.9800
# 3 42.5725 36.7364 93.7394 -15.4202 -6.3250 -3.5100
# 4 -8.6560 -6.1052 -15.4202 35.0766 -3.0053 -2.7045
# 5 13.5224 2.8988 -6.3250 -3.0053 38.8475 -9.4718
# 6 0.9085 7.9800 -3.5100 -2.7045 -9.4718 25.1613
#
#
#
# Elastic Compliance Matrix: (Units=1/GPa)
#
#
# Indices 1 2 3 4 5 6 
#
# 1 0.013396 -0.003273 -0.005342 -0.000307 -0.005909 -0.002448
# 2 -0.003273 0.006943 -0.001410 -0.000425 -0.000229 -0.002412
# 3 -0.005342 -0.001410 0.015307 0.006159 0.006355 0.005830
# 4 -0.000307 -0.000425 0.006159 0.032003 0.005176 0.006394
# 5 -0.005909 -0.000229 0.006355 0.005176 0.032671 0.014028
# 6 -0.002448 -0.002412 0.005830 0.006394 0.014028 0.047378
#
#
# Mechanical properties :
#
#
# Convention : Reuss Voigt Hill
#
# Bulk Modulus (GPa) = 64.12265 74.70313 69.41289
# Shear Modulus (GPa) = 28.91033 36.37385 32.64209
#
# Velocity S-wave (km/s) = 3.82126 4.28622 4.06040
# Velocity P-wave (km/s) = 7.20114 7.88839 7.55259
#
# Compressibility (1/GPa) = 0.01559511
#
# Stress axis : x y z
#
# Youngs Moduli (GPa) = 74.64705 144.03370 65.32958
#
# Poissons Ratio (x) = 0.47146 0.34901
# Poissons Ratio (y) = 0.24434 0.09212
# Poissons Ratio (z) = 0.39879 0.20309
#
# Static dielectric constant tensor:
#      x y z
#    x 1.804130 -0.010530 -0.049960 
#    y -0.010530 1.801790 0.071200 
#    z -0.049960 0.071200 1.747630 
# 
# From -- ./inp_files/217963.got.cif
#   From: 2010.05.17/outbox.cif.g08.bks.cpg/sg2_109_cif.got.tgz:217963.got - 2010.06.03 11:33:40.
