data_PCOD9008403
_publ_section_title
;
Structure prediction by ZEFSAII (Michael W. Deem and Ramdas Pophale) SiO2 
 PCOD9008403
Probable space group: P -1
;
_chemical_formula_sum "Si O2"
_cell_formula_units_Z 14
_cell_length_a 18.403464
_cell_length_b 5.365969
_cell_length_c 8.646156
_cell_angle_alpha 59.222230
_cell_angle_beta 49.803439
_cell_angle_gamma 67.437451
_cell_volume 558.469448
_symmetry_space_group_name_H-M "P -1"
_symmetry_group_IT_number 2
_symmetry_cell_setting 'triclinic'
loop_
_space_group_symop_operation_xyz
x,y,z
-x,-y,-z
loop_
_atom_site_type_symbol
_atom_site_label
_atom_site_fract_x
_atom_site_fract_y
_atom_site_fract_z
Si Si1 0.946491 0.340926 0.354682
Si Si2 0.257624 0.040185 0.909142
Si Si3 0.132192 0.262183 0.268659
Si Si4 0.300757 0.435440 0.163820
Si Si5 0.591600 0.786568 0.600639
Si Si6 0.079734 0.117682 0.960125
Si Si7 0.518626 0.762144 0.183897
O O1 0.887087 0.605108 0.268319
O O2 0.028188 0.427882 0.333605
O O3 0.889344 0.077797 0.575963
O O4 0.017114 0.210005 0.165329
O O5 0.337998 0.142329 0.655555
O O6 0.173846 0.931244 0.947155
O O7 0.298500 0.781628 0.045130
O O8 0.198447 0.277179 0.021067
O O9 0.194631 0.347288 0.301323
O O10 0.347167 0.318420 0.297212
O O11 0.369189 0.322967 0.962514
O O12 0.532629 0.522543 0.706864
O O13 0.524815 0.073499 0.656582
O O14 0.000000 0.000000 0.000000
O O15 0.500000 0.000000 0.000000
#
# Coordination Sequence:
#
# PCOD9008403 Si02
#       7
#     2   2   2   2   2   2   2
#     4   9  21  41  64  93 138 184 223 288 348 412
#     4  11  27  40  65 108 131 181 238 289 346 422
#     4  10  23  42  65  99 138 180 236 286 351 418
#     4  11  25  43  71  98 138 180 234 292 348 426
#     4  11  27  47  74 104 143 188 232 294 355 421
#     4  10  21  39  64  95 135 176 233 281 346 418
#     4  10  24  48  75 103 141 188 235 287 362 420
#
# _framework density 25.068512999999999
#
# number of rings (size 3 to 8) (size 9 to 14) (size 15 to 20)
#    0.000    1.714    0.000    2.571   12.000    1.143 
#    0.000    4.286    0.000    0.000    0.000    0.000 
#    0.000    0.000    0.000    0.000    0.000    0.000 
#
# Total GULP energy -78336.747018 kJ/mol
# GULP energy per Si atom -5595.481930 kJ/mol
# Density = 2.501146 g / cm^3
# Si number density = 25.068513 Si / 1000 Ang^3
#
#
#
# Elastic Constant Matrix: (Units=GPa)
#
#
# Indices 1 2 3 4 5 6 
#
# 1 129.4688 23.2374 32.9394 -9.2727 -6.4317 8.6819
# 2 23.2374 85.8743 24.4127 15.6474 5.8551 10.8497
# 3 32.9394 24.4127 135.0675 22.6102 8.5176 10.9632
# 4 -9.2727 15.6474 22.6102 35.1254 5.4626 3.3641
# 5 -6.4317 5.8551 8.5176 5.4626 36.5312 -8.4335
# 6 8.6819 10.8497 10.9632 3.3641 -8.4335 41.9434
#
#
#
# Elastic Compliance Matrix: (Units=1/GPa)
#
#
# Indices 1 2 3 4 5 6 
#
# 1 0.009428 -0.002783 -0.002747 0.005267 0.001828 -0.000569
# 2 -0.002783 0.014182 -0.000472 -0.006087 -0.002428 -0.002969
# 3 -0.002747 -0.000472 0.009453 -0.006110 -0.002093 -0.001711
# 4 0.005267 -0.006087 -0.006110 0.037033 -0.002533 -0.001398
# 5 0.001828 -0.002428 -0.002093 -0.002533 0.030603 0.007154
# 6 -0.000569 -0.002969 -0.001711 -0.001398 0.007154 0.026725
#
#
# Mechanical properties :
#
#
# Convention : Reuss Voigt Hill
#
# Bulk Modulus (GPa) = 47.48410 56.84331 52.16370
# Shear Modulus (GPa) = 34.14206 40.70804 37.42505
#
# Velocity S-wave (km/s) = 3.69446 4.03410 3.86801
# Velocity P-wave (km/s) = 6.09767 6.66506 6.38767
#
# Compressibility (1/GPa) = 0.02105968
#
# Stress axis : x y z
#
# Youngs Moduli (GPa) = 106.06173 70.51273 105.79020
#
# Poissons Ratio (x) = 0.19623 0.29063
# Poissons Ratio (y) = 0.29516 0.04989
# Poissons Ratio (z) = 0.29137 0.03325
#
# Static dielectric constant tensor:
#      x y z
#    x 2.080040 0.030710 0.015250 
#    y 0.030710 2.029790 0.010720 
#    z 0.015250 0.010720 1.973940 
# 
# From -- ./inp_files/52539.got.cif
#   From: 2010.05.17/outbox.cif.g08.bks.cpg/sg2_27_cif.got.tgz:52539.got - 2010.06.03 11:33:40.
