data_PCOD9008756
_publ_section_title
;
Structure prediction by ZEFSAII (Michael W. Deem and Ramdas Pophale) SiO2 
 PCOD9008756
Probable space group: P -1
;
_chemical_formula_sum "Si O2"
_cell_formula_units_Z 14
_cell_length_a 7.890628
_cell_length_b 10.237226
_cell_length_c 8.064091
_cell_angle_alpha 80.853703
_cell_angle_beta 57.698711
_cell_angle_gamma 71.446002
_cell_volume 521.930001
_symmetry_space_group_name_H-M "P -1"
_symmetry_group_IT_number 2
_symmetry_cell_setting 'triclinic'
loop_
_space_group_symop_operation_xyz
x,y,z
-x,-y,-z
loop_
_atom_site_type_symbol
_atom_site_label
_atom_site_fract_x
_atom_site_fract_y
_atom_site_fract_z
Si Si1 0.759425 0.964834 0.452100
Si Si2 0.919286 0.394193 0.452573
Si Si3 0.025850 0.098208 0.111748
Si Si4 0.673847 0.839861 0.841690
Si Si5 0.296376 0.607124 0.780294
Si Si6 0.421652 0.236261 0.542656
Si Si7 0.468476 0.672015 0.175013
O O1 0.662488 0.949345 0.683002
O O2 0.777625 0.818799 0.380071
O O3 0.958716 0.022702 0.323566
O O4 0.598787 0.097309 0.426880
O O5 0.790028 0.441371 0.337761
O O6 0.761789 0.336771 0.659549
O O7 0.000000 0.500000 0.500000
O O8 0.122745 0.279845 0.302938
O O9 0.882283 0.252608 0.117435
O O10 0.254733 0.104308 0.037256
O O11 0.000000 0.000000 0.000000
O O12 0.493564 0.769297 0.992215
O O13 0.509213 0.650655 0.624586
O O14 0.366651 0.480643 0.895756
O O15 0.456431 0.272972 0.704314
#
# Coordination Sequence:
#
# PCOD9008756 Si02
#       7
#     2   2   2   2   2   2   2
#     4  10  21  39  65  96 135 173 225 278 327 397
#     4  10  23  42  64  98 135 175 220 277 336 385
#     4  10  21  42  66  99 134 176 229 276 330 395
#     4  11  25  41  67 100 138 170 224 280 334 399
#     4   9  21  41  68  96 133 175 227 271 330 408
#     4   9  19  39  67  93 123 181 227 265 332 400
#     4  11  23  43  69  96 138 179 220 272 340 405
#
# _framework density 26.823519999999998
#
# number of rings (size 3 to 8) (size 9 to 14) (size 15 to 20)
#    0.000    2.000    0.000    3.857    4.000    3.429 
#    2.571    2.857    0.000    0.000    0.000    0.000 
#    0.000    0.000    0.000    0.000    0.000    0.000 
#
# Total GULP energy -78259.682095 kJ/mol
# GULP energy per Si atom -5589.977292 kJ/mol
# Density = 2.676247 g / cm^3
# Si number density = 26.823520 Si / 1000 Ang^3
#
#
#
# Elastic Constant Matrix: (Units=GPa)
#
#
# Indices 1 2 3 4 5 6 
#
# 1 81.1602 34.1875 30.6761 -3.2280 -3.7720 26.1534
# 2 34.1875 113.6351 24.2934 9.4602 8.6204 19.4943
# 3 30.6761 24.2934 111.7535 -18.6297 -13.5194 9.1595
# 4 -3.2280 9.4602 -18.6297 50.4158 14.9884 -2.7575
# 5 -3.7720 8.6204 -13.5194 14.9884 33.5088 -2.9726
# 6 26.1534 19.4943 9.1595 -2.7575 -2.9726 37.9348
#
#
#
# Elastic Compliance Matrix: (Units=1/GPa)
#
#
# Indices 1 2 3 4 5 6 
#
# 1 0.018186 -0.003016 -0.003478 -0.000304 0.000658 -0.010118
# 2 -0.003016 0.011222 -0.002103 -0.002268 -0.003380 -0.003609
# 3 -0.003478 -0.002103 0.011220 0.003418 0.003260 0.001273
# 4 -0.000304 -0.002268 0.003418 0.024194 -0.008750 0.001623
# 5 0.000658 -0.003380 0.003260 -0.008750 0.036255 0.002701
# 6 -0.010118 -0.003609 0.001273 0.001623 0.002701 0.035214
#
#
# Mechanical properties :
#
#
# Convention : Reuss Voigt Hill
#
# Bulk Modulus (GPa) = 42.67481 53.87365 48.27423
# Shear Modulus (GPa) = 30.99903 38.86465 34.93184
#
# Velocity S-wave (km/s) = 3.40320 3.81057 3.61263
# Velocity P-wave (km/s) = 5.60235 6.28400 5.95294
#
# Compressibility (1/GPa) = 0.02343303
#
# Stress axis : x y z
#
# Youngs Moduli (GPa) = 54.98868 89.11449 89.12742
#
# Poissons Ratio (x) = 0.26881 0.30997
# Poissons Ratio (y) = 0.16587 0.18740
# Poissons Ratio (z) = 0.19124 0.18737
#
# Static dielectric constant tensor:
#      x y z
#    x 2.211680 0.041480 -0.020970 
#    y 0.041480 2.125360 0.007720 
#    z -0.020970 0.007720 2.136650 
# 
# From -- ./inp_files/157859.got.cif
#   From: 2010.05.17/outbox.cif.g08.bks.cpg/sg2_79_cif.got.tgz:157859.got - 2010.06.03 11:33:40.
