data_PCOD9008889
_publ_section_title
;
Structure prediction by ZEFSAII (Michael W. Deem and Ramdas Pophale) SiO2 
 PCOD9008889
Probable space group: P -1
;
_chemical_formula_sum "Si O2"
_cell_formula_units_Z 16
_cell_length_a 6.616823
_cell_length_b 14.323110
_cell_length_c 11.370914
_cell_angle_alpha 127.910233
_cell_angle_beta 121.915634
_cell_angle_gamma 55.467993
_cell_volume 672.930055
_symmetry_space_group_name_H-M "P -1"
_symmetry_group_IT_number 2
_symmetry_cell_setting 'triclinic'
loop_
_space_group_symop_operation_xyz
x,y,z
-x,-y,-z
loop_
_atom_site_type_symbol
_atom_site_label
_atom_site_fract_x
_atom_site_fract_y
_atom_site_fract_z
Si Si1 0.211973 0.244925 0.269041
Si Si2 0.087925 0.603618 0.502721
Si Si3 0.746998 0.627539 0.040673
Si Si4 0.129978 0.736213 0.291115
Si Si5 0.202235 0.832514 0.616325
Si Si6 0.862456 0.993359 0.831539
Si Si7 0.770791 0.262632 0.953380
Si Si8 0.645990 0.530164 0.723410
O O1 0.498172 0.225804 0.304529
O O2 0.248559 0.115211 0.253970
O O3 0.110334 0.358508 0.422389
O O4 0.996301 0.261336 0.113562
O O5 0.065808 0.733310 0.530264
O O6 0.367787 0.563511 0.612892
O O7 0.127423 0.506331 0.331854
O O8 0.651469 0.647216 0.892644
O O9 0.498428 0.621717 0.023551
O O10 0.000000 0.500000 0.000000
O O11 0.852216 0.726058 0.207874
O O12 0.174319 0.838645 0.470840
O O13 0.160044 0.747200 0.169871
O O14 0.313667 0.597636 0.287614
O O15 0.058274 0.948738 0.747210
O O16 0.701344 0.138977 0.868336
O O17 0.000000 0.000000 0.000000
#
# Coordination Sequence:
#
# PCOD9008889 Si02
#       8
#     2   2   2   2   2   2   2   2
#     4  10  21  39  66  91 122 155 203 255 302 364
#     4   9  18  37  60  88 124 153 205 248 302 348
#     4  10  22  40  60  83 125 167 199 245 300 354
#     4  10  24  39  59  88 126 160 202 247 297 368
#     4  10  22  40  62  92 121 159 197 254 306 358
#     4   9  22  41  64  90 124 152 201 255 305 363
#     4  11  23  39  62  93 117 161 205 247 304 364
#     4   9  18  37  60  84 119 163 200 249 294 350
#
# _framework density 23.776615
#
# number of rings (size 3 to 8) (size 9 to 14) (size 15 to 20)
#    0.000    2.250    1.250    0.000    1.750    9.500 
#    0.000    8.125    0.000    0.000    0.000    0.000 
#    0.000    0.000    0.000    0.000    0.000    0.000 
#
# Total GULP energy -89136.466917 kJ/mol
# GULP energy per Si atom -5571.029182 kJ/mol
# Density = 2.372250 g / cm^3
# Si number density = 23.776615 Si / 1000 Ang^3
#
#
#
# Elastic Constant Matrix: (Units=GPa)
#
#
# Indices 1 2 3 4 5 6 
#
# 1 98.4575 27.4014 45.6357 -8.2370 -9.2976 -8.6558
# 2 27.4014 63.1893 20.7191 -3.5090 -4.3798 5.2063
# 3 45.6357 20.7191 141.3173 -7.0633 -17.6547 -11.7328
# 4 -8.2370 -3.5090 -7.0633 30.5696 0.5160 -6.7111
# 5 -9.2976 -4.3798 -17.6547 0.5160 34.3993 -2.9203
# 6 -8.6558 5.2063 -11.7328 -6.7111 -2.9203 37.4858
#
#
#
# Elastic Compliance Matrix: (Units=1/GPa)
#
#
# Indices 1 2 3 4 5 6 
#
# 1 0.013680 -0.004942 -0.003012 0.003186 0.001782 0.003612
# 2 -0.004942 0.018802 -0.001558 -0.000483 -0.000102 -0.004334
# 3 -0.003012 -0.001558 0.009094 0.001698 0.003882 0.002974
# 4 0.003186 -0.000483 0.001698 0.035600 0.001803 0.007848
# 5 0.001782 -0.000102 0.003882 0.001803 0.031882 0.004447
# 6 0.003612 -0.004334 0.002974 0.007848 0.004447 0.030795
#
#
# Mechanical properties :
#
#
# Convention : Reuss Voigt Hill
#
# Bulk Modulus (GPa) = 44.33717 54.49739 49.41728
# Shear Modulus (GPa) = 30.04920 34.43814 32.24367
#
# Velocity S-wave (km/s) = 3.55887 3.80992 3.68653
# Velocity P-wave (km/s) = 5.96450 6.50571 6.24098
#
# Compressibility (1/GPa) = 0.02255444
#
# Stress axis : x y z
#
# Youngs Moduli (GPa) = 73.09819 53.18456 109.96412
#
# Poissons Ratio (x) = 0.26284 0.33116
# Poissons Ratio (y) = 0.36125 0.17127
# Poissons Ratio (z) = 0.22014 0.08284
#
# Static dielectric constant tensor:
#      x y z
#    x 1.957940 0.044860 -0.050240 
#    y 0.044860 2.032850 0.032270 
#    z -0.050240 0.032270 2.064410 
# 
# From -- ./inp_files/367988.got.cif
#   From: 2010.05.17/outbox.cif.g08.bks.cpg/sg2_184_cif.got.tgz:367988.got - 2010.06.03 11:33:40.
