data_PCOD9008912
_publ_section_title
;
Structure prediction by ZEFSAII (Michael W. Deem and Ramdas Pophale) SiO2 
 PCOD9008912
Probable space group: P -1
;
_chemical_formula_sum "Si O2"
_cell_formula_units_Z 16
_cell_length_a 9.089161
_cell_length_b 20.631809
_cell_length_c 5.116972
_cell_angle_alpha 109.955303
_cell_angle_beta 55.713374
_cell_angle_gamma 123.921240
_cell_volume 657.379767
_symmetry_space_group_name_H-M "P -1"
_symmetry_group_IT_number 2
_symmetry_cell_setting 'triclinic'
loop_
_space_group_symop_operation_xyz
x,y,z
-x,-y,-z
loop_
_atom_site_type_symbol
_atom_site_label
_atom_site_fract_x
_atom_site_fract_y
_atom_site_fract_z
Si Si1 0.738214 0.474299 0.464175
Si Si2 0.098140 0.431230 0.083120
Si Si3 0.010209 0.729125 0.184383
Si Si4 0.334920 0.820786 0.324001
Si Si5 0.035552 0.863068 0.970287
Si Si6 0.428307 0.235212 0.678288
Si Si7 0.580783 0.677720 0.703387
Si Si8 0.601382 0.982808 0.122204
O O1 0.737798 0.513121 0.794472
O O2 0.545218 0.406126 0.422088
O O3 0.895755 0.440467 0.313316
O O4 0.829202 0.541771 0.247354
O O5 0.043416 0.341853 0.057430
O O6 0.814089 0.699792 0.521285
O O7 0.207706 0.745944 0.171410
O O8 0.043179 0.807787 0.117159
O O9 0.168073 0.848351 0.597533
O O10 0.419817 0.798999 0.463537
O O11 0.524880 0.890705 0.088144
O O12 0.162395 0.955182 0.030939
O O13 0.799649 0.829875 0.108101
O O14 0.426227 0.263586 0.428332
O O15 0.485768 0.306182 0.926216
O O16 0.500000 0.000000 0.500000
O O17 0.500000 0.000000 0.000000
#
# Coordination Sequence:
#
# PCOD9008912 Si02
#       8
#     2   2   2   2   2   2   2   2
#     4  10  22  41  57  88 128 156 210 262 313 371
#     4  10  23  37  62  89 118 167 206 259 314 380
#     4  11  23  39  67  90 128 167 216 259 323 374
#     4  11  23  40  68  93 127 176 212 257 323 377
#     4  10  23  43  62  96 135 161 217 267 310 378
#     4  11  25  39  66  97 129 169 216 262 316 369
#     4  11  24  43  62  93 132 165 208 275 309 374
#     4  10  21  39  66  92 128 171 207 260 317 369
#
# _framework density 24.339054000000001
#
# number of rings (size 3 to 8) (size 9 to 14) (size 15 to 20)
#    0.000    1.500    2.500    1.500    5.250    2.500 
#    0.000    0.000    0.000    5.250    0.000    0.000 
#    0.000    0.000    0.000    0.000    0.000    0.000 
#
# Total GULP energy -89499.076994 kJ/mol
# GULP energy per Si atom -5593.692312 kJ/mol
# Density = 2.428366 g / cm^3
# Si number density = 24.339054 Si / 1000 Ang^3
#
#
#
# Elastic Constant Matrix: (Units=GPa)
#
#
# Indices 1 2 3 4 5 6 
#
# 1 99.5165 27.2285 24.4384 2.2695 -0.7089 18.1716
# 2 27.2285 92.5583 4.6519 -4.5822 -14.9964 27.5786
# 3 24.4384 4.6519 50.8254 -1.0232 15.8989 -1.1865
# 4 2.2695 -4.5822 -1.0232 21.2099 7.7371 4.6052
# 5 -0.7089 -14.9964 15.8989 7.7371 30.9210 -3.8996
# 6 18.1716 27.5786 -1.1865 4.6052 -3.8996 37.2883
#
#
#
# Elastic Compliance Matrix: (Units=1/GPa)
#
#
# Indices 1 2 3 4 5 6 
#
# 1 0.013289 -0.001675 -0.007417 -0.002279 0.003264 -0.004850
# 2 -0.001675 0.015965 -0.003070 0.003213 0.007124 -0.010741
# 3 -0.007417 -0.003070 0.029426 0.007278 -0.018102 0.004029
# 4 -0.002279 0.003213 0.007278 0.057079 -0.017772 -0.009942
# 5 0.003264 0.007124 -0.018102 -0.017772 0.049619 -0.000052
# 6 -0.004850 -0.010741 0.004029 -0.009942 -0.000052 0.038476
#
#
# Mechanical properties :
#
#
# Convention : Reuss Voigt Hill
#
# Bulk Modulus (GPa) = 29.10805 39.50419 34.30612
# Shear Modulus (GPa) = 20.86550 30.32261 25.59405
#
# Velocity S-wave (km/s) = 2.93112 3.53348 3.24630
# Velocity P-wave (km/s) = 4.84155 5.73701 5.30820
#
# Compressibility (1/GPa) = 0.03435476
#
# Stress axis : x y z
#
# Youngs Moduli (GPa) = 75.24909 62.63751 33.98397
#
# Poissons Ratio (x) = 0.10494 0.25205
# Poissons Ratio (y) = 0.12607 0.10434
# Poissons Ratio (z) = 0.55810 0.19232
#
# Static dielectric constant tensor:
#      x y z
#    x 1.885890 0.019280 -0.023740 
#    y 0.019280 1.990770 0.037410 
#    z -0.023740 0.037410 1.978520 
# 
# From -- ./inp_files/39942.got.cif
#   From: 2010.05.17/outbox.cif.g08.bks.cpg/sg2_20_cif.got.tgz:39942.got - 2010.06.03 11:33:40.
