data_PCOD9008382
_publ_section_title
;
Structure prediction by ZEFSAII (Michael W. Deem and Ramdas Pophale) SiO2 
 PCOD9008382
Probable space group: P -1
;
_chemical_formula_sum "Si O2"
_cell_formula_units_Z 14
_cell_length_a 14.958576
_cell_length_b 8.911310
_cell_length_c 8.434499
_cell_angle_alpha 110.263587
_cell_angle_beta 38.438418
_cell_angle_gamma 112.390611
_cell_volume 644.010745
_symmetry_space_group_name_H-M "P -1"
_symmetry_group_IT_number 2
_symmetry_cell_setting 'triclinic'
loop_
_space_group_symop_operation_xyz
x,y,z
-x,-y,-z
loop_
_atom_site_type_symbol
_atom_site_label
_atom_site_fract_x
_atom_site_fract_y
_atom_site_fract_z
Si Si1 0.143399 0.126353 0.404574
Si Si2 0.311810 0.903366 0.257224
Si Si3 0.038925 0.406812 0.565611
Si Si4 0.211564 0.318806 0.711181
Si Si5 0.503945 0.187757 0.269993
Si Si6 0.086925 0.745428 0.759535
Si Si7 0.221136 0.702244 0.877078
O O1 0.146455 0.280464 0.340547
O O2 0.152863 0.223926 0.595979
O O3 0.269182 0.021567 0.221740
O O4 0.000000 0.000000 0.500000
O O5 0.166223 0.839555 0.534924
O O6 0.420821 0.007883 0.269816
O O7 0.390610 0.770031 0.016235
O O8 0.101011 0.557542 0.647457
O O9 0.000000 0.500000 0.500000
O O10 0.894736 0.309427 0.820511
O O11 0.372585 0.284565 0.506831
O O12 0.220772 0.512388 0.770280
O O13 0.083921 0.248583 0.987693
O O14 0.616905 0.213060 0.265592
O O15 0.163810 0.789855 0.838165
#
# Coordination Sequence:
#
# PCOD9008382 Si02
#       7
#     2   2   2   2   2   2   2
#     4  11  20  36  60  93 125 160 205 260 311 365
#     4  10  24  41  64  92 130 171 210 254 313 385
#     4  11  21  38  65  97 124 163 215 264 311 368
#     4  10  21  39  64  95 125 163 213 265 312 367
#     4  10  22  41  64  85 135 176 204 251 324 376
#     4  11  21  40  68  95 124 161 219 268 306 368
#     4  11  20  39  66  93 128 166 210 266 317 370
#
# _framework density 21.738769999999999
#
# number of rings (size 3 to 8) (size 9 to 14) (size 15 to 20)
#    0.000    1.429    2.857    3.857    0.000    2.857 
#    0.000    0.714   34.571    0.000    0.000    0.000 
#    0.000    0.000    0.000    0.000    0.000    0.000 
#
# Total GULP energy -78022.773280 kJ/mol
# GULP energy per Si atom -5573.055234 kJ/mol
# Density = 2.168929 g / cm^3
# Si number density = 21.738770 Si / 1000 Ang^3
#
#
#
# Elastic Constant Matrix: (Units=GPa)
#
#
# Indices 1 2 3 4 5 6 
#
# 1 129.5472 28.8286 42.5576 -3.4559 -24.1915 0.8111
# 2 28.8286 55.7566 21.3500 14.5504 -7.9146 -1.2334
# 3 42.5576 21.3500 109.0684 6.6760 -15.0100 -24.7729
# 4 -3.4559 14.5504 6.6760 24.3008 1.0030 1.8219
# 5 -24.1915 -7.9146 -15.0100 1.0030 27.4425 2.3822
# 6 0.8111 -1.2334 -24.7729 1.8219 2.3822 42.4944
#
#
#
# Elastic Compliance Matrix: (Units=1/GPa)
#
#
# Indices 1 2 3 4 5 6 
#
# 1 0.011468 -0.005144 -0.003588 0.005650 0.006725 -0.003079
# 2 -0.005144 0.025709 -0.001607 -0.015822 0.002541 0.000444
# 3 -0.003588 -0.001607 0.013320 -0.003920 0.003128 0.007780
# 4 0.005650 -0.015822 -0.003920 0.053009 -0.003235 -0.004944
# 5 0.006725 0.002541 0.003128 -0.003235 0.044983 -0.000614
# 6 -0.003079 0.000444 0.007780 -0.004944 -0.000614 0.028386
#
#
# Mechanical properties :
#
#
# Convention : Reuss Voigt Hill
#
# Bulk Modulus (GPa) = 33.53214 53.31609 43.42411
# Shear Modulus (GPa) = 24.09726 32.28993 28.19359
#
# Velocity S-wave (km/s) = 3.33301 3.85822 3.60519
# Velocity P-wave (km/s) = 5.50186 6.66535 6.11136
#
# Compressibility (1/GPa) = 0.02982213
#
# Stress axis : x y z
#
# Youngs Moduli (GPa) = 87.19814 38.89636 75.07324
#
# Poissons Ratio (x) = 0.20007 0.26933
# Poissons Ratio (y) = 0.44852 0.12061
# Poissons Ratio (z) = 0.31283 0.06249
#
# Static dielectric constant tensor:
#      x y z
#    x 1.851810 0.014820 0.012140 
#    y 0.014820 1.831730 0.021100 
#    z 0.012140 0.021100 1.852650 
# 
# From -- ./inp_files/205584.got.cif
#   From: 2010.05.17/outbox.cif.g08.bks.cpg/sg2_103_cif.got.tgz:205584.got - 2010.06.03 11:33:40.
