data_PCOD9008330
_publ_section_title
;
Structure prediction by ZEFSAII (Michael W. Deem and Ramdas Pophale) SiO2 
 PCOD9008330
Probable space group: P -1
;
_chemical_formula_sum "Si O2"
_cell_formula_units_Z 16
_cell_length_a 11.302959
_cell_length_b 9.099092
_cell_length_c 8.664844
_cell_angle_alpha 114.241989
_cell_angle_beta 72.093649
_cell_angle_gamma 72.442803
_cell_volume 672.639095
_symmetry_space_group_name_H-M "P -1"
_symmetry_group_IT_number 2
_symmetry_cell_setting 'triclinic'
loop_
_space_group_symop_operation_xyz
x,y,z
-x,-y,-z
loop_
_atom_site_type_symbol
_atom_site_label
_atom_site_fract_x
_atom_site_fract_y
_atom_site_fract_z
Si Si1 0.132312 0.115022 0.477265
Si Si2 0.195150 0.751718 0.856556
Si Si3 0.357937 0.189405 0.586498
Si Si4 0.066426 0.187913 0.188443
Si Si5 0.526720 0.278316 0.341319
Si Si6 0.165948 0.731210 0.206542
Si Si7 0.669700 0.835368 0.077129
Si Si8 0.577774 0.577793 0.889765
O O1 0.256959 0.153941 0.497263
O O2 0.059935 0.204131 0.381675
O O3 0.004003 0.188221 0.683919
O O4 0.190550 0.897665 0.329549
O O5 0.332310 0.706436 0.678067
O O6 0.084588 0.709525 0.792760
O O7 0.222717 0.672693 0.984871
O O8 0.125376 0.972370 0.021557
O O9 0.413650 0.316264 0.538334
O O10 0.281629 0.246316 0.806099
O O11 0.500000 0.000000 0.500000
O O12 0.186469 0.235859 0.108079
O O13 0.466179 0.388916 0.255299
O O14 0.589271 0.058052 0.194140
O O15 0.255353 0.563400 0.212382
O O16 0.558767 0.771599 0.040098
O O17 0.500000 0.500000 0.000000
#
# Coordination Sequence:
#
# PCOD9008330 Si02
#       8
#     2   2   2   2   2   2   2   2
#     4  10  21  40  64  94 122 170 212 261 314 372
#     4   9  17  35  58  93 123 162 207 259 312 366
#     4  10  22  38  66  93 126 165 217 260 308 381
#     4   9  18  35  65  89 120 162 216 258 303 375
#     4  10  21  39  64  93 128 168 214 259 311 385
#     4  10  22  38  64  90 131 165 211 260 315 379
#     4  10  22  40  64  92 123 172 213 259 313 377
#     4  12  24  40  64  97 133 166 209 262 323 378
#
# _framework density 23.786901
#
# number of rings (size 3 to 8) (size 9 to 14) (size 15 to 20)
#    0.000    2.000    1.250    1.875    3.500    6.000 
#    0.000    6.875    0.000    0.000    0.000    0.000 
#    0.000    0.000    0.000    0.000    0.000    0.000 
#
# Total GULP energy -89435.944737 kJ/mol
# GULP energy per Si atom -5589.746546 kJ/mol
# Density = 2.373276 g / cm^3
# Si number density = 23.786901 Si / 1000 Ang^3
#
#
#
# Elastic Constant Matrix: (Units=GPa)
#
#
# Indices 1 2 3 4 5 6 
#
# 1 95.3426 26.4908 33.1271 -4.1406 -7.3989 6.1722
# 2 26.4908 105.5397 34.3686 -17.5287 -10.1869 8.3564
# 3 33.1271 34.3686 74.9013 -22.3197 -0.4394 11.7218
# 4 -4.1406 -17.5287 -22.3197 35.2795 4.2407 1.6655
# 5 -7.3989 -10.1869 -0.4394 4.2407 19.2723 -10.3269
# 6 6.1722 8.3564 11.7218 1.6655 -10.3269 40.7570
#
#
#
# Elastic Compliance Matrix: (Units=1/GPa)
#
#
# Indices 1 2 3 4 5 6 
#
# 1 0.013431 -0.001407 -0.006852 -0.004305 0.006270 0.001990
# 2 -0.001407 0.012108 -0.004160 0.002576 0.005284 0.000161
# 3 -0.006852 -0.004160 0.023717 0.013970 -0.011930 -0.008524
# 4 -0.004305 0.002576 0.013970 0.040015 -0.013585 -0.008971
# 5 0.006270 0.005284 -0.011930 -0.013585 0.070412 0.019794
# 6 0.001990 0.000161 -0.008524 -0.008971 0.019794 0.032035
#
#
# Mechanical properties :
#
#
# Convention : Reuss Voigt Hill
#
# Bulk Modulus (GPa) = 40.95360 51.52851 46.24106
# Shear Modulus (GPa) = 22.25231 31.18156 26.71694
#
# Velocity S-wave (km/s) = 3.06189 3.62452 3.35502
# Velocity P-wave (km/s) = 5.45477 6.26305 5.87283
#
# Compressibility (1/GPa) = 0.02441788
#
# Stress axis : x y z
#
# Youngs Moduli (GPa) = 74.45423 82.58864 42.16352
#
# Poissons Ratio (x) = 0.11623 0.28891
# Poissons Ratio (y) = 0.10478 0.17539
# Poissons Ratio (z) = 0.51017 0.34356
#
# Static dielectric constant tensor:
#      x y z
#    x 1.879230 0.018500 -0.010090 
#    y 0.018500 1.931510 0.062430 
#    z -0.010090 0.062430 1.971460 
# 
# From -- ./inp_files/244979.got.cif
#   From: 2010.05.17/outbox.cif.g08.bks.cpg/sg2_123_cif.got.tgz:244979.got - 2010.06.03 11:33:40.
