data_PCOD9008738
_publ_section_title
;
Structure prediction by ZEFSAII (Michael W. Deem and Ramdas Pophale) SiO2 
 PCOD9008738
Probable space group: P -1
;
_chemical_formula_sum "Si O2"
_cell_formula_units_Z 11
_cell_length_a 7.452712
_cell_length_b 19.289086
_cell_length_c 15.126267
_cell_angle_alpha 20.431291
_cell_angle_beta 33.778048
_cell_angle_gamma 31.723328
_cell_volume 392.185584
_symmetry_space_group_name_H-M "P -1"
_symmetry_group_IT_number 2
_symmetry_cell_setting 'triclinic'
loop_
_space_group_symop_operation_xyz
x,y,z
-x,-y,-z
loop_
_atom_site_type_symbol
_atom_site_label
_atom_site_fract_x
_atom_site_fract_y
_atom_site_fract_z
Si Si1 0.736409 0.750451 0.731052
Si Si2 0.050109 0.025301 0.347098
Si Si3 0.500000 0.500000 0.000000
Si Si4 0.084508 0.708775 0.391206
Si Si5 0.249485 0.265677 0.847475
Si Si6 0.789166 0.184100 0.984692
O O1 0.790791 0.547850 0.890041
O O2 0.500000 0.000000 0.500000
O O3 0.069042 0.806190 0.555268
O O4 0.549154 0.712943 0.940823
O O5 0.730211 0.247394 0.194134
O O6 0.000000 0.000000 0.500000
O O7 0.329089 0.098575 0.095218
O O8 0.962822 0.508713 0.691555
O O9 0.398003 0.688424 0.354753
O O10 0.182919 0.711586 0.244520
O O11 0.814225 0.942322 0.244423
O O12 0.102145 0.182191 0.924262
#
# Coordination Sequence:
#
# PCOD9008738 Si02
#       6
#     2   2   1   2   2   2
#     4  10  21  39  65  96 127 168 220 266 337 391
#     4  11  24  41  67 101 133 169 222 275 335 401
#     4  10  22  42  64  92 130 176 210 268 334 382
#     4  10  25  39  66  94 127 176 218 265 328 384
#     4  11  22  43  61  94 134 166 221 268 321 401
#     4  11  21  43  66  93 129 170 219 272 323 393
#
# _framework density 28.047944999999999
#
# number of rings (size 3 to 8) (size 9 to 14) (size 15 to 20)
#    0.000    1.455    3.636    2.182    5.091    0.727 
#    0.000    3.636    0.000    0.000    0.000    0.000 
#    0.000    0.000    0.000    0.000    0.000    0.000 
#
# Total GULP energy -61277.677977 kJ/mol
# GULP energy per Si atom -5570.697998 kJ/mol
# Density = 2.798411 g / cm^3
# Si number density = 28.047945 Si / 1000 Ang^3
#
#
#
# Elastic Constant Matrix: (Units=GPa)
#
#
# Indices 1 2 3 4 5 6 
#
# 1 109.2995 20.6289 73.9536 -0.5152 -13.0334 30.7026
# 2 20.6289 115.9584 63.1341 -14.3343 -4.6449 56.1447
# 3 73.9536 63.1341 219.0512 -23.7781 -21.1996 52.4623
# 4 -0.5152 -14.3343 -23.7781 50.5548 24.2911 -3.0318
# 5 -13.0334 -4.6449 -21.1996 24.2911 53.5090 -12.7685
# 6 30.7026 56.1447 52.4623 -3.0318 -12.7685 50.9109
#
#
#
# Elastic Compliance Matrix: (Units=1/GPa)
#
#
# Indices 1 2 3 4 5 6 
#
# 1 0.013252 0.003092 -0.003654 -0.001640 0.001008 -0.007481
# 2 0.003092 0.022346 -0.000877 0.008069 -0.007778 -0.027074
# 3 -0.003654 -0.000877 0.007399 0.003185 -0.000530 -0.004397
# 4 -0.001640 0.008069 0.003185 0.030084 -0.015250 -0.013224
# 5 0.001008 -0.007778 -0.000530 -0.015250 0.028492 0.014753
# 6 -0.007481 -0.027074 -0.004397 -0.013224 0.014753 0.061455
#
#
# Mechanical properties :
#
#
# Convention : Reuss Voigt Hill
#
# Bulk Modulus (GPa) = 24.92638 84.41584 54.67111
# Shear Modulus (GPa) = 27.88967 50.10112 38.99539
#
# Velocity S-wave (km/s) = 3.15676 4.23101 3.73273
# Velocity P-wave (km/s) = 4.71097 7.35057 6.17350
#
# Compressibility (1/GPa) = 0.04011814
#
# Stress axis : x y z
#
# Youngs Moduli (GPa) = 75.46206 44.75139 135.15344
#
# Poissons Ratio (x) = -0.13835 0.49382
# Poissons Ratio (y) = -0.23329 0.11851
# Poissons Ratio (z) = 0.27572 0.03924
#
# Static dielectric constant tensor:
#      x y z
#    x 2.492570 -0.113170 0.031430 
#    y -0.113170 1.979690 0.057840 
#    z 0.031430 0.057840 2.160280 
# 
# From -- ./inp_files/33041.got.cif
#   From: 2010.05.17/outbox.cif.g08.bks.cpg/sg2_17_cif.got.tgz:33041.got - 2010.06.03 11:33:40.
