data_PCOD9008312
_publ_section_title
;
Structure prediction by ZEFSAII (Michael W. Deem and Ramdas Pophale) SiO2 
 PCOD9008312
Probable space group: P -1
;
_chemical_formula_sum "Si O2"
_cell_formula_units_Z 16
_cell_length_a 8.392800
_cell_length_b 24.127084
_cell_length_c 7.982146
_cell_angle_alpha 110.435980
_cell_angle_beta 145.585024
_cell_angle_gamma 55.344004
_cell_volume 726.004067
_symmetry_space_group_name_H-M "P -1"
_symmetry_group_IT_number 2
_symmetry_cell_setting 'triclinic'
loop_
_space_group_symop_operation_xyz
x,y,z
-x,-y,-z
loop_
_atom_site_type_symbol
_atom_site_label
_atom_site_fract_x
_atom_site_fract_y
_atom_site_fract_z
Si Si1 0.306167 0.947359 0.418131
Si Si2 0.669345 0.700727 0.385307
Si Si3 0.730850 0.550725 0.956939
Si Si4 0.412159 0.190198 0.295215
Si Si5 0.138201 0.547433 0.600688
Si Si6 0.014964 0.181811 0.659695
Si Si7 0.413657 0.957288 0.144673
Si Si8 0.225306 0.705724 0.707994
O O1 0.556653 0.873460 0.640171
O O2 0.322111 0.936455 0.219988
O O3 0.400089 0.003573 0.603238
O O4 0.922302 0.984894 0.176004
O O5 0.598118 0.752160 0.530514
O O6 0.937218 0.621834 0.597106
O O7 0.866055 0.718174 0.440279
O O8 0.372586 0.705650 0.021251
O O9 0.519776 0.524725 0.859581
O O10 0.449795 0.628683 0.740330
O O11 0.000000 0.500000 0.000000
O O12 0.963549 0.564978 0.288697
O O13 0.762147 0.160015 0.476099
O O14 0.116331 0.215952 0.932140
O O15 0.000000 0.500000 0.500000
O O16 0.354608 0.112674 0.828008
O O17 0.828581 0.234741 0.401162
#
# Coordination Sequence:
#
# PCOD9008312 Si02
#       8
#     2   2   2   2   2   2   2   2
#     4  10  22  40  62  86 116 160 205 242 294 368
#     4  10  22  42  64  86 121 168 210 246 299 376
#     4  10  21  39  64  93 123 161 207 258 314 371
#     4  12  25  39  61  94 126 157 199 257 314 352
#     4  10  21  39  64  93 123 161 207 258 314 371
#     4  12  25  39  61  94 126 157 199 257 314 352
#     4  10  22  40  62  86 116 160 205 242 294 368
#     4  10  22  42  64  86 121 168 210 246 299 376
#
# _framework density 22.038443999999998
#
# number of rings (size 3 to 8) (size 9 to 14) (size 15 to 20)
#    0.000    1.500    0.000    4.500    0.000    7.000 
#    0.000    2.500    0.000    0.000    0.000    0.000 
#    0.000    0.000    0.000    0.000    0.000    0.000 
#
# Total GULP energy -89206.328159 kJ/mol
# GULP energy per Si atom -5575.395510 kJ/mol
# Density = 2.198828 g / cm^3
# Si number density = 22.038444 Si / 1000 Ang^3
#
#
#
# Elastic Constant Matrix: (Units=GPa)
#
#
# Indices 1 2 3 4 5 6 
#
# 1 47.4035 33.6452 7.1828 2.4888 12.9270 -0.9336
# 2 33.6452 98.8971 1.6394 7.5729 -8.4008 -11.5117
# 3 7.1828 1.6394 94.4913 6.9036 9.1098 -5.3772
# 4 2.4888 7.5729 6.9036 17.8027 -0.3628 2.7236
# 5 12.9270 -8.4008 9.1098 -0.3628 25.5041 -1.4766
# 6 -0.9336 -11.5117 -5.3772 2.7236 -1.4766 28.4837
#
#
#
# Elastic Compliance Matrix: (Units=1/GPa)
#
#
# Indices 1 2 3 4 5 6 
#
# 1 0.039915 -0.016789 -0.000842 0.002465 -0.025843 -0.007211
# 2 -0.016789 0.018577 0.000497 -0.006741 0.014845 0.008466
# 3 -0.000842 0.000497 0.011487 -0.005022 -0.003431 0.002644
# 4 0.002465 -0.006741 -0.005022 0.062083 -0.001348 -0.009598
# 5 -0.025843 0.014845 -0.003431 -0.001348 0.058849 0.007685
# 6 -0.007211 0.008466 0.002644 -0.009598 0.007685 0.040108
#
#
# Mechanical properties :
#
#
# Convention : Reuss Voigt Hill
#
# Bulk Modulus (GPa) = 28.00187 36.19184 32.09685
# Shear Modulus (GPa) = 18.03818 27.57975 22.80897
#
# Velocity S-wave (km/s) = 2.86402 3.54141 3.22057
# Velocity P-wave (km/s) = 4.86522 5.76020 5.33152
#
# Compressibility (1/GPa) = 0.03571190
#
# Stress axis : x y z
#
# Youngs Moduli (GPa) = 25.05328 53.82863 87.05855
#
# Poissons Ratio (x) = 0.90371 0.07329
# Poissons Ratio (y) = 0.42061 -0.04326
# Poissons Ratio (z) = 0.02109 -0.02675
#
# Static dielectric constant tensor:
#      x y z
#    x 1.868680 -0.020010 0.007940 
#    y -0.020010 1.939950 -0.080750 
#    z 0.007940 -0.080750 1.833120 
# 
# From -- ./inp_files/226397.got.cif
#   From: 2010.05.17/outbox.cif.g08.bks.cpg/sg2_114_cif.got.tgz:226397.got - 2010.06.03 11:33:40.
