data_PCOD9008729
_publ_section_title
;
Structure prediction by ZEFSAII (Michael W. Deem and Ramdas Pophale) SiO2 
 PCOD9008729
Probable space group: P -1
;
_chemical_formula_sum "Si O2"
_cell_formula_units_Z 14
_cell_length_a 8.710291
_cell_length_b 12.083250
_cell_length_c 16.352581
_cell_angle_alpha 39.635518
_cell_angle_beta 130.970165
_cell_angle_gamma 104.147133
_cell_volume 697.221798
_symmetry_space_group_name_H-M "P -1"
_symmetry_group_IT_number 2
_symmetry_cell_setting 'triclinic'
loop_
_space_group_symop_operation_xyz
x,y,z
-x,-y,-z
loop_
_atom_site_type_symbol
_atom_site_label
_atom_site_fract_x
_atom_site_fract_y
_atom_site_fract_z
Si Si1 0.982203 0.303863 0.615423
Si Si2 0.846061 0.461506 0.031795
Si Si3 0.034608 0.021299 0.406575
Si Si4 0.256890 0.501503 0.418774
Si Si5 0.644373 0.941915 0.236235
Si Si6 0.800332 0.635530 0.093314
Si Si7 0.358780 0.601904 0.708074
O O1 0.904130 0.321082 0.671191
O O2 0.761616 0.359842 0.444757
O O3 0.000000 0.500000 0.500000
O O4 0.241746 0.111137 0.786041
O O5 0.002427 0.234018 0.253057
O O6 0.753298 0.607710 0.997586
O O7 0.639026 0.462114 0.905539
O O8 0.000000 0.500000 0.000000
O O9 0.833719 0.989526 0.314550
O O10 0.000000 0.000000 0.500000
O O11 0.290880 0.828117 0.580480
O O12 0.500000 0.500000 0.500000
O O13 0.321492 0.272807 0.598768
O O14 0.078127 0.566532 0.241845
O O15 0.386344 0.138355 0.061513
O O16 0.763911 0.481641 0.225902
#
# Coordination Sequence:
#
# PCOD9008729 Si02
#       7
#     2   2   2   2   2   2   2
#     4   9  19  41  63  95 121 166 221 264 314 384
#     4  12  27  41  62 104 138 166 215 280 335 383
#     4  11  19  39  69  91 124 177 219 259 319 394
#     4  11  24  43  64  94 137 167 212 276 334 382
#     4  10  21  39  65  96 118 169 227 260 316 391
#     4  12  22  42  68  94 128 176 220 267 323 396
#     4  11  21  40  68  91 126 174 224 264 315 396
#
# _framework density 20.079692999999999
#
# number of rings (size 3 to 8) (size 9 to 14) (size 15 to 20)
#    0.000    1.143    7.143    1.286    2.000    1.714 
#    5.143    0.000    0.000    0.000    0.000    0.000 
#    0.000    0.000    0.000    0.000    0.000    0.000 
#
# Total GULP energy -77945.050377 kJ/mol
# GULP energy per Si atom -5567.503598 kJ/mol
# Density = 2.003399 g / cm^3
# Si number density = 20.079693 Si / 1000 Ang^3
#
#
#
# Elastic Constant Matrix: (Units=GPa)
#
#
# Indices 1 2 3 4 5 6 
#
# 1 65.3456 27.9626 15.3189 -8.3227 -3.8386 11.5470
# 2 27.9626 82.0256 22.5726 -8.8809 -1.8247 -8.9601
# 3 15.3189 22.5726 76.9183 -17.9767 -2.5554 0.0689
# 4 -8.3227 -8.8809 -17.9767 44.5696 -2.1171 7.4414
# 5 -3.8386 -1.8247 -2.5554 -2.1171 22.4724 3.8413
# 6 11.5470 -8.9601 0.0689 7.4414 3.8413 30.6893
#
#
#
# Elastic Compliance Matrix: (Units=1/GPa)
#
#
# Indices 1 2 3 4 5 6 
#
# 1 0.022027 -0.008039 -0.000770 0.004541 0.005575 -0.012432
# 2 -0.008039 0.016685 -0.003636 -0.001145 -0.001981 0.008430
# 3 -0.000770 -0.003636 0.015706 0.006006 0.002362 -0.002559
# 4 0.004541 -0.001145 0.006006 0.027307 0.005540 -0.009371
# 5 0.005575 -0.001981 0.002362 0.005540 0.047791 -0.010006
# 6 -0.012432 0.008430 -0.002559 -0.009371 -0.010006 0.043254
#
#
# Mechanical properties :
#
#
# Convention : Reuss Voigt Hill
#
# Bulk Modulus (GPa) = 33.86767 39.55528 36.71148
# Shear Modulus (GPa) = 24.09599 30.10862 27.10230
#
# Velocity S-wave (km/s) = 3.46789 3.87648 3.67786
# Velocity P-wave (km/s) = 5.73918 6.30699 6.02977
#
# Compressibility (1/GPa) = 0.02952668
#
# Stress axis : x y z
#
# Youngs Moduli (GPa) = 45.39966 59.93238 63.67120
#
# Poissons Ratio (x) = 0.48182 0.04902
# Poissons Ratio (y) = 0.36498 0.23153
# Poissons Ratio (z) = 0.03495 0.21793
#
# Static dielectric constant tensor:
#      x y z
#    x 1.729620 -0.060250 0.035880 
#    y -0.060250 1.779790 -0.011460 
#    z 0.035880 -0.011460 1.746270 
# 
# From -- ./inp_files/236538.got.cif
#   From: 2010.05.17/outbox.cif.g08.bks.cpg/sg2_119_cif.got.tgz:236538.got - 2010.06.03 11:33:40.
