data_PCOD9008110
_publ_section_title
;
Structure prediction by ZEFSAII (Michael W. Deem and Ramdas Pophale) SiO2 
 PCOD9008110
Probable space group: P -1
;
_chemical_formula_sum "Si O2"
_cell_formula_units_Z 16
_cell_length_a 9.569723
_cell_length_b 18.744812
_cell_length_c 15.488798
_cell_angle_alpha 149.506263
_cell_angle_beta 37.394597
_cell_angle_gamma 140.818451
_cell_volume 818.422159
_symmetry_space_group_name_H-M "P -1"
_symmetry_group_IT_number 2
_symmetry_cell_setting 'triclinic'
loop_
_space_group_symop_operation_xyz
x,y,z
-x,-y,-z
loop_
_atom_site_type_symbol
_atom_site_label
_atom_site_fract_x
_atom_site_fract_y
_atom_site_fract_z
Si Si1 0.988005 0.711243 0.196253
Si Si2 0.091508 0.355634 0.299984
Si Si3 0.765290 0.275069 0.219923
Si Si4 0.199423 0.213307 0.448756
Si Si5 0.532702 0.336867 0.814718
Si Si6 0.371870 0.601553 0.979678
Si Si7 0.013998 0.126752 0.803048
Si Si8 0.956833 0.626671 0.467707
O O1 0.881352 0.738777 0.369398
O O2 0.799946 0.564148 0.096753
O O3 0.022185 0.839405 0.244024
O O4 0.236743 0.674624 0.053448
O O5 0.363894 0.397360 0.176890
O O6 0.088883 0.304925 0.347298
O O7 0.000000 0.500000 0.500000
O O8 0.916487 0.255738 0.210584
O O9 0.481733 0.225601 0.324761
O O10 0.845842 0.449857 0.341854
O O11 0.844337 0.192153 0.015078
O O12 0.150058 0.312641 0.498857
O O13 0.047197 0.045643 0.331948
O O14 0.287184 0.216839 0.785814
O O15 0.756568 0.338323 0.646798
O O16 0.500000 0.500000 0.000000
O O17 0.605592 0.314404 0.853413
#
# Coordination Sequence:
#
# PCOD9008110 Si02
#       8
#     2   2   2   2   2   2   2   2
#     4  11  24  40  66  96 129 172 211 268 323 376
#     4  10  21  39  64 100 125 164 212 273 318 365
#     4  11  23  43  68  93 129 174 218 259 318 387
#     4  12  27  44  60 101 137 167 213 262 330 386
#     4  12  20  42  69  93 124 166 222 263 312 377
#     4  11  21  40  67  98 127 159 227 272 306 379
#     4  12  26  43  68  92 134 177 206 267 328 385
#     4  11  23  41  69  97 126 168 219 270 314 373
#
# _framework density 19.549813
#
# number of rings (size 3 to 8) (size 9 to 14) (size 15 to 20)
#    0.000    0.750    5.000    3.375    5.250    0.500 
#    0.000    0.625    0.000    0.000    0.000    0.000 
#    0.000    0.000    0.000    0.000    0.000    0.000 
#
# Total GULP energy -89446.200045 kJ/mol
# GULP energy per Si atom -5590.387503 kJ/mol
# Density = 1.950532 g / cm^3
# Si number density = 19.549813 Si / 1000 Ang^3
#
#
#
# Elastic Constant Matrix: (Units=GPa)
#
#
# Indices 1 2 3 4 5 6 
#
# 1 82.5666 10.2141 19.4564 -5.1971 15.5426 1.5091
# 2 10.2141 50.2743 23.4850 -4.4766 5.1091 21.2365
# 3 19.4564 23.4850 21.5479 -4.0819 10.9674 5.0569
# 4 -5.1971 -4.4766 -4.0819 37.4347 2.0161 -2.8101
# 5 15.5426 5.1091 10.9674 2.0161 19.7349 -19.8057
# 6 1.5091 21.2365 5.0569 -2.8101 -19.8057 42.9155
#
#
#
# Elastic Compliance Matrix: (Units=1/GPa)
#
#
# Indices 1 2 3 4 5 6 
#
# 1 0.021879 0.016469 0.003381 0.005884 -0.061357 -0.037249
# 2 0.016469 0.069554 -0.024719 0.007315 -0.092590 -0.074336
# 3 0.003381 -0.024719 0.285985 0.033616 -0.331728 -0.172478
# 4 0.005884 0.007315 0.033616 0.032872 -0.063749 -0.035055
# 5 -0.061357 -0.092590 -0.331728 -0.063749 0.739551 0.424196
# 6 -0.037249 -0.074336 -0.172478 -0.035055 0.424196 0.275193
#
#
# Mechanical properties :
#
#
# Convention : Reuss Voigt Hill
#
# Bulk Modulus (GPa) = 2.71976 28.96662 15.84319
# Shear Modulus (GPa) = 3.21062 26.76591 14.98827
#
# Velocity S-wave (km/s) = 1.28290 3.70417 2.77189
# Velocity P-wave (km/s) = 1.89438 5.75704 4.28557
#
# Compressibility (1/GPa) = 0.36767964
#
# Stress axis : x y z
#
# Youngs Moduli (GPa) = 45.70670 14.37740 3.49668
#
# Poissons Ratio (x) = -0.23679 -0.01182
# Poissons Ratio (y) = -0.75276 0.08644
# Poissons Ratio (z) = -0.15453 0.35540
#
# Static dielectric constant tensor:
#      x y z
#    x 1.720540 -0.024190 0.013860 
#    y -0.024190 1.662190 -0.006700 
#    z 0.013860 -0.006700 1.667020 
# 
# From -- ./inp_files/205063.got.cif
#   From: 2010.05.17/outbox.cif.g08.bks.cpg/sg2_103_cif.got.tgz:205063.got - 2010.06.03 11:33:40.
