data_PCOD9008454
_publ_section_title
;
Structure prediction by ZEFSAII (Michael W. Deem and Ramdas Pophale) SiO2 
 PCOD9008454
Probable space group: P -1
;
_chemical_formula_sum "Si O2"
_cell_formula_units_Z 14
_cell_length_a 26.897788
_cell_length_b 7.296132
_cell_length_c 5.107964
_cell_angle_alpha 116.462867
_cell_angle_beta 113.320104
_cell_angle_gamma 47.752247
_cell_volume 657.253134
_symmetry_space_group_name_H-M "P -1"
_symmetry_group_IT_number 2
_symmetry_cell_setting 'triclinic'
loop_
_space_group_symop_operation_xyz
x,y,z
-x,-y,-z
loop_
_atom_site_type_symbol
_atom_site_label
_atom_site_fract_x
_atom_site_fract_y
_atom_site_fract_z
Si Si1 0.746201 0.032445 0.928134
Si Si2 0.820202 0.681277 0.346885
Si Si3 0.049208 0.869638 0.263971
Si Si4 0.414021 0.602272 0.121612
Si Si5 0.482528 0.268773 0.547565
Si Si6 0.076020 0.375454 0.161855
Si Si7 0.839762 0.177640 0.256673
O O1 0.780930 0.816780 0.087245
O O2 0.770668 0.208067 0.163488
O O3 0.776306 0.885079 0.620609
O O4 0.665719 0.200798 0.873695
O O5 0.894377 0.621943 0.493048
O O6 0.828614 0.421058 0.251601
O O7 0.085724 0.566858 0.150498
O O8 0.110967 0.887759 0.435715
O O9 0.000000 0.000000 0.500000
O O10 0.000000 0.000000 0.000000
O O11 0.447835 0.373012 0.258934
O O12 0.451156 0.736557 0.318995
O O13 0.432226 0.480283 0.793640
O O14 0.500000 0.000000 0.500000
O O15 0.000000 0.500000 0.000000
O O16 0.116521 0.082633 0.983182
#
# Coordination Sequence:
#
# PCOD9008454 Si02
#       7
#     2   2   2   2   2   2   2
#     4  11  24  43  64  90 126 167 207 252 310 363
#     4  10  25  41  60  90 120 159 211 257 305 381
#     4  11  24  39  60  87 112 149 199 248 309 374
#     4  10  22  39  63  95 129 166 209 251 294 366
#     4  10  21  39  64  98 132 164 206 250 299 354
#     4  10  21  40  63  85 115 154 199 255 320 369
#     4  10  24  42  62  88 124 156 205 261 315 372
#
# _framework density 21.300773
#
# number of rings (size 3 to 8) (size 9 to 14) (size 15 to 20)
#    0.000    1.714    1.429    1.286    2.000   12.000 
#    0.000    0.000    0.000    0.000    0.000    0.000 
#    0.000    0.000    0.000    0.000    0.000    0.000 
#
# Total GULP energy -78191.904255 kJ/mol
# GULP energy per Si atom -5585.136018 kJ/mol
# Density = 2.125229 g / cm^3
# Si number density = 21.300773 Si / 1000 Ang^3
#
#
#
# Elastic Constant Matrix: (Units=GPa)
#
#
# Indices 1 2 3 4 5 6 
#
# 1 100.4393 43.6039 36.6599 3.1864 17.6331 -14.9171
# 2 43.6039 101.0739 23.3692 8.8969 25.7499 20.0645
# 3 36.6599 23.3692 81.7850 -1.8192 -7.3315 -0.1980
# 4 3.1864 8.8969 -1.8192 32.5984 7.5983 3.1223
# 5 17.6331 25.7499 -7.3315 7.5983 31.3929 -3.7246
# 6 -14.9171 20.0645 -0.1980 3.1223 -3.7246 43.1593
#
#
#
# Elastic Compliance Matrix: (Units=1/GPa)
#
#
# Indices 1 2 3 4 5 6 
#
# 1 0.017112 -0.006373 -0.006264 0.000042 -0.004858 0.008426
# 2 -0.006373 0.020161 -0.004325 -0.000288 -0.015429 -0.012906
# 3 -0.006264 -0.004325 0.017277 0.000064 0.011190 0.000886
# 4 0.000042 -0.000288 0.000064 0.032920 -0.008088 -0.002931
# 5 -0.004858 -0.015429 0.011190 -0.008088 0.053080 0.010711
# 6 0.008426 -0.012906 0.000886 -0.002931 0.010711 0.033223
#
#
# Mechanical properties :
#
#
# Convention : Reuss Voigt Hill
#
# Bulk Modulus (GPa) = 48.47863 54.50714 51.49289
# Shear Modulus (GPa) = 23.30215 33.40779 28.35497
#
# Velocity S-wave (km/s) = 3.31109 3.96458 3.65248
# Velocity P-wave (km/s) = 6.11770 6.82657 6.48183
#
# Compressibility (1/GPa) = 0.02062765
#
# Stress axis : x y z
#
# Youngs Moduli (GPa) = 58.43849 49.60035 57.87945
#
# Poissons Ratio (x) = 0.31610 0.36253
# Poissons Ratio (y) = 0.37243 0.25033
# Poissons Ratio (z) = 0.36603 0.21452
#
# Static dielectric constant tensor:
#      x y z
#    x 1.823820 0.023480 0.001180 
#    y 0.023480 1.722870 -0.021750 
#    z 0.001180 -0.021750 1.775790 
# 
# From -- ./inp_files/14030.got.cif
#   From: 2010.05.17/outbox.cif.g08.bks.cpg/sg2_8_cif.got.tgz:14030.got - 2010.06.03 11:33:40.
