data_PCOD9008467
_publ_section_title
;
Structure prediction by ZEFSAII (Michael W. Deem and Ramdas Pophale) SiO2 
 PCOD9008467
Probable space group: P -1
;
_chemical_formula_sum "Si O2"
_cell_formula_units_Z 16
_cell_length_a 8.625252
_cell_length_b 8.066545
_cell_length_c 20.754354
_cell_angle_alpha 129.609793
_cell_angle_beta 149.172357
_cell_angle_gamma 52.392815
_cell_volume 562.840872
_symmetry_space_group_name_H-M "P -1"
_symmetry_group_IT_number 2
_symmetry_cell_setting 'triclinic'
loop_
_space_group_symop_operation_xyz
x,y,z
-x,-y,-z
loop_
_atom_site_type_symbol
_atom_site_label
_atom_site_fract_x
_atom_site_fract_y
_atom_site_fract_z
Si Si1 0.492516 0.339350 0.560596
Si Si2 0.381711 0.102860 0.648759
Si Si3 0.826190 0.207602 0.402437
Si Si4 0.875713 0.005367 0.715173
Si Si5 0.422618 0.081293 0.867304
Si Si6 0.873718 0.709298 0.921117
Si Si7 0.052725 0.530226 0.799594
Si Si8 0.509132 0.479263 0.150865
O O1 0.287916 0.538258 0.573854
O O2 0.254588 0.212786 0.406658
O O3 0.758087 0.439555 0.641297
O O4 0.709384 0.183044 0.648502
O O5 0.307632 0.325511 0.715821
O O6 0.187237 0.137220 0.522648
O O7 0.302997 0.896838 0.606406
O O8 0.734212 0.069600 0.749392
O O9 0.717415 0.073199 0.272562
O O10 0.227354 0.035904 0.848264
O O11 0.772386 0.968058 0.961301
O O12 0.307008 0.326739 0.864762
O O13 0.618100 0.616144 0.852447
O O14 0.900092 0.650734 0.839637
O O15 0.198957 0.592347 0.033878
O O16 0.253251 0.645633 0.848342
#
# Coordination Sequence:
#
# PCOD9008467 Si02
#       8
#     2   2   2   2   2   2   2   2
#     4  10  21  39  64  99 135 175 230 277 342 424
#     4  11  24  42  61  98 139 177 224 288 339 411
#     4  11  23  39  66  96 138 180 222 278 350 413
#     4  10  23  38  64  97 139 176 223 285 344 409
#     4  11  23  44  67 101 133 183 230 282 348 412
#     4  11  26  47  71 103 134 184 238 285 347 407
#     4  11  22  46  72  99 140 179 227 292 347 408
#     4  11  25  46  71  99 139 181 234 289 341 410
#
# _framework density 28.427216000000001
#
# number of rings (size 3 to 8) (size 9 to 14) (size 15 to 20)
#    0.000    1.250    2.500    4.125    3.500    3.000 
#    0.000    5.625    0.000    0.000    0.000    0.000 
#    0.000    0.000    0.000    0.000    0.000    0.000 
#
# Total GULP energy -89601.826754 kJ/mol
# GULP energy per Si atom -5600.114172 kJ/mol
# Density = 2.836251 g / cm^3
# Si number density = 28.427216 Si / 1000 Ang^3
#
#
#
# Elastic Constant Matrix: (Units=GPa)
#
#
# Indices 1 2 3 4 5 6 
#
# 1 179.0969 44.3511 41.3277 -1.9388 54.7642 -15.1200
# 2 44.3511 134.2220 21.5916 -4.5116 13.9721 -11.0938
# 3 41.3277 21.5916 88.1035 -1.7196 16.0129 16.9039
# 4 -1.9388 -4.5116 -1.7196 39.0570 -1.2903 4.1037
# 5 54.7642 13.9721 16.0129 -1.2903 58.1087 -2.1264
# 6 -15.1200 -11.0938 16.9039 4.1037 -2.1264 41.1424
#
#
#
# Elastic Compliance Matrix: (Units=1/GPa)
#
#
# Indices 1 2 3 4 5 6 
#
# 1 0.009340 -0.001432 -0.003502 -0.000536 -0.007353 0.004159
# 2 -0.001432 0.008449 -0.001845 0.000564 -0.000072 0.002450
# 3 -0.003502 -0.001845 0.015162 0.001115 -0.000708 -0.008162
# 4 -0.000536 0.000564 0.001115 0.026031 0.000528 -0.003072
# 5 -0.007353 -0.000072 -0.000708 0.000528 0.024318 -0.001227
# 6 0.004159 0.002450 -0.008162 -0.003072 -0.001227 0.030091
#
#
# Mechanical properties :
#
#
# Convention : Reuss Voigt Hill
#
# Bulk Modulus (GPa) = 51.56665 68.44036 60.00351
# Shear Modulus (GPa) = 37.47743 47.27175 42.37459
#
# Velocity S-wave (km/s) = 3.63487 4.08230 3.86506
# Velocity P-wave (km/s) = 5.98294 6.80794 6.40873
#
# Compressibility (1/GPa) = 0.01939238
#
# Stress axis : x y z
#
# Youngs Moduli (GPa) = 107.06761 118.35487 65.95575
#
# Poissons Ratio (x) = 0.16944 0.23100
# Poissons Ratio (y) = 0.15329 0.12170
# Poissons Ratio (z) = 0.37499 0.21838
#
# Static dielectric constant tensor:
#      x y z
#    x 2.270160 -0.006300 0.037540 
#    y -0.006300 2.227310 -0.002270 
#    z 0.037540 -0.002270 2.303940 
# 
# From -- ./inp_files/606833.got.cif
#   From: 2010.05.17/outbox.cif.g08.bks.cpg/sg2_304_cif.got.tgz:606833.got - 2010.06.03 11:33:40.
