data_PCOD9008533
_publ_section_title
;
Structure prediction by ZEFSAII (Michael W. Deem and Ramdas Pophale) SiO2 
 PCOD9008533
Probable space group: P -1
;
_chemical_formula_sum "Si O2"
_cell_formula_units_Z 16
_cell_length_a 8.286182
_cell_length_b 9.374592
_cell_length_c 14.208449
_cell_angle_alpha 67.216591
_cell_angle_beta 39.817150
_cell_angle_gamma 70.141007
_cell_volume 649.931358
_symmetry_space_group_name_H-M "P -1"
_symmetry_group_IT_number 2
_symmetry_cell_setting 'triclinic'
loop_
_space_group_symop_operation_xyz
x,y,z
-x,-y,-z
loop_
_atom_site_type_symbol
_atom_site_label
_atom_site_fract_x
_atom_site_fract_y
_atom_site_fract_z
Si Si1 0.950499 0.336503 0.610808
Si Si2 0.091021 0.211151 0.881725
Si Si3 0.161646 0.067363 0.692513
Si Si4 0.478883 0.503591 0.121773
Si Si5 0.341091 0.772350 0.774292
Si Si6 0.015966 0.570208 0.839555
Si Si7 0.015312 0.146050 0.331479
Si Si8 0.663389 0.116367 0.657136
O O1 0.746574 0.380256 0.772224
O O2 0.816512 0.233162 0.620900
O O3 0.000000 0.500000 0.500000
O O4 0.178806 0.224406 0.582172
O O5 0.032450 0.133941 0.828609
O O6 0.369913 0.143395 0.801124
O O7 0.103858 0.396201 0.817701
O O8 0.881740 0.188915 0.059297
O O9 0.378209 0.938015 0.665807
O O10 0.996441 0.957866 0.730769
O O11 0.462584 0.339336 0.225362
O O12 0.500000 0.500000 0.000000
O O13 0.753156 0.560729 0.016199
O O14 0.224666 0.660212 0.777709
O O15 0.943829 0.678965 0.755647
O O16 0.750001 0.147311 0.504378
O O17 0.226919 0.056220 0.322733
#
# Coordination Sequence:
#
# PCOD9008533 Si02
#       8
#     2   2   2   2   2   2   2   2
#     4  11  24  43  64  93 129 166 214 263 307 374
#     4  11  21  37  65  94 122 161 207 266 308 372
#     4  10  23  42  60  92 127 163 208 261 312 370
#     4  11  23  39  65  97 125 165 208 257 318 370
#     4  10  21  42  63  91 131 161 206 257 319 376
#     4  10  21  39  65  88 125 160 213 250 318 368
#     4   9  22  42  59  86 127 173 201 257 308 386
#     4  10  22  40  63  86 128 164 214 248 323 367
#
# _framework density 24.617982999999999
#
# number of rings (size 3 to 8) (size 9 to 14) (size 15 to 20)
#    0.000    1.750    0.000    4.875    3.500    3.000 
#    9.000    3.750    0.000    0.000    0.000    0.000 
#    0.000    0.000    0.000    0.000    0.000    0.000 
#
# Total GULP energy -89459.535231 kJ/mol
# GULP energy per Si atom -5591.220952 kJ/mol
# Density = 2.456195 g / cm^3
# Si number density = 24.617983 Si / 1000 Ang^3
#
#
#
# Elastic Constant Matrix: (Units=GPa)
#
#
# Indices 1 2 3 4 5 6 
#
# 1 79.6533 54.8708 28.1440 -7.1943 16.3232 -4.7377
# 2 54.8708 176.2940 51.0277 -17.4694 13.4745 -19.9066
# 3 28.1440 51.0277 54.9520 12.1718 3.9711 -3.9018
# 4 -7.1943 -17.4694 12.1718 57.3841 -10.5274 14.2246
# 5 16.3232 13.4745 3.9711 -10.5274 30.8240 2.6847
# 6 -4.7377 -19.9066 -3.9018 14.2246 2.6847 61.2773
#
#
#
# Elastic Compliance Matrix: (Units=1/GPa)
#
#
# Indices 1 2 3 4 5 6 
#
# 1 0.018630 -0.003313 -0.006249 0.001350 -0.007148 -0.000034
# 2 -0.003313 0.009538 -0.007865 0.003742 -0.000253 0.001484
# 3 -0.006249 -0.007865 0.031143 -0.010289 -0.000898 0.001372
# 4 0.001350 0.003742 -0.010289 0.023559 0.007468 -0.005131
# 5 -0.007148 -0.000253 -0.000898 0.007468 0.039366 -0.004150
# 6 -0.000034 0.001484 0.001372 -0.005131 -0.004150 0.018259
#
#
# Mechanical properties :
#
#
# Convention : Reuss Voigt Hill
#
# Bulk Modulus (GPa) = 40.89146 64.33157 52.61152
# Shear Modulus (GPa) = 27.24769 41.68753 34.46761
#
# Velocity S-wave (km/s) = 3.33050 4.11953 3.74585
# Velocity P-wave (km/s) = 5.60679 6.98685 6.33452
#
# Compressibility (1/GPa) = 0.02445498
#
# Stress axis : x y z
#
# Youngs Moduli (GPa) = 53.67780 104.84601 32.10991
#
# Poissons Ratio (x) = 0.34739 0.20067
# Poissons Ratio (y) = 0.17785 0.25255
# Poissons Ratio (z) = 0.33546 0.82462
#
# Static dielectric constant tensor:
#      x y z
#    x 2.037530 -0.023350 0.022950 
#    y -0.023350 1.933750 -0.046730 
#    z 0.022950 -0.046730 1.944190 
# 
# From -- ./inp_files/494565.got.cif
#   From: 2010.05.17/outbox.cif.g08.bks.cpg/sg2_248_cif.got.tgz:494565.got - 2010.06.03 11:33:40.
