data_PCOD9008783
_publ_section_title
;
Structure prediction by ZEFSAII (Michael W. Deem and Ramdas Pophale) SiO2 
 PCOD9008783
Probable space group: P -1
;
_chemical_formula_sum "Si O2"
_cell_formula_units_Z 16
_cell_length_a 32.447875
_cell_length_b 4.976040
_cell_length_c 9.695011
_cell_angle_alpha 78.792860
_cell_angle_beta 30.107594
_cell_angle_gamma 89.524584
_cell_volume 728.488150
_symmetry_space_group_name_H-M "P -1"
_symmetry_group_IT_number 2
_symmetry_cell_setting 'triclinic'
loop_
_space_group_symop_operation_xyz
x,y,z
-x,-y,-z
loop_
_atom_site_type_symbol
_atom_site_label
_atom_site_fract_x
_atom_site_fract_y
_atom_site_fract_z
Si Si1 0.760610 0.399739 0.490673
Si Si2 0.798788 0.025237 0.202703
Si Si3 0.414180 0.155569 0.636072
Si Si4 0.987068 0.106779 0.679419
Si Si5 0.930114 0.636384 0.131909
Si Si6 0.246103 0.916254 0.986035
Si Si7 0.856502 0.715318 0.616910
Si Si8 0.601134 0.437329 0.128483
O O1 0.789880 0.690859 0.284314
O O2 0.840948 0.409691 0.355952
O O3 0.744616 0.128636 0.463918
O O4 0.680411 0.422946 0.808352
O O5 0.901072 0.199643 0.913446
O O6 0.768751 0.071391 0.134090
O O7 0.511410 0.372394 0.309483
O O8 0.382368 0.278167 0.854670
O O9 0.418744 0.836681 0.683629
O O10 0.341820 0.112009 0.734044
O O11 0.073620 0.331180 0.471300
O O12 0.000000 0.000000 0.500000
O O13 0.967904 0.851320 0.874444
O O14 0.900201 0.785787 0.334001
O O15 0.000000 0.500000 0.000000
O O16 0.222904 0.583346 0.131381
O O17 0.177996 0.038967 0.248311
#
# Coordination Sequence:
#
# PCOD9008783 Si02
#       8
#     2   2   2   2   2   2   2   2
#     4  11  23  42  63  90 129 170 211 259 329 377
#     4  11  25  41  61  90 126 172 216 259 308 404
#     4  10  21  39  65  98 125 157 206 268 315 389
#     4  11  24  44  63  91 132 176 217 265 327 387
#     4  11  24  41  64  97 128 165 223 277 317 378
#     4  12  24  41  65  93 128 164 217 261 326 371
#     4  12  25  41  67  92 128 170 219 269 320 376
#     4  10  21  40  67  94 125 162 206 256 333 381
#
# _framework density 21.963294999999999
#
# number of rings (size 3 to 8) (size 9 to 14) (size 15 to 20)
#    0.000    1.000    1.250    5.625    1.750    5.500 
#    0.000    1.250    0.000    0.000    0.000    0.000 
#    0.000    0.000    0.000    0.000    0.000    0.000 
#
# Total GULP energy -89565.756663 kJ/mol
# GULP energy per Si atom -5597.859791 kJ/mol
# Density = 2.191331 g / cm^3
# Si number density = 21.963295 Si / 1000 Ang^3
#
#
#
# Elastic Constant Matrix: (Units=GPa)
#
#
# Indices 1 2 3 4 5 6 
#
# 1 148.5389 22.3059 63.0453 4.3364 -6.8531 14.8635
# 2 22.3059 74.5595 7.5175 11.3940 5.2114 8.2424
# 3 63.0453 7.5175 95.0083 20.2595 -11.2585 7.3080
# 4 4.3364 11.3940 20.2595 33.8639 3.3287 3.0834
# 5 -6.8531 5.2114 -11.2585 3.3287 42.6661 -1.3810
# 6 14.8635 8.2424 7.3080 3.0834 -1.3810 31.5253
#
#
#
# Elastic Compliance Matrix: (Units=1/GPa)
#
#
# Indices 1 2 3 4 5 6 
#
# 1 0.010456 -0.002686 -0.007473 0.004342 -0.000398 -0.002937
# 2 -0.002686 0.015271 0.001767 -0.005462 -0.001491 -0.002667
# 3 -0.007473 0.001767 0.018170 -0.010934 0.004235 0.000104
# 4 0.004342 -0.005462 -0.010934 0.037982 -0.004549 -0.001999
# 5 -0.000398 -0.001491 0.004235 -0.004549 0.025065 0.001139
# 6 -0.002937 -0.002667 0.000104 -0.001999 0.001139 0.034024
#
#
# Mechanical properties :
#
#
# Convention : Reuss Voigt Hill
#
# Bulk Modulus (GPa) = 36.88169 55.98269 46.43219
# Shear Modulus (GPa) = 29.97780 36.62692 33.30236
#
# Velocity S-wave (km/s) = 3.69847 4.08811 3.89816
# Velocity P-wave (km/s) = 5.92175 6.91578 6.43798
#
# Compressibility (1/GPa) = 0.02711373
#
# Stress axis : x y z
#
# Youngs Moduli (GPa) = 95.63651 65.48294 55.03593
#
# Poissons Ratio (x) = 0.17587 0.41130
# Poissons Ratio (y) = 0.25685 -0.09725
# Poissons Ratio (z) = 0.71471 -0.11572
#
# Static dielectric constant tensor:
#      x y z
#    x 1.790120 0.009110 -0.037790 
#    y 0.009110 1.808070 -0.037730 
#    z -0.037790 -0.037730 1.839240 
# 
# From -- ./inp_files/110706.got.cif
#   From: 2010.05.17/outbox.cif.g08.bks.cpg/sg2_56_cif.got.tgz:110706.got - 2010.06.03 11:33:40.
