data_PCOD9008302
_publ_section_title
;
Structure prediction by ZEFSAII (Michael W. Deem and Ramdas Pophale) SiO2 
 PCOD9008302
Probable space group: P -1
;
_chemical_formula_sum "Si O2"
_cell_formula_units_Z 16
_cell_length_a 7.654822
_cell_length_b 8.817643
_cell_length_c 13.936412
_cell_angle_alpha 62.490280
_cell_angle_beta 109.789558
_cell_angle_gamma 70.900980
_cell_volume 639.811794
_symmetry_space_group_name_H-M "P -1"
_symmetry_group_IT_number 2
_symmetry_cell_setting 'triclinic'
loop_
_space_group_symop_operation_xyz
x,y,z
-x,-y,-z
loop_
_atom_site_type_symbol
_atom_site_label
_atom_site_fract_x
_atom_site_fract_y
_atom_site_fract_z
Si Si1 0.261798 0.934799 0.793335
Si Si2 0.489195 0.133372 0.807073
Si Si3 0.401809 0.665597 0.068840
Si Si4 0.130580 0.414987 0.293491
Si Si5 0.606777 0.243892 0.326045
Si Si6 0.947026 0.687185 0.006271
Si Si7 0.400561 0.361373 0.533570
Si Si8 0.173259 0.998772 0.381762
O O1 0.336638 0.915055 0.702602
O O2 0.011922 0.989370 0.724056
O O3 0.293619 0.099814 0.799097
O O4 0.416043 0.723688 0.945971
O O5 0.573154 0.188253 0.899110
O O6 0.396626 0.315021 0.657436
O O7 0.709552 0.907757 0.878084
O O8 0.584716 0.432841 0.209885
O O9 0.155025 0.708935 0.025164
O O10 0.365730 0.334046 0.303953
O O11 0.948200 0.610635 0.137026
O O12 0.178546 0.450796 0.400310
O O13 0.105569 0.224757 0.334780
O O14 0.785575 0.136782 0.476116
O O15 0.000000 0.500000 0.000000
O O16 0.500000 0.500000 0.500000
O O17 0.586215 0.133563 0.588366
#
# Coordination Sequence:
#
# PCOD9008302 Si02
#       8
#     2   2   2   2   2   2   2   2
#     4  12  24  39  60  87 124 168 201 243 298 360
#     4  12  24  42  62  89 127 163 198 248 303 359
#     4  11  24  41  60  89 123 161 204 249 300 359
#     4  10  21  39  64  93 118 151 204 258 300 351
#     4  10  21  40  63  89 120 157 204 255 300 353
#     4  11  22  40  66  93 118 155 206 257 301 353
#     4  11  22  41  67  92 119 156 199 251 306 358
#     4  11  22  40  63  92 122 155 202 251 301 359
#
# _framework density 25.007352999999998
#
# number of rings (size 3 to 8) (size 9 to 14) (size 15 to 20)
#    0.000    1.000    0.000   10.500    0.000    2.000 
#    0.000    3.750    0.000    0.000    0.000    0.000 
#    0.000    0.000    0.000    0.000    0.000    0.000 
#
# Total GULP energy -89627.214719 kJ/mol
# GULP energy per Si atom -5601.700920 kJ/mol
# Density = 2.495044 g / cm^3
# Si number density = 25.007353 Si / 1000 Ang^3
#
#
#
# Elastic Constant Matrix: (Units=GPa)
#
#
# Indices 1 2 3 4 5 6 
#
# 1 45.0892 26.2120 34.1524 -4.0698 3.3151 19.9925
# 2 26.2120 103.2609 38.3395 18.5608 8.8495 31.9567
# 3 34.1524 38.3395 177.6213 15.9332 -28.7018 24.1241
# 4 -4.0698 18.5608 15.9332 38.8184 3.7649 -0.8284
# 5 3.3151 8.8495 -28.7018 3.7649 36.6736 2.1385
# 6 19.9925 31.9567 24.1241 -0.8284 2.1385 50.3297
#
#
#
# Elastic Compliance Matrix: (Units=1/GPa)
#
#
# Indices 1 2 3 4 5 6 
#
# 1 0.034773 -0.005296 -0.006732 0.009546 -0.007721 -0.006738
# 2 -0.005296 0.015149 -0.001130 -0.007201 -0.002916 -0.006968
# 3 -0.006732 -0.001130 0.009198 -0.004812 0.008659 -0.001464
# 4 0.009546 -0.007201 -0.004812 0.032893 -0.006496 0.003904
# 5 -0.007721 -0.002916 0.008659 -0.006496 0.036164 -0.000876
# 6 -0.006738 -0.006968 -0.001464 0.003904 -0.000876 0.027773
#
#
# Mechanical properties :
#
#
# Convention : Reuss Voigt Hill
#
# Bulk Modulus (GPa) = 30.48501 58.15324 44.31913
# Shear Modulus (GPa) = 25.87980 40.31551 33.09765
#
# Velocity S-wave (km/s) = 3.22046 4.01951 3.64196
# Velocity P-wave (km/s) = 5.10346 6.69678 5.95366
#
# Compressibility (1/GPa) = 0.03280301
#
# Stress axis : x y z
#
# Youngs Moduli (GPa) = 28.75797 66.01160 108.71916
#
# Poissons Ratio (x) = 0.34963 0.73184
# Poissons Ratio (y) = 0.15232 0.12290
# Poissons Ratio (z) = 0.19358 0.07462
#
# Static dielectric constant tensor:
#      x y z
#    x 1.976670 -0.014420 0.001250 
#    y -0.014420 2.012850 0.005580 
#    z 0.001250 0.005580 1.963820 
# 
# From -- ./inp_files/494521.got.cif
#   From: 2010.05.17/outbox.cif.g08.bks.cpg/sg2_248_cif.got.tgz:494521.got - 2010.06.03 11:33:40.
