data_PCOD9008058
_publ_section_title
;
Structure prediction by ZEFSAII (Michael W. Deem and Ramdas Pophale) SiO2 
 PCOD9008058
Probable space group: P -1
;
_chemical_formula_sum "Si O2"
_cell_formula_units_Z 14
_cell_length_a 5.160919
_cell_length_b 24.602758
_cell_length_c 4.966483
_cell_angle_alpha 85.709290
_cell_angle_beta 92.596112
_cell_angle_gamma 124.352080
_cell_volume 519.158557
_symmetry_space_group_name_H-M "P -1"
_symmetry_group_IT_number 2
_symmetry_cell_setting 'triclinic'
loop_
_space_group_symop_operation_xyz
x,y,z
-x,-y,-z
loop_
_atom_site_type_symbol
_atom_site_label
_atom_site_fract_x
_atom_site_fract_y
_atom_site_fract_z
Si Si1 0.216941 0.318257 0.065470
Si Si2 0.375241 0.927406 0.426004
Si Si3 0.876558 0.519345 0.735817
Si Si4 0.884980 0.790269 0.530188
Si Si5 0.632882 0.214206 0.853734
Si Si6 0.680209 0.599924 0.472117
Si Si7 0.861547 0.925957 0.113928
O O1 0.835100 0.275439 0.041673
O O2 0.298294 0.348351 0.760126
O O3 0.237513 0.260615 0.212432
O O4 0.402668 0.377721 0.265629
O O5 0.666807 0.923087 0.371177
O O6 0.114770 0.865691 0.611810
O O7 0.154845 0.920589 0.169694
O O8 0.500000 0.000000 0.500000
O O9 0.931041 0.588576 0.631150
O O10 0.502587 0.464272 0.709850
O O11 0.000000 0.500000 0.500000
O O12 0.000000 0.500000 0.000000
O O13 0.597441 0.779009 0.349038
O O14 0.114322 0.785051 0.333943
O O15 0.413758 0.142493 0.010271
O O16 0.000000 0.000000 0.000000
#
# Coordination Sequence:
#
# PCOD9008058 Si02
#       7
#     2   2   2   2   2   2   2
#     4  12  24  47  70 104 150 194 246 304 366 444
#     4  10  21  39  63  95 133 179 242 305 373 440
#     4  11  24  47  76 108 150 187 236 295 351 430
#     4  10  24  46  67 100 145 195 245 308 375 443
#     4  10  24  46  67 100 145 195 245 308 375 443
#     4  11  26  46  72 112 140 194 242 288 364 436
#     4  10  21  39  63  95 133 179 242 305 373 440
#
# _framework density 26.966712000000001
#
# number of rings (size 3 to 8) (size 9 to 14) (size 15 to 20)
#    0.000    1.429    1.429    2.571    2.000    6.857 
#    5.143    0.000    0.000    0.000    0.000    0.000 
#    0.000    0.000    0.000    0.000    0.000    0.000 
#
# Total GULP energy -78020.134168 kJ/mol
# GULP energy per Si atom -5572.866726 kJ/mol
# Density = 2.690533 g / cm^3
# Si number density = 26.966712 Si / 1000 Ang^3
#
#
#
# Elastic Constant Matrix: (Units=GPa)
#
#
# Indices 1 2 3 4 5 6 
#
# 1 124.1669 -9.1294 52.7693 -3.7153 25.2688 2.2495
# 2 -9.1294 69.3682 45.1028 0.1250 10.0051 0.4747
# 3 52.7693 45.1028 194.3666 -15.3644 36.5324 -7.9166
# 4 -3.7153 0.1250 -15.3644 51.6771 -7.1528 19.2169
# 5 25.2688 10.0051 36.5324 -7.1528 49.5965 4.9079
# 6 2.2495 0.4747 -7.9166 19.2169 4.9079 24.9535
#
#
#
# Elastic Compliance Matrix: (Units=1/GPa)
#
#
# Indices 1 2 3 4 5 6 
#
# 1 0.010441 0.003947 -0.003108 -0.000332 -0.003775 -0.001004
# 2 0.003947 0.018577 -0.005133 -0.001193 -0.002049 -0.001016
# 3 -0.003108 -0.005133 0.008015 0.000473 -0.003538 0.003252
# 4 -0.000332 -0.001193 0.000473 0.029132 0.006592 -0.023529
# 5 -0.003775 -0.002049 -0.003538 0.006592 0.027161 -0.011161
# 6 -0.001004 -0.001016 0.003252 -0.023529 -0.011161 0.061531
#
#
# Mechanical properties :
#
#
# Convention : Reuss Voigt Hill
#
# Bulk Modulus (GPa) = 35.15546 62.82079 48.98813
# Shear Modulus (GPa) = 28.91375 45.18936 37.05155
#
# Velocity S-wave (km/s) = 3.27800 4.09803 3.71074
# Velocity P-wave (km/s) = 5.23373 6.76299 6.04690
#
# Compressibility (1/GPa) = 0.02844508
#
# Stress axis : x y z
#
# Youngs Moduli (GPa) = 95.77288 53.82877 124.76928
#
# Poissons Ratio (x) = -0.21247 0.38782
# Poissons Ratio (y) = -0.37803 0.64045
# Poissons Ratio (z) = 0.29769 0.27631
#
# Static dielectric constant tensor:
#      x y z
#    x 3.641520 0.379300 0.526550 
#    y 0.379300 2.306030 0.137060 
#    z 0.526550 0.137060 2.296830 
# 
# From -- ./inp_files/14046.got.cif
#   From: 2010.05.17/outbox.cif.g08.bks.cpg/sg2_8_cif.got.tgz:14046.got - 2010.06.03 11:33:40.
