data_PCOD9008305
_publ_section_title
;
Structure prediction by ZEFSAII (Michael W. Deem and Ramdas Pophale) SiO2 
 PCOD9008305
Probable space group: P -1
;
_chemical_formula_sum "Si O2"
_cell_formula_units_Z 14
_cell_length_a 12.281377
_cell_length_b 14.865230
_cell_length_c 14.948204
_cell_angle_alpha 20.099279
_cell_angle_beta 129.338019
_cell_angle_gamma 125.395185
_cell_volume 724.003572
_symmetry_space_group_name_H-M "P -1"
_symmetry_group_IT_number 2
_symmetry_cell_setting 'triclinic'
loop_
_space_group_symop_operation_xyz
x,y,z
-x,-y,-z
loop_
_atom_site_type_symbol
_atom_site_label
_atom_site_fract_x
_atom_site_fract_y
_atom_site_fract_z
Si Si1 0.667542 0.019540 0.598656
Si Si2 0.964179 0.719115 0.700211
Si Si3 0.404659 0.942387 0.278299
Si Si4 0.589262 0.408016 0.908725
Si Si5 0.584508 0.161647 0.818216
Si Si6 0.207900 0.541649 0.869625
Si Si7 0.311516 0.517369 0.287480
O O1 0.500000 0.000000 0.500000
O O2 0.687448 0.059192 0.678472
O O3 0.725747 0.261325 0.349234
O O4 0.759372 0.754479 0.869145
O O5 0.054424 0.646996 0.725086
O O6 0.804508 0.675889 0.625425
O O7 0.000000 0.000000 0.500000
O O8 0.000000 0.500000 0.000000
O O9 0.506013 0.682160 0.588806
O O10 0.357079 0.955083 0.137149
O O11 0.489626 0.201108 0.090116
O O12 0.657872 0.304956 0.948393
O O13 0.707690 0.449928 0.001900
O O14 0.458544 0.362461 0.531949
O O15 0.708595 0.299008 0.807753
O O16 0.500000 0.000000 0.000000
#
# Coordination Sequence:
#
# PCOD9008305 Si02
#       7
#     2   2   2   2   2   2   2
#     4  12  22  37  58  87 124 167 206 258 311 363
#     4  12  27  41  64  94 131 175 202 252 323 387
#     4  11  22  34  59  89 122 154 202 260 310 361
#     4  11  19  33  58  89 122 155 196 248 306 381
#     4  10  21  39  64  93 120 162 212 267 314 367
#     4  12  23  38  57  90 125 166 205 244 313 386
#     4  10  23  39  60  93 129 161 205 259 319 375
#
# _framework density 19.336922000000001
#
# number of rings (size 3 to 8) (size 9 to 14) (size 15 to 20)
#    0.000    0.857    5.714    2.143    6.000    0.000 
#    0.000    0.000    0.000    1.714    0.000    0.000 
#    0.000    0.000    0.000    0.000    0.000    0.000 
#
# Total GULP energy -77969.126935 kJ/mol
# GULP energy per Si atom -5569.223352 kJ/mol
# Density = 1.929291 g / cm^3
# Si number density = 19.336922 Si / 1000 Ang^3
#
#
#
# Elastic Constant Matrix: (Units=GPa)
#
#
# Indices 1 2 3 4 5 6 
#
# 1 76.5702 27.3321 15.7424 9.5290 -10.0620 -22.4274
# 2 27.3321 106.0515 15.3984 3.3765 -0.8478 -18.9204
# 3 15.7424 15.3984 91.3785 -8.6994 -13.1331 -1.4618
# 4 9.5290 3.3765 -8.6994 20.7805 -12.0778 -11.8232
# 5 -10.0620 -0.8478 -13.1331 -12.0778 32.8400 2.7530
# 6 -22.4274 -18.9204 -1.4618 -11.8232 2.7530 35.3848
#
#
#
# Elastic Compliance Matrix: (Units=1/GPa)
#
#
# Indices 1 2 3 4 5 6 
#
# 1 0.017656 -0.002563 -0.002189 -0.001735 0.003083 0.008910
# 2 -0.002563 0.011085 -0.001472 0.000624 -0.001239 0.004547
# 3 -0.002189 -0.001472 0.014493 0.014746 0.010297 0.002550
# 4 -0.001735 0.000624 0.014746 0.092319 0.037003 0.027811
# 5 0.003083 -0.001239 0.010297 0.037003 0.048224 0.010329
# 6 0.008910 0.004547 0.002550 0.027811 0.010329 0.044934
#
#
# Mechanical properties :
#
#
# Convention : Reuss Voigt Hill
#
# Bulk Modulus (GPa) = 32.48366 43.43846 37.96106
# Shear Modulus (GPa) = 19.88688 32.16955 26.02822
#
# Velocity S-wave (km/s) = 3.21041 4.08319 3.67282
# Velocity P-wave (km/s) = 5.52970 6.68900 6.13678
#
# Compressibility (1/GPa) = 0.03078471
#
# Stress axis : x y z
#
# Youngs Moduli (GPa) = 56.63916 90.21086 68.99772
#
# Poissons Ratio (x) = 0.23120 0.15106
# Poissons Ratio (y) = 0.14516 0.10159
# Poissons Ratio (z) = 0.12400 0.13283
#
# Static dielectric constant tensor:
#      x y z
#    x 1.766920 -0.032630 0.011870 
#    y -0.032630 1.727410 -0.019810 
#    z 0.011870 -0.019810 1.672810 
# 
# From -- ./inp_files/76243.got.cif
#   From: 2010.05.17/outbox.cif.g08.bks.cpg/sg2_39_cif.got.tgz:76243.got - 2010.06.03 11:33:40.
