data_PCOD9008069
_publ_section_title
;
Structure prediction by ZEFSAII (Michael W. Deem and Ramdas Pophale) SiO2 
 PCOD9008069
Probable space group: P -1
;
_chemical_formula_sum "Si O2"
_cell_formula_units_Z 16
_cell_length_a 21.780638
_cell_length_b 9.478006
_cell_length_c 25.536014
_cell_angle_alpha 24.652614
_cell_angle_beta 19.541949
_cell_angle_gamma 26.396916
_cell_volume 705.831110
_symmetry_space_group_name_H-M "P -1"
_symmetry_group_IT_number 2
_symmetry_cell_setting 'triclinic'
loop_
_space_group_symop_operation_xyz
x,y,z
-x,-y,-z
loop_
_atom_site_type_symbol
_atom_site_label
_atom_site_fract_x
_atom_site_fract_y
_atom_site_fract_z
Si Si1 0.691460 0.419088 0.490189
Si Si2 0.190058 0.063585 0.851191
Si Si3 0.989382 0.646544 0.901573
Si Si4 0.233642 0.767466 0.250554
Si Si5 0.431307 0.922125 0.894019
Si Si6 0.966224 0.744766 0.658221
Si Si7 0.127232 0.104279 0.574106
Si Si8 0.357433 0.573997 0.971598
O O1 0.675588 0.783042 0.347383
O O2 0.833528 0.460195 0.408424
O O3 0.560627 0.195888 0.698487
O O4 0.776236 0.147970 0.465859
O O5 0.090006 0.350764 0.878801
O O6 0.309604 0.722050 0.901885
O O7 0.000000 0.000000 0.000000
O O8 0.111682 0.921071 0.702876
O O9 0.000000 0.500000 0.000000
O O10 0.769582 0.852084 0.996695
O O11 0.235271 0.392741 0.399742
O O12 0.450746 0.750168 0.069674
O O13 0.090497 0.765489 0.317727
O O14 0.142174 0.051222 0.272016
O O15 0.395484 0.869479 0.879087
O O16 0.500000 0.500000 0.000000
O O17 0.827937 0.521856 0.825114
O O18 0.000000 0.000000 0.500000
#
# Coordination Sequence:
#
# PCOD9008069 Si02
#       8
#     2   2   2   2   2   2   2   2
#     4  10  22  44  66  91 129 176 215 272 340 399
#     4  11  24  48  68  89 137 186 229 272 338 412
#     4  11  24  41  67  99 134 175 222 279 345 393
#     4  10  21  39  63  96 126 171 225 271 331 398
#     4  12  25  42  70 106 136 162 227 295 338 391
#     4  11  24  39  61  94 138 172 216 280 346 398
#     4   9  20  38  66  91 128 169 214 272 334 398
#     4  12  23  41  68  94 128 179 229 273 332 412
#
# _framework density 22.668310999999999
#
# number of rings (size 3 to 8) (size 9 to 14) (size 15 to 20)
#    0.000    1.250    3.750    1.875    5.250    1.500 
#    4.500    0.625    0.000    0.000    0.000    0.000 
#    0.000    0.000    0.000    0.000    0.000    0.000 
#
# Total GULP energy -89106.316916 kJ/mol
# GULP energy per Si atom -5569.144807 kJ/mol
# Density = 2.261672 g / cm^3
# Si number density = 22.668311 Si / 1000 Ang^3
#
#
#
# Elastic Constant Matrix: (Units=GPa)
#
#
# Indices 1 2 3 4 5 6 
#
# 1 61.3745 -4.3370 18.1297 -6.2603 3.4665 -11.5954
# 2 -4.3370 28.0047 6.6268 0.0681 4.6834 -9.6602
# 3 18.1297 6.6268 137.4873 -16.9704 7.8996 -14.4359
# 4 -6.2603 0.0681 -16.9704 29.8591 -3.4137 3.9332
# 5 3.4665 4.6834 7.8996 -3.4137 42.9036 -10.3968
# 6 -11.5954 -9.6602 -14.4359 3.9332 -10.3968 24.1589
#
#
#
# Elastic Compliance Matrix: (Units=1/GPa)
#
#
# Indices 1 2 3 4 5 6 
#
# 1 0.019548 0.007181 -0.001554 0.001793 0.000825 0.011388
# 2 0.007181 0.044275 -0.001140 -0.002004 -0.000361 0.020640
# 3 -0.001554 -0.001140 0.008360 0.004001 -0.000234 0.003041
# 4 0.001793 -0.002004 0.004001 0.036699 0.001566 -0.002851
# 5 0.000825 -0.000361 -0.000234 0.001566 0.026140 0.011106
# 6 0.011388 0.020640 0.003041 -0.002851 0.011106 0.062173
#
#
# Mechanical properties :
#
#
# Convention : Reuss Voigt Hill
#
# Bulk Modulus (GPa) = 12.32195 29.74506 21.03351
# Shear Modulus (GPa) = 23.22619 33.14745 28.18682
#
# Velocity S-wave (km/s) = 3.20443 3.82813 3.53008
# Velocity P-wave (km/s) = 4.37478 5.71750 5.09060
#
# Compressibility (1/GPa) = 0.08115600
#
# Stress axis : x y z
#
# Youngs Moduli (GPa) = 51.15672 22.58597 119.61860
#
# Poissons Ratio (x) = -0.16219 0.18591
# Poissons Ratio (y) = -0.36736 0.13641
# Poissons Ratio (z) = 0.07951 0.02576
#
# Static dielectric constant tensor:
#      x y z
#    x 1.814660 -0.059070 0.046950 
#    y -0.059070 1.913970 -0.007540 
#    z 0.046950 -0.007540 1.923540 
# 
# From -- ./inp_files/613561.got.cif
#   From: 2010.05.17/outbox.cif.g08.bks.cpg/sg2_307_cif.got.tgz:613561.got - 2010.06.03 11:33:40.
