data_PCOD9008118
_publ_section_title
;
Structure prediction by ZEFSAII (Michael W. Deem and Ramdas Pophale) SiO2 
 PCOD9008118
Probable space group: P -1
;
_chemical_formula_sum "Si O2"
_cell_formula_units_Z 16
_cell_length_a 10.886346
_cell_length_b 16.866624
_cell_length_c 11.259322
_cell_angle_alpha 130.836769
_cell_angle_beta 152.505309
_cell_angle_gamma 40.807384
_cell_volume 622.695164
_symmetry_space_group_name_H-M "P -1"
_symmetry_group_IT_number 2
_symmetry_cell_setting 'triclinic'
loop_
_space_group_symop_operation_xyz
x,y,z
-x,-y,-z
loop_
_atom_site_type_symbol
_atom_site_label
_atom_site_fract_x
_atom_site_fract_y
_atom_site_fract_z
Si Si1 0.567591 0.638814 0.710499
Si Si2 0.179090 0.604535 0.180599
Si Si3 0.602085 0.510560 0.230624
Si Si4 0.809392 0.880220 0.895610
Si Si5 0.197109 0.295925 0.452162
Si Si6 0.899096 0.201416 0.341787
Si Si7 0.416029 0.869536 0.180805
Si Si8 0.108864 0.957879 0.418561
O O1 0.346296 0.672317 0.441618
O O2 0.754903 0.494142 0.754210
O O3 0.360015 0.691415 0.699231
O O4 0.813343 0.679871 0.936390
O O5 0.344423 0.539438 0.136600
O O6 0.688519 0.615905 0.412358
O O7 0.925234 0.382458 0.396748
O O8 0.500000 0.500000 0.000000
O O9 0.935904 0.754516 0.810905
O O10 0.469354 0.911548 0.673711
O O11 0.761076 0.987608 0.865533
O O12 0.003653 0.877542 0.173669
O O13 0.482830 0.177670 0.644085
O O14 0.238286 0.183491 0.627527
O O15 0.933722 0.082291 0.316704
O O16 0.763611 0.192848 0.090077
O O17 0.000000 0.000000 0.500000
#
# Coordination Sequence:
#
# PCOD9008118 Si02
#       8
#     2   2   2   2   2   2   2   2
#     4  10  21  39  67  95 122 173 217 285 328 388
#     4  10  23  41  63  91 131 164 229 278 331 392
#     4  11  28  46  64  97 141 188 231 279 350 415
#     4  10  23  43  69 103 130 173 233 278 334 411
#     4  11  26  44  68  97 134 189 226 284 344 400
#     4  10  21  39  64 101 130 172 221 275 345 405
#     4  10  22  40  71  99 138 171 226 285 336 407
#     4  10  22  42  65  97 138 172 211 277 347 411
#
# _framework density 25.694755000000001
#
# number of rings (size 3 to 8) (size 9 to 14) (size 15 to 20)
#    0.000    1.750    0.000    2.250    8.750    2.000 
#    0.000    3.750    0.000    0.000    0.000    0.000 
#    0.000    0.000    0.000    0.000    0.000    0.000 
#
# Total GULP energy -89555.184031 kJ/mol
# GULP energy per Si atom -5597.199002 kJ/mol
# Density = 2.563627 g / cm^3
# Si number density = 25.694755 Si / 1000 Ang^3
#
#
#
# Elastic Constant Matrix: (Units=GPa)
#
#
# Indices 1 2 3 4 5 6 
#
# 1 119.9202 21.6061 50.8970 10.0950 -1.4454 -19.7736
# 2 21.6061 98.6476 40.6500 3.7576 -7.0485 4.0104
# 3 50.8970 40.6500 168.5347 17.4577 -4.1664 -2.5718
# 4 10.0950 3.7576 17.4577 37.4165 0.9627 -6.4556
# 5 -1.4454 -7.0485 -4.1664 0.9627 42.5554 -5.4598
# 6 -19.7736 4.0104 -2.5718 -6.4556 -5.4598 39.7859
#
#
#
# Elastic Compliance Matrix: (Units=1/GPa)
#
#
# Indices 1 2 3 4 5 6 
#
# 1 0.010666 -0.001359 -0.002741 -0.000572 0.000555 0.005244
# 2 -0.001359 0.011589 -0.002374 -0.000038 0.001410 -0.001810
# 3 -0.002741 -0.002374 0.007608 -0.002758 0.000186 -0.001053
# 4 -0.000572 -0.000038 -0.002758 0.028902 -0.000414 0.004174
# 5 0.000555 0.001410 0.000186 -0.000414 0.024215 0.003401
# 6 0.005244 -0.001810 -0.001053 0.004174 0.003401 0.028999
#
#
# Mechanical properties :
#
#
# Convention : Reuss Voigt Hill
#
# Bulk Modulus (GPa) = 59.11134 68.15652 63.63393
# Shear Modulus (GPa) = 38.29537 42.21484 40.25511
#
# Velocity S-wave (km/s) = 3.86475 4.05771 3.96241
# Velocity P-wave (km/s) = 6.55517 6.96681 6.76412
#
# Compressibility (1/GPa) = 0.01691723
#
# Stress axis : x y z
#
# Youngs Moduli (GPa) = 93.75245 86.29235 131.44265
#
# Poissons Ratio (x) = 0.11724 0.36022
# Poissons Ratio (y) = 0.12738 0.31199
# Poissons Ratio (z) = 0.25693 0.20482
#
# Static dielectric constant tensor:
#      x y z
#    x 2.135170 0.033580 0.272490 
#    y 0.033580 2.114160 0.032820 
#    z 0.272490 0.032820 2.649640 
# 
# From -- ./inp_files/436925.got.cif
#   From: 2010.05.17/outbox.cif.g08.bks.cpg/sg2_219_cif.got.tgz:436925.got - 2010.06.03 11:33:40.
