data_PCOD9008393
_publ_section_title
;
Structure prediction by ZEFSAII (Michael W. Deem and Ramdas Pophale) SiO2 
 PCOD9008393
Probable space group: P -1
;
_chemical_formula_sum "Si O2"
_cell_formula_units_Z 16
_cell_length_a 13.737147
_cell_length_b 8.364961
_cell_length_c 10.881647
_cell_angle_alpha 55.819637
_cell_angle_beta 115.278259
_cell_angle_gamma 72.838495
_cell_volume 653.819406
_symmetry_space_group_name_H-M "P -1"
_symmetry_group_IT_number 2
_symmetry_cell_setting 'triclinic'
loop_
_space_group_symop_operation_xyz
x,y,z
-x,-y,-z
loop_
_atom_site_type_symbol
_atom_site_label
_atom_site_fract_x
_atom_site_fract_y
_atom_site_fract_z
Si Si1 0.256391 0.266192 0.947319
Si Si2 0.075920 0.312585 0.004245
Si Si3 0.623085 0.400735 0.876022
Si Si4 0.699925 0.268491 0.540172
Si Si5 0.208111 0.567240 0.262622
Si Si6 0.524212 0.039310 0.355654
Si Si7 0.106161 0.816350 0.517881
Si Si8 0.118400 0.168749 0.728520
O O1 0.230121 0.489174 0.756416
O O2 0.212764 0.125091 0.915187
O O3 0.112206 0.452425 0.881913
O O4 0.417219 0.068587 0.187008
O O5 0.242192 0.006125 0.252336
O O6 0.000000 0.500000 0.000000
O O7 0.967013 0.281725 0.907770
O O8 0.480917 0.491387 0.686065
O O9 0.728868 0.386938 0.839859
O O10 0.538858 0.662997 0.804983
O O11 0.729819 0.115491 0.134005
O O12 0.751382 0.366540 0.621764
O O13 0.795239 0.152875 0.513971
O O14 0.302729 0.243992 0.456897
O O15 0.500000 0.000000 0.500000
O O16 0.994938 0.864907 0.333925
O O17 0.000000 0.000000 0.500000
O O18 0.000000 0.500000 0.500000
#
# Coordination Sequence:
#
# PCOD9008393 Si02
#       8
#     2   2   2   2   2   2   2   2
#     4  11  22  41  63  90 129 171 214 270 328 388
#     4  12  22  37  63  95 126 168 221 274 331 396
#     4  11  21  40  64  94 133 173 216 276 331 392
#     4  12  24  40  65  98 129 175 226 271 335 400
#     4  11  22  38  63  97 134 169 217 280 332 394
#     4  10  21  39  64  95 130 172 215 268 333 390
#     4  11  24  44  65  93 132 175 221 276 332 397
#     4  10  22  41  66  92 126 175 222 269 331 393
#
# _framework density 24.471591
#
# number of rings (size 3 to 8) (size 9 to 14) (size 15 to 20)
#    0.000    1.000    0.000    9.000    0.000    0.000 
#    0.000   10.625    0.000    0.000    0.000    0.000 
#    0.000    0.000    0.000    0.000    0.000    0.000 
#
# Total GULP energy -89235.531706 kJ/mol
# GULP energy per Si atom -5577.220732 kJ/mol
# Density = 2.441589 g / cm^3
# Si number density = 24.471591 Si / 1000 Ang^3
#
#
#
# Elastic Constant Matrix: (Units=GPa)
#
#
# Indices 1 2 3 4 5 6 
#
# 1 54.7919 -4.0905 28.2236 2.3885 3.3600 5.9643
# 2 -4.0905 55.1258 28.2467 -14.7964 -10.5586 1.7635
# 3 28.2236 28.2467 158.1645 -16.2655 23.5537 17.6611
# 4 2.3885 -14.7964 -16.2655 52.7203 8.2202 7.1284
# 5 3.3600 -10.5586 23.5537 8.2202 27.4380 3.2705
# 6 5.9643 1.7635 17.6611 7.1284 3.2705 20.9757
#
#
#
# Elastic Compliance Matrix: (Units=1/GPa)
#
#
# Indices 1 2 3 4 5 6 
#
# 1 0.021347 0.004760 -0.005254 -0.001656 0.004484 -0.002183
# 2 0.004760 0.025839 -0.007392 0.002480 0.015021 -0.000487
# 3 -0.005254 -0.007392 0.011838 0.004842 -0.012922 -0.007483
# 4 -0.001656 0.002480 0.004842 0.024061 -0.008945 -0.010597
# 5 0.004484 0.015021 -0.012922 -0.008945 0.055117 0.002788
# 6 -0.002183 -0.000487 -0.007483 -0.010597 0.002788 0.057803
#
#
# Mechanical properties :
#
#
# Convention : Reuss Voigt Hill
#
# Bulk Modulus (GPa) = 23.11902 41.42686 32.27294
# Shear Modulus (GPa) = 22.10502 34.60696 28.35599
#
# Velocity S-wave (km/s) = 3.00874 3.76462 3.40771
# Velocity P-wave (km/s) = 4.64089 5.98847 5.35722
#
# Compressibility (1/GPa) = 0.04325442
#
# Stress axis : x y z
#
# Youngs Moduli (GPa) = 46.84420 38.70093 84.47395
#
# Poissons Ratio (x) = -0.18423 0.44381
# Poissons Ratio (y) = -0.22299 0.62439
# Poissons Ratio (z) = 0.24611 0.28606
#
# Static dielectric constant tensor:
#      x y z
#    x 1.965430 -0.021740 -0.056380 
#    y -0.021740 2.122010 -0.049850 
#    z -0.056380 -0.049850 2.006420 
# 
# From -- ./inp_files/446972.got.cif
#   From: 2010.05.17/outbox.cif.g08.bks.cpg/sg2_224_cif.got.tgz:446972.got - 2010.06.03 11:33:40.
