data_PCOD9008723
_publ_section_title
;
Structure prediction by ZEFSAII (Michael W. Deem and Ramdas Pophale) SiO2 
 PCOD9008723
Probable space group: P -1
;
_chemical_formula_sum "Si O2"
_cell_formula_units_Z 16
_cell_length_a 8.914928
_cell_length_b 17.509800
_cell_length_c 20.559412
_cell_angle_alpha 27.125183
_cell_angle_beta 144.939550
_cell_angle_gamma 149.667921
_cell_volume 721.054345
_symmetry_space_group_name_H-M "P -1"
_symmetry_group_IT_number 2
_symmetry_cell_setting 'triclinic'
loop_
_space_group_symop_operation_xyz
x,y,z
-x,-y,-z
loop_
_atom_site_type_symbol
_atom_site_label
_atom_site_fract_x
_atom_site_fract_y
_atom_site_fract_z
Si Si1 0.838110 0.332992 0.515291
Si Si2 0.359891 0.641065 0.392333
Si Si3 0.756433 0.924292 0.839955
Si Si4 0.711298 0.452172 0.706020
Si Si5 0.564205 0.900017 0.037587
Si Si6 0.624583 0.061152 0.198122
Si Si7 0.393406 0.755551 0.716417
Si Si8 0.284549 0.122203 0.399738
O O1 0.835139 0.138148 0.680717
O O2 0.495709 0.262927 0.425996
O O3 0.000000 0.500000 0.500000
O O4 0.049123 0.438149 0.447704
O O5 0.616031 0.612330 0.538692
O O6 0.408056 0.671593 0.309457
O O7 0.378291 0.828895 0.287052
O O8 0.075328 0.963929 0.950284
O O9 0.498541 0.850266 0.859662
O O10 0.619027 0.788930 0.830658
O O11 0.537544 0.314415 0.808952
O O12 0.073090 0.555098 0.760497
O O13 0.382456 0.875572 0.925836
O O14 0.500000 0.000000 0.000000
O O15 0.948682 0.087022 0.310188
O O16 0.563552 0.784376 0.686748
O O17 0.309378 0.927557 0.560766
#
# Coordination Sequence:
#
# PCOD9008723 Si02
#       8
#     2   2   2   2   2   2   2   2
#     4  11  21  38  66 100 129 161 210 270 320 379
#     4  11  21  37  66  99 127 163 217 268 315 376
#     4  11  25  41  64  95 132 172 211 264 327 382
#     4  11  22  39  67  97 125 166 224 266 314 373
#     4  12  25  44  66  93 127 173 221 263 318 387
#     4  12  24  43  64  95 136 171 209 262 329 385
#     4  10  21  39  65  95 131 164 215 270 314 376
#     4  10  22  38  64  98 130 167 212 263 323 380
#
# _framework density 22.189727000000001
#
# number of rings (size 3 to 8) (size 9 to 14) (size 15 to 20)
#    0.000    1.000    6.250    1.125    0.000    3.000 
#    0.000    4.375    0.000    0.000    0.000    0.000 
#    0.000    0.000    0.000    0.000    0.000    0.000 
#
# Total GULP energy -89435.149556 kJ/mol
# GULP energy per Si atom -5589.696847 kJ/mol
# Density = 2.213922 g / cm^3
# Si number density = 22.189727 Si / 1000 Ang^3
#
#
#
# Elastic Constant Matrix: (Units=GPa)
#
#
# Indices 1 2 3 4 5 6 
#
# 1 66.3727 18.6770 9.3021 8.8944 0.5933 5.7241
# 2 18.6770 85.3783 24.7424 25.5811 -5.3636 3.9210
# 3 9.3021 24.7424 49.3144 22.1128 -7.1926 0.9765
# 4 8.8944 25.5811 22.1128 29.2805 7.9620 3.6694
# 5 0.5933 -5.3636 -7.1926 7.9620 25.5615 6.5254
# 6 5.7241 3.9210 0.9765 3.6694 6.5254 38.4967
#
#
#
# Elastic Compliance Matrix: (Units=1/GPa)
#
#
# Indices 1 2 3 4 5 6 
#
# 1 0.016356 -0.002782 -0.001078 -0.001389 -0.000341 -0.001931
# 2 -0.002782 0.018307 0.001363 -0.018859 0.010540 -0.001475
# 3 -0.001078 0.001363 0.039969 -0.037267 0.023531 -0.001429
# 4 -0.001389 -0.018859 -0.037267 0.090699 -0.043106 0.001734
# 5 -0.000341 0.010540 0.023531 -0.043106 0.063501 -0.008275
# 6 -0.001931 -0.001475 -0.001429 0.001734 -0.008275 0.027687
#
#
# Mechanical properties :
#
#
# Convention : Reuss Voigt Hill
#
# Bulk Modulus (GPa) = 14.36025 34.05647 24.20836
# Shear Modulus (GPa) = 17.56071 28.55731 23.05901
#
# Velocity S-wave (km/s) = 2.81622 3.59132 3.22712
# Velocity P-wave (km/s) = 4.13042 5.70771 4.98188
#
# Compressibility (1/GPa) = 0.06963665
#
# Stress axis : x y z
#
# Youngs Moduli (GPa) = 61.13915 54.62466 25.01957
#
# Poissons Ratio (x) = 0.15198 0.02697
# Poissons Ratio (y) = 0.17010 -0.03410
# Poissons Ratio (z) = 0.06592 -0.07445
#
# Static dielectric constant tensor:
#      x y z
#    x 1.854810 0.005610 -0.003060 
#    y 0.005610 1.816290 -0.019900 
#    z -0.003060 -0.019900 1.833100 
# 
# From -- ./inp_files/208339.got.cif
#   From: 2010.05.17/outbox.cif.g08.bks.cpg/sg2_105_cif.got.tgz:208339.got - 2010.06.03 11:33:40.
