data_PCOD9008573
_publ_section_title
;
Structure prediction by ZEFSAII (Michael W. Deem and Ramdas Pophale) SiO2 
 PCOD9008573
Probable space group: P -1
;
_chemical_formula_sum "Si O2"
_cell_formula_units_Z 14
_cell_length_a 7.295768
_cell_length_b 8.339095
_cell_length_c 11.830965
_cell_angle_alpha 62.083124
_cell_angle_beta 81.102185
_cell_angle_gamma 61.924384
_cell_volume 559.194432
_symmetry_space_group_name_H-M "P -1"
_symmetry_group_IT_number 2
_symmetry_cell_setting 'triclinic'
loop_
_space_group_symop_operation_xyz
x,y,z
-x,-y,-z
loop_
_atom_site_type_symbol
_atom_site_label
_atom_site_fract_x
_atom_site_fract_y
_atom_site_fract_z
Si Si1 0.176640 0.275078 0.025193
Si Si2 0.054046 0.451579 0.748040
Si Si3 0.854359 0.900051 0.584500
Si Si4 0.843272 0.813411 0.370177
Si Si5 0.755399 0.121837 0.730710
Si Si6 0.601927 0.217743 0.119263
Si Si7 0.358795 0.596599 0.160112
O O1 0.189105 0.291266 0.883659
O O2 0.386003 0.246524 0.075926
O O3 0.000000 0.500000 0.000000
O O4 0.146823 0.083205 0.134275
O O5 0.004704 0.683066 0.698236
O O6 0.827491 0.456954 0.775843
O O7 0.141824 0.378683 0.638208
O O8 0.770271 0.846439 0.495635
O O9 0.695082 0.049254 0.643462
O O10 0.000000 0.000000 0.500000
O O11 0.070459 0.808730 0.343601
O O12 0.708378 0.009413 0.243194
O O13 0.598860 0.299547 0.768575
O O14 0.549435 0.398729 0.155103
O O15 0.718649 0.247465 0.989791
#
# Coordination Sequence:
#
# PCOD9008573 Si02
#       7
#     2   2   2   2   2   2   2
#     4  12  22  38  64  90 124 159 198 254 310 365
#     4  11  21  41  64  90 122 167 204 246 305 366
#     4  10  21  39  65  91 121 165 211 247 291 365
#     4  10  23  39  64  91 124 162 209 249 294 363
#     4  10  21  40  62  90 123 165 204 242 307 364
#     4  11  23  39  59  96 127 156 200 255 310 354
#     4  10  22  38  62  90 127 158 200 252 306 365
#
# _framework density 25.036014999999999
#
# number of rings (size 3 to 8) (size 9 to 14) (size 15 to 20)
#    0.000    1.429    2.857    2.143    2.000    4.571 
#    0.000    3.571    0.000    1.714    0.000    0.000 
#    0.000    0.000    0.000    0.000    0.000    0.000 
#
# Total GULP energy -78336.772544 kJ/mol
# GULP energy per Si atom -5595.483753 kJ/mol
# Density = 2.497903 g / cm^3
# Si number density = 25.036015 Si / 1000 Ang^3
#
#
#
# Elastic Constant Matrix: (Units=GPa)
#
#
# Indices 1 2 3 4 5 6 
#
# 1 36.9596 6.6568 8.7971 8.9771 -7.5330 3.6219
# 2 6.6568 146.1710 40.1422 51.0361 5.4619 30.5269
# 3 8.7971 40.1422 96.2194 25.6501 -2.6947 9.9548
# 4 8.9771 51.0361 25.6501 53.1165 12.4635 4.3399
# 5 -7.5330 5.4619 -2.6947 12.4635 31.9513 1.6768
# 6 3.6219 30.5269 9.9548 4.3399 1.6768 20.9184
#
#
#
# Elastic Compliance Matrix: (Units=1/GPa)
#
#
# Indices 1 2 3 4 5 6 
#
# 1 0.032588 0.004330 -0.000321 -0.011465 0.011933 -0.010387
# 2 0.004330 0.016873 -0.000700 -0.016091 0.005516 -0.022144
# 3 -0.000321 -0.000700 0.012841 -0.006004 0.003683 -0.004083
# 4 -0.011465 -0.016091 -0.006004 0.041571 -0.017783 0.021126
# 5 0.011933 0.005516 0.003683 -0.017783 0.041017 -0.011468
# 6 -0.010387 -0.022144 -0.004083 0.021126 -0.011468 0.080398
#
#
# Mechanical properties :
#
#
# Convention : Reuss Voigt Hill
#
# Bulk Modulus (GPa) = 14.50960 43.39357 28.95159
# Shear Modulus (GPa) = 20.69167 36.11415 28.40291
#
# Velocity S-wave (km/s) = 2.87797 3.80213 3.37186
# Velocity P-wave (km/s) = 4.10508 6.05351 5.17188
#
# Compressibility (1/GPa) = 0.06891986
#
# Stress axis : x y z
#
# Youngs Moduli (GPa) = 30.68645 59.26563 77.87788
#
# Poissons Ratio (x) = -0.25664 0.02499
# Poissons Ratio (y) = -0.13288 0.05453
# Poissons Ratio (z) = 0.00985 0.04150
#
# Static dielectric constant tensor:
#      x y z
#    x 2.010060 0.024540 0.005550 
#    y 0.024540 2.026800 0.061220 
#    z 0.005550 0.061220 1.985090 
# 
# From -- ./inp_files/188311.got.cif
#   From: 2010.05.17/outbox.cif.g08.bks.cpg/sg2_95_cif.got.tgz:188311.got - 2010.06.03 11:33:40.
