data_PCOD9008739
_publ_section_title
;
Structure prediction by ZEFSAII (Michael W. Deem and Ramdas Pophale) SiO2 
 PCOD9008739
Probable space group: P -1
;
_chemical_formula_sum "Si O2"
_cell_formula_units_Z 16
_cell_length_a 13.170589
_cell_length_b 8.594860
_cell_length_c 9.069514
_cell_angle_alpha 64.599956
_cell_angle_beta 117.386965
_cell_angle_gamma 124.262240
_cell_volume 732.919040
_symmetry_space_group_name_H-M "P -1"
_symmetry_group_IT_number 2
_symmetry_cell_setting 'triclinic'
loop_
_space_group_symop_operation_xyz
x,y,z
-x,-y,-z
loop_
_atom_site_type_symbol
_atom_site_label
_atom_site_fract_x
_atom_site_fract_y
_atom_site_fract_z
Si Si1 0.906845 0.876438 0.356998
Si Si2 0.869311 0.167567 0.613750
Si Si3 0.453145 0.040211 0.104713
Si Si4 0.354451 0.337605 0.948434
Si Si5 0.870367 0.995998 0.970933
Si Si6 0.322995 0.669047 0.650546
Si Si7 0.406200 0.673261 0.369441
Si Si8 0.300706 0.244433 0.486271
O O1 0.887745 0.998301 0.159394
O O2 0.774572 0.774660 0.402896
O O3 0.000000 0.000000 0.500000
O O4 0.988647 0.774983 0.379376
O O5 0.782294 0.947864 0.584696
O O6 0.799348 0.291463 0.462573
O O7 0.862231 0.153426 0.793089
O O8 0.570006 0.167058 0.241322
O O9 0.372967 0.832141 0.209873
O O10 0.379240 0.164821 0.970552
O O11 0.500000 0.000000 0.000000
O O12 0.254167 0.210812 0.058522
O O13 0.291661 0.462084 0.783244
O O14 0.500000 0.500000 0.000000
O O15 0.000000 0.000000 0.000000
O O16 0.387124 0.680946 0.528953
O O17 0.324272 0.452157 0.352686
O O18 0.555539 0.733271 0.409313
#
# Coordination Sequence:
#
# PCOD9008739 Si02
#       8
#     2   2   2   2   2   2   2   2
#     4   9  20  40  63  97 130 176 217 266 328 388
#     4  10  21  40  69  92 127 173 218 269 323 399
#     4  11  25  39  60  95 129 172 216 275 329 391
#     4  10  24  40  64  95 136 169 216 273 331 387
#     4  10  21  39  65  96 127 170 220 268 324 388
#     4  11  23  41  62  95 129 175 217 269 330 397
#     4  11  23  38  61  92 131 168 214 265 331 391
#     4  10  22  37  64  92 129 171 214 267 324 387
#
# _framework density 21.830514999999998
#
# number of rings (size 3 to 8) (size 9 to 14) (size 15 to 20)
#    0.000    1.750    1.250    1.875    8.750    1.000 
#    0.000    6.875    0.000    0.000    0.000   26.250 
#    0.000    0.000    0.000    0.000    0.000    0.000 
#
# Total GULP energy -89139.217239 kJ/mol
# GULP energy per Si atom -5571.201077 kJ/mol
# Density = 2.178083 g / cm^3
# Si number density = 21.830515 Si / 1000 Ang^3
#
#
#
# Elastic Constant Matrix: (Units=GPa)
#
#
# Indices 1 2 3 4 5 6 
#
# 1 176.4608 40.9320 55.0143 -13.2395 4.1912 5.2258
# 2 40.9320 87.6882 28.0748 -13.5700 6.4076 -13.8415
# 3 55.0143 28.0748 115.4281 -17.1496 9.1214 -19.7074
# 4 -13.2395 -13.5700 -17.1496 40.1786 -2.2095 12.0126
# 5 4.1912 6.4076 9.1214 -2.2095 44.8278 -8.9026
# 6 5.2258 -13.8415 -19.7074 12.0126 -8.9026 33.3547
#
#
#
# Elastic Compliance Matrix: (Units=1/GPa)
#
#
# Indices 1 2 3 4 5 6 
#
# 1 0.007782 -0.003037 -0.003603 0.001560 -0.000539 -0.005314
# 2 -0.003037 0.014216 -0.000823 0.001906 -0.000479 0.005075
# 3 -0.003603 -0.000823 0.011994 0.001663 -0.000603 0.006550
# 4 0.001560 0.001906 0.001663 0.029505 -0.001171 -0.009410
# 5 -0.000539 -0.000479 -0.000603 -0.001171 0.023740 0.006287
# 6 -0.005314 0.005075 0.006550 -0.009410 0.006287 0.041856
#
#
# Mechanical properties :
#
#
# Convention : Reuss Voigt Hill
#
# Bulk Modulus (GPa) = 52.44983 69.73548 61.09265
# Shear Modulus (GPa) = 33.25022 40.70929 36.97976
#
# Velocity S-wave (km/s) = 3.90694 4.32300 4.12023
# Velocity P-wave (km/s) = 6.66560 7.54528 7.11904
#
# Compressibility (1/GPa) = 0.01906584
#
# Stress axis : x y z
#
# Youngs Moduli (GPa) = 128.50128 70.34281 83.37600
#
# Poissons Ratio (x) = 0.21363 0.30043
# Poissons Ratio (y) = 0.39026 0.06860
# Poissons Ratio (z) = 0.46303 0.05788
#
# Static dielectric constant tensor:
#      x y z
#    x -1.160960 -1.157120 2.352760 
#    y -1.157120 1.363780 0.964460 
#    z 2.352760 0.964460 0.004100 
# 
# From -- ./inp_files/242647.got.cif
#   From: 2010.05.17/outbox.cif.g08.bks.cpg/sg2_122_cif.got.tgz:242647.got - 2010.06.03 11:33:40.
