data_PCOD9008556
_publ_section_title
;
Structure prediction by ZEFSAII (Michael W. Deem and Ramdas Pophale) SiO2 
 PCOD9008556
Probable space group: P -1
;
_chemical_formula_sum "Si O2"
_cell_formula_units_Z 16
_cell_length_a 14.102222
_cell_length_b 13.569362
_cell_length_c 7.500531
_cell_angle_alpha 63.774232
_cell_angle_beta 63.361859
_cell_angle_gamma 32.327284
_cell_volume 680.064658
_symmetry_space_group_name_H-M "P -1"
_symmetry_group_IT_number 2
_symmetry_cell_setting 'triclinic'
loop_
_space_group_symop_operation_xyz
x,y,z
-x,-y,-z
loop_
_atom_site_type_symbol
_atom_site_label
_atom_site_fract_x
_atom_site_fract_y
_atom_site_fract_z
Si Si1 0.540242 0.460418 0.210941
Si Si2 0.357870 0.054952 0.850846
Si Si3 0.841180 0.234406 0.744181
Si Si4 0.010166 0.517810 0.269659
Si Si5 0.228915 0.924963 0.509963
Si Si6 0.808875 0.021709 0.910313
Si Si7 0.297138 0.110318 0.275058
Si Si8 0.826083 0.387307 0.991492
O O1 0.343633 0.598722 0.342016
O O2 0.668069 0.256392 0.329102
O O3 0.500000 0.500000 0.000000
O O4 0.641956 0.490260 0.138351
O O5 0.190157 0.275962 0.777341
O O6 0.548501 0.944558 0.721054
O O7 0.357945 0.042591 0.074761
O O8 0.309236 0.972081 0.897288
O O9 0.830349 0.117815 0.918434
O O10 0.848025 0.317622 0.829643
O O11 0.018049 0.091505 0.592930
O O12 0.105356 0.331960 0.253670
O O13 0.143186 0.508851 0.123858
O O14 0.000000 0.500000 0.500000
O O15 0.258993 0.892984 0.297996
O O16 0.284058 0.001834 0.458929
O O17 0.003893 0.804280 0.895116
#
# Coordination Sequence:
#
# PCOD9008556 Si02
#       8
#     2   2   2   2   2   2   2   2
#     4  10  24  39  59  91 120 160 204 244 298 370
#     4   9  22  42  63  93 119 163 212 247 304 366
#     4  11  22  39  64  85 124 166 193 248 312 354
#     4  11  23  40  62  94 126 158 206 254 304 365
#     4  11  23  41  61  94 125 153 208 253 301 362
#     4  10  21  39  65  90 123 160 201 256 302 360
#     4  10  22  42  67  87 124 167 200 256 307 359
#     4  10  22  41  60  90 126 159 205 245 303 371
#
# _framework density 23.527176999999998
#
# number of rings (size 3 to 8) (size 9 to 14) (size 15 to 20)
#    0.000    1.750    1.250    1.875    3.500    4.000 
#    0.000    2.500    0.000    0.000    0.000    0.000 
#    0.000    0.000    0.000    0.000    0.000    0.000 
#
# Total GULP energy -89434.561622 kJ/mol
# GULP energy per Si atom -5589.660101 kJ/mol
# Density = 2.347363 g / cm^3
# Si number density = 23.527177 Si / 1000 Ang^3
#
#
#
# Elastic Constant Matrix: (Units=GPa)
#
#
# Indices 1 2 3 4 5 6 
#
# 1 55.3722 13.3768 24.4276 -6.7382 -16.7630 -11.5502
# 2 13.3768 100.1105 37.6471 1.3771 -16.2927 -22.2061
# 3 24.4276 37.6471 83.1416 -12.0744 -4.2843 -17.8071
# 4 -6.7382 1.3771 -12.0744 14.1933 -5.7370 -0.2821
# 5 -16.7630 -16.2927 -4.2843 -5.7370 32.4167 8.3927
# 6 -11.5502 -22.2061 -17.8071 -0.2821 8.3927 42.8057
#
#
#
# Elastic Compliance Matrix: (Units=1/GPa)
#
#
# Indices 1 2 3 4 5 6 
#
# 1 0.027211 0.001251 -0.004917 0.015128 0.015973 0.002914
# 2 0.001251 0.013877 -0.006085 -0.003781 0.005119 0.003977
# 3 -0.004917 -0.006085 0.018966 0.013803 -0.001640 0.003819
# 4 0.015128 -0.003781 0.013803 0.099693 0.024424 0.003731
# 5 0.015973 0.005119 -0.001640 0.024424 0.046477 -0.002669
# 6 0.002914 0.003977 0.003819 0.003731 -0.002669 0.028347
#
#
# Mechanical properties :
#
#
# Convention : Reuss Voigt Hill
#
# Bulk Modulus (GPa) = 24.65988 43.28081 33.97035
# Shear Modulus (GPa) = 18.68528 28.76133 23.72331
#
# Velocity S-wave (km/s) = 2.82121 3.50018 3.17888
# Velocity P-wave (km/s) = 4.59527 5.89670 5.28619
#
# Compressibility (1/GPa) = 0.04055169
#
# Stress axis : x y z
#
# Youngs Moduli (GPa) = 36.75018 72.06062 52.72716
#
# Poissons Ratio (x) = -0.09014 0.25926
# Poissons Ratio (y) = -0.04597 0.32083
# Poissons Ratio (z) = 0.18070 0.43847
#
# Static dielectric constant tensor:
#      x y z
#    x 1.959760 -0.004040 -0.009840 
#    y -0.004040 1.926340 0.029240 
#    z -0.009840 0.029240 1.874030 
# 
# From -- ./inp_files/314598.got.cif
#   From: 2010.05.17/outbox.cif.g08.bks.cpg/sg2_158_cif.got.tgz:314598.got - 2010.06.03 11:33:40.
