data_PCOD9008935
_publ_section_title
;
Structure prediction by ZEFSAII (Michael W. Deem and Ramdas Pophale) SiO2 
 PCOD9008935
Probable space group: P -1
;
_chemical_formula_sum "Si O2"
_cell_formula_units_Z 15
_cell_length_a 9.681239
_cell_length_b 11.735421
_cell_length_c 11.045915
_cell_angle_alpha 57.528747
_cell_angle_beta 143.826044
_cell_angle_gamma 110.282396
_cell_volume 615.371097
_symmetry_space_group_name_H-M "P -1"
_symmetry_group_IT_number 2
_symmetry_cell_setting 'triclinic'
loop_
_space_group_symop_operation_xyz
x,y,z
-x,-y,-z
loop_
_atom_site_type_symbol
_atom_site_label
_atom_site_fract_x
_atom_site_fract_y
_atom_site_fract_z
Si Si1 0.296362 0.598837 0.609109
Si Si2 0.219657 0.070852 0.274223
Si Si3 0.800739 0.938361 0.000685
Si Si4 0.048957 0.386642 0.418574
Si Si5 0.460099 0.156667 0.924127
Si Si6 0.732676 0.386044 0.980195
Si Si7 0.500000 0.500000 0.500000
Si Si8 0.491303 0.220477 0.529133
O O1 0.144341 0.629321 0.605407
O O2 0.521934 0.479697 0.856517
O O3 0.383078 0.725610 0.532050
O O4 0.150954 0.523692 0.449799
O O5 0.242588 0.182893 0.327522
O O6 0.500000 0.000000 0.500000
O O7 0.138254 0.126701 0.051208
O O8 0.029279 0.970703 0.217385
O O9 0.639860 0.085330 0.773362
O O10 0.647714 0.846313 0.016398
O O11 0.255383 0.255594 0.650971
O O12 0.957915 0.399668 0.211001
O O13 0.686435 0.230285 0.038959
O O14 0.500000 0.000000 0.000000
O O15 0.682400 0.447377 0.777046
O O16 0.486976 0.343219 0.546943
#
# Coordination Sequence:
#
# PCOD9008935 Si02
#       8
#     2   2   2   2   2   2   1   2
#     4   9  21  39  63 103 133 162 227 283 331 410
#     4   9  21  38  62  96 124 171 220 270 337 375
#     4  10  22  40  64  97 136 169 224 278 324 404
#     4  10  22  40  66  96 134 178 220 278 343 396
#     4  11  25  42  62  97 142 180 227 272 328 417
#     4  10  22  43  67  92 132 181 223 279 343 397
#     4  10  22  44  64  96 132 170 230 276 324 416
#     4  10  21  39  66  93 136 171 217 274 338 390
#
# _framework density 24.375537000000001
#
# number of rings (size 3 to 8) (size 9 to 14) (size 15 to 20)
#    0.000    2.133    0.000    1.200    7.467    3.733 
#    2.400   17.333    0.000    0.000    0.000    0.000 
#    0.000    0.000    0.000    0.000    0.000    0.000 
#
# Total GULP energy -83596.966646 kJ/mol
# GULP energy per Si atom -5573.131110 kJ/mol
# Density = 2.432006 g / cm^3
# Si number density = 24.375537 Si / 1000 Ang^3
#
#
#
# Elastic Constant Matrix: (Units=GPa)
#
#
# Indices 1 2 3 4 5 6 
#
# 1 62.7133 35.4537 39.1059 6.1247 -4.5375 21.2169
# 2 35.4537 92.8126 52.9382 -0.1209 -14.2312 -15.4218
# 3 39.1059 52.9382 99.7908 26.8430 -22.5791 -4.5633
# 4 6.1247 -0.1209 26.8430 38.9395 -1.5193 -10.5158
# 5 -4.5375 -14.2312 -22.5791 -1.5193 26.4764 -3.4797
# 6 21.2169 -15.4218 -4.5633 -10.5158 -3.4797 44.2887
#
#
#
# Elastic Compliance Matrix: (Units=1/GPa)
#
#
# Indices 1 2 3 4 5 6 
#
# 1 0.042496 -0.018549 -0.009106 -0.009477 -0.015096 -0.031192
# 2 -0.018549 0.027721 -0.008715 0.015237 0.008041 0.021891
# 3 -0.009106 -0.008715 0.025848 -0.015413 0.015113 0.001519
# 4 -0.009477 0.015237 -0.015413 0.042708 -0.001728 0.018262
# 5 -0.015096 0.008041 0.015113 -0.001728 0.054324 0.015447
# 6 -0.031192 0.021891 0.001519 0.018262 0.015447 0.050851
#
#
# Mechanical properties :
#
#
# Convention : Reuss Voigt Hill
#
# Bulk Modulus (GPa) = 42.87357 56.70137 49.78747
# Shear Modulus (GPa) = 15.41008 30.46216 22.93612
#
# Velocity S-wave (km/s) = 2.51708 3.53895 3.07082
# Velocity P-wave (km/s) = 5.10632 6.32542 5.74828
#
# Compressibility (1/GPa) = 0.02332439
#
# Stress axis : x y z
#
# Youngs Moduli (GPa) = 23.53143 36.07381 38.68828
#
# Poissons Ratio (x) = 0.66915 0.35230
# Poissons Ratio (y) = 0.43649 0.33716
# Poissons Ratio (z) = 0.21428 0.31438
#
# Static dielectric constant tensor:
#      x y z
#    x 1.965230 -0.110080 0.062770 
#    y -0.110080 1.912380 0.020640 
#    z 0.062770 0.020640 1.923240 
# 
# From -- ./inp_files/409426.got.cif
#   From: 2010.05.17/outbox.cif.g08.bks.cpg/sg2_205_cif.got.tgz:409426.got - 2010.06.03 11:33:40.
