data_PCOD9008865
_publ_section_title
;
Structure prediction by ZEFSAII (Michael W. Deem and Ramdas Pophale) SiO2 
 PCOD9008865
Probable space group: P -1
;
_chemical_formula_sum "Si O2"
_cell_formula_units_Z 16
_cell_length_a 9.193569
_cell_length_b 9.161661
_cell_length_c 23.742827
_cell_angle_alpha 63.740453
_cell_angle_beta 131.112913
_cell_angle_gamma 76.024020
_cell_volume 831.859635
_symmetry_space_group_name_H-M "P -1"
_symmetry_group_IT_number 2
_symmetry_cell_setting 'triclinic'
loop_
_space_group_symop_operation_xyz
x,y,z
-x,-y,-z
loop_
_atom_site_type_symbol
_atom_site_label
_atom_site_fract_x
_atom_site_fract_y
_atom_site_fract_z
Si Si1 0.665792 0.151988 0.027361
Si Si2 0.239035 0.176744 0.980629
Si Si3 0.138003 0.998278 0.262458
Si Si4 0.105186 0.005059 0.583985
Si Si5 0.152310 0.546454 0.495016
Si Si6 0.695863 0.285913 0.201189
Si Si7 0.251430 0.256418 0.195770
Si Si8 0.536065 0.035586 0.189044
O O1 0.819339 0.938775 0.053976
O O2 0.409848 0.203189 0.982694
O O3 0.496454 0.423767 0.911693
O O4 0.918237 0.039146 0.157745
O O5 0.946612 0.451304 0.891667
O O6 0.464516 0.987031 0.122797
O O7 0.504490 0.717282 0.395896
O O8 0.099553 0.210268 0.198080
O O9 0.010480 0.071002 0.280678
O O10 0.219248 0.805285 0.696347
O O11 0.399835 0.930008 0.663211
O O12 0.000000 0.000000 0.500000
O O13 0.835662 0.299729 0.490054
O O14 0.000000 0.500000 0.500000
O O15 0.889131 0.763301 0.344671
O O16 0.509923 0.248554 0.138789
O O17 0.304830 0.160738 0.161582
#
# Coordination Sequence:
#
# PCOD9008865 Si02
#       8
#     2   2   2   2   2   2   2   2
#     4  11  24  37  62  93 129 155 199 270 299 361
#     4  11  22  40  58  94 127 156 203 255 320 348
#     4  12  20  40  68  89 120 166 213 244 301 374
#     4  10  24  43  63  89 132 160 197 261 307 363
#     4  10  21  40  62  91 119 162 208 247 303 358
#     4  10  21  42  62  92 116 167 207 245 308 363
#     4  10  21  39  66  87 120 166 204 246 308 365
#     4  10  21  40  61  89 124 163 203 253 298 371
#
# _framework density 19.234013000000001
#
# number of rings (size 3 to 8) (size 9 to 14) (size 15 to 20)
#    0.000    1.750    5.000    1.500    1.750    4.000 
#    0.000    3.750    0.000    0.000    0.000    0.000 
#    0.000    0.000    0.000    0.000    0.000    0.000 
#
# Total GULP energy -89234.898081 kJ/mol
# GULP energy per Si atom -5577.181130 kJ/mol
# Density = 1.919024 g / cm^3
# Si number density = 19.234013 Si / 1000 Ang^3
#
#
#
# Elastic Constant Matrix: (Units=GPa)
#
#
# Indices 1 2 3 4 5 6 
#
# 1 62.0229 12.1286 6.9829 9.3737 -0.2887 0.2692
# 2 12.1286 87.7651 50.4916 9.1887 -10.5707 -10.0461
# 3 6.9829 50.4916 72.7604 -8.5464 -1.1061 -6.1910
# 4 9.3737 9.1887 -8.5464 35.4433 -9.5426 -2.4328
# 5 -0.2887 -10.5707 -1.1061 -9.5426 22.8095 -1.8862
# 6 0.2692 -10.0461 -6.1910 -2.4328 -1.8862 26.4714
#
#
#
# Elastic Compliance Matrix: (Units=1/GPa)
#
#
# Indices 1 2 3 4 5 6 
#
# 1 0.017415 -0.001599 -0.001406 -0.005471 -0.003030 -0.001832
# 2 -0.001599 0.023137 -0.016221 -0.007184 0.007312 0.004864
# 3 -0.001406 -0.016221 0.026420 0.010530 -0.001776 0.000878
# 4 -0.005471 -0.007184 0.010530 0.037943 0.013336 0.004229
# 5 -0.003030 0.007312 -0.001776 0.013336 0.053298 0.007414
# 6 -0.001832 0.004864 0.000878 0.004229 0.007414 0.040764
#
#
# Mechanical properties :
#
#
# Convention : Reuss Voigt Hill
#
# Bulk Modulus (GPa) = 35.06484 40.19496 37.62990
# Shear Modulus (GPa) = 20.24831 27.14120 23.69476
#
# Velocity S-wave (km/s) = 3.24811 3.76054 3.51368
# Velocity P-wave (km/s) = 5.68658 6.30863 6.00566
#
# Compressibility (1/GPa) = 0.02851860
#
# Stress axis : x y z
#
# Youngs Moduli (GPa) = 57.42204 43.22163 37.85079
#
# Poissons Ratio (x) = 0.06913 0.05322
# Poissons Ratio (y) = 0.09185 0.61397
# Poissons Ratio (z) = 0.08073 0.70109
#
# Static dielectric constant tensor:
#      x y z
#    x 1.700770 -0.001290 -0.013790 
#    y -0.001290 1.667080 -0.023330 
#    z -0.013790 -0.023330 1.700800 
# 
# From -- ./inp_files/305480.got.cif
#   From: 2010.05.17/outbox.cif.g08.bks.cpg/sg2_153_cif.got.tgz:305480.got - 2010.06.03 11:33:40.
