data_PCOD9008034
_publ_section_title
;
Structure prediction by ZEFSAII (Michael W. Deem and Ramdas Pophale) SiO2 
 PCOD9008034
Probable space group: P -1
;
_chemical_formula_sum "Si O2"
_cell_formula_units_Z 14
_cell_length_a 10.767850
_cell_length_b 11.372604
_cell_length_c 13.298157
_cell_angle_alpha 46.427514
_cell_angle_beta 50.084983
_cell_angle_gamma 27.481909
_cell_volume 542.236134
_symmetry_space_group_name_H-M "P -1"
_symmetry_group_IT_number 2
_symmetry_cell_setting 'triclinic'
loop_
_space_group_symop_operation_xyz
x,y,z
-x,-y,-z
loop_
_atom_site_type_symbol
_atom_site_label
_atom_site_fract_x
_atom_site_fract_y
_atom_site_fract_z
Si Si1 0.132911 0.283150 0.678351
Si Si2 0.309757 0.281564 0.878613
Si Si3 0.767685 0.390062 0.418706
Si Si4 0.398760 0.300194 0.189437
Si Si5 0.097947 0.915590 0.655222
Si Si6 0.346292 0.413357 0.367924
Si Si7 0.151777 0.611020 0.944406
O O1 0.333591 0.352862 0.717073
O O2 0.885946 0.553747 0.713568
O O3 0.957545 0.306140 0.681366
O O4 0.355602 0.010410 0.788216
O O5 0.321741 0.418605 0.872423
O O6 0.037874 0.394220 0.943611
O O7 0.500000 0.000000 0.000000
O O8 0.500000 0.500000 0.500000
O O9 0.950323 0.170710 0.361827
O O10 0.710418 0.712335 0.473042
O O11 0.938580 0.207989 0.536900
O O12 0.489844 0.291594 0.255359
O O13 0.319377 0.486362 0.032993
O O14 0.418280 0.691549 0.629260
O O15 0.008981 0.888937 0.816599
#
# Coordination Sequence:
#
# PCOD9008034 Si02
#       7
#     2   2   2   2   2   2   2
#     4   9  21  39  62  95 131 167 224 266 321 390
#     4  10  22  40  63  89 126 169 217 270 327 387
#     4  10  22  40  63  93 124 169 217 270 323 391
#     4  10  21  39  63  94 129 170 217 270 322 394
#     4  10  22  42  60  92 131 165 218 265 330 387
#     4   9  21  37  64  89 131 169 212 274 324 387
#     4  10  23  39  61  91 127 171 215 270 326 392
#
# _framework density 25.819011
#
# number of rings (size 3 to 8) (size 9 to 14) (size 15 to 20)
#    0.857    1.429    0.000    1.286    4.000    4.000 
#    0.000    0.714    0.000    0.000    0.000    0.000 
#    0.000    0.000    0.000    0.000    0.000    0.000 
#
# Total GULP energy -77956.729680 kJ/mol
# GULP energy per Si atom -5568.337834 kJ/mol
# Density = 2.576025 g / cm^3
# Si number density = 25.819011 Si / 1000 Ang^3
#
#
#
# Elastic Constant Matrix: (Units=GPa)
#
#
# Indices 1 2 3 4 5 6 
#
# 1 84.6908 28.4666 31.1897 -1.7533 -4.4420 -16.9879
# 2 28.4666 75.1068 47.4288 -25.4117 4.0936 -23.7636
# 3 31.1897 47.4288 187.0221 -47.6148 -13.7638 -11.5878
# 4 -1.7533 -25.4117 -47.6148 32.5861 0.0696 3.0280
# 5 -4.4420 4.0936 -13.7638 0.0696 41.9257 3.9944
# 6 -16.9879 -23.7636 -11.5878 3.0280 3.9944 27.9771
#
#
#
# Elastic Compliance Matrix: (Units=1/GPa)
#
#
# Indices 1 2 3 4 5 6 
#
# 1 0.015450 -0.005410 -0.002934 -0.008079 0.000803 0.004331
# 2 -0.005410 0.028883 -0.000656 0.019459 -0.005514 0.019658
# 3 -0.002934 -0.000656 0.009612 0.013390 0.002908 -0.000222
# 4 -0.008079 0.019459 0.013390 0.064048 0.000566 0.010156
# 5 0.000803 -0.005514 0.002908 0.000566 0.026074 -0.006776
# 6 0.004331 0.019658 -0.000222 0.010156 -0.006776 0.054847
#
#
# Mechanical properties :
#
#
# Convention : Reuss Voigt Hill
#
# Bulk Modulus (GPa) = 27.82037 62.33221 45.07629
# Shear Modulus (GPa) = 21.84391 36.48007 29.16199
#
# Velocity S-wave (km/s) = 2.91183 3.76295 3.36442
# Velocity P-wave (km/s) = 4.70144 6.56309 5.70867
#
# Compressibility (1/GPa) = 0.03594488
#
# Stress axis : x y z
#
# Youngs Moduli (GPa) = 64.72408 34.62212 104.03817
#
# Poissons Ratio (x) = 0.18730 0.30526
# Poissons Ratio (y) = 0.35015 0.06826
# Poissons Ratio (z) = 0.18991 0.02272
#
# Static dielectric constant tensor:
#      x y z
#    x 2.173360 0.153300 0.053700 
#    y 0.153300 2.204350 0.002780 
#    z 0.053700 0.002780 2.133750 
# 
# From -- ./inp_files/71777.got.cif
#   From: 2010.05.17/outbox.cif.g08.bks.cpg/sg2_36_cif.got.tgz:71777.got - 2010.06.03 11:33:40.
