data_PCOD9008656
_publ_section_title
;
Structure prediction by ZEFSAII (Michael W. Deem and Ramdas Pophale) SiO2 
 PCOD9008656
Probable space group: P -1
;
_chemical_formula_sum "Si O2"
_cell_formula_units_Z 14
_cell_length_a 21.386683
_cell_length_b 4.978266
_cell_length_c 5.467254
_cell_angle_alpha 80.710068
_cell_angle_beta 97.579692
_cell_angle_gamma 66.231833
_cell_volume 513.078813
_symmetry_space_group_name_H-M "P -1"
_symmetry_group_IT_number 2
_symmetry_cell_setting 'triclinic'
loop_
_space_group_symop_operation_xyz
x,y,z
-x,-y,-z
loop_
_atom_site_type_symbol
_atom_site_label
_atom_site_fract_x
_atom_site_fract_y
_atom_site_fract_z
Si Si1 0.278960 0.170879 0.377891
Si Si2 0.210437 0.793434 0.513697
Si Si3 0.588563 0.953779 0.298886
Si Si4 0.455237 0.417832 0.290100
Si Si5 0.048656 0.642727 0.887528
Si Si6 0.324176 0.550163 0.972912
Si Si7 0.078893 0.747211 0.384913
O O1 0.236940 0.442929 0.505438
O O2 0.352537 0.955503 0.577150
O O3 0.296293 0.353537 0.151185
O O4 0.237121 0.977987 0.317856
O O5 0.128161 0.906081 0.464052
O O6 0.253788 0.793192 0.776467
O O7 0.569782 0.801259 0.543625
O O8 0.514521 0.222566 0.151724
O O9 0.625264 0.693194 0.161076
O O10 0.500000 0.500000 0.500000
O O11 0.379509 0.653982 0.115365
O O12 0.079547 0.539475 0.646162
O O13 0.100948 0.610144 0.142924
O O14 0.998854 0.994864 0.749390
O O15 0.000000 0.500000 0.000000
#
# Coordination Sequence:
#
# PCOD9008656 Si02
#       7
#     2   2   2   2   2   2   2
#     4  10  25  45  67  97 140 176 237 292 347 427
#     4  11  26  46  67 105 138 185 235 288 352 427
#     4   9  21  41  59  93 126 170 228 282 357 420
#     4  10  21  39  65  93 127 168 229 294 351 428
#     4  10  22  45  71 108 146 188 236 295 348 425
#     4  10  23  44  67  95 131 183 226 291 361 426
#     4  10  24  42  71 107 143 188 243 288 356 422
#
# _framework density 27.286256000000002
#
# number of rings (size 3 to 8) (size 9 to 14) (size 15 to 20)
#    0.000    2.000    0.000    0.857   10.000    2.857 
#   10.286    0.000    0.000    0.000    0.000    0.000 
#    0.000    0.000    0.000    0.000    0.000    0.000 
#
# Total GULP energy -78258.445553 kJ/mol
# GULP energy per Si atom -5589.888968 kJ/mol
# Density = 2.722415 g / cm^3
# Si number density = 27.286256 Si / 1000 Ang^3
#
#
#
# Elastic Constant Matrix: (Units=GPa)
#
#
# Indices 1 2 3 4 5 6 
#
# 1 156.7597 16.2269 54.2942 0.4064 22.8268 32.9473
# 2 16.2269 82.4070 21.2007 4.1932 3.5173 13.8536
# 3 54.2942 21.2007 154.9825 4.2138 7.3398 4.6746
# 4 0.4064 4.1932 4.2138 33.7402 9.0303 0.4254
# 5 22.8268 3.5173 7.3398 9.0303 48.2650 -2.0644
# 6 32.9473 13.8536 4.6746 0.4254 -2.0644 40.2412
#
#
#
# Elastic Compliance Matrix: (Units=1/GPa)
#
#
# Indices 1 2 3 4 5 6 
#
# 1 0.009791 0.000332 -0.003048 0.001618 -0.004838 -0.008042
# 2 0.000332 0.013405 -0.001736 -0.001165 -0.000854 -0.004717
# 3 -0.003048 -0.001736 0.007683 -0.000914 0.000666 0.002244
# 4 0.001618 -0.001165 -0.000914 0.031643 -0.006525 -0.001486
# 5 -0.004838 -0.000854 0.000666 -0.006525 0.024424 0.005499
# 6 -0.008042 -0.004717 0.002244 -0.001486 0.005499 0.033095
#
#
# Mechanical properties :
#
#
# Convention : Reuss Voigt Hill
#
# Bulk Modulus (GPa) = 45.50366 64.17695 54.84031
# Shear Modulus (GPa) = 36.69229 44.61112 40.65171
#
# Velocity S-wave (km/s) = 3.67102 4.04781 3.86401
# Velocity P-wave (km/s) = 5.88907 6.73924 6.32844
#
# Compressibility (1/GPa) = 0.02197625
#
# Stress axis : x y z
#
# Youngs Moduli (GPa) = 102.13559 74.60097 130.15635
#
# Poissons Ratio (x) = -0.02479 0.39668
# Poissons Ratio (y) = -0.03394 0.22591
# Poissons Ratio (z) = 0.31128 0.12948
#
# Static dielectric constant tensor:
#      x y z
#    x 2.136540 -0.025190 -0.005740 
#    y -0.025190 2.188150 0.049560 
#    z -0.005740 0.049560 2.280320 
# 
# From -- ./inp_files/9754.got.cif
#   From: 2010.05.17/outbox.cif.g08.bks.cpg/sg2_5_cif.got.tgz:9754.got - 2010.06.03 11:33:40.
