data_PCOD9008328
_publ_section_title
;
Structure prediction by ZEFSAII (Michael W. Deem and Ramdas Pophale) SiO2 
 PCOD9008328
Probable space group: P -1
;
_chemical_formula_sum "Si O2"
_cell_formula_units_Z 15
_cell_length_a 8.044791
_cell_length_b 11.183640
_cell_length_c 18.348406
_cell_angle_alpha 142.662843
_cell_angle_beta 130.277476
_cell_angle_gamma 77.083673
_cell_volume 594.577301
_symmetry_space_group_name_H-M "P -1"
_symmetry_group_IT_number 2
_symmetry_cell_setting 'triclinic'
loop_
_space_group_symop_operation_xyz
x,y,z
-x,-y,-z
loop_
_atom_site_type_symbol
_atom_site_label
_atom_site_fract_x
_atom_site_fract_y
_atom_site_fract_z
Si Si1 0.341593 0.368643 0.520721
Si Si2 0.953833 0.262541 0.738187
Si Si3 0.745023 0.862009 0.153476
Si Si4 0.020284 0.703934 0.743524
Si Si5 0.537956 0.012771 0.633057
Si Si6 0.718165 0.170540 0.921575
Si Si7 0.000000 0.000000 0.000000
Si Si8 0.505960 0.700207 0.865010
O O1 0.479483 0.234873 0.483665
O O2 0.512253 0.596138 0.738003
O O3 0.239980 0.430103 0.450409
O O4 0.042428 0.136285 0.358444
O O5 0.732961 0.056741 0.517550
O O6 0.202716 0.254195 0.821270
O O7 0.790224 0.194266 0.735607
O O8 0.055787 0.528696 0.868203
O O9 0.519546 0.903197 0.124227
O O10 0.629099 0.671067 0.958582
O O11 0.188653 0.594128 0.736183
O O12 0.956435 0.759892 0.830449
O O13 0.268488 0.995072 0.929264
O O14 0.591043 0.115562 0.778236
O O15 0.835525 0.021104 0.896922
#
# Coordination Sequence:
#
# PCOD9008328 Si02
#       8
#     2   2   2   2   2   2   1   2
#     4  10  21  39  64  93 127 171 215 265 315 381
#     4  10  24  43  67  95 127 174 219 263 321 382
#     4  10  23  41  64  97 129 163 220 261 318 393
#     4  10  21  41  60  93 128 169 221 260 308 392
#     4  10  23  42  66 100 127 162 223 269 319 385
#     4  12  24  44  66  94 137 172 205 273 327 378
#     4  12  24  42  66  98 136 164 212 268 320 388
#     4  10  21  39  66  89 127 174 214 262 318 376
#
# _framework density 25.228006000000001
#
# number of rings (size 3 to 8) (size 9 to 14) (size 15 to 20)
#    0.000    1.600    2.667    1.200    1.867    4.800 
#    0.000    1.333    0.000    0.000    0.000    0.000 
#    0.000    0.000    0.000    0.000    0.000    0.000 
#
# Total GULP energy -83730.885869 kJ/mol
# GULP energy per Si atom -5582.059058 kJ/mol
# Density = 2.517059 g / cm^3
# Si number density = 25.228006 Si / 1000 Ang^3
#
#
#
# Elastic Constant Matrix: (Units=GPa)
#
#
# Indices 1 2 3 4 5 6 
#
# 1 24.9322 -32.3726 -63.2429 28.9782 66.0605 -4.4583
# 2 -32.3726 41.9959 -86.0479 28.9570 102.1823 -11.6678
# 3 -63.2429 -86.0479 -99.4019 76.1804 167.4100 -0.3908
# 4 28.9782 28.9570 76.1804 -13.0216 -86.9367 0.4381
# 5 66.0605 102.1823 167.4100 -86.9367 -114.6241 -7.4137
# 6 -4.4583 -11.6678 -0.3908 0.4381 -7.4137 34.1875
#
#
#
# Elastic Compliance Matrix: (Units=1/GPa)
#
#
# Indices 1 2 3 4 5 6 
#
# 1 0.019307 -0.000698 -0.002311 0.004510 0.003517 0.002958
# 2 -0.000698 0.012285 -0.001787 0.008796 0.000996 0.004184
# 3 -0.002311 -0.001787 0.011034 0.007954 0.007115 0.000656
# 4 0.004510 0.008796 0.007954 0.036170 -0.005507 0.002023
# 5 0.003517 0.000996 0.007115 -0.005507 0.008578 0.002811
# 6 0.002958 0.004184 0.000656 0.002023 0.002811 0.031655
#
#
# Mechanical properties :
#
#
# Convention : Reuss Voigt Hill
#
# Bulk Modulus (GPa) = 30.27346 -43.97783 -6.85219
# Shear Modulus (GPa) = 35.80750 -8.74566 13.53092
#
# Velocity S-wave (km/s) = 3.77152 -1.86391 2.31843
# Velocity P-wave (km/s) = 5.56703 4.70130 2.10827
#
# Compressibility (1/GPa) = 0.03303223
#
# Stress axis : x y z
#
# Youngs Moduli (GPa) = 51.79378 81.40272 90.62498
#
# Poissons Ratio (x) = 0.05684 0.20947
# Poissons Ratio (y) = 0.03617 0.16199
# Poissons Ratio (z) = 0.11971 0.14551
#
# Static dielectric constant tensor:
#      x y z
#    x 2.290490 0.242880 0.310880 
#    y 0.242880 2.225880 0.249010 
#    z 0.310880 0.249010 2.279780 
# 
# From -- ./inp_files/123706.got.cif
#   From: 2010.05.17/outbox.cif.g08.bks.cpg/sg2_62_cif.got.tgz:123706.got - 2010.06.03 11:33:40.
