data_PCOD9008985
_publ_section_title
;
Structure prediction by ZEFSAII (Michael W. Deem and Ramdas Pophale) SiO2 
 PCOD9008985
Probable space group: P -1
;
_chemical_formula_sum "Si O2"
_cell_formula_units_Z 14
_cell_length_a 9.497962
_cell_length_b 11.764828
_cell_length_c 9.798576
_cell_angle_alpha 63.713276
_cell_angle_beta 42.887806
_cell_angle_gamma 51.373213
_cell_volume 581.922149
_symmetry_space_group_name_H-M "P -1"
_symmetry_group_IT_number 2
_symmetry_cell_setting 'triclinic'
loop_
_space_group_symop_operation_xyz
x,y,z
-x,-y,-z
loop_
_atom_site_type_symbol
_atom_site_label
_atom_site_fract_x
_atom_site_fract_y
_atom_site_fract_z
Si Si1 0.480352 0.358746 0.560804
Si Si2 0.117894 0.848197 0.788373
Si Si3 0.339049 0.251334 0.152302
Si Si4 0.676539 0.961815 0.522401
Si Si5 0.692693 0.328204 0.980124
Si Si6 0.035528 0.442008 0.657855
Si Si7 0.636325 0.842889 0.108183
O O1 0.500000 0.500000 0.500000
O O2 0.747206 0.239854 0.395645
O O3 0.364649 0.310132 0.788521
O O4 0.301313 0.381037 0.552293
O O5 0.124836 0.998571 0.691498
O O6 0.274323 0.749256 0.856080
O O7 0.866901 0.856085 0.971375
O O8 0.132413 0.419550 0.199840
O O9 0.265451 0.189875 0.369361
O O10 0.585224 0.250697 0.003908
O O11 0.381320 0.148323 0.047694
O O12 0.543946 0.066578 0.690558
O O13 0.500000 0.000000 0.500000
O O14 0.940996 0.326689 0.787062
O O15 0.500000 0.500000 0.000000
O O16 0.000000 0.500000 0.500000
#
# Coordination Sequence:
#
# PCOD9008985 Si02
#       7
#     2   2   2   2   2   2   2
#     4  11  24  39  67 100 140 176 218 276 344 401
#     4  11  23  45  68  98 136 177 226 276 333 406
#     4  11  24  45  68  98 138 179 226 283 336 397
#     4  11  25  47  72  96 134 179 235 276 332 405
#     4  10  21  39  66  95 135 176 218 273 334 401
#     4  11  24  40  67 103 139 177 227 274 336 406
#     4  11  26  44  69 102 136 178 225 283 341 397
#
# _framework density 24.058201
#
# number of rings (size 3 to 8) (size 9 to 14) (size 15 to 20)
#    0.000    1.143    2.857    3.000    8.000    2.286 
#    2.571    0.000    0.000    0.000    0.000    0.000 
#    0.000    0.000    0.000    0.000    0.000    0.000 
#
# Total GULP energy -78174.904562 kJ/mol
# GULP energy per Si atom -5583.921754 kJ/mol
# Density = 2.400344 g / cm^3
# Si number density = 24.058201 Si / 1000 Ang^3
#
#
#
# Elastic Constant Matrix: (Units=GPa)
#
#
# Indices 1 2 3 4 5 6 
#
# 1 73.3451 5.1284 31.4035 -12.1620 -1.7006 9.8293
# 2 5.1284 69.5877 26.4597 -14.2146 -6.6665 16.3073
# 3 31.4035 26.4597 115.9824 -22.0644 -7.6637 0.8624
# 4 -12.1620 -14.2146 -22.0644 49.6794 5.7722 -0.5698
# 5 -1.7006 -6.6665 -7.6637 5.7722 59.9333 -7.6759
# 6 9.8293 16.3073 0.8624 -0.5698 -7.6759 27.9489
#
#
#
# Elastic Compliance Matrix: (Units=1/GPa)
#
#
# Indices 1 2 3 4 5 6 
#
# 1 0.016934 0.002831 -0.004691 0.002908 -0.001070 -0.007697
# 2 0.002831 0.019521 -0.004340 0.004243 -0.000280 -0.012242
# 3 -0.004691 -0.004340 0.011420 0.002599 0.001131 0.004193
# 4 0.002908 0.004243 0.002599 0.023380 -0.001827 -0.003604
# 5 -0.001070 -0.000280 0.001131 -0.001827 0.017624 0.005308
# 6 -0.007697 -0.012242 0.004193 -0.003604 0.005308 0.046884
#
#
# Mechanical properties :
#
#
# Convention : Reuss Voigt Hill
#
# Bulk Modulus (GPa) = 28.18962 42.76650 35.47806
# Shear Modulus (GPa) = 31.25236 40.57389 35.91313
#
# Velocity S-wave (km/s) = 3.60812 4.11114 3.86782
# Velocity P-wave (km/s) = 5.39451 6.35218 5.89283
#
# Compressibility (1/GPa) = 0.03547405
#
# Stress axis : x y z
#
# Youngs Moduli (GPa) = 59.05385 51.22786 87.56403
#
# Poissons Ratio (x) = -0.14503 0.41077
# Poissons Ratio (y) = -0.16718 0.38004
# Poissons Ratio (z) = 0.27703 0.22234
#
# Static dielectric constant tensor:
#      x y z
#    x 1.916750 -0.043060 0.044310 
#    y -0.043060 2.091680 -0.003180 
#    z 0.044310 -0.003180 1.942860 
# 
# From -- ./inp_files/185616.got.cif
#   From: 2010.05.17/outbox.cif.g08.bks.cpg/sg2_93_cif.got.tgz:185616.got - 2010.06.03 11:33:40.
