data_PCOD9008337
_publ_section_title
;
Structure prediction by ZEFSAII (Michael W. Deem and Ramdas Pophale) SiO2 
 PCOD9008337
Probable space group: P -1
;
_chemical_formula_sum "Si O2"
_cell_formula_units_Z 16
_cell_length_a 12.399447
_cell_length_b 11.908879
_cell_length_c 11.978883
_cell_angle_alpha 64.244569
_cell_angle_beta 28.919147
_cell_angle_gamma 57.849161
_cell_volume 722.083614
_symmetry_space_group_name_H-M "P -1"
_symmetry_group_IT_number 2
_symmetry_cell_setting 'triclinic'
loop_
_space_group_symop_operation_xyz
x,y,z
-x,-y,-z
loop_
_atom_site_type_symbol
_atom_site_label
_atom_site_fract_x
_atom_site_fract_y
_atom_site_fract_z
Si Si1 0.255944 0.465541 0.219608
Si Si2 0.587567 0.174837 0.062169
Si Si3 0.151187 0.845768 0.930251
Si Si4 0.801594 0.197330 0.617462
Si Si5 0.507748 0.671782 0.526111
Si Si6 0.377660 0.411126 0.780797
Si Si7 0.005290 0.592254 0.172041
Si Si8 0.314548 0.040492 0.252436
O O1 0.363600 0.308309 0.196649
O O2 0.000000 0.500000 0.500000
O O3 0.172225 0.534828 0.148677
O O4 0.500000 0.500000 0.000000
O O5 0.721373 0.177450 0.054207
O O6 0.469591 0.061371 0.205271
O O7 0.741416 0.173156 0.811322
O O8 0.336330 0.806347 0.676741
O O9 0.018202 0.739134 0.077679
O O10 0.000000 0.000000 0.000000
O O11 0.594123 0.329232 0.702856
O O12 0.083792 0.170796 0.375401
O O13 0.779859 0.081761 0.605141
O O14 0.398363 0.554904 0.675764
O O15 0.595988 0.673325 0.319311
O O16 0.732227 0.617410 0.427378
O O17 0.110122 0.466614 0.046707
O O18 0.500000 0.000000 0.000000
#
# Coordination Sequence:
#
# PCOD9008337 Si02
#       8
#     2   2   2   2   2   2   2   2
#     4  12  26  42  71 110 148 184 229 301 363 431
#     4  11  23  40  64  97 132 177 228 284 363 414
#     4  11  26  45  64  93 137 183 235 287 350 434
#     4  10  21  39  64  93 131 169 229 287 352 419
#     4  10  24  42  63  96 133 178 232 287 350 434
#     4  10  22  41  66  96 131 175 229 291 358 413
#     4  11  23  42  68 100 136 177 239 288 364 423
#     4   9  22  38  57  93 129 169 217 279 343 426
#
# _framework density 22.158099
#
# number of rings (size 3 to 8) (size 9 to 14) (size 15 to 20)
#    0.000    1.500    2.500    1.125    5.250    5.500 
#    0.000    0.000    0.000    0.000    0.000    0.000 
#    0.000    0.000    0.000    0.000    0.000    0.000 
#
# Total GULP energy -89070.084762 kJ/mol
# GULP energy per Si atom -5566.880298 kJ/mol
# Density = 2.210767 g / cm^3
# Si number density = 22.158099 Si / 1000 Ang^3
#
#
#
# Elastic Constant Matrix: (Units=GPa)
#
#
# Indices 1 2 3 4 5 6 
#
# 1 72.3305 24.2800 15.9581 9.0386 2.1928 16.4455
# 2 24.2800 94.9709 29.9052 37.9822 11.8451 2.8212
# 3 15.9581 29.9052 81.8015 40.3861 -0.5464 7.8815
# 4 9.0386 37.9822 40.3861 38.1940 3.8942 -5.2549
# 5 2.1928 11.8451 -0.5464 3.8942 26.7634 3.0000
# 6 16.4455 2.8212 7.8815 -5.2549 3.0000 33.9216
#
#
#
# Elastic Compliance Matrix: (Units=1/GPa)
#
#
# Indices 1 2 3 4 5 6 
#
# 1 0.017145 -0.003797 -0.000915 -0.000536 0.001229 -0.007975
# 2 -0.003797 0.021271 0.007712 -0.028790 -0.004105 -0.005817
# 3 -0.000915 0.007712 0.033837 -0.045982 0.005803 -0.015696
# 4 -0.000536 -0.028790 -0.045982 0.108555 -0.007401 0.030810
# 5 0.001229 -0.004105 0.005803 -0.007401 0.040990 -0.006374
# 6 -0.007975 -0.005817 -0.015696 0.030810 -0.006374 0.042814
#
#
# Mechanical properties :
#
#
# Convention : Reuss Voigt Hill
#
# Bulk Modulus (GPa) = 12.77921 43.26550 28.02235
# Shear Modulus (GPa) = 17.56255 31.70644 24.63449
#
# Velocity S-wave (km/s) = 2.81837 3.78685 3.33792
# Velocity P-wave (km/s) = 4.04608 6.22001 5.24687
#
# Compressibility (1/GPa) = 0.07825208
#
# Stress axis : x y z
#
# Youngs Moduli (GPa) = 58.32607 47.01233 29.55346
#
# Poissons Ratio (x) = 0.17850 0.02704
# Poissons Ratio (y) = 0.22146 -0.22790
# Poissons Ratio (z) = 0.05338 -0.36254
#
# Static dielectric constant tensor:
#      x y z
#    x 1.860850 0.043240 0.033680 
#    y 0.043240 1.842570 -0.047030 
#    z 0.033680 -0.047030 1.947810 
# 
# From -- ./inp_files/84508.got.cif
#   From: 2010.05.17/outbox.cif.g08.bks.cpg/sg2_43_cif.got.tgz:84508.got - 2010.06.03 11:33:40.
