data_PCOD9008471
_publ_section_title
;
Structure prediction by ZEFSAII (Michael W. Deem and Ramdas Pophale) SiO2 
 PCOD9008471
Probable space group: P -1
;
_chemical_formula_sum "Si O2"
_cell_formula_units_Z 16
_cell_length_a 8.172714
_cell_length_b 5.746343
_cell_length_c 19.546698
_cell_angle_alpha 117.307372
_cell_angle_beta 52.039819
_cell_angle_gamma 126.503776
_cell_volume 575.499822
_symmetry_space_group_name_H-M "P -1"
_symmetry_group_IT_number 2
_symmetry_cell_setting 'triclinic'
loop_
_space_group_symop_operation_xyz
x,y,z
-x,-y,-z
loop_
_atom_site_type_symbol
_atom_site_label
_atom_site_fract_x
_atom_site_fract_y
_atom_site_fract_z
Si Si1 0.750075 0.784920 0.121145
Si Si2 0.788337 0.734244 0.601743
Si Si3 0.693016 0.885509 0.492543
Si Si4 0.356704 0.757790 0.765357
Si Si5 0.976171 0.145670 0.811364
Si Si6 0.236468 0.625159 0.633709
Si Si7 0.368535 0.672015 0.022262
Si Si8 0.252078 0.486384 0.285978
O O1 0.972482 0.901905 0.129438
O O2 0.493899 0.622435 0.201775
O O3 0.722944 0.066279 0.137372
O O4 0.763520 0.554087 0.034876
O O5 0.746624 0.785238 0.540767
O O6 0.628690 0.863327 0.699360
O O7 0.702841 0.453042 0.636012
O O8 0.064400 0.848419 0.553080
O O9 0.429630 0.842542 0.560691
O O10 0.686019 0.630954 0.410363
O O11 0.219441 0.413713 0.765418
O O12 0.270119 0.799206 0.718377
O O13 0.798028 0.286484 0.874297
O O14 0.876113 0.855926 0.752580
O O15 0.967973 0.451658 0.661976
O O16 0.500000 0.500000 0.000000
O O17 0.500000 0.000000 0.000000
#
# Coordination Sequence:
#
# PCOD9008471 Si02
#       8
#     2   2   2   2   2   2   2   2
#     4  12  27  49  76 110 152 197 251 306 385 450
#     4  10  21  39  64  99 141 194 242 311 372 446
#     4   9  20  40  62  93 144 196 242 301 392 436
#     4  11  24  43  74 105 148 196 246 311 372 449
#     4  12  27  49  76 110 152 197 251 306 385 450
#     4  10  21  39  64  99 141 194 242 311 372 446
#     4  12  31  53  84 117 160 204 254 312 389 462
#     4  12  24  43  72 106 148 186 258 312 372 447
#
# _framework density 27.801922000000001
#
# number of rings (size 3 to 8) (size 9 to 14) (size 15 to 20)
#    0.000    1.000    3.750    1.875    7.000    1.500 
#    0.000    0.000    0.000    0.000    0.000    0.000 
#    0.000    0.000    0.000    0.000    0.000    0.000 
#
# Total GULP energy -89284.474059 kJ/mol
# GULP energy per Si atom -5580.279629 kJ/mol
# Density = 2.773864 g / cm^3
# Si number density = 27.801922 Si / 1000 Ang^3
#
#
#
# Elastic Constant Matrix: (Units=GPa)
#
#
# Indices 1 2 3 4 5 6 
#
# 1 114.7585 10.3676 5.0307 -7.6283 -26.1207 3.0603
# 2 10.3676 115.4238 19.1959 0.9364 -5.6504 26.4208
# 3 5.0307 19.1959 82.1978 13.6204 -22.1880 2.4318
# 4 -7.6283 0.9364 13.6204 54.3497 6.8943 -7.3180
# 5 -26.1207 -5.6504 -22.1880 6.8943 52.3801 -3.4115
# 6 3.0603 26.4208 2.4318 -7.3180 -3.4115 26.9635
#
#
#
# Elastic Compliance Matrix: (Units=1/GPa)
#
#
# Indices 1 2 3 4 5 6 
#
# 1 0.009968 -0.000908 0.000893 0.000598 0.005205 0.000499
# 2 -0.000908 0.011776 -0.002361 -0.001208 -0.000782 -0.011650
# 3 0.000893 -0.002361 0.015382 -0.004550 0.007339 0.000518
# 4 0.000598 -0.001208 -0.004550 0.021069 -0.004095 0.006727
# 5 0.005205 -0.000782 0.007339 -0.004095 0.025355 0.001611
# 6 0.000499 -0.011650 0.000518 0.006727 0.001611 0.050429
#
#
# Mechanical properties :
#
#
# Convention : Reuss Voigt Hill
#
# Bulk Modulus (GPa) = 30.88820 42.39652 36.64236
# Shear Modulus (GPa) = 33.43973 45.25773 39.34873
#
# Velocity S-wave (km/s) = 3.47188 4.03906 3.76616
# Velocity P-wave (km/s) = 5.21595 6.08560 5.66748
#
# Compressibility (1/GPa) = 0.03237482
#
# Stress axis : x y z
#
# Youngs Moduli (GPa) = 100.32103 84.91745 65.01032
#
# Poissons Ratio (x) = 0.07711 -0.05807
# Poissons Ratio (y) = 0.09110 0.15348
# Poissons Ratio (z) = -0.08961 0.20048
#
# Static dielectric constant tensor:
#      x y z
#    x 2.351290 -0.173820 0.010420 
#    y -0.173820 2.371530 -0.018940 
#    z 0.010420 -0.018940 2.099100 
# 
# From -- ./inp_files/585844.got.cif
#   From: 2010.05.17/outbox.cif.g08.bks.cpg/sg2_293_cif.got.tgz:585844.got - 2010.06.03 11:33:40.
