data_PCOD9008166
_publ_section_title
;
Structure prediction by ZEFSAII (Michael W. Deem and Ramdas Pophale) SiO2 
 PCOD9008166
Probable space group: P -1
;
_chemical_formula_sum "Si O2"
_cell_formula_units_Z 14
_cell_length_a 8.874119
_cell_length_b 11.715933
_cell_length_c 12.887212
_cell_angle_alpha 60.943806
_cell_angle_beta 97.329748
_cell_angle_gamma 143.128796
_cell_volume 609.615059
_symmetry_space_group_name_H-M "P -1"
_symmetry_group_IT_number 2
_symmetry_cell_setting 'triclinic'
loop_
_space_group_symop_operation_xyz
x,y,z
-x,-y,-z
loop_
_atom_site_type_symbol
_atom_site_label
_atom_site_fract_x
_atom_site_fract_y
_atom_site_fract_z
Si Si1 0.931925 0.084602 0.823422
Si Si2 0.228654 0.764593 0.150705
Si Si3 0.542427 0.613788 0.139389
Si Si4 0.652138 0.845772 0.457794
Si Si5 0.163132 0.526387 0.423574
Si Si6 0.949020 0.313886 0.292657
Si Si7 0.240787 0.134799 0.310776
O O1 0.827993 0.006937 0.729953
O O2 0.899761 0.201512 0.822662
O O3 0.721949 0.833177 0.979367
O O4 0.253488 0.266300 0.796086
O O5 0.330815 0.741130 0.260848
O O6 0.981392 0.492204 0.194903
O O7 0.500000 0.000000 0.000000
O O8 0.251922 0.474631 0.209561
O O9 0.442771 0.403555 0.175272
O O10 0.704681 0.038213 0.352799
O O11 0.933671 0.972470 0.391349
O O12 0.379062 0.598910 0.477564
O O13 0.618486 0.811109 0.593528
O O14 0.950020 0.300488 0.424212
O O15 0.000000 0.500000 0.500000
#
# Coordination Sequence:
#
# PCOD9008166 Si02
#       7
#     2   2   2   2   2   2   2
#     4  11  21  38  63  92 121 161 207 258 306 366
#     4  10  22  42  63  90 126 162 204 251 315 370
#     4  10  21  39  64  88 123 161 205 262 305 364
#     4  10  22  42  60  90 126 163 205 255 316 362
#     4  10  23  39  63  90 125 165 205 256 308 370
#     4   9  21  40  62  85 124 161 200 259 306 369
#     4  10  23  37  64  91 122 161 209 255 304 377
#
# _framework density 22.965312999999998
#
# number of rings (size 3 to 8) (size 9 to 14) (size 15 to 20)
#    0.857    1.143    1.429    1.286    4.000    0.571 
#    2.571    5.000    0.000    0.000    0.000    0.000 
#    0.000    0.000    0.000    0.000    0.000    0.000 
#
# Total GULP energy -78147.575706 kJ/mol
# GULP energy per Si atom -5581.969693 kJ/mol
# Density = 2.291304 g / cm^3
# Si number density = 22.965313 Si / 1000 Ang^3
#
#
#
# Elastic Constant Matrix: (Units=GPa)
#
#
# Indices 1 2 3 4 5 6 
#
# 1 44.2884 12.7694 12.7317 -10.7422 5.0085 -20.7411
# 2 12.7694 31.2630 -1.1497 1.5712 -6.3849 -13.3801
# 3 12.7317 -1.1497 70.6506 7.8416 2.6056 -8.7910
# 4 -10.7422 1.5712 7.8416 27.5184 -4.0170 10.3540
# 5 5.0085 -6.3849 2.6056 -4.0170 25.1766 1.8379
# 6 -20.7411 -13.3801 -8.7910 10.3540 1.8379 37.2809
#
#
#
# Elastic Compliance Matrix: (Units=1/GPa)
#
#
# Indices 1 2 3 4 5 6 
#
# 1 0.037563 -0.012844 -0.006396 0.011339 -0.009141 0.012082
# 2 -0.012844 0.046217 0.005852 -0.013011 0.010579 0.013914
# 3 -0.006396 0.005852 0.017212 -0.009915 -0.001001 0.005403
# 4 0.011339 -0.013011 -0.009915 0.050655 0.004648 -0.014996
# 5 -0.009141 0.010579 -0.001001 0.004648 0.045435 -0.005055
# 6 0.012082 0.013914 0.005403 -0.014996 -0.005055 0.044227
#
#
# Mechanical properties :
#
#
# Convention : Reuss Voigt Hill
#
# Bulk Modulus (GPa) = 13.47425 21.65609 17.56517
# Shear Modulus (GPa) = 17.07509 26.11858 21.59683
#
# Velocity S-wave (km/s) = 2.72971 3.37605 3.06994
# Velocity P-wave (km/s) = 3.97681 4.96461 4.49791
#
# Compressibility (1/GPa) = 0.07421564
#
# Stress axis : x y z
#
# Youngs Moduli (GPa) = 26.62162 21.63696 58.09988
#
# Poissons Ratio (x) = 0.27790 0.37162
# Poissons Ratio (y) = 0.34193 -0.33999
# Poissons Ratio (z) = 0.17028 -0.12662
#
# Static dielectric constant tensor:
#      x y z
#    x 1.875070 -0.030210 0.041680 
#    y -0.030210 1.883280 -0.019330 
#    z 0.041680 -0.019330 1.843660 
# 
# From -- ./inp_files/389766.got.cif
#   From: 2010.05.17/outbox.cif.g08.bks.cpg/sg2_195_cif.got.tgz:389766.got - 2010.06.03 11:33:40.
