data_PCOD9008703
_publ_section_title
;
Structure prediction by ZEFSAII (Michael W. Deem and Ramdas Pophale) SiO2 
 PCOD9008703
Probable space group: P -1
;
_chemical_formula_sum "Si O2"
_cell_formula_units_Z 16
_cell_length_a 8.062105
_cell_length_b 14.924587
_cell_length_c 12.169509
_cell_angle_alpha 41.849849
_cell_angle_beta 69.530454
_cell_angle_gamma 51.100153
_cell_volume 740.384651
_symmetry_space_group_name_H-M "P -1"
_symmetry_group_IT_number 2
_symmetry_cell_setting 'triclinic'
loop_
_space_group_symop_operation_xyz
x,y,z
-x,-y,-z
loop_
_atom_site_type_symbol
_atom_site_label
_atom_site_fract_x
_atom_site_fract_y
_atom_site_fract_z
Si Si1 0.997780 0.027307 0.845265
Si Si2 0.114491 0.135225 0.396016
Si Si3 0.364454 0.686765 0.994260
Si Si4 0.924116 0.605382 0.703528
Si Si5 0.793395 0.073148 0.636113
Si Si6 0.759750 0.416052 0.516425
Si Si7 0.352856 0.433396 0.375496
Si Si8 0.177853 0.571685 0.960582
O O1 0.841990 0.014625 0.805599
O O2 0.907876 0.217161 0.676127
O O3 0.238019 0.875142 0.888904
O O4 0.000000 0.000000 0.000000
O O5 0.206081 0.206876 0.390840
O O6 0.008359 0.059693 0.556775
O O7 0.917543 0.308368 0.229698
O O8 0.239402 0.025112 0.360264
O O9 0.379148 0.571908 0.194357
O O10 0.601281 0.602556 0.965149
O O11 0.234556 0.662994 0.951470
O O12 0.770796 0.599339 0.656494
O O13 0.145166 0.553967 0.639744
O O14 0.971018 0.472600 0.906402
O O15 0.586204 0.263261 0.503079
O O16 0.500000 0.500000 0.500000
O O17 0.784799 0.494419 0.547419
#
# Coordination Sequence:
#
# PCOD9008703 Si02
#       8
#     2   2   2   2   2   2   2   2
#     4  12  23  40  69 100 127 170 235 280 313 394
#     4  11  21  40  66 100 136 170 223 269 333 393
#     4  10  21  39  66 100 128 178 223 261 334 392
#     4  11  25  40  66 101 134 175 219 273 338 396
#     4  11  23  40  69  96 131 178 223 274 323 400
#     4  12  24  45  71  93 128 177 228 271 328 398
#     4  11  22  43  67  94 138 175 222 271 330 394
#     4  10  21  39  65  94 141 174 211 274 331 397
#
# _framework density 21.610388
#
# number of rings (size 3 to 8) (size 9 to 14) (size 15 to 20)
#    0.000    1.000    6.250    0.750    0.000    0.500 
#    2.250    0.000    0.000    4.500    0.000    0.000 
#    0.000    0.000    0.000    0.000    0.000    0.000 
#
# Total GULP energy -89319.162691 kJ/mol
# GULP energy per Si atom -5582.447668 kJ/mol
# Density = 2.156120 g / cm^3
# Si number density = 21.610388 Si / 1000 Ang^3
#
#
#
# Elastic Constant Matrix: (Units=GPa)
#
#
# Indices 1 2 3 4 5 6 
#
# 1 47.0718 27.8733 33.6712 7.7327 -2.0503 8.8341
# 2 27.8733 160.3596 46.0370 -7.6739 -1.0580 19.4521
# 3 33.6712 46.0370 93.3346 12.9996 1.6811 -8.2394
# 4 7.7327 -7.6739 12.9996 46.5848 -0.5633 3.5593
# 5 -2.0503 -1.0580 1.6811 -0.5633 28.7485 6.9204
# 6 8.8341 19.4521 -8.2394 3.5593 6.9204 36.0722
#
#
#
# Elastic Compliance Matrix: (Units=1/GPa)
#
#
# Indices 1 2 3 4 5 6 
#
# 1 0.033371 -0.000783 -0.012621 -0.001186 0.005868 -0.011642
# 2 -0.000783 0.008841 -0.005191 0.003561 0.002217 -0.006538
# 3 -0.012621 -0.005191 0.019701 -0.005231 -0.005212 0.011906
# 4 -0.001186 0.003561 -0.005231 0.024166 0.002180 -0.005628
# 5 0.005868 0.002217 -0.005212 0.002180 0.038376 -0.011401
# 6 -0.011642 -0.006538 0.011906 -0.005628 -0.011401 0.039561
#
#
# Mechanical properties :
#
#
# Convention : Reuss Voigt Hill
#
# Bulk Modulus (GPa) = 40.44883 57.32544 48.88714
# Shear Modulus (GPa) = 23.87242 35.16006 29.51624
#
# Velocity S-wave (km/s) = 3.32727 4.03798 3.69973
# Velocity P-wave (km/s) = 5.78955 6.95160 6.39702
#
# Compressibility (1/GPa) = 0.02472259
#
# Stress axis : x y z
#
# Youngs Moduli (GPa) = 29.96612 113.11567 50.75834
#
# Poissons Ratio (x) = 0.08857 0.64062
# Poissons Ratio (y) = 0.02346 0.26349
# Poissons Ratio (z) = 0.37820 0.58720
#
# Static dielectric constant tensor:
#      x y z
#    x 1.836780 0.065770 0.019480 
#    y 0.065770 1.819330 0.022010 
#    z 0.019480 0.022010 1.783670 
# 
# From -- ./inp_files/398394.got.cif
#   From: 2010.05.17/outbox.cif.g08.bks.cpg/sg2_200_cif.got.tgz:398394.got - 2010.06.03 11:33:40.
