data_PCOD9008792
_publ_section_title
;
Structure prediction by ZEFSAII (Michael W. Deem and Ramdas Pophale) SiO2 
 PCOD9008792
Probable space group: P -1
;
_chemical_formula_sum "Si O2"
_cell_formula_units_Z 15
_cell_length_a 15.619695
_cell_length_b 15.179801
_cell_length_c 10.665311
_cell_angle_alpha 142.121049
_cell_angle_beta 127.057916
_cell_angle_gamma 27.692846
_cell_volume 679.260406
_symmetry_space_group_name_H-M "P -1"
_symmetry_group_IT_number 2
_symmetry_cell_setting 'triclinic'
loop_
_space_group_symop_operation_xyz
x,y,z
-x,-y,-z
loop_
_atom_site_type_symbol
_atom_site_label
_atom_site_fract_x
_atom_site_fract_y
_atom_site_fract_z
Si Si1 0.397255 0.753816 0.755239
Si Si2 0.986395 0.319036 0.516666
Si Si3 0.813068 0.194406 0.885438
Si Si4 0.575207 0.450144 0.210185
Si Si5 0.032216 0.690492 0.971451
Si Si6 0.000000 0.500000 0.500000
Si Si7 0.190123 0.297900 0.853133
Si Si8 0.439107 0.241776 0.293744
O O1 0.500000 0.500000 0.500000
O O2 0.395105 0.718445 0.860444
O O3 0.512353 0.758828 0.804058
O O4 0.170936 0.032084 0.832628
O O5 0.995557 0.361237 0.429685
O O6 0.772410 0.591630 0.689365
O O7 0.154746 0.211193 0.622552
O O8 0.021776 0.110244 0.326671
O O9 0.626545 0.350448 0.816374
O O10 0.743153 0.275569 0.058413
O O11 0.876854 0.275687 0.980244
O O12 0.563972 0.609012 0.457741
O O13 0.174077 0.462634 0.945092
O O14 0.989484 0.612594 0.745914
O O15 0.387361 0.047220 0.820680
O O16 0.000000 0.500000 0.000000
#
# Coordination Sequence:
#
# PCOD9008792 Si02
#       8
#     2   2   2   2   2   1   2   2
#     4  10  21  39  65  98 130 168 224 275 326 392
#     4  11  24  44  73  97 134 180 221 276 336 394
#     4  11  22  42  69 101 131 177 224 277 337 385
#     4  10  22  39  66 101 137 164 224 284 323 398
#     4  11  23  43  68  97 134 179 218 280 336 395
#     4  10  24  44  64 100 134 174 224 266 332 406
#     4  11  24  46  64  96 144 171 223 274 330 409
#     4  11  22  44  68  97 132 179 219 274 333 395
#
# _framework density 22.082841999999999
#
# number of rings (size 3 to 8) (size 9 to 14) (size 15 to 20)
#    0.000    1.333    2.667    3.200    0.000    3.200 
#    9.600    4.667    0.000    0.000    0.000    0.000 
#    0.000    0.000    0.000    0.000    0.000    0.000 
#
# Total GULP energy -83640.734323 kJ/mol
# GULP energy per Si atom -5576.048955 kJ/mol
# Density = 2.203258 g / cm^3
# Si number density = 22.082842 Si / 1000 Ang^3
#
#
#
# Elastic Constant Matrix: (Units=GPa)
#
#
# Indices 1 2 3 4 5 6 
#
# 1 144.5649 42.4518 35.8305 12.3298 7.9385 37.5517
# 2 42.4518 81.5054 34.4869 26.8041 12.6340 11.7082
# 3 35.8305 34.4869 90.5256 16.6145 15.6661 2.8204
# 4 12.3298 26.8041 16.6145 39.0432 1.3419 8.0473
# 5 7.9385 12.6340 15.6661 1.3419 33.0461 3.9809
# 6 37.5517 11.7082 2.8204 8.0473 3.9809 41.0634
#
#
#
# Elastic Compliance Matrix: (Units=1/GPa)
#
#
# Indices 1 2 3 4 5 6 
#
# 1 0.011067 -0.004129 -0.003250 0.002604 0.001484 -0.009374
# 2 -0.004129 0.020027 -0.003144 -0.011133 -0.004834 0.000932
# 3 -0.003250 -0.003144 0.015068 -0.003889 -0.005500 0.004129
# 4 0.002604 -0.011133 -0.003889 0.035223 0.004804 -0.006308
# 5 0.001484 -0.004834 -0.005500 0.004804 0.034634 -0.003900
# 6 -0.009374 0.000932 0.004129 -0.006308 -0.003900 0.033990
#
#
# Mechanical properties :
#
#
# Convention : Reuss Voigt Hill
#
# Bulk Modulus (GPa) = 39.81719 60.23716 50.02718
# Shear Modulus (GPa) = 27.86657 36.21898 32.04277
#
# Velocity S-wave (km/s) = 3.55619 4.05426 3.81337
# Velocity P-wave (km/s) = 5.91033 7.01805 6.48787
#
# Compressibility (1/GPa) = 0.02511478
#
# Stress axis : x y z
#
# Youngs Moduli (GPa) = 90.36222 49.93355 66.36680
#
# Poissons Ratio (x) = 0.20615 0.21569
# Poissons Ratio (y) = 0.37307 0.20869
# Poissons Ratio (z) = 0.29368 0.15702
#
# Static dielectric constant tensor:
#      x y z
#    x 1.796220 0.006600 -0.000050 
#    y 0.006600 1.812810 -0.018820 
#    z -0.000050 -0.018820 1.830240 
# 
# From -- ./inp_files/455946.got.cif
#   From: 2010.05.17/outbox.cif.g08.bks.cpg/sg2_228_cif.got.tgz:455946.got - 2010.06.03 11:33:40.
