data_PCOD9008134
_publ_section_title
;
Structure prediction by ZEFSAII (Michael W. Deem and Ramdas Pophale) SiO2 
 PCOD9008134
Probable space group: P -1
;
_chemical_formula_sum "Si O2"
_cell_formula_units_Z 10
_cell_length_a 5.046507
_cell_length_b 13.450999
_cell_length_c 9.162910
_cell_angle_alpha 51.927944
_cell_angle_beta 62.450135
_cell_angle_gamma 77.875842
_cell_volume 431.599948
_symmetry_space_group_name_H-M "P -1"
_symmetry_group_IT_number 2
_symmetry_cell_setting 'triclinic'
loop_
_space_group_symop_operation_xyz
x,y,z
-x,-y,-z
loop_
_atom_site_type_symbol
_atom_site_label
_atom_site_fract_x
_atom_site_fract_y
_atom_site_fract_z
Si Si1 0.802889 0.529758 0.662277
Si Si2 0.983735 0.028374 0.146810
Si Si3 0.833617 0.385137 0.244202
Si Si4 0.728250 0.262727 0.087390
Si Si5 0.671722 0.972266 0.675825
O O1 0.487090 0.576067 0.658054
O O2 0.000000 0.500000 0.500000
O O3 0.970373 0.627205 0.649797
O O4 0.737817 0.398745 0.887747
O O5 0.980422 0.179773 0.035478
O O6 0.253114 0.989450 0.210667
O O7 0.643554 0.975149 0.335050
O O8 0.000000 0.000000 0.000000
O O9 0.768413 0.275624 0.239385
O O10 0.000000 0.500000 0.000000
O O11 0.427926 0.176838 0.192852
O O12 0.000000 0.000000 0.500000
#
# Coordination Sequence:
#
# PCOD9008134 Si02
#       5
#     2   2   2   2   2
#     4  11  23  40  60  94 123 151 201 250 291 356
#     4  10  22  40  62  85 125 157 197 250 299 344
#     4  10  21  39  64  85 121 160 199 240 294 359
#     4   9  23  37  67  83 125 160 199 233 311 345
#     4  10  22  40  62  85 120 154 208 243 289 356
#
# _framework density 23.169604
#
# number of rings (size 3 to 8) (size 9 to 14) (size 15 to 20)
#    1.200    0.800    0.000    4.200    8.400    0.000 
#    3.600    0.000    0.000    0.000    0.000    0.000 
#    0.000    0.000    0.000    0.000    0.000    0.000 
#
# Total GULP energy -55773.978500 kJ/mol
# GULP energy per Si atom -5577.397850 kJ/mol
# Density = 2.311687 g / cm^3
# Si number density = 23.169604 Si / 1000 Ang^3
#
#
#
# Elastic Constant Matrix: (Units=GPa)
#
#
# Indices 1 2 3 4 5 6 
#
# 1 148.3532 12.7500 20.9689 4.1893 -9.8121 28.0020
# 2 12.7500 80.3902 22.6131 25.0767 -4.9913 24.7299
# 3 20.9689 22.6131 62.3349 21.0601 -15.1168 23.7013
# 4 4.1893 25.0767 21.0601 37.5029 -1.9245 5.6115
# 5 -9.8121 -4.9913 -15.1168 -1.9245 30.9894 10.2151
# 6 28.0020 24.7299 23.7013 5.6115 10.2151 47.2337
#
#
#
# Elastic Compliance Matrix: (Units=1/GPa)
#
#
# Indices 1 2 3 4 5 6 
#
# 1 0.008250 0.001304 0.001375 -0.001159 0.005857 -0.007392
# 2 0.001304 0.020099 0.004517 -0.013526 0.009642 -0.014041
# 3 0.001375 0.004517 0.035456 -0.018149 0.025340 -0.024295
# 4 -0.001159 -0.013526 -0.018149 0.043137 -0.013560 0.014683
# 5 0.005857 0.009642 0.025340 -0.013560 0.057784 -0.032122
# 6 -0.007392 -0.014041 -0.024295 0.014683 -0.032122 0.050299
#
#
# Mechanical properties :
#
#
# Convention : Reuss Voigt Hill
#
# Bulk Modulus (GPa) = 12.78837 44.86025 28.82431
# Shear Modulus (GPa) = 22.05572 38.79496 30.42534
#
# Velocity S-wave (km/s) = 3.08867 4.09637 3.62768
# Velocity P-wave (km/s) = 4.27216 6.46354 5.47854
#
# Compressibility (1/GPa) = 0.07819603
#
# Stress axis : x y z
#
# Youngs Moduli (GPa) = 121.21536 49.75290 28.20422
#
# Poissons Ratio (x) = -0.06489 -0.03877
# Poissons Ratio (y) = -0.15809 -0.12740
# Poissons Ratio (z) = -0.16661 -0.22473
#
# Static dielectric constant tensor:
#      x y z
#    x 1.935370 -0.020420 0.041120 
#    y -0.020420 1.908590 -0.019380 
#    z 0.041120 -0.019380 1.898750 
# 
# From -- ./inp_files/29102.got.cif
#   From: 2010.05.17/outbox.cif.g08.bks.cpg/sg2_15_cif.got.tgz:29102.got - 2010.06.03 11:33:40.
