data_PCOD9008167
_publ_section_title
;
Structure prediction by ZEFSAII (Michael W. Deem and Ramdas Pophale) SiO2 
 PCOD9008167
Probable space group: P -1
;
_chemical_formula_sum "Si O2"
_cell_formula_units_Z 16
_cell_length_a 9.595931
_cell_length_b 14.139099
_cell_length_c 15.366234
_cell_angle_alpha 140.759394
_cell_angle_beta 45.115278
_cell_angle_gamma 104.547760
_cell_volume 702.829541
_symmetry_space_group_name_H-M "P -1"
_symmetry_group_IT_number 2
_symmetry_cell_setting 'triclinic'
loop_
_space_group_symop_operation_xyz
x,y,z
-x,-y,-z
loop_
_atom_site_type_symbol
_atom_site_label
_atom_site_fract_x
_atom_site_fract_y
_atom_site_fract_z
Si Si1 0.472130 0.733061 0.249974
Si Si2 0.088543 0.646080 0.315726
Si Si3 0.259499 0.968029 0.352134
Si Si4 0.425573 0.762153 0.654848
Si Si5 0.091628 0.680220 0.845973
Si Si6 0.792309 0.645720 0.815797
Si Si7 0.196227 0.917449 0.673994
Si Si8 0.261907 0.084631 0.100456
O O1 0.278380 0.691122 0.283848
O O2 0.378153 0.915300 0.358929
O O3 0.421851 0.791918 0.413877
O O4 0.752244 0.538118 0.953418
O O5 0.059050 0.573571 0.368582
O O6 0.833712 0.837751 0.517608
O O7 0.482255 0.775144 0.058930
O O8 0.000000 0.000000 0.500000
O O9 0.258349 0.712483 0.737317
O O10 0.717136 0.547985 0.370840
O O11 0.312672 0.847702 0.669963
O O12 0.377016 0.923738 0.856769
O O13 0.878646 0.722477 0.904621
O O14 0.957196 0.848366 0.098372
O O15 0.832711 0.711389 0.754907
O O16 0.977993 0.895690 0.744074
O O17 0.500000 0.000000 0.000000
#
# Coordination Sequence:
#
# PCOD9008167 Si02
#       8
#     2   2   2   2   2   2   2   2
#     4   9  20  38  62  90 120 166 212 260 316 372
#     4   9  20  39  59  91 127 162 210 265 317 370
#     4   9  20  38  63  84 125 170 205 258 322 370
#     4  10  21  43  64  86 133 180 206 250 319 383
#     4  10  21  39  64  88 123 177 216 248 312 382
#     4  11  21  38  64  94 128 167 209 263 318 375
#     4  11  21  42  66  91 134 169 211 259 314 388
#     4  11  24  40  63 100 135 165 208 264 323 379
#
# _framework density 22.765121000000001
#
# number of rings (size 3 to 8) (size 9 to 14) (size 15 to 20)
#    0.000    2.000    2.500    1.500    5.250    1.000 
#    6.750    3.750    0.000    4.500    0.000    0.000 
#    0.000    0.000    0.000    0.000    0.000    0.000 
#
# Total GULP energy -89374.823398 kJ/mol
# GULP energy per Si atom -5585.926462 kJ/mol
# Density = 2.271331 g / cm^3
# Si number density = 22.765121 Si / 1000 Ang^3
#
#
#
# Elastic Constant Matrix: (Units=GPa)
#
#
# Indices 1 2 3 4 5 6 
#
# 1 90.1233 28.3183 30.2975 5.2201 1.3718 -10.6350
# 2 28.3183 122.8915 35.1761 28.4294 -0.6622 -15.7629
# 3 30.2975 35.1761 97.5530 12.4474 7.6725 -13.0463
# 4 5.2201 28.4294 12.4474 44.7185 -0.4807 -8.4717
# 5 1.3718 -0.6622 7.6725 -0.4807 32.6883 -4.6902
# 6 -10.6350 -15.7629 -13.0463 -8.4717 -4.6902 30.1162
#
#
#
# Elastic Compliance Matrix: (Units=1/GPa)
#
#
# Indices 1 2 3 4 5 6 
#
# 1 0.013024 -0.002028 -0.003157 0.001142 0.000540 0.002575
# 2 -0.002028 0.010892 -0.002334 -0.005534 0.001145 0.002595
# 3 -0.003157 -0.002334 0.012763 -0.001267 -0.002580 0.002434
# 4 0.001142 -0.005534 -0.001267 0.027012 0.001215 0.004746
# 5 0.000540 0.001145 -0.002580 0.001215 0.031931 0.004987
# 6 0.002575 0.002595 0.002434 0.004746 0.004987 0.038638
#
#
# Mechanical properties :
#
#
# Convention : Reuss Voigt Hill
#
# Bulk Modulus (GPa) = 46.21224 55.35017 50.78121
# Shear Modulus (GPa) = 31.94593 35.95632 33.95112
#
# Velocity S-wave (km/s) = 3.75011 3.97854 3.86601
# Velocity P-wave (km/s) = 6.25258 6.74325 6.50254
#
# Compressibility (1/GPa) = 0.02163929
#
# Stress axis : x y z
#
# Youngs Moduli (GPa) = 76.78002 91.80957 78.35000
#
# Poissons Ratio (x) = 0.18622 0.24738
# Poissons Ratio (y) = 0.15574 0.18290
# Poissons Ratio (z) = 0.24242 0.21432
#
# Static dielectric constant tensor:
#      x y z
#    x 1.828950 0.035760 -0.005140 
#    y 0.035760 1.897670 0.012270 
#    z -0.005140 0.012270 1.897930 
# 
# From -- ./inp_files/505560.got.cif
#   From: 2010.05.17/outbox.cif.g08.bks.cpg/sg2_253_cif.got.tgz:505560.got - 2010.06.03 11:33:40.
