data_PCOD9008263
_publ_section_title
;
Structure prediction by ZEFSAII (Michael W. Deem and Ramdas Pophale) SiO2 
 PCOD9008263
Probable space group: P -1
;
_chemical_formula_sum "Si O2"
_cell_formula_units_Z 16
_cell_length_a 18.680614
_cell_length_b 5.910503
_cell_length_c 24.418661
_cell_angle_alpha 75.249755
_cell_angle_beta 160.405370
_cell_angle_gamma 115.477716
_cell_volume 708.026814
_symmetry_space_group_name_H-M "P -1"
_symmetry_group_IT_number 2
_symmetry_cell_setting 'triclinic'
loop_
_space_group_symop_operation_xyz
x,y,z
-x,-y,-z
loop_
_atom_site_type_symbol
_atom_site_label
_atom_site_fract_x
_atom_site_fract_y
_atom_site_fract_z
Si Si1 0.373714 0.718419 0.206372
Si Si2 0.632294 0.126947 0.914626
Si Si3 0.946573 0.821860 0.918252
Si Si4 0.168411 0.540941 0.566035
Si Si5 0.894978 0.879139 0.165617
Si Si6 0.993803 0.154588 0.629238
Si Si7 0.647083 0.847900 0.599475
Si Si8 0.358251 0.269945 0.782359
O O1 0.289534 0.619168 0.087669
O O2 0.269900 0.499231 0.195672
O O3 0.687889 0.886223 0.422928
O O4 0.212466 0.854701 0.093012
O O5 0.452533 0.084245 0.839007
O O6 0.442964 0.847791 0.757258
O O7 0.865566 0.125790 0.107485
O O8 0.830937 0.893913 0.780497
O O9 0.000000 0.000000 0.000000
O O10 0.029740 0.576903 0.413022
O O11 0.225527 0.307726 0.631052
O O12 0.000000 0.500000 0.500000
O O13 0.897454 0.852835 0.233935
O O14 0.631942 0.577869 0.974349
O O15 0.163076 0.963556 0.326263
O O16 0.170745 0.170924 0.705865
O O17 0.500000 0.500000 0.500000
O O18 0.500000 0.000000 0.500000
#
# Coordination Sequence:
#
# PCOD9008263 Si02
#       8
#     2   2   2   2   2   2   2   2
#     4  10  23  43  67  96 141 175 240 303 364 435
#     4  10  21  39  64  91 130 178 224 282 356 426
#     4  11  26  44  74 104 138 191 245 311 375 440
#     4   8  18  36  58  86 122 164 221 278 330 404
#     4  11  24  42  67  95 140 180 231 290 364 433
#     4  10  21  41  63  96 136 179 234 292 347 438
#     4  12  30  51  79 111 152 196 246 309 380 448
#     4  10  22  40  66  94 131 186 229 286 358 422
#
# _framework density 22.598015
#
# number of rings (size 3 to 8) (size 9 to 14) (size 15 to 20)
#    0.000    1.750    1.250    1.125    8.750    5.000 
#    0.000    3.750    0.000    0.000    0.000    0.000 
#    0.000    0.000    0.000    0.000    0.000    0.000 
#
# Total GULP energy -89143.437213 kJ/mol
# GULP energy per Si atom -5571.464826 kJ/mol
# Density = 2.254658 g / cm^3
# Si number density = 22.598015 Si / 1000 Ang^3
#
#
#
# Elastic Constant Matrix: (Units=GPa)
#
#
# Indices 1 2 3 4 5 6 
#
# 1 132.7995 28.7683 35.0344 3.9463 23.5840 6.9869
# 2 28.7683 46.4337 26.6175 -2.0190 5.0885 -2.4491
# 3 35.0344 26.6175 61.9704 4.3929 14.7653 -10.4087
# 4 3.9463 -2.0190 4.3929 34.8988 9.0702 4.2305
# 5 23.5840 5.0885 14.7653 9.0702 66.0324 -8.7952
# 6 6.9869 -2.4491 -10.4087 4.2305 -8.7952 34.7878
#
#
#
# Elastic Compliance Matrix: (Units=1/GPa)
#
#
# Indices 1 2 3 4 5 6 
#
# 1 0.010224 -0.003809 -0.004186 0.000485 -0.003076 -0.004411
# 2 -0.003809 0.030529 -0.011569 0.003473 0.001023 -0.000711
# 3 -0.004186 -0.011569 0.025452 -0.003875 -0.001751 0.007670
# 4 0.000485 0.003473 -0.003875 0.031225 -0.004661 -0.005988
# 5 -0.003076 0.001023 -0.001751 -0.004661 0.017896 0.005257
# 6 -0.004411 -0.000711 0.007670 -0.005988 0.005257 0.033934
#
#
# Mechanical properties :
#
#
# Convention : Reuss Voigt Hill
#
# Bulk Modulus (GPa) = 36.93116 46.89379 41.91247
# Shear Modulus (GPa) = 25.32755 37.19603 31.26179
#
# Velocity S-wave (km/s) = 3.35145 4.06148 3.72343
# Velocity P-wave (km/s) = 5.59950 6.54144 6.08871
#
# Compressibility (1/GPa) = 0.02707740
#
# Stress axis : x y z
#
# Youngs Moduli (GPa) = 97.81376 32.75570 39.28888
#
# Poissons Ratio (x) = 0.12476 0.16446
# Poissons Ratio (y) = 0.37257 0.45453
# Poissons Ratio (z) = 0.40945 0.37895
#
# Static dielectric constant tensor:
#      x y z
#    x 1.888210 0.020860 0.049460 
#    y 0.020860 1.987110 0.002540 
#    z 0.049460 0.002540 1.832720 
# 
# From -- ./inp_files/124671.got.cif
#   From: 2010.05.17/outbox.cif.g08.bks.cpg/sg2_63_cif.got.tgz:124671.got - 2010.06.03 11:33:40.
