data_PCOD9008003
_publ_section_title
;
Structure prediction by ZEFSAII (Michael W. Deem and Ramdas Pophale) SiO2 
 PCOD9008003
Probable space group: P -1
;
_chemical_formula_sum "Si O2"
_cell_formula_units_Z 16
_cell_length_a 15.366352
_cell_length_b 8.192408
_cell_length_c 14.865587
_cell_angle_alpha 42.725423
_cell_angle_beta 44.203437
_cell_angle_gamma 74.140013
_cell_volume 747.606125
_symmetry_space_group_name_H-M "P -1"
_symmetry_group_IT_number 2
_symmetry_cell_setting 'triclinic'
loop_
_space_group_symop_operation_xyz
x,y,z
-x,-y,-z
loop_
_atom_site_type_symbol
_atom_site_label
_atom_site_fract_x
_atom_site_fract_y
_atom_site_fract_z
Si Si1 0.778845 0.808031 0.663254
Si Si2 0.452557 0.679044 0.089380
Si Si3 0.839905 0.332337 0.289440
Si Si4 0.196076 0.756161 0.853819
Si Si5 0.176625 0.219928 0.775744
Si Si6 0.946547 0.225838 0.590411
Si Si7 0.702414 0.640563 0.995398
Si Si8 0.721640 0.286015 0.637904
O O1 0.633530 0.548651 0.830368
O O2 0.763366 0.724182 0.813767
O O3 0.921549 0.811751 0.519866
O O4 0.790974 0.089657 0.499181
O O5 0.332215 0.696189 0.229783
O O6 0.542113 0.595143 0.124368
O O7 0.578151 0.987854 0.833476
O O8 0.785644 0.186642 0.290603
O O9 0.789286 0.556031 0.258617
O O10 0.019066 0.521378 0.085530
O O11 0.233284 0.011966 0.791505
O O12 0.285859 0.614005 0.874263
O O13 0.232608 0.436333 0.563337
O O14 0.000000 0.000000 0.000000
O O15 0.867464 0.276277 0.545229
O O16 0.000000 0.500000 0.500000
O O17 0.815973 0.927745 0.849980
#
# Coordination Sequence:
#
# PCOD9008003 Si02
#       8
#     2   2   2   2   2   2   2   2
#     4  12  22  40  66  97 129 169 221 275 334 384
#     4  10  22  40  65  91 137 179 207 269 337 402
#     4  10  21  39  63  93 130 164 216 272 334 388
#     4  10  22  40  60  93 130 170 213 271 329 388
#     4  10  22  38  65  92 126 173 216 272 329 388
#     4  11  22  35  64  96 127 164 217 284 324 381
#     4  11  24  40  61  96 133 167 221 274 325 391
#     4  10  21  41  62  99 131 169 225 265 332 397
#
# _framework density 21.401643
#
# number of rings (size 3 to 8) (size 9 to 14) (size 15 to 20)
#    0.000    1.500    2.500    3.000    3.500    1.000 
#    0.000    2.500    0.000    2.250    0.000    0.000 
#    0.000    0.000    0.000    0.000    0.000    0.000 
#
# Total GULP energy -89220.715453 kJ/mol
# GULP energy per Si atom -5576.294716 kJ/mol
# Density = 2.135293 g / cm^3
# Si number density = 21.401643 Si / 1000 Ang^3
#
#
#
# Elastic Constant Matrix: (Units=GPa)
#
#
# Indices 1 2 3 4 5 6 
#
# 1 62.9639 27.3830 31.4769 -5.3176 -2.6211 -8.6565
# 2 27.3830 103.3367 15.0368 -13.3831 -4.3350 -5.6261
# 3 31.4769 15.0368 81.6409 -12.6597 3.7209 6.1399
# 4 -5.3176 -13.3831 -12.6597 35.4233 2.9750 5.0163
# 5 -2.6211 -4.3350 3.7209 2.9750 31.9980 -2.0638
# 6 -8.6565 -5.6261 6.1399 5.0163 -2.0638 37.7410
#
#
#
# Elastic Compliance Matrix: (Units=1/GPa)
#
#
# Indices 1 2 3 4 5 6 
#
# 1 0.023344 -0.004714 -0.009202 -0.002766 0.003032 0.006682
# 2 -0.004714 0.011400 0.000227 0.003592 0.000808 0.000148
# 3 -0.009202 0.000227 0.017301 0.006031 -0.003676 -0.005894
# 4 -0.002766 0.003592 0.006031 0.032441 -0.003819 -0.005601
# 5 0.003032 0.000808 -0.003676 -0.003819 0.032631 0.003706
# 6 0.006682 0.000148 -0.005894 -0.005601 0.003706 0.029957
#
#
# Mechanical properties :
#
#
# Convention : Reuss Voigt Hill
#
# Bulk Modulus (GPa) = 40.54022 43.97054 42.25538
# Shear Modulus (GPa) = 27.37119 32.63543 30.00331
#
# Velocity S-wave (km/s) = 3.58009 3.90924 3.74828
# Velocity P-wave (km/s) = 6.00609 6.40048 6.20642
#
# Compressibility (1/GPa) = 0.02466686
#
# Stress axis : x y z
#
# Youngs Moduli (GPa) = 42.83830 87.71624 57.80137
#
# Poissons Ratio (x) = 0.41350 0.53186
# Poissons Ratio (y) = 0.20194 -0.01311
# Poissons Ratio (z) = 0.39418 -0.01989
#
# Static dielectric constant tensor:
#      x y z
#    x 1.758110 0.036770 -0.007980 
#    y 0.036770 1.913740 -0.024290 
#    z -0.007980 -0.024290 1.769200 
# 
# From -- ./inp_files/575219.got.cif
#   From: 2010.05.17/outbox.cif.g08.bks.cpg/sg2_288_cif.got.tgz:575219.got - 2010.06.03 11:33:40.
