data_PCOD9008000
_publ_section_title
;
Structure prediction by ZEFSAII (Michael W. Deem and Ramdas Pophale) SiO2 
 PCOD9008000
Probable space group: P -1
;
_chemical_formula_sum "Si O2"
_cell_formula_units_Z 16
_cell_length_a 5.990286
_cell_length_b 17.243889
_cell_length_c 8.338823
_cell_angle_alpha 90.331461
_cell_angle_beta 120.242800
_cell_angle_gamma 59.024189
_cell_volume 599.497717
_symmetry_space_group_name_H-M "P -1"
_symmetry_group_IT_number 2
_symmetry_cell_setting 'triclinic'
loop_
_space_group_symop_operation_xyz
x,y,z
-x,-y,-z
loop_
_atom_site_type_symbol
_atom_site_label
_atom_site_fract_x
_atom_site_fract_y
_atom_site_fract_z
Si Si1 0.177079 0.542422 0.734861
Si Si2 0.106212 0.139535 0.286071
Si Si3 0.663548 0.966587 0.291197
Si Si4 0.030200 0.709104 0.273822
Si Si5 0.409255 0.333891 0.710398
Si Si6 0.225543 0.946752 0.930143
Si Si7 0.684438 0.321097 0.293981
Si Si8 0.994728 0.409560 0.982743
O O1 0.303108 0.431652 0.769325
O O2 0.364162 0.577519 0.710309
O O3 0.820284 0.611245 0.528710
O O4 0.172391 0.578188 0.910818
O O5 0.231974 0.089534 0.505846
O O6 0.818495 0.132200 0.140990
O O7 0.961220 0.248931 0.267058
O O8 0.373683 0.075131 0.247453
O O9 0.881873 0.982743 0.260914
O O10 0.559087 0.919030 0.122703
O O11 0.210760 0.731424 0.199507
O O12 0.192565 0.719390 0.485429
O O13 0.715810 0.723180 0.250132
O O14 0.131090 0.611293 0.218559
O O15 0.000000 0.000000 0.000000
O O16 0.374997 0.326189 0.137601
O O17 0.000000 0.500000 0.000000
#
# Coordination Sequence:
#
# PCOD9008000 Si02
#       8
#     2   2   2   2   2   2   2   2
#     4  10  22  38  64  87 125 164 220 274 337 388
#     4  10  21  39  63  93 129 169 209 257 325 388
#     4   9  19  38  68  96 124 166 213 254 312 391
#     4  11  24  42  65  92 127 168 223 279 339 399
#     4  10  21  40  67  90 121 168 222 281 331 396
#     4   9  18  36  66  99 126 160 211 257 304 387
#     4  11  26  42  57  94 133 169 211 278 335 394
#     4  12  24  40  66  89 117 171 227 281 332 396
#
# _framework density 26.689005999999999
#
# number of rings (size 3 to 8) (size 9 to 14) (size 15 to 20)
#    0.000    1.750    2.500    1.125    1.750    5.000 
#    0.000    2.500    0.000    0.000    0.000    0.000 
#    0.000    0.000    0.000    0.000    0.000    0.000 
#
# Total GULP energy -89098.021110 kJ/mol
# GULP energy per Si atom -5568.626319 kJ/mol
# Density = 2.662826 g / cm^3
# Si number density = 26.689006 Si / 1000 Ang^3
#
#
#
# Elastic Constant Matrix: (Units=GPa)
#
#
# Indices 1 2 3 4 5 6 
#
# 1 144.5443 18.4179 -14.3912 -8.7624 -3.5887 -5.2489
# 2 18.4179 72.5894 17.8528 19.3897 6.0232 -2.7785
# 3 -14.3912 17.8528 67.1803 19.8479 -2.8136 -9.2898
# 4 -8.7624 19.3897 19.8479 42.2436 -1.4648 -2.6807
# 5 -3.5887 6.0232 -2.8136 -1.4648 38.8009 4.6671
# 6 -5.2489 -2.7785 -9.2898 -2.6807 4.6671 27.4540
#
#
#
# Elastic Compliance Matrix: (Units=1/GPa)
#
#
# Indices 1 2 3 4 5 6 
#
# 1 0.007762 -0.003112 0.002158 0.002187 0.001211 0.001907
# 2 -0.003112 0.017628 -0.003354 -0.007287 -0.003536 -0.000056
# 3 0.002158 -0.003354 0.019004 -0.006542 0.001170 0.005666
# 4 0.002187 -0.007287 -0.006542 0.030621 0.002001 0.000117
# 5 0.001211 -0.003536 0.001170 0.002001 0.027092 -0.004141
# 6 0.001907 -0.000056 0.005666 0.000117 -0.004141 0.039416
#
#
# Mechanical properties :
#
#
# Convention : Reuss Voigt Hill
#
# Bulk Modulus (GPa) = 27.95051 36.45253 32.20152
# Shear Modulus (GPa) = 30.85178 39.19531 35.02355
#
# Velocity S-wave (km/s) = 3.40365 3.83638 3.62648
# Velocity P-wave (km/s) = 5.09331 5.77163 5.44305
#
# Compressibility (1/GPa) = 0.03577753
#
# Stress axis : x y z
#
# Youngs Moduli (GPa) = 128.84059 56.72697 52.62024
#
# Poissons Ratio (x) = 0.17652 -0.11354
# Poissons Ratio (y) = 0.40092 0.17650
# Poissons Ratio (z) = -0.27800 0.19027
#
# Static dielectric constant tensor:
#      x y z
#    x 2.258910 -0.040250 0.033100 
#    y -0.040250 2.250590 -0.292520 
#    z 0.033100 -0.292520 2.276950 
# 
# From -- ./inp_files/139180.got.cif
#   From: 2010.05.17/outbox.cif.g08.bks.cpg/sg2_70_cif.got.tgz:139180.got - 2010.06.03 11:33:40.
