data_PCOD9008941
_publ_section_title
;
Structure prediction by ZEFSAII (Michael W. Deem and Ramdas Pophale) SiO2 
 PCOD9008941
Probable space group: P -1
;
_chemical_formula_sum "Si O2"
_cell_formula_units_Z 16
_cell_length_a 8.413081
_cell_length_b 25.225376
_cell_length_c 19.758527
_cell_angle_alpha 160.521261
_cell_angle_beta 144.530936
_cell_angle_gamma 44.059919
_cell_volume 784.687629
_symmetry_space_group_name_H-M "P -1"
_symmetry_group_IT_number 2
_symmetry_cell_setting 'triclinic'
loop_
_space_group_symop_operation_xyz
x,y,z
-x,-y,-z
loop_
_atom_site_type_symbol
_atom_site_label
_atom_site_fract_x
_atom_site_fract_y
_atom_site_fract_z
Si Si1 0.279823 0.441349 0.042755
Si Si2 0.198336 0.253525 0.414016
Si Si3 0.336775 0.987721 0.358406
Si Si4 0.372690 0.920801 0.059212
Si Si5 0.706018 0.651137 0.215829
Si Si6 0.827707 0.246986 0.407832
Si Si7 0.706622 0.897942 0.011739
Si Si8 0.711630 0.857466 0.225027
O O1 0.548374 0.592674 0.332246
O O2 0.331629 0.360495 0.891514
O O3 0.234538 0.309659 0.928466
O O4 0.000000 0.500000 0.000000
O O5 0.047507 0.292859 0.477606
O O6 0.326337 0.095248 0.277250
O O7 0.940752 0.197066 0.203388
O O8 0.345529 0.176201 0.570403
O O9 0.500000 0.000000 0.500000
O O10 0.491731 0.907986 0.260311
O O11 0.010441 0.883671 0.125032
O O12 0.533159 0.942811 0.069210
O O13 0.566091 0.851354 0.094260
O O14 0.025959 0.660264 0.363271
O O15 0.500000 0.500000 0.000000
O O16 0.784921 0.053005 0.174857
O O17 0.513844 0.252562 0.282749
O O18 0.000000 0.000000 0.500000
#
# Coordination Sequence:
#
# PCOD9008941 Si02
#       8
#     2   2   2   2   2   2   2   2
#     4  12  27  42  61  93 126 167 211 265 316 377
#     4  10  21  40  64  93 129 164 212 253 314 378
#     4  11  22  40  63  91 122 163 206 257 311 371
#     4  10  21  39  66  94 125 170 204 257 312 377
#     4  11  22  39  65  90 123 162 204 259 314 366
#     4   9  18  35  60  89 122 157 203 256 298 363
#     4   9  19  34  61  93 119 152 209 252 300 364
#     4  12  26  43  64  91 129 167 211 260 318 376
#
# _framework density 20.390280000000001
#
# number of rings (size 3 to 8) (size 9 to 14) (size 15 to 20)
#    0.000    1.500    2.500    3.000    7.000    1.500 
#    0.000    0.000    0.000    2.250    0.000    0.000 
#    0.000    0.000    0.000    0.000    0.000    0.000 
#
# Total GULP energy -89328.287522 kJ/mol
# GULP energy per Si atom -5583.017970 kJ/mol
# Density = 2.034387 g / cm^3
# Si number density = 20.390280 Si / 1000 Ang^3
#
#
#
# Elastic Constant Matrix: (Units=GPa)
#
#
# Indices 1 2 3 4 5 6 
#
# 1 40.2079 18.8233 17.0037 -1.9514 16.9450 2.0256
# 2 18.8233 119.7733 61.2170 -17.4280 17.4803 15.9969
# 3 17.0037 61.2170 137.4502 -20.2098 32.0087 7.3137
# 4 -1.9514 -17.4280 -20.2098 37.3970 -2.0085 0.3387
# 5 16.9450 17.4803 32.0087 -2.0085 37.0436 -4.7268
# 6 2.0256 15.9969 7.3137 0.3387 -4.7268 38.4436
#
#
#
# Elastic Compliance Matrix: (Units=1/GPa)
#
#
# Indices 1 2 3 4 5 6 
#
# 1 0.032077 -0.003091 0.000839 -0.000057 -0.014238 -0.002313
# 2 -0.003091 0.012117 -0.004025 0.003285 -0.001196 -0.004290
# 3 0.000839 -0.004025 0.011628 0.004009 -0.008527 -0.001665
# 4 -0.000057 0.003285 0.004009 0.030261 -0.003711 -0.002850
# 5 -0.014238 -0.001196 -0.008527 -0.003711 0.042273 0.008100
# 6 -0.002313 -0.004290 -0.001665 -0.002850 0.008100 0.029257
#
#
# Mechanical properties :
#
#
# Convention : Reuss Voigt Hill
#
# Bulk Modulus (GPa) = 23.11167 54.61327 38.86247
# Shear Modulus (GPa) = 27.08700 35.93599 31.51149
#
# Velocity S-wave (km/s) = 3.64871 4.20266 3.93544
# Velocity P-wave (km/s) = 5.39537 7.09873 6.30484
#
# Compressibility (1/GPa) = 0.04326818
#
# Stress axis : x y z
#
# Youngs Moduli (GPa) = 31.17487 82.52579 85.99968
#
# Poissons Ratio (x) = 0.25512 -0.07214
# Poissons Ratio (y) = 0.09637 0.34612
# Poissons Ratio (z) = -0.02615 0.33214
#
# Static dielectric constant tensor:
#      x y z
#    x 1.726250 0.005070 -0.017550 
#    y 0.005070 1.794890 -0.034360 
#    z -0.017550 -0.034360 1.749640 
# 
# From -- ./inp_files/587760.got.cif
#   From: 2010.05.17/outbox.cif.g08.bks.cpg/sg2_294_cif.got.tgz:587760.got - 2010.06.03 11:33:40.
