data_PCOD9008509
_publ_section_title
;
Structure prediction by ZEFSAII (Michael W. Deem and Ramdas Pophale) SiO2 
 PCOD9008509
Probable space group: P -1
;
_chemical_formula_sum "Si O2"
_cell_formula_units_Z 11
_cell_length_a 6.990136
_cell_length_b 15.023138
_cell_length_c 7.312904
_cell_angle_alpha 39.956710
_cell_angle_beta 104.183176
_cell_angle_gamma 80.858459
_cell_volume 397.172212
_symmetry_space_group_name_H-M "P -1"
_symmetry_group_IT_number 2
_symmetry_cell_setting 'triclinic'
loop_
_space_group_symop_operation_xyz
x,y,z
-x,-y,-z
loop_
_atom_site_type_symbol
_atom_site_label
_atom_site_fract_x
_atom_site_fract_y
_atom_site_fract_z
Si Si1 0.164749 0.515229 0.156291
Si Si2 0.387914 0.532694 0.625334
Si Si3 0.152177 0.252504 0.782685
Si Si4 0.000000 0.000000 0.500000
Si Si5 0.505705 0.173427 0.306974
Si Si6 0.794574 0.870961 0.420352
O O1 0.430946 0.436564 0.276806
O O2 0.157809 0.415686 0.482269
O O3 0.000000 0.500000 0.000000
O O4 0.032699 0.714785 0.824219
O O5 0.500000 0.500000 0.500000
O O6 0.114957 0.680214 0.329730
O O7 0.423099 0.365759 0.973920
O O8 0.196138 0.161391 0.741358
O O9 0.343022 0.163443 0.127653
O O10 0.215779 0.934335 0.502071
O O11 0.808514 0.021097 0.259770
O O12 0.413622 0.140413 0.524004
#
# Coordination Sequence:
#
# PCOD9008509 Si02
#       6
#     2   2   2   1   2   2
#     4  10  21  39  65 105 139 168 221 282 352 411
#     4  12  22  40  73 110 141 178 223 288 368 414
#     4  11  25  43  74 109 139 175 228 300 356 416
#     4  12  28  48  70  96 140 200 240 282 336 412
#     4  12  25  46  71  99 146 184 234 290 343 420
#     4  11  25  47  68 102 141 187 235 284 345 416
#
# _framework density 27.695795
#
# number of rings (size 3 to 8) (size 9 to 14) (size 15 to 20)
#    0.000    0.727    5.455    2.182    0.000    6.545 
#    0.000    1.818    0.000    0.000    0.000    0.000 
#    0.000    0.000    0.000    0.000    0.000    0.000 
#
# Total GULP energy -61441.547415 kJ/mol
# GULP energy per Si atom -5585.595220 kJ/mol
# Density = 2.763276 g / cm^3
# Si number density = 27.695795 Si / 1000 Ang^3
#
#
#
# Elastic Constant Matrix: (Units=GPa)
#
#
# Indices 1 2 3 4 5 6 
#
# 1 262.5528 84.7115 57.5623 7.4605 45.7910 -20.5490
# 2 84.7115 148.1954 14.0514 36.9481 3.7589 -26.7329
# 3 57.5623 14.0514 124.4636 7.0309 21.1997 -15.5391
# 4 7.4605 36.9481 7.0309 29.7027 0.4606 -0.5760
# 5 45.7910 3.7589 21.1997 0.4606 49.3691 -8.7597
# 6 -20.5490 -26.7329 -15.5391 -0.5760 -8.7597 58.3088
#
#
#
# Elastic Compliance Matrix: (Units=1/GPa)
#
#
# Indices 1 2 3 4 5 6 
#
# 1 0.006433 -0.004782 -0.002004 0.004863 -0.004993 -0.001162
# 2 -0.004782 0.014593 0.001618 -0.017281 0.003828 0.005841
# 3 -0.002004 0.001618 0.009603 -0.003708 -0.001951 0.002265
# 4 0.004863 -0.017281 -0.003708 0.054733 -0.003384 -0.007165
# 5 -0.004993 0.003828 -0.001951 -0.003384 0.026061 0.003357
# 6 -0.001162 0.005841 0.002265 -0.007165 0.003357 0.020455
#
#
# Mechanical properties :
#
#
# Convention : Reuss Voigt Hill
#
# Bulk Modulus (GPa) = 49.28257 94.20690 71.74474
# Shear Modulus (GPa) = 33.56143 52.73525 43.14834
#
# Velocity S-wave (km/s) = 3.48485 4.36832 3.95135
# Velocity P-wave (km/s) = 5.83311 7.71568 6.83947
#
# Compressibility (1/GPa) = 0.02029115
#
# Stress axis : x y z
#
# Youngs Moduli (GPa) = 155.44742 68.52554 104.12919
#
# Poissons Ratio (x) = 0.32772 0.20872
# Poissons Ratio (y) = 0.74342 -0.16845
# Poissons Ratio (z) = 0.31159 -0.11085
#
# Static dielectric constant tensor:
#      x y z
#    x 2.151910 0.125070 -0.042150 
#    y 0.125070 2.346270 -0.116740 
#    z -0.042150 -0.116740 2.437150 
# 
# From -- ./inp_files/58323.got.cif
#   From: 2010.05.17/outbox.cif.g08.bks.cpg/sg2_30_cif.got.tgz:58323.got - 2010.06.03 11:33:40.
