data_PCOD9008606
_publ_section_title
;
Structure prediction by ZEFSAII (Michael W. Deem and Ramdas Pophale) SiO2 
 PCOD9008606
Probable space group: P -1
;
_chemical_formula_sum "Si O2"
_cell_formula_units_Z 16
_cell_length_a 13.651862
_cell_length_b 10.330135
_cell_length_c 10.972932
_cell_angle_alpha 73.071429
_cell_angle_beta 134.679432
_cell_angle_gamma 137.101868
_cell_volume 664.019173
_symmetry_space_group_name_H-M "P -1"
_symmetry_group_IT_number 2
_symmetry_cell_setting 'triclinic'
loop_
_space_group_symop_operation_xyz
x,y,z
-x,-y,-z
loop_
_atom_site_type_symbol
_atom_site_label
_atom_site_fract_x
_atom_site_fract_y
_atom_site_fract_z
Si Si1 0.032922 0.166193 0.413102
Si Si2 0.152501 0.052779 0.943720
Si Si3 0.919776 0.409379 0.819401
Si Si4 0.578567 0.403423 0.088180
Si Si5 0.783934 0.453270 0.459044
Si Si6 0.560266 0.986460 0.394417
Si Si7 0.951807 0.157716 0.830316
Si Si8 0.572940 0.917727 0.151373
O O1 0.254680 0.418432 0.564264
O O2 0.833827 0.100426 0.315413
O O3 0.000000 0.000000 0.500000
O O4 0.994109 0.110851 0.251561
O O5 0.109258 0.179741 0.887492
O O6 0.397253 0.204346 0.078822
O O7 0.099704 0.947656 0.055498
O O8 0.928190 0.524574 0.687506
O O9 0.664460 0.179469 0.682156
O O10 0.041376 0.371999 0.883580
O O11 0.000000 0.500000 0.000000
O O12 0.800170 0.511603 0.313262
O O13 0.500000 0.500000 0.000000
O O14 0.522348 0.285676 0.946048
O O15 0.666468 0.216576 0.411610
O O16 0.732387 0.017799 0.601056
O O17 0.512882 0.889582 0.246767
O O18 0.500000 0.000000 0.000000
#
# Coordination Sequence:
#
# PCOD9008606 Si02
#       8
#     2   2   2   2   2   2   2   2
#     4  11  24  43  66  95 135 175 218 273 333 397
#     4  10  21  40  64  87 130 167 210 262 322 387
#     4  11  24  40  66  96 130 169 216 275 331 381
#     4  11  23  41  63  93 131 174 212 265 330 392
#     4  11  22  40  67  95 127 173 218 269 327 391
#     4  11  23  42  65  95 133 167 221 270 332 393
#     4  10  21  39  65  92 120 170 213 262 321 388
#     4  11  24  42  66  93 132 176 216 275 329 390
#
# _framework density 24.095690000000001
#
# number of rings (size 3 to 8) (size 9 to 14) (size 15 to 20)
#    0.000    1.250    1.250    6.000    3.500    1.500 
#    2.250    0.000    0.000   10.500    0.000    0.000 
#    0.000    0.000    0.000    0.000    0.000    0.000 
#
# Total GULP energy -89187.629876 kJ/mol
# GULP energy per Si atom -5574.226867 kJ/mol
# Density = 2.404085 g / cm^3
# Si number density = 24.095690 Si / 1000 Ang^3
#
#
#
# Elastic Constant Matrix: (Units=GPa)
#
#
# Indices 1 2 3 4 5 6 
#
# 1 128.8836 33.1378 29.0756 3.3136 -6.3692 -8.3960
# 2 33.1378 107.0656 42.4811 -12.0324 -9.6345 -25.9059
# 3 29.0756 42.4811 138.7315 -13.6938 -26.6307 -9.8673
# 4 3.3136 -12.0324 -13.6938 47.9404 -6.4871 -6.0372
# 5 -6.3692 -9.6345 -26.6307 -6.4871 48.9670 7.2924
# 6 -8.3960 -25.9059 -9.8673 -6.0372 7.2924 40.1556
#
#
#
# Elastic Compliance Matrix: (Units=1/GPa)
#
#
# Indices 1 2 3 4 5 6 
#
# 1 0.008695 -0.002453 -0.001301 -0.001656 -0.000235 -0.000290
# 2 -0.002453 0.013570 -0.002638 0.003876 0.000218 0.008137
# 3 -0.001301 -0.002638 0.009488 0.002782 0.004856 -0.000106
# 4 -0.001656 0.003876 0.002782 0.024049 0.004404 0.005654
# 5 -0.000235 0.000218 0.004856 0.004404 0.024018 -0.002415
# 6 -0.000290 0.008137 -0.000106 0.005654 -0.002415 0.031354
#
#
# Mechanical properties :
#
#
# Convention : Reuss Voigt Hill
#
# Bulk Modulus (GPa) = 52.71499 64.89663 58.80581
# Shear Modulus (GPa) = 38.37892 45.41167 41.89530
#
# Velocity S-wave (km/s) = 3.99528 4.34595 4.17430
# Velocity P-wave (km/s) = 6.57327 7.22319 6.90588
#
# Compressibility (1/GPa) = 0.01896994
#
# Stress axis : x y z
#
# Youngs Moduli (GPa) = 115.00835 73.69269 105.39955
#
# Poissons Ratio (x) = 0.18075 0.13708
# Poissons Ratio (y) = 0.28208 0.27805
# Poissons Ratio (z) = 0.14957 0.19441
#
# Static dielectric constant tensor:
#      x y z
#    x 1.918860 0.047940 0.093110 
#    y 0.047940 2.098560 0.193270 
#    z 0.093110 0.193270 2.241060 
# 
# From -- ./inp_files/447243.got.cif
#   From: 2010.05.17/outbox.cif.g08.bks.cpg/sg2_224_cif.got.tgz:447243.got - 2010.06.03 11:33:40.
