data_PCOD9008852
_publ_section_title
;
Structure prediction by ZEFSAII (Michael W. Deem and Ramdas Pophale) SiO2 
 PCOD9008852
Probable space group: P -1
;
_chemical_formula_sum "Si O2"
_cell_formula_units_Z 16
_cell_length_a 11.157613
_cell_length_b 5.616971
_cell_length_c 11.635283
_cell_angle_alpha 74.368195
_cell_angle_beta 105.865785
_cell_angle_gamma 82.137411
_cell_volume 657.818093
_symmetry_space_group_name_H-M "P -1"
_symmetry_group_IT_number 2
_symmetry_cell_setting 'triclinic'
loop_
_space_group_symop_operation_xyz
x,y,z
-x,-y,-z
loop_
_atom_site_type_symbol
_atom_site_label
_atom_site_fract_x
_atom_site_fract_y
_atom_site_fract_z
Si Si1 0.827452 0.365960 0.691455
Si Si2 0.411167 0.169552 0.092786
Si Si3 0.672396 0.831560 0.514363
Si Si4 0.419903 0.844218 0.340009
Si Si5 0.330040 0.801379 0.732359
Si Si6 0.737429 0.725177 0.179979
Si Si7 0.145301 0.530879 0.046558
Si Si8 0.053738 0.042024 0.880154
O O1 0.806305 0.624378 0.579705
O O2 0.692354 0.295573 0.655610
O O3 0.845386 0.427203 0.820696
O O4 0.942946 0.115903 0.745727
O O5 0.529050 0.276674 0.159984
O O6 0.272441 0.321456 0.081806
O O7 0.428838 0.905842 0.200133
O O8 0.382702 0.176489 0.949487
O O9 0.561958 0.725774 0.435013
O O10 0.624590 0.907613 0.621609
O O11 0.669610 0.091466 0.411003
O O12 0.267482 0.558953 0.749569
O O13 0.268149 0.063982 0.749878
O O14 0.865413 0.745011 0.141316
O O15 0.000000 0.500000 0.000000
O O16 0.151800 0.769656 0.935199
O O17 0.000000 0.000000 0.000000
#
# Coordination Sequence:
#
# PCOD9008852 Si02
#       8
#     2   2   2   2   2   2   2   2
#     4  11  21  38  67 100 132 180 224 295 355 411
#     4  11  21  41  69 103 135 184 233 289 368 410
#     4  10  23  42  65  98 138 184 232 282 345 414
#     4  10  21  39  66 105 133 170 235 297 346 407
#     4  11  28  45  69  98 144 193 233 282 345 438
#     4  12  25  47  67 100 142 183 233 293 351 426
#     4  11  21  38  67 107 147 171 225 302 362 410
#     4  10  23  40  67 101 130 171 225 291 358 410
#
# _framework density 24.322834
#
# number of rings (size 3 to 8) (size 9 to 14) (size 15 to 20)
#    0.000    1.250    1.250    5.625    1.750    3.000 
#    0.000    1.250    0.000    0.000    0.000    0.000 
#    0.000    0.000    0.000    0.000    0.000    0.000 
#
# Total GULP energy -89255.781395 kJ/mol
# GULP energy per Si atom -5578.486337 kJ/mol
# Density = 2.426747 g / cm^3
# Si number density = 24.322834 Si / 1000 Ang^3
#
#
#
# Elastic Constant Matrix: (Units=GPa)
#
#
# Indices 1 2 3 4 5 6 
#
# 1 93.9192 39.9453 26.4913 -17.6989 3.8606 19.9599
# 2 39.9453 83.2172 49.2995 -8.6383 3.2355 26.5127
# 3 26.4913 49.2995 138.6468 -34.5718 17.4411 6.0767
# 4 -17.6989 -8.6383 -34.5718 32.2517 -11.4652 -12.6543
# 5 3.8606 3.2355 17.4411 -11.4652 40.9550 -5.7002
# 6 19.9599 26.5127 6.0767 -12.6543 -5.7002 45.3691
#
#
#
# Elastic Compliance Matrix: (Units=1/GPa)
#
#
# Indices 1 2 3 4 5 6 
#
# 1 0.014795 -0.007262 0.001722 0.008242 0.000738 -0.000105
# 2 -0.007262 0.024637 -0.010076 -0.014976 -0.003172 -0.014429
# 3 0.001722 -0.010076 0.014255 0.016774 0.000365 0.007945
# 4 0.008242 -0.014976 0.016774 0.063244 0.014070 0.022287
# 5 0.000738 -0.003172 0.000365 0.014070 0.029652 0.009130
# 6 -0.000105 -0.014429 0.007945 0.022287 0.009130 0.036818
#
#
# Mechanical properties :
#
#
# Convention : Reuss Voigt Hill
#
# Bulk Modulus (GPa) = 44.53179 60.80616 52.66898
# Shear Modulus (GPa) = 22.51052 37.05164 29.78108
#
# Velocity S-wave (km/s) = 3.04549 3.90722 3.50295
# Velocity P-wave (km/s) = 5.54211 6.73862 6.16944
#
# Compressibility (1/GPa) = 0.02245587
#
# Stress axis : x y z
#
# Youngs Moduli (GPa) = 67.58872 40.58887 70.15274
#
# Poissons Ratio (x) = 0.29476 -0.12080
# Poissons Ratio (y) = 0.49083 0.70684
# Poissons Ratio (z) = -0.11639 0.40896
#
# Static dielectric constant tensor:
#      x y z
#    x 2.018120 -0.074840 -0.054340 
#    y -0.074840 2.135380 0.018720 
#    z -0.054340 0.018720 1.928690 
# 
# From -- ./inp_files/410105.got.cif
#   From: 2010.05.17/outbox.cif.g08.bks.cpg/sg2_206_cif.got.tgz:410105.got - 2010.06.03 11:33:40.
