data_PCOD9008779
_publ_section_title
;
Structure prediction by ZEFSAII (Michael W. Deem and Ramdas Pophale) SiO2 
 PCOD9008779
Probable space group: P -1
;
_chemical_formula_sum "Si O2"
_cell_formula_units_Z 15
_cell_length_a 19.501089
_cell_length_b 5.824208
_cell_length_c 6.074901
_cell_angle_alpha 87.939559
_cell_angle_beta 71.752797
_cell_angle_gamma 104.687093
_cell_volume 628.854492
_symmetry_space_group_name_H-M "P -1"
_symmetry_group_IT_number 2
_symmetry_cell_setting 'triclinic'
loop_
_space_group_symop_operation_xyz
x,y,z
-x,-y,-z
loop_
_atom_site_type_symbol
_atom_site_label
_atom_site_fract_x
_atom_site_fract_y
_atom_site_fract_z
Si Si1 0.725190 0.746712 0.310499
Si Si2 0.857711 0.543496 0.199162
Si Si3 0.588006 0.643925 0.150169
Si Si4 0.316976 0.942591 0.275582
Si Si5 0.818064 0.160497 0.879779
Si Si6 0.000000 0.000000 0.000000
Si Si7 0.943465 0.277878 0.439753
Si Si8 0.449460 0.759515 0.171671
O O1 0.775871 0.574931 0.327744
O O2 0.711033 0.899539 0.524487
O O3 0.644450 0.623138 0.286887
O O4 0.775983 0.934752 0.078380
O O5 0.888832 0.390867 0.348480
O O6 0.850786 0.391670 0.988107
O O7 0.918976 0.797845 0.120228
O O8 0.573960 0.431415 0.995046
O O9 0.633452 0.878790 0.961580
O O10 0.505907 0.678235 0.283189
O O11 0.245096 0.791940 0.219476
O O12 0.373485 0.809502 0.330949
O O13 0.888634 0.114450 0.680858
O O14 0.016961 0.856913 0.764097
O O15 0.000000 0.500000 0.500000
O O16 0.500000 0.000000 0.000000
#
# Coordination Sequence:
#
# PCOD9008779 Si02
#       8
#     2   2   2   2   2   1   2   2
#     4  11  25  43  68 101 137 184 233 285 348 422
#     4  12  26  44  69 102 136 177 234 282 352 431
#     4   9  20  39  64  95 135 180 228 279 346 407
#     4  10  21  39  65  97 136 179 231 286 341 403
#     4  11  24  46  69  98 140 183 229 290 351 413
#     4  12  26  48  74 102 134 174 234 282 352 434
#     4  12  28  50  74 103 138 181 229 295 358 419
#     4   9  18  38  65  95 134 181 225 280 341 406
#
# _framework density 23.852893000000002
#
# number of rings (size 3 to 8) (size 9 to 14) (size 15 to 20)
#    0.000    1.333    1.333    3.600    1.867    6.400 
#    2.400    6.000    0.000    0.000    0.000    0.000 
#    0.000    0.000    0.000    0.000    0.000    0.000 
#
# Total GULP energy -83725.386336 kJ/mol
# GULP energy per Si atom -5581.692422 kJ/mol
# Density = 2.379860 g / cm^3
# Si number density = 23.852893 Si / 1000 Ang^3
#
#
#
# Elastic Constant Matrix: (Units=GPa)
#
#
# Indices 1 2 3 4 5 6 
#
# 1 112.8768 54.5739 58.3532 8.1293 1.8290 2.1420
# 2 54.5739 59.7792 23.1328 17.3380 15.1092 19.5281
# 3 58.3532 23.1328 91.0878 18.6057 -7.4919 -7.7901
# 4 8.1293 17.3380 18.6057 40.8415 5.0316 -1.9709
# 5 1.8290 15.1092 -7.4919 5.0316 44.0845 10.8072
# 6 2.1420 19.5281 -7.7901 -1.9709 10.8072 52.8507
#
#
#
# Elastic Compliance Matrix: (Units=1/GPa)
#
#
# Indices 1 2 3 4 5 6 
#
# 1 0.026319 -0.025397 -0.011863 0.010914 0.002780 0.006408
# 2 -0.025397 0.050904 0.004963 -0.018396 -0.009583 -0.015775
# 3 -0.011863 0.004963 0.019437 -0.008939 0.002975 0.000570
# 4 0.010914 -0.018396 -0.008939 0.034665 -0.001237 0.006583
# 5 0.002780 -0.009583 0.002975 -0.001237 0.026912 -0.001683
# 6 0.006408 -0.015775 0.000570 0.006583 -0.001683 0.025164
#
#
# Mechanical properties :
#
#
# Convention : Reuss Voigt Hill
#
# Bulk Modulus (GPa) = 31.18675 59.54040 45.36358
# Shear Modulus (GPa) = 19.32859 36.06760 27.69809
#
# Velocity S-wave (km/s) = 2.84971 3.89277 3.41134
# Velocity P-wave (km/s) = 4.89191 6.72463 5.88011
#
# Compressibility (1/GPa) = 0.03206490
#
# Stress axis : x y z
#
# Youngs Moduli (GPa) = 37.99598 19.64470 51.44759
#
# Poissons Ratio (x) = 0.49893 0.61033
# Poissons Ratio (y) = 0.96500 -0.25533
# Poissons Ratio (z) = 0.45075 -0.09750
#
# Static dielectric constant tensor:
#      x y z
#    x 1.939530 -0.038750 0.036740 
#    y -0.038750 1.886510 -0.057590 
#    z 0.036740 -0.057590 1.915060 
# 
# From -- ./inp_files/8209.got.cif
#   From: 2010.05.17/outbox.cif.g08.bks.cpg/sg2_5_cif.got.tgz:8209.got - 2010.06.03 11:33:40.
