data_PCOD9008948
_publ_section_title
;
Structure prediction by ZEFSAII (Michael W. Deem and Ramdas Pophale) SiO2 
 PCOD9008948
Probable space group: P -1
;
_chemical_formula_sum "Si O2"
_cell_formula_units_Z 14
_cell_length_a 7.274879
_cell_length_b 20.513210
_cell_length_c 7.667452
_cell_angle_alpha 131.186215
_cell_angle_beta 141.354065
_cell_angle_gamma 51.560999
_cell_volume 523.547023
_symmetry_space_group_name_H-M "P -1"
_symmetry_group_IT_number 2
_symmetry_cell_setting 'triclinic'
loop_
_space_group_symop_operation_xyz
x,y,z
-x,-y,-z
loop_
_atom_site_type_symbol
_atom_site_label
_atom_site_fract_x
_atom_site_fract_y
_atom_site_fract_z
Si Si1 0.655954 0.188128 0.791469
Si Si2 0.627462 0.750367 0.948792
Si Si3 0.346939 0.450067 0.656328
Si Si4 0.140733 0.294947 0.399376
Si Si5 0.513218 0.924663 0.023085
Si Si6 0.853197 0.359394 0.655146
Si Si7 0.115227 0.007141 0.297058
O O1 0.464820 0.197688 0.845818
O O2 0.842737 0.265073 0.062218
O O3 0.391064 0.208618 0.491338
O O4 0.868584 0.090436 0.780337
O O5 0.321319 0.719528 0.629382
O O6 0.700157 0.823077 0.998818
O O7 0.901302 0.667662 0.056501
O O8 0.313641 0.350792 0.504074
O O9 0.578436 0.441332 0.648875
O O10 0.000000 0.500000 0.500000
O O11 0.500000 0.500000 0.000000
O O12 0.029803 0.356993 0.599072
O O13 0.603021 0.967802 0.348872
O O14 0.500000 0.000000 0.000000
O O15 0.169725 0.914766 0.724736
O O16 0.000000 0.000000 0.000000
#
# Coordination Sequence:
#
# PCOD9008948 Si02
#       7
#     2   2   2   2   2   2   2
#     4  10  21  39  66  94 128 177 229 280 319 397
#     4  10  21  40  64  90 133 173 224 276 331 399
#     4  12  26  44  69  99 131 164 210 272 341 418
#     4  10  23  42  65  98 130 170 226 267 331 415
#     4  12  26  40  59  97 139 179 231 290 348 397
#     4  10  23  42  67  94 127 174 214 272 342 396
#     4  12  24  40  66  94 133 184 235 284 342 386
#
# _framework density 26.740673999999999
#
# number of rings (size 3 to 8) (size 9 to 14) (size 15 to 20)
#    0.000    1.143    1.429    4.286    4.000    4.571 
#    0.000    0.000    0.000    0.000    0.000    0.000 
#    0.000    0.000    0.000    0.000    0.000    0.000 
#
# Total GULP energy -78131.437856 kJ/mol
# GULP energy per Si atom -5580.816990 kJ/mol
# Density = 2.667981 g / cm^3
# Si number density = 26.740674 Si / 1000 Ang^3
#
#
#
# Elastic Constant Matrix: (Units=GPa)
#
#
# Indices 1 2 3 4 5 6 
#
# 1 108.5054 2.7984 14.5120 -25.9232 -6.1116 -3.1158
# 2 2.7984 37.9203 -5.4660 -11.4751 12.9005 -11.0688
# 3 14.5120 -5.4660 159.8732 -24.7751 17.8903 11.9473
# 4 -25.9232 -11.4751 -24.7751 40.5631 -8.7111 16.1043
# 5 -6.1116 12.9005 17.8903 -8.7111 37.8017 -6.0496
# 6 -3.1158 -11.0688 11.9473 16.1043 -6.0496 43.3416
#
#
#
# Elastic Compliance Matrix: (Units=1/GPa)
#
#
# Indices 1 2 3 4 5 6 
#
# 1 0.011489 0.000103 0.000114 0.009005 0.003518 -0.002034
# 2 0.000103 0.033911 0.003375 0.008133 -0.010765 0.003213
# 3 0.000114 0.003375 0.008252 0.006995 -0.004160 -0.004584
# 4 0.009005 0.008133 0.006995 0.043573 0.003015 -0.014973
# 5 0.003518 -0.010765 -0.004160 0.003015 0.033718 0.002237
# 6 -0.002034 0.003213 -0.004584 -0.014973 0.002237 0.030886
#
#
# Mechanical properties :
#
#
# Convention : Reuss Voigt Hill
#
# Bulk Modulus (GPa) = 16.43729 36.66530 26.55130
# Shear Modulus (GPa) = 28.58392 43.97158 36.27775
#
# Velocity S-wave (km/s) = 3.27300 4.05948 3.68727
# Velocity P-wave (km/s) = 4.52146 5.97610 5.29893
#
# Compressibility (1/GPa) = 0.06083727
#
# Stress axis : x y z
#
# Youngs Moduli (GPa) = 87.03826 29.48874 121.18211
#
# Poissons Ratio (x) = -0.00304 -0.01386
# Poissons Ratio (y) = -0.00897 -0.40898
# Poissons Ratio (z) = -0.00996 -0.09952
#
# Static dielectric constant tensor:
#      x y z
#    x 2.267480 -0.012160 -0.084510 
#    y -0.012160 1.811660 -0.107030 
#    z -0.084510 -0.107030 1.944240 
# 
# From -- ./inp_files/217243.got.cif
#   From: 2010.05.17/outbox.cif.g08.bks.cpg/sg2_109_cif.got.tgz:217243.got - 2010.06.03 11:33:40.
