data_PCOD9008547
_publ_section_title
;
Structure prediction by ZEFSAII (Michael W. Deem and Ramdas Pophale) SiO2 
 PCOD9008547
Probable space group: P -1
;
_chemical_formula_sum "Si O2"
_cell_formula_units_Z 16
_cell_length_a 8.528504
_cell_length_b 21.461615
_cell_length_c 17.965793
_cell_angle_alpha 22.332852
_cell_angle_beta 145.615013
_cell_angle_gamma 137.823591
_cell_volume 701.865005
_symmetry_space_group_name_H-M "P -1"
_symmetry_group_IT_number 2
_symmetry_cell_setting 'triclinic'
loop_
_space_group_symop_operation_xyz
x,y,z
-x,-y,-z
loop_
_atom_site_type_symbol
_atom_site_label
_atom_site_fract_x
_atom_site_fract_y
_atom_site_fract_z
Si Si1 0.063305 0.270872 0.345860
Si Si2 0.329587 0.524144 0.499289
Si Si3 0.141510 0.676402 0.531811
Si Si4 0.246365 0.046733 0.904903
Si Si5 0.297981 0.766608 0.333968
Si Si6 0.672639 0.243580 0.892802
Si Si7 0.212065 0.058597 0.363981
Si Si8 0.764034 0.621998 0.870467
O O1 0.370811 0.221659 0.554553
O O2 0.122213 0.321440 0.227539
O O3 0.894442 0.109614 0.459051
O O4 0.919197 0.436612 0.147051
O O5 0.256047 0.589413 0.479478
O O6 0.612802 0.400556 0.749403
O O7 0.387187 0.673796 0.302353
O O8 0.076550 0.448186 0.441900
O O9 0.209148 0.774807 0.374737
O O10 0.434966 0.596810 0.764239
O O11 0.987877 0.817968 0.367542
O O12 0.420012 0.140511 0.930513
O O13 0.500000 0.000000 0.000000
O O14 0.138221 0.897595 0.071301
O O15 0.964669 0.136298 0.126782
O O16 0.226189 0.216994 0.249958
O O17 0.500000 0.000000 0.500000
#
# Coordination Sequence:
#
# PCOD9008547 Si02
#       8
#     2   2   2   2   2   2   2   2
#     4  10  23  45  69  92 126 174 215 263 324 377
#     4  10  21  39  65  89 126 161 201 260 321 374
#     4  10  24  39  61  94 124 160 208 257 314 375
#     4  11  21  38  62  85 127 160 195 253 314 375
#     4  11  20  39  66  93 121 158 209 259 314 378
#     4  10  22  40  57  92 121 160 208 250 315 380
#     4  12  26  41  66  97 128 169 220 266 316 376
#     4  10  24  46  65  92 131 171 217 265 315 378
#
# _framework density 22.796408
#
# number of rings (size 3 to 8) (size 9 to 14) (size 15 to 20)
#    0.000    1.500    2.500    1.875    3.500    0.500 
#    0.000    0.000    0.000    0.000    0.000    0.000 
#    0.000    0.000    0.000    0.000    0.000    0.000 
#
# Total GULP energy -89197.635902 kJ/mol
# GULP energy per Si atom -5574.852244 kJ/mol
# Density = 2.274452 g / cm^3
# Si number density = 22.796408 Si / 1000 Ang^3
#
#
#
# Elastic Constant Matrix: (Units=GPa)
#
#
# Indices 1 2 3 4 5 6 
#
# 1 50.5521 16.5022 30.3084 -7.6726 21.6773 7.7154
# 2 16.5022 87.8757 29.4854 -16.1185 22.8425 11.2478
# 3 30.3084 29.4854 141.2601 -12.9096 28.7052 11.1374
# 4 -7.6726 -16.1185 -12.9096 34.7451 0.8633 10.4237
# 5 21.6773 22.8425 28.7052 0.8633 35.2195 -2.3825
# 6 7.7154 11.2478 11.1374 10.4237 -2.3825 34.7478
#
#
#
# Elastic Compliance Matrix: (Units=1/GPa)
#
#
# Indices 1 2 3 4 5 6 
#
# 1 0.033671 0.004899 -0.000737 0.014508 -0.024663 -0.014869
# 2 0.004899 0.019011 0.000855 0.014570 -0.017284 -0.013072
# 3 -0.000737 0.000855 0.009764 0.005740 -0.008575 -0.005553
# 4 0.014508 0.014570 0.005740 0.049443 -0.026056 -0.026396
# 5 -0.024663 -0.017284 -0.008575 -0.026056 0.064172 0.026036
# 6 -0.014869 -0.013072 -0.005553 -0.026396 0.026036 0.047795
#
#
# Mechanical properties :
#
#
# Convention : Reuss Voigt Hill
#
# Bulk Modulus (GPa) = 13.79678 48.03111 30.91394
# Shear Modulus (GPa) = 21.00997 34.50194 27.75596
#
# Velocity S-wave (km/s) = 3.03914 3.89457 3.49314
# Velocity P-wave (km/s) = 4.28724 6.42953 5.46440
#
# Compressibility (1/GPa) = 0.07248067
#
# Stress axis : x y z
#
# Youngs Moduli (GPa) = 29.69891 52.60047 102.41996
#
# Poissons Ratio (x) = -0.25771 0.07550
# Poissons Ratio (y) = -0.14551 -0.08757
# Poissons Ratio (z) = 0.02189 -0.04497
#
# Static dielectric constant tensor:
#      x y z
#    x 1.860490 -0.045040 0.043120 
#    y -0.045040 1.977700 -0.074990 
#    z 0.043120 -0.074990 1.907560 
# 
# From -- ./inp_files/308679.got.cif
#   From: 2010.05.17/outbox.cif.g08.bks.cpg/sg2_155_cif.got.tgz:308679.got - 2010.06.03 11:33:40.
