data_PCOD9008098
_publ_section_title
;
Structure prediction by ZEFSAII (Michael W. Deem and Ramdas Pophale) SiO2 
 PCOD9008098
Probable space group: P -1
;
_chemical_formula_sum "Si O2"
_cell_formula_units_Z 16
_cell_length_a 10.247358
_cell_length_b 13.546559
_cell_length_c 13.777935
_cell_angle_alpha 56.197068
_cell_angle_beta 74.338696
_cell_angle_gamma 30.918482
_cell_volume 713.861273
_symmetry_space_group_name_H-M "P -1"
_symmetry_group_IT_number 2
_symmetry_cell_setting 'triclinic'
loop_
_space_group_symop_operation_xyz
x,y,z
-x,-y,-z
loop_
_atom_site_type_symbol
_atom_site_label
_atom_site_fract_x
_atom_site_fract_y
_atom_site_fract_z
Si Si1 0.724088 0.126965 0.970181
Si Si2 0.895274 0.853778 0.900927
Si Si3 0.799318 0.157667 0.245700
Si Si4 0.199868 0.635446 0.472872
Si Si5 0.637587 0.909207 0.417002
Si Si6 0.577172 0.138286 0.619404
Si Si7 0.218830 0.671863 0.673020
Si Si8 0.398751 0.306642 0.129053
O O1 0.461370 0.407316 0.824612
O O2 0.800199 0.967509 0.963881
O O3 0.610486 0.158726 0.075532
O O4 0.000000 0.000000 0.000000
O O5 0.115280 0.786505 0.854588
O O6 0.635408 0.057932 0.763743
O O7 0.073597 0.593698 0.008284
O O8 0.774106 0.206830 0.338252
O O9 0.510410 0.320853 0.174764
O O10 0.057889 0.864146 0.332449
O O11 0.462338 0.361925 0.520163
O O12 0.271847 0.612795 0.581373
O O13 0.940761 0.740621 0.462867
O O14 0.442875 0.147275 0.258993
O O15 0.500000 0.000000 0.500000
O O16 0.641338 0.780174 0.434153
O O17 0.890499 0.883324 0.645092
#
# Coordination Sequence:
#
# PCOD9008098 Si02
#       8
#     2   2   2   2   2   2   2   2
#     4  12  22  40  67  98 140 176 215 267 337 407
#     4  11  22  40  65  98 135 171 216 276 336 394
#     4  10  21  39  63  98 137 173 211 273 324 406
#     4  11  23  43  66  96 134 178 229 265 339 389
#     4  11  25  48  71  95 131 181 228 285 328 387
#     4  11  23  44  68  92 137 178 222 284 320 388
#     4  11  22  40  66  98 138 177 216 274 338 393
#     4  11  23  44  65  99 136 176 223 270 339 394
#
# _framework density 22.413319999999999
#
# number of rings (size 3 to 8) (size 9 to 14) (size 15 to 20)
#    0.000    1.000    6.250    1.875    0.000    2.500 
#    9.000    0.625    0.000    0.000    0.000    0.000 
#    0.000    0.000    0.000    0.000    0.000    0.000 
#
# Total GULP energy -89519.926663 kJ/mol
# GULP energy per Si atom -5594.995416 kJ/mol
# Density = 2.236231 g / cm^3
# Si number density = 22.413320 Si / 1000 Ang^3
#
#
#
# Elastic Constant Matrix: (Units=GPa)
#
#
# Indices 1 2 3 4 5 6 
#
# 1 75.5086 26.9005 10.9889 2.6782 1.3523 18.2794
# 2 26.9005 105.0452 39.0141 -10.4929 -11.6381 16.4799
# 3 10.9889 39.0141 111.0951 -12.4861 -13.3509 5.6032
# 4 2.6782 -10.4929 -12.4861 34.1003 1.4158 9.5369
# 5 1.3523 -11.6381 -13.3509 1.4158 25.5549 0.5015
# 6 18.2794 16.4799 5.6032 9.5369 0.5015 37.6541
#
#
#
# Elastic Compliance Matrix: (Units=1/GPa)
#
#
# Indices 1 2 3 4 5 6 
#
# 1 0.016028 -0.003311 -0.000486 -0.000659 -0.002455 -0.006060
# 2 -0.003311 0.013192 -0.003030 0.004392 0.004452 -0.004887
# 3 -0.000486 -0.003030 0.011037 0.003238 0.004251 -0.000957
# 4 -0.000659 0.004392 0.003238 0.034893 0.002008 -0.010948
# 5 -0.002455 0.004452 0.004251 0.002008 0.043447 -0.002477
# 6 -0.006060 -0.004887 -0.000957 -0.010948 -0.002477 0.034586
#
#
# Mechanical properties :
#
#
# Convention : Reuss Voigt Hill
#
# Bulk Modulus (GPa) = 37.59106 49.49511 43.54309
# Shear Modulus (GPa) = 28.45690 33.77821 31.11756
#
# Velocity S-wave (km/s) = 3.56707 3.88630 3.73010
# Velocity P-wave (km/s) = 5.81150 6.50143 6.16612
#
# Compressibility (1/GPa) = 0.02660207
#
# Stress axis : x y z
#
# Youngs Moduli (GPa) = 62.39005 75.80569 90.60833
#
# Poissons Ratio (x) = 0.25100 0.04404
# Poissons Ratio (y) = 0.20658 0.27454
# Poissons Ratio (z) = 0.03032 0.22969
#
# Static dielectric constant tensor:
#      x y z
#    x 1.812160 -0.003320 0.013500 
#    y -0.003320 1.839200 -0.002520 
#    z 0.013500 -0.002520 1.832700 
# 
# From -- ./inp_files/522348.got.cif
#   From: 2010.05.17/outbox.cif.g08.bks.cpg/sg2_262_cif.got.tgz:522348.got - 2010.06.03 11:33:40.
