data_PCOD9008882
_publ_section_title
;
Structure prediction by ZEFSAII (Michael W. Deem and Ramdas Pophale) SiO2 
 PCOD9008882
Probable space group: P -1
;
_chemical_formula_sum "Si O2"
_cell_formula_units_Z 16
_cell_length_a 9.170116
_cell_length_b 7.572246
_cell_length_c 11.070283
_cell_angle_alpha 101.041794
_cell_angle_beta 114.809610
_cell_angle_gamma 91.381812
_cell_volume 680.113984
_symmetry_space_group_name_H-M "P -1"
_symmetry_group_IT_number 2
_symmetry_cell_setting 'triclinic'
loop_
_space_group_symop_operation_xyz
x,y,z
-x,-y,-z
loop_
_atom_site_type_symbol
_atom_site_label
_atom_site_fract_x
_atom_site_fract_y
_atom_site_fract_z
Si Si1 0.632809 0.444534 0.157496
Si Si2 0.358847 0.129643 0.969197
Si Si3 0.882283 0.359980 0.026366
Si Si4 0.343087 0.539162 0.377892
Si Si5 0.175011 0.447478 0.544355
Si Si6 0.676874 0.834951 0.296329
Si Si7 0.803091 0.799338 0.834534
Si Si8 0.344292 0.884442 0.271082
O O1 0.474076 0.317255 0.052277
O O2 0.712696 0.412083 0.311676
O O3 0.583326 0.641937 0.195847
O O4 0.775734 0.442114 0.105765
O O5 0.240375 0.118883 0.040314
O O6 0.262902 0.094191 0.804619
O O7 0.500000 0.000000 0.000000
O O8 0.756571 0.237915 0.881836
O O9 0.000000 0.500000 0.000000
O O10 0.011886 0.237885 0.111817
O O11 0.500000 0.500000 0.500000
O O12 0.209415 0.476125 0.420680
O O13 0.305244 0.395292 0.239421
O O14 0.344959 0.745116 0.364048
O O15 0.202730 0.246578 0.578320
O O16 0.000000 0.500000 0.500000
O O17 0.533823 0.938682 0.311349
O O18 0.743839 0.935056 0.731818
#
# Coordination Sequence:
#
# PCOD9008882 Si02
#       8
#     2   2   2   2   2   2   2   2
#     4  10  22  39  67  90 128 166 215 263 323 388
#     4  12  21  38  64  99 129 160 207 267 333 394
#     4  12  23  40  68 103 135 169 209 271 347 395
#     4  12  24  44  66  92 129 181 227 263 319 384
#     4  10  23  40  64  92 121 171 229 262 307 382
#     4  10  21  39  66  90 128 161 218 264 319 384
#     4  12  26  41  69 101 135 170 214 280 332 384
#     4  12  24  43  65 103 132 168 222 270 331 399
#
# _framework density 23.525466999999999
#
# number of rings (size 3 to 8) (size 9 to 14) (size 15 to 20)
#    0.750    0.000    5.000    3.750    0.000    0.500 
#    0.000    0.000    0.000    2.250    0.000    0.000 
#    0.000    0.000    0.000    0.000    0.000    0.000 
#
# Total GULP energy -89215.711812 kJ/mol
# GULP energy per Si atom -5575.981988 kJ/mol
# Density = 2.347192 g / cm^3
# Si number density = 23.525467 Si / 1000 Ang^3
#
#
#
# Elastic Constant Matrix: (Units=GPa)
#
#
# Indices 1 2 3 4 5 6 
#
# 1 87.4597 24.8763 24.2035 -13.3059 -6.3032 -30.1310
# 2 24.8763 88.3631 11.1974 -30.9710 -1.4534 -18.1668
# 3 24.2035 11.1974 77.9382 -28.4252 -9.1613 -7.2108
# 4 -13.3059 -30.9710 -28.4252 42.4205 -3.7780 8.8349
# 5 -6.3032 -1.4534 -9.1613 -3.7780 42.2703 -8.5144
# 6 -30.1310 -18.1668 -7.2108 8.8349 -8.5144 37.0511
#
#
#
# Elastic Compliance Matrix: (Units=1/GPa)
#
#
# Indices 1 2 3 4 5 6 
#
# 1 0.018191 -0.001883 -0.003788 -0.000790 0.004655 0.014391
# 2 -0.001883 0.017406 0.004129 0.014104 0.003532 0.005255
# 3 -0.003788 0.004129 0.019690 0.015427 0.005286 0.000313
# 4 -0.000790 0.014104 0.015427 0.044562 0.007782 0.000438
# 5 0.004655 0.003532 0.005286 0.007782 0.028582 0.011259
# 6 0.014391 0.005255 0.000313 0.000438 0.011259 0.043813
#
#
# Mechanical properties :
#
#
# Convention : Reuss Voigt Hill
#
# Bulk Modulus (GPa) = 19.15540 41.59059 30.37300
# Shear Modulus (GPa) = 25.94324 37.24729 31.59526
#
# Velocity S-wave (km/s) = 3.32440 3.98336 3.66870
# Velocity P-wave (km/s) = 4.78494 6.23486 5.55739
#
# Compressibility (1/GPa) = 0.05220461
#
# Stress axis : x y z
#
# Youngs Moduli (GPa) = 54.97264 57.45218 50.78633
#
# Poissons Ratio (x) = 0.10816 0.19238
# Poissons Ratio (y) = 0.10349 -0.20972
# Poissons Ratio (z) = 0.20823 -0.23724
#
# Static dielectric constant tensor:
#      x y z
#    x 1.800200 0.162550 -0.151450 
#    y 0.162550 1.909060 0.037060 
#    z -0.151450 0.037060 1.876720 
# 
# From -- ./inp_files/379637.got.cif
#   From: 2010.05.17/outbox.cif.g08.bks.cpg/sg2_190_cif.got.tgz:379637.got - 2010.06.03 11:33:40.
