data_PCOD9008257
_publ_section_title
;
Structure prediction by ZEFSAII (Michael W. Deem and Ramdas Pophale) SiO2 
 PCOD9008257
Probable space group: P -1
;
_chemical_formula_sum "Si O2"
_cell_formula_units_Z 15
_cell_length_a 11.839883
_cell_length_b 9.562360
_cell_length_c 17.837844
_cell_angle_alpha 35.392519
_cell_angle_beta 146.529063
_cell_angle_gamma 142.792248
_cell_volume 600.707944
_symmetry_space_group_name_H-M "P -1"
_symmetry_group_IT_number 2
_symmetry_cell_setting 'triclinic'
loop_
_space_group_symop_operation_xyz
x,y,z
-x,-y,-z
loop_
_atom_site_type_symbol
_atom_site_label
_atom_site_fract_x
_atom_site_fract_y
_atom_site_fract_z
Si Si1 0.565535 0.318868 0.701833
Si Si2 0.000000 0.000000 0.000000
Si Si3 0.560505 0.936366 0.643484
Si Si4 0.741873 0.193640 0.330963
Si Si5 0.781123 0.464591 0.600926
Si Si6 0.755378 0.516570 0.983534
Si Si7 0.726065 0.134875 0.020168
Si Si8 0.678275 0.736704 0.065218
O O1 0.724218 0.460067 0.659213
O O2 0.423423 0.491095 0.570742
O O3 0.671456 0.254850 0.862001
O O4 0.390483 0.053518 0.684953
O O5 0.773820 0.886587 0.977033
O O6 0.069083 0.277963 0.958358
O O7 0.349127 0.896656 0.596337
O O8 0.634255 0.687439 0.798048
O O9 0.500000 0.000000 0.500000
O O10 0.763681 0.174131 0.692576
O O11 0.691339 0.457575 0.184257
O O12 0.998595 0.308711 0.402026
O O13 0.852343 0.359959 0.049545
O O14 0.570896 0.324378 0.019752
O O15 0.500000 0.000000 0.000000
O O16 0.811330 0.915453 0.131019
#
# Coordination Sequence:
#
# PCOD9008257 Si02
#       8
#     2   1   2   2   2   2   2   2
#     4  10  22  39  65  90 133 171 213 273 322 391
#     4  12  24  38  68  90 124 170 216 268 316 392
#     4  10  21  39  64  91 128 168 213 271 327 386
#     4  10  22  38  65  97 124 170 218 267 323 389
#     4  10  21  40  62  97 123 170 223 264 328 384
#     4  10  23  43  62  94 129 170 218 263 328 383
#     4  10  23  42  63  91 134 174 212 268 331 383
#     4  10  24  39  65  93 130 168 213 268 318 388
#
# _framework density 24.970535999999999
#
# number of rings (size 3 to 8) (size 9 to 14) (size 15 to 20)
#    0.000    1.867    0.000    2.400   11.200    1.067 
#    0.000    5.333    0.000    0.000    0.000    0.000 
#    0.000    0.000    0.000    0.000    0.000    0.000 
#
# Total GULP energy -83667.104507 kJ/mol
# GULP energy per Si atom -5577.806967 kJ/mol
# Density = 2.491370 g / cm^3
# Si number density = 24.970536 Si / 1000 Ang^3
#
#
#
# Elastic Constant Matrix: (Units=GPa)
#
#
# Indices 1 2 3 4 5 6 
#
# 1 153.1892 81.5629 29.4629 4.1451 -18.4631 16.9605
# 2 81.5629 163.6362 5.3248 -8.9522 -11.1475 -6.8468
# 3 29.4629 5.3248 36.1062 -11.4825 -7.5048 11.3989
# 4 4.1451 -8.9522 -11.4825 29.9953 -5.1903 5.8019
# 5 -18.4631 -11.1475 -7.5048 -5.1903 40.0990 -10.6922
# 6 16.9605 -6.8468 11.3989 5.8019 -10.6922 70.8363
#
#
#
# Elastic Compliance Matrix: (Units=1/GPa)
#
#
# Indices 1 2 3 4 5 6 
#
# 1 0.012367 -0.006215 -0.011088 -0.007492 0.000637 -0.001068
# 2 -0.006215 0.009540 0.005524 0.005899 0.001943 0.001331
# 3 -0.011088 0.005524 0.046273 0.023048 0.006705 -0.005133
# 4 -0.007492 0.005899 0.023048 0.047043 0.007509 -0.004064
# 5 0.000637 0.001943 0.006705 0.007509 0.028712 0.002675
# 6 -0.001068 0.001331 -0.005133 -0.004064 0.002675 0.016064
#
#
# Mechanical properties :
#
#
# Convention : Reuss Voigt Hill
#
# Bulk Modulus (GPa) = 22.41017 65.07032 43.74025
# Shear Modulus (GPa) = 25.19774 43.95820 34.57797
#
# Velocity S-wave (km/s) = 3.18008 4.20027 3.72526
# Velocity P-wave (km/s) = 4.74110 7.04545 6.00485
#
# Compressibility (1/GPa) = 0.04462259
#
# Stress axis : x y z
#
# Youngs Moduli (GPa) = 80.86070 104.82473 21.61076
#
# Poissons Ratio (x) = 0.65143 0.23962
# Poissons Ratio (y) = 0.50251 -0.11938
# Poissons Ratio (z) = 0.89659 -0.57904
#
# Static dielectric constant tensor:
#      x y z
#    x 1.952580 -0.061820 -0.008820 
#    y -0.061820 2.047460 0.110800 
#    z -0.008820 0.110800 2.463040 
# 
# From -- ./inp_files/565706.got.cif
#   From: 2010.05.17/outbox.cif.g08.bks.cpg/sg2_283_cif.got.tgz:565706.got - 2010.06.03 11:33:40.
