data_PCOD9008978
_publ_section_title
;
Structure prediction by ZEFSAII (Michael W. Deem and Ramdas Pophale) SiO2 
 PCOD9008978
Probable space group: P -1
;
_chemical_formula_sum "Si O2"
_cell_formula_units_Z 16
_cell_length_a 7.608702
_cell_length_b 9.375410
_cell_length_c 16.332877
_cell_angle_alpha 122.329025
_cell_angle_beta 68.651572
_cell_angle_gamma 71.989167
_cell_volume 704.374329
_symmetry_space_group_name_H-M "P -1"
_symmetry_group_IT_number 2
_symmetry_cell_setting 'triclinic'
loop_
_space_group_symop_operation_xyz
x,y,z
-x,-y,-z
loop_
_atom_site_type_symbol
_atom_site_label
_atom_site_fract_x
_atom_site_fract_y
_atom_site_fract_z
Si Si1 0.288047 0.403356 0.839151
Si Si2 0.575040 0.730165 0.530415
Si Si3 0.271409 0.119646 0.135147
Si Si4 0.085510 0.380704 0.706745
Si Si5 0.813958 0.166606 0.013276
Si Si6 0.170025 0.703122 0.541042
Si Si7 0.606758 0.989156 0.740793
Si Si8 0.674088 0.418218 0.709216
O O1 0.149667 0.365010 0.786033
O O2 0.146418 0.658840 0.961448
O O3 0.394070 0.250487 0.853299
O O4 0.535466 0.323224 0.723859
O O5 0.686662 0.742272 0.432043
O O6 0.328642 0.770230 0.564698
O O7 0.762759 0.488385 0.467067
O O8 0.541464 0.893081 0.652863
O O9 0.363093 0.109355 0.206399
O O10 0.064025 0.363608 0.213159
O O11 0.500000 0.000000 0.000000
O O12 0.179346 0.977373 0.102680
O O13 0.911483 0.325114 0.694389
O O14 0.540739 0.330505 0.149121
O O15 0.000000 0.000000 0.000000
O O16 0.259049 0.606597 0.404689
O O17 0.880679 0.899045 0.648163
#
# Coordination Sequence:
#
# PCOD9008978 Si02
#       8
#     2   2   2   2   2   2   2   2
#     4  10  25  42  62 102 134 171 224 264 337 396
#     4  11  23  39  67 100 133 172 220 270 323 397
#     4  12  23  42  71  93 121 175 229 272 327 390
#     4  12  20  42  68  95 129 173 222 263 327 398
#     4  10  21  41  68  92 127 174 224 278 313 383
#     4  11  22  41  67  99 135 170 223 272 319 400
#     4  12  26  43  65  98 139 174 211 281 337 381
#     4  10  21  39  66  95 129 175 220 263 329 389
#
# _framework density 22.715192999999999
#
# number of rings (size 3 to 8) (size 9 to 14) (size 15 to 20)
#    0.750    0.250    6.250    1.125    0.000    2.500 
#    0.000    0.625    0.000    0.000    0.000    0.000 
#    0.000    0.000    0.000    0.000    0.000    0.000 
#
# Total GULP energy -89435.037062 kJ/mol
# GULP energy per Si atom -5589.689816 kJ/mol
# Density = 2.266349 g / cm^3
# Si number density = 22.715193 Si / 1000 Ang^3
#
#
#
# Elastic Constant Matrix: (Units=GPa)
#
#
# Indices 1 2 3 4 5 6 
#
# 1 96.0130 12.4039 2.3870 9.5068 22.2133 -14.2215
# 2 12.4039 51.3664 9.7691 22.8939 -10.9771 -26.7285
# 3 2.3870 9.7691 43.6229 0.8245 11.2320 -2.4867
# 4 9.5068 22.8939 0.8245 29.4553 0.4726 -6.3676
# 5 22.2133 -10.9771 11.2320 0.4726 21.0216 -14.9458
# 6 -14.2215 -26.7285 -2.4867 -6.3676 -14.9458 14.6588
#
#
#
# Elastic Compliance Matrix: (Units=1/GPa)
#
#
# Indices 1 2 3 4 5 6 
#
# 1 0.013288 0.002649 0.000791 -0.004033 -0.005602 0.010392
# 2 0.002649 -0.001458 0.005814 -0.006013 -0.028174 -0.030441
# 3 0.000791 0.005814 0.021909 -0.001760 0.002601 0.016973
# 4 -0.004033 -0.006013 -0.001760 0.043571 0.013633 0.017651
# 5 -0.005602 -0.028174 0.002601 0.013633 0.004423 -0.045934
# 6 0.010392 -0.030441 0.016973 0.017651 -0.045934 -0.013491
#
#
# Mechanical properties :
#
#
# Convention : Reuss Voigt Hill
#
# Bulk Modulus (GPa) = 19.14009 26.68028 22.91018
# Shear Modulus (GPa) = 74.45923 24.12329 49.29126
#
# Velocity S-wave (km/s) = 5.73155 3.26235 4.66335
# Velocity P-wave (km/s) = 7.22809 5.09526 6.25328
#
# Compressibility (1/GPa) = 0.05224636
#
# Stress axis : x y z
#
# Youngs Moduli (GPa) = 75.25579 -685.71860 45.64238
#
# Poissons Ratio (x) = 1.81619 -0.03609
# Poissons Ratio (y) = -0.19932 -0.26538
# Poissons Ratio (z) = -0.05950 3.98698
#
# Static dielectric constant tensor:
#      x y z
#    x 1.866810 0.053990 -0.007310 
#    y 0.053990 1.840100 0.042050 
#    z -0.007310 0.042050 1.840990 
# 
# From -- ./inp_files/559926.got.cif
#   From: 2010.05.17/outbox.cif.g08.bks.cpg/sg2_280_cif.got.tgz:559926.got - 2010.06.03 11:33:40.
