data_PCOD9008193
_publ_section_title
;
Structure prediction by ZEFSAII (Michael W. Deem and Ramdas Pophale) SiO2 
 PCOD9008193
Probable space group: P -1
;
_chemical_formula_sum "Si O2"
_cell_formula_units_Z 14
_cell_length_a 13.604017
_cell_length_b 17.322880
_cell_length_c 6.410555
_cell_angle_alpha 131.131676
_cell_angle_beta 118.700410
_cell_angle_gamma 31.931933
_cell_volume 590.177587
_symmetry_space_group_name_H-M "P -1"
_symmetry_group_IT_number 2
_symmetry_cell_setting 'triclinic'
loop_
_space_group_symop_operation_xyz
x,y,z
-x,-y,-z
loop_
_atom_site_type_symbol
_atom_site_label
_atom_site_fract_x
_atom_site_fract_y
_atom_site_fract_z
Si Si1 0.405739 0.428365 0.092536
Si Si2 0.836524 0.428888 0.515603
Si Si3 0.854069 0.901053 0.291882
Si Si4 0.779327 0.288665 0.884420
Si Si5 0.426121 0.239277 0.423135
Si Si6 0.195334 0.900959 0.107868
Si Si7 0.129531 0.304650 0.315350
O O1 0.228781 0.548491 0.279488
O O2 0.374367 0.557373 0.163937
O O3 0.400389 0.339447 0.763504
O O4 0.613068 0.264661 0.118887
O O5 0.787241 0.365650 0.215536
O O6 0.697787 0.622959 0.644846
O O7 0.045085 0.311165 0.445781
O O8 0.644387 0.070361 0.285915
O O9 0.833216 0.959770 0.610122
O O10 0.900530 0.750938 0.006414
O O11 0.017454 0.849151 0.263425
O O12 0.758008 0.194666 0.799623
O O13 0.340094 0.194690 0.332486
O O14 0.000000 0.000000 0.000000
O O15 0.000000 0.500000 0.500000
#
# Coordination Sequence:
#
# PCOD9008193 Si02
#       7
#     2   2   2   2   2   2   2
#     4  10  22  41  64  90 129 166 212 256 304 379
#     4   9  20  37  63  92 124 167 211 250 306 381
#     4  10  21  39  64  89 130 164 204 263 313 366
#     4  10  22  41  61  90 125 172 210 254 310 367
#     4   9  19  37  63  95 128 161 206 258 320 364
#     4  11  25  41  62  94 127 168 213 257 315 367
#     4   9  18  38  66  93 124 164 207 257 319 374
#
# _framework density 23.721675000000001
#
# number of rings (size 3 to 8) (size 9 to 14) (size 15 to 20)
#    0.000    2.286    0.000    2.143    4.000    1.143 
#    2.571    0.000    0.000    8.571    0.000    0.000 
#    0.000    0.000    0.000    0.000    0.000    0.000 
#
# Total GULP energy -78206.579046 kJ/mol
# GULP energy per Si atom -5586.184218 kJ/mol
# Density = 2.366768 g / cm^3
# Si number density = 23.721675 Si / 1000 Ang^3
#
#
#
# Elastic Constant Matrix: (Units=GPa)
#
#
# Indices 1 2 3 4 5 6 
#
# 1 112.8807 38.0224 25.2909 4.5724 3.2157 -6.2049
# 2 38.0224 88.7477 30.2883 12.9177 -6.7286 -17.9497
# 3 25.2909 30.2883 87.6968 26.5565 4.1461 8.2626
# 4 4.5724 12.9177 26.5565 29.3660 -1.0102 -1.9552
# 5 3.2157 -6.7286 4.1461 -1.0102 34.2794 2.0972
# 6 -6.2049 -17.9497 8.2626 -1.9552 2.0972 41.6117
#
#
#
# Elastic Compliance Matrix: (Units=1/GPa)
#
#
# Indices 1 2 3 4 5 6 
#
# 1 0.010758 -0.004170 -0.002305 0.002222 -0.001511 0.000443
# 2 -0.004170 0.016751 -0.004963 -0.001613 0.003784 0.007323
# 3 -0.002305 -0.004963 0.019250 -0.015431 -0.003120 -0.006875
# 4 0.002222 -0.001613 -0.015431 0.048781 0.002481 0.004866
# 5 -0.001511 0.003784 -0.003120 0.002481 0.030470 0.000608
# 6 0.000443 0.007323 -0.006875 0.004866 0.000608 0.028820
#
#
# Mechanical properties :
#
#
# Convention : Reuss Voigt Hill
#
# Bulk Modulus (GPa) = 41.87320 52.94758 47.41039
# Shear Modulus (GPa) = 26.92988 34.09964 30.51476
#
# Velocity S-wave (km/s) = 3.37299 3.79554 3.59049
# Velocity P-wave (km/s) = 5.73233 6.44802 6.10068
#
# Compressibility (1/GPa) = 0.02388162
#
# Stress axis : x y z
#
# Youngs Moduli (GPa) = 92.95809 59.69686 51.94807
#
# Poissons Ratio (x) = 0.24896 0.11975
# Poissons Ratio (y) = 0.38767 0.25782
# Poissons Ratio (z) = 0.21428 0.29628
#
# Static dielectric constant tensor:
#      x y z
#    x 1.928530 -0.006710 -0.021660 
#    y -0.006710 1.989030 0.016420 
#    z -0.021660 0.016420 1.897220 
# 
# From -- ./inp_files/99986.got.cif
#   From: 2010.05.17/outbox.cif.g08.bks.cpg/sg2_50_cif.got.tgz:99986.got - 2010.06.03 11:33:40.
