data_PCOD9008435
_publ_section_title
;
Structure prediction by ZEFSAII (Michael W. Deem and Ramdas Pophale) SiO2 
 PCOD9008435
Probable space group: P -1
;
_chemical_formula_sum "Si O2"
_cell_formula_units_Z 14
_cell_length_a 5.093937
_cell_length_b 13.171842
_cell_length_c 16.384797
_cell_angle_alpha 40.327137
_cell_angle_beta 115.883943
_cell_angle_gamma 118.823983
_cell_volume 618.675282
_symmetry_space_group_name_H-M "P -1"
_symmetry_group_IT_number 2
_symmetry_cell_setting 'triclinic'
loop_
_space_group_symop_operation_xyz
x,y,z
-x,-y,-z
loop_
_atom_site_type_symbol
_atom_site_label
_atom_site_fract_x
_atom_site_fract_y
_atom_site_fract_z
Si Si1 0.347605 0.258901 0.706831
Si Si2 0.915758 0.150969 0.855242
Si Si3 0.866604 0.527920 0.203995
Si Si4 0.863527 0.912204 0.618401
Si Si5 0.640728 0.409257 0.486939
Si Si6 0.240878 0.786766 0.524828
Si Si7 0.148515 0.444066 0.133576
O O1 0.039651 0.177949 0.762327
O O2 0.423134 0.328627 0.581752
O O3 0.454326 0.435166 0.657575
O O4 0.562301 0.139946 0.817620
O O5 0.056669 0.311379 0.829451
O O6 0.000000 0.000000 0.000000
O O7 0.937762 0.380039 0.356275
O O8 0.512028 0.486932 0.156854
O O9 0.049830 0.533732 0.142368
O O10 0.513177 0.843180 0.591106
O O11 0.971455 0.752919 0.752345
O O12 0.899864 0.059914 0.596645
O O13 0.000000 0.000000 0.500000
O O14 0.640543 0.270048 0.507769
O O15 0.000000 0.500000 0.500000
O O16 0.000000 0.500000 0.000000
#
# Coordination Sequence:
#
# PCOD9008435 Si02
#       7
#     2   2   2   2   2   2   2
#     4  11  23  41  65  97 130 175 218 273 339 384
#     4  12  25  45  67  95 137 177 232 273 318 411
#     4  11  22  42  71  92 123 179 222 264 330 397
#     4  10  21  39  64  97 126 168 221 278 319 389
#     4  11  22  40  68  98 136 171 217 280 339 404
#     4  10  21  39  66  95 128 169 220 270 329 392
#     4  11  24  43  67  96 133 169 219 272 338 395
#
# _framework density 22.628995
#
# number of rings (size 3 to 8) (size 9 to 14) (size 15 to 20)
#    0.000    1.143    4.286    1.714    2.000    2.286 
#    2.571    1.429    0.000    0.000    0.000    0.000 
#    0.000    0.000    0.000    0.000    0.000    0.000 
#
# Total GULP energy -78138.516643 kJ/mol
# GULP energy per Si atom -5581.322617 kJ/mol
# Density = 2.257749 g / cm^3
# Si number density = 22.628995 Si / 1000 Ang^3
#
#
#
# Elastic Constant Matrix: (Units=GPa)
#
#
# Indices 1 2 3 4 5 6 
#
# 1 96.8770 17.5935 1.5400 6.0569 1.5448 -17.8706
# 2 17.5935 85.5420 18.4760 -10.2710 -5.3504 -29.2203
# 3 1.5400 18.4760 112.9196 -7.4097 4.1773 -16.9385
# 4 6.0569 -10.2710 -7.4097 34.1017 -6.4253 -2.0315
# 5 1.5448 -5.3504 4.1773 -6.4253 31.0625 3.5291
# 6 -17.8706 -29.2203 -16.9385 -2.0315 3.5291 47.7450
#
#
#
# Elastic Compliance Matrix: (Units=1/GPa)
#
#
# Indices 1 2 3 4 5 6 
#
# 1 0.011454 -0.001719 0.000543 -0.002580 -0.001865 0.003456
# 2 -0.001719 0.016269 -0.001011 0.006137 0.003274 0.008974
# 3 0.000543 -0.001011 0.009654 0.001598 -0.001531 0.003191
# 4 -0.002580 0.006137 0.001598 0.033633 0.007446 0.004238
# 5 -0.001865 0.003274 -0.001531 0.007446 0.034765 -0.001491
# 6 0.003456 0.008974 0.003191 0.004238 -0.001491 0.029153
#
#
# Mechanical properties :
#
#
# Convention : Reuss Voigt Hill
#
# Bulk Modulus (GPa) = 30.29900 41.17307 35.73604
# Shear Modulus (GPa) = 33.26600 39.76379 36.51490
#
# Velocity S-wave (km/s) = 3.83830 4.19645 4.02136
# Velocity P-wave (km/s) = 5.74995 6.45868 6.11459
#
# Compressibility (1/GPa) = 0.03300438
#
# Stress axis : x y z
#
# Youngs Moduli (GPa) = 87.30213 61.46632 103.58397
#
# Poissons Ratio (x) = 0.10566 -0.05627
# Poissons Ratio (y) = 0.15007 0.10470
# Poissons Ratio (z) = -0.04742 0.06213
#
# Static dielectric constant tensor:
#      x y z
#    x 1.939760 -0.014360 0.011340 
#    y -0.014360 1.823570 -0.008680 
#    z 0.011340 -0.008680 1.850830 
# 
# From -- ./inp_files/136849.got.cif
#   From: 2010.05.17/outbox.cif.g08.bks.cpg/sg2_69_cif.got.tgz:136849.got - 2010.06.03 11:33:40.
