data_PCOD9008192
_publ_section_title
;
Structure prediction by ZEFSAII (Michael W. Deem and Ramdas Pophale) SiO2 
 PCOD9008192
Probable space group: P -1
;
_chemical_formula_sum "Si O2"
_cell_formula_units_Z 16
_cell_length_a 6.332687
_cell_length_b 14.520144
_cell_length_c 11.740129
_cell_angle_alpha 131.774036
_cell_angle_beta 87.288680
_cell_angle_gamma 111.479275
_cell_volume 718.469952
_symmetry_space_group_name_H-M "P -1"
_symmetry_group_IT_number 2
_symmetry_cell_setting 'triclinic'
loop_
_space_group_symop_operation_xyz
x,y,z
-x,-y,-z
loop_
_atom_site_type_symbol
_atom_site_label
_atom_site_fract_x
_atom_site_fract_y
_atom_site_fract_z
Si Si1 0.358822 0.282793 0.342303
Si Si2 0.474994 0.040341 0.193322
Si Si3 0.168615 0.573384 0.663632
Si Si4 0.340793 0.292929 0.602551
Si Si5 0.883379 0.147125 0.107154
Si Si6 0.862834 0.471359 0.804903
Si Si7 0.029284 0.306887 0.824919
Si Si8 0.343502 0.000338 0.399406
O O1 0.482961 0.189262 0.304093
O O2 0.568746 0.399722 0.359574
O O3 0.257808 0.304211 0.484392
O O4 0.141836 0.198732 0.193943
O O5 0.686174 0.043288 0.114540
O O6 0.501725 0.005987 0.291603
O O7 0.209228 0.936797 0.075419
O O8 0.159685 0.719189 0.796099
O O9 0.000000 0.500000 0.500000
O O10 0.065204 0.504958 0.731895
O O11 0.617306 0.399129 0.685119
O O12 0.229043 0.332543 0.746559
O O13 0.300501 0.135848 0.499359
O O14 0.863822 0.362462 0.808783
O O15 0.892760 0.604641 0.987727
O O16 0.891543 0.143710 0.714633
O O17 0.500000 0.000000 0.500000
#
# Coordination Sequence:
#
# PCOD9008192 Si02
#       8
#     2   2   2   2   2   2   2   2
#     4  10  22  37  66  98 122 163 209 260 322 381
#     4   9  21  40  61  93 128 161 202 261 320 380
#     4  11  23  39  62  91 129 162 211 260 314 374
#     4  11  23  41  67  98 129 165 219 270 315 386
#     4  10  21  39  64  89 129 165 203 258 319 381
#     4  11  24  45  63  92 132 174 214 265 320 384
#     4  11  25  42  67  90 129 175 216 261 324 379
#     4  11  22  41  67  94 129 168 214 268 322 380
#
# _framework density 22.269545999999998
#
# number of rings (size 3 to 8) (size 9 to 14) (size 15 to 20)
#    0.000    1.500    2.500    1.875    3.500    1.500 
#    0.000    2.500    2.750    0.000    0.000    0.000 
#    0.000    0.000    0.000    0.000    0.000    0.000 
#
# Total GULP energy -89281.907296 kJ/mol
# GULP energy per Si atom -5580.119206 kJ/mol
# Density = 2.221886 g / cm^3
# Si number density = 22.269546 Si / 1000 Ang^3
#
#
#
# Elastic Constant Matrix: (Units=GPa)
#
#
# Indices 1 2 3 4 5 6 
#
# 1 47.1545 19.9542 12.7982 3.8091 3.8303 19.8866
# 2 19.9542 110.1813 44.8220 -9.3842 1.1303 9.6161
# 3 12.7982 44.8220 112.6078 -3.0789 -1.4934 9.1034
# 4 3.8091 -9.3842 -3.0789 32.8646 0.4391 0.0861
# 5 3.8303 1.1303 -1.4934 0.4391 39.0868 0.5328
# 6 19.8866 9.6161 9.1034 0.0861 0.5328 28.8656
#
#
#
# Elastic Compliance Matrix: (Units=1/GPa)
#
#
# Indices 1 2 3 4 5 6 
#
# 1 0.032528 -0.004273 -0.000489 -0.004945 -0.002744 -0.020767
# 2 -0.004273 0.011807 -0.004145 0.003479 -0.000124 0.000310
# 3 -0.000489 -0.004145 0.010726 -0.000126 0.000602 -0.001676
# 4 -0.004945 0.003479 -0.000126 0.031977 -0.000010 0.002192
# 5 -0.002744 -0.000124 0.000602 -0.000010 0.025862 0.001265
# 6 -0.020767 0.000310 -0.001676 0.002192 0.001265 0.049346
#
#
# Mechanical properties :
#
#
# Convention : Reuss Voigt Hill
#
# Bulk Modulus (GPa) = 26.84815 47.23249 37.04032
# Shear Modulus (GPa) = 25.97736 32.98802 29.48269
#
# Velocity S-wave (km/s) = 3.41911 3.85295 3.64249
# Velocity P-wave (km/s) = 5.26015 6.40696 5.86167
#
# Compressibility (1/GPa) = 0.03724652
#
# Stress axis : x y z
#
# Youngs Moduli (GPa) = 30.74278 84.69797 93.23155
#
# Poissons Ratio (x) = 0.36188 0.04559
# Poissons Ratio (y) = 0.13135 0.38649
# Poissons Ratio (z) = 0.01503 0.35111
#
# Static dielectric constant tensor:
#      x y z
#    x 1.831260 0.011440 -0.056740 
#    y 0.011440 1.843130 0.030210 
#    z -0.056740 0.030210 1.904400 
# 
# From -- ./inp_files/368071.got.cif
#   From: 2010.05.17/outbox.cif.g08.bks.cpg/sg2_185_cif.got.tgz:368071.got - 2010.06.03 11:33:40.
