data_PCOD9008863
_publ_section_title
;
Structure prediction by ZEFSAII (Michael W. Deem and Ramdas Pophale) SiO2 
 PCOD9008863
Probable space group: P -1
;
_chemical_formula_sum "Si O2"
_cell_formula_units_Z 16
_cell_length_a 10.016166
_cell_length_b 15.669238
_cell_length_c 15.584990
_cell_angle_alpha 139.522249
_cell_angle_beta 48.595940
_cell_angle_gamma 98.271821
_cell_volume 804.025561
_symmetry_space_group_name_H-M "P -1"
_symmetry_group_IT_number 2
_symmetry_cell_setting 'triclinic'
loop_
_space_group_symop_operation_xyz
x,y,z
-x,-y,-z
loop_
_atom_site_type_symbol
_atom_site_label
_atom_site_fract_x
_atom_site_fract_y
_atom_site_fract_z
Si Si1 0.820527 0.063184 0.865349
Si Si2 0.872493 0.475981 0.653227
Si Si3 0.347587 0.444253 0.018823
Si Si4 0.663664 0.831772 0.913003
Si Si5 0.518866 0.511750 0.706085
Si Si6 0.031879 0.093150 0.128556
Si Si7 0.143320 0.992281 0.513765
Si Si8 0.105946 0.585730 0.042895
O O1 0.625057 0.054992 0.908131
O O2 0.630120 0.292880 0.131609
O O3 0.961930 0.959284 0.815507
O O4 0.021377 0.992132 0.650727
O O5 0.774723 0.673382 0.817695
O O6 0.640039 0.511325 0.740239
O O7 0.137316 0.300639 0.353545
O O8 0.875360 0.445598 0.729028
O O9 0.553820 0.215464 0.776527
O O10 0.500000 0.500000 0.000000
O O11 0.238483 0.496017 0.010021
O O12 0.711393 0.952871 0.018628
O O13 0.771799 0.323263 0.404876
O O14 0.316355 0.513227 0.825275
O O15 0.000000 0.000000 0.000000
O O16 0.000000 0.000000 0.500000
O O17 0.082605 0.181601 0.689683
O O18 0.000000 0.500000 0.000000
#
# Coordination Sequence:
#
# PCOD9008863 Si02
#       8
#     2   2   2   2   2   2   2   2
#     4  10  21  39  66  87 116 159 203 255 305 354
#     4   9  18  37  65  90 115 159 202 254 302 356
#     4  12  21  39  68  93 124 166 209 257 315 372
#     4   9  19  38  61  87 122 152 202 257 298 352
#     4   9  19  41  61  79 125 159 193 253 308 363
#     4  11  23  39  57  88 120 162 202 239 310 375
#     4  11  22  40  70  98 121 162 219 257 309 386
#     4  11  24  42  59  94 129 165 204 258 319 370
#
# _framework density 19.899863
#
# number of rings (size 3 to 8) (size 9 to 14) (size 15 to 20)
#    0.000    1.750    2.500    3.375    1.750    1.000 
#   11.250    0.000    0.000    0.000    0.000    0.000 
#    0.000    0.000    0.000    0.000    0.000    0.000 
#
# Total GULP energy -89320.743521 kJ/mol
# GULP energy per Si atom -5582.546470 kJ/mol
# Density = 1.985457 g / cm^3
# Si number density = 19.899863 Si / 1000 Ang^3
#
#
#
# Elastic Constant Matrix: (Units=GPa)
#
#
# Indices 1 2 3 4 5 6 
#
# 1 112.0807 47.3401 10.5655 1.7493 17.8468 20.3753
# 2 47.3401 94.5996 15.1827 -2.3521 7.5777 11.5434
# 3 10.5655 15.1827 52.8315 3.7339 2.4664 7.0949
# 4 1.7493 -2.3521 3.7339 24.8721 0.8635 -2.4548
# 5 17.8468 7.5777 2.4664 0.8635 20.0599 0.8884
# 6 20.3753 11.5434 7.0949 -2.4548 0.8884 35.3035
#
#
#
# Elastic Compliance Matrix: (Units=1/GPa)
#
#
# Indices 1 2 3 4 5 6 
#
# 1 0.013981 -0.005518 0.000215 -0.001799 -0.010030 -0.006181
# 2 -0.005518 0.013941 -0.002963 0.002091 -0.000055 -0.000631
# 3 0.000215 -0.002963 0.020527 -0.003678 -0.001282 -0.003504
# 4 -0.001799 0.002091 -0.003678 0.041501 -0.000700 0.003997
# 5 -0.010030 -0.000055 -0.001282 -0.000700 0.058781 0.004536
# 6 -0.006181 -0.000631 -0.003504 0.003997 0.004536 0.032968
#
#
# Mechanical properties :
#
#
# Convention : Reuss Voigt Hill
#
# Bulk Modulus (GPa) = 31.33126 45.07650 38.20388
# Shear Modulus (GPa) = 23.93813 28.47532 26.20672
#
# Velocity S-wave (km/s) = 3.47209 3.78687 3.63289
# Velocity P-wave (km/s) = 5.64380 6.46694 6.06934
#
# Compressibility (1/GPa) = 0.03191700
#
# Stress axis : x y z
#
# Youngs Moduli (GPa) = 71.52344 71.72894 48.71617
#
# Poissons Ratio (x) = 0.39582 -0.01049
# Poissons Ratio (y) = 0.39469 0.14436
# Poissons Ratio (z) = -0.01539 0.21256
#
# Static dielectric constant tensor:
#      x y z
#    x 1.749800 0.036980 -0.002760 
#    y 0.036980 1.737400 0.007310 
#    z -0.002760 0.007310 1.735870 
# 
# From -- ./inp_files/505550.got.cif
#   From: 2010.05.17/outbox.cif.g08.bks.cpg/sg2_253_cif.got.tgz:505550.got - 2010.06.03 11:33:40.
