data_PCOD9008327
_publ_section_title
;
Structure prediction by ZEFSAII (Michael W. Deem and Ramdas Pophale) SiO2 
 PCOD9008327
Probable space group: P -1
;
_chemical_formula_sum "Si O2"
_cell_formula_units_Z 16
_cell_length_a 8.408610
_cell_length_b 9.690528
_cell_length_c 17.042800
_cell_angle_alpha 122.327116
_cell_angle_beta 42.391393
_cell_angle_gamma 103.078815
_cell_volume 755.683942
_symmetry_space_group_name_H-M "P -1"
_symmetry_group_IT_number 2
_symmetry_cell_setting 'triclinic'
loop_
_space_group_symop_operation_xyz
x,y,z
-x,-y,-z
loop_
_atom_site_type_symbol
_atom_site_label
_atom_site_fract_x
_atom_site_fract_y
_atom_site_fract_z
Si Si1 0.212943 0.645872 0.896852
Si Si2 0.203873 0.822270 0.357284
Si Si3 0.958908 0.548402 0.415066
Si Si4 0.320579 0.258443 0.289723
Si Si5 0.475729 0.904444 0.059140
Si Si6 0.740697 0.741257 0.197200
Si Si7 0.952428 0.607638 0.833132
Si Si8 0.113883 0.719469 0.181807
O O1 0.449802 0.710846 0.830992
O O2 0.260762 0.456279 0.856896
O O3 0.159805 0.637175 0.821519
O O4 0.956689 0.753191 0.062813
O O5 0.139304 0.669622 0.382526
O O6 0.470069 0.835068 0.291548
O O7 0.166676 0.778726 0.266899
O O8 0.000000 0.000000 0.500000
O O9 0.081393 0.373996 0.365196
O O10 0.937812 0.491209 0.316328
O O11 0.722086 0.661827 0.583373
O O12 0.358630 0.057116 0.209772
O O13 0.300761 0.782538 0.079386
O O14 0.742841 0.782126 0.946580
O O15 0.500000 0.000000 0.000000
O O16 0.843877 0.781786 0.257095
O O17 0.833322 0.483592 0.889594
#
# Coordination Sequence:
#
# PCOD9008327 Si02
#       8
#     2   2   2   2   2   2   2   2
#     4  10  21  39  64  93 127 168 214 276 322 389
#     4  11  22  41  67  94 131 172 224 273 322 389
#     4  10  22  40  61  89 124 178 211 256 327 405
#     4  11  22  39  63  88 131 170 212 260 333 392
#     4  12  22  37  62  97 129 170 217 268 327 391
#     4  10  21  39  64  98 126 167 224 271 329 383
#     4  10  22  40  64  93 126 170 221 269 324 387
#     4  10  23  40  65  93 130 174 217 272 325 384
#
# _framework density 21.172872999999999
#
# number of rings (size 3 to 8) (size 9 to 14) (size 15 to 20)
#    0.000    1.500    2.500    2.625    0.000    3.500 
#    0.000    2.500    0.000    0.000    0.000    0.000 
#    0.000    0.000    0.000    0.000    0.000    0.000 
#
# Total GULP energy -89286.160584 kJ/mol
# GULP energy per Si atom -5580.385037 kJ/mol
# Density = 2.112468 g / cm^3
# Si number density = 21.172873 Si / 1000 Ang^3
#
#
#
# Elastic Constant Matrix: (Units=GPa)
#
#
# Indices 1 2 3 4 5 6 
#
# 1 82.8762 16.6779 42.6755 0.8916 -1.8228 -21.4083
# 2 16.6779 73.5850 30.4068 -4.6635 4.5490 -8.2191
# 3 42.6755 30.4068 108.8594 2.8094 -5.9405 -13.2450
# 4 0.8916 -4.6635 2.8094 33.7117 1.6324 -5.1323
# 5 -1.8228 4.5490 -5.9405 1.6324 24.4213 -4.2285
# 6 -21.4083 -8.2191 -13.2450 -5.1323 -4.2285 18.0452
#
#
#
# Elastic Compliance Matrix: (Units=1/GPa)
#
#
# Indices 1 2 3 4 5 6 
#
# 1 0.020593 -0.000068 -0.005193 0.003097 0.003958 0.022396
# 2 -0.000068 0.016298 -0.004280 0.003447 -0.003560 0.004347
# 3 -0.005193 -0.004280 0.012900 -0.001436 0.003969 0.001880
# 4 0.003097 0.003447 -0.001436 0.032219 -0.000627 0.013207
# 5 0.003958 -0.003560 0.003969 -0.000627 0.045777 0.016535
# 6 0.022396 0.004347 0.001880 0.013207 0.016535 0.092977
#
#
# Mechanical properties :
#
#
# Convention : Reuss Voigt Hill
#
# Bulk Modulus (GPa) = 32.56448 49.42678 40.99563
# Shear Modulus (GPa) = 19.99351 26.93968 23.46659
#
# Velocity S-wave (km/s) = 3.07628 3.57090 3.33278
# Velocity P-wave (km/s) = 5.29449 6.35585 5.84929
#
# Compressibility (1/GPa) = 0.03070831
#
# Stress axis : x y z
#
# Youngs Moduli (GPa) = 48.56043 61.35794 77.52121
#
# Poissons Ratio (x) = 0.00420 0.40255
# Poissons Ratio (y) = 0.00332 0.33178
# Poissons Ratio (z) = 0.25216 0.26260
#
# Static dielectric constant tensor:
#      x y z
#    x 1.844590 -0.020810 0.061850 
#    y -0.020810 1.774840 -0.039080 
#    z 0.061850 -0.039080 1.803020 
# 
# From -- ./inp_files/216441.got.cif
#   From: 2010.05.17/outbox.cif.g08.bks.cpg/sg2_109_cif.got.tgz:216441.got - 2010.06.03 11:33:40.
