data_PCOD9008221
_publ_section_title
;
Structure prediction by ZEFSAII (Michael W. Deem and Ramdas Pophale) SiO2 
 PCOD9008221
Probable space group: P -1
;
_chemical_formula_sum "Si O2"
_cell_formula_units_Z 16
_cell_length_a 8.693500
_cell_length_b 11.399453
_cell_length_c 17.968962
_cell_angle_alpha 138.559423
_cell_angle_beta 41.903864
_cell_angle_gamma 107.481947
_cell_volume 639.762466
_symmetry_space_group_name_H-M "P -1"
_symmetry_group_IT_number 2
_symmetry_cell_setting 'triclinic'
loop_
_space_group_symop_operation_xyz
x,y,z
-x,-y,-z
loop_
_atom_site_type_symbol
_atom_site_label
_atom_site_fract_x
_atom_site_fract_y
_atom_site_fract_z
Si Si1 0.750321 0.755326 0.720177
Si Si2 0.973889 0.183745 0.655914
Si Si3 0.841813 0.137833 0.424494
Si Si4 0.685347 0.092615 0.184755
Si Si5 0.583048 0.730749 0.486534
Si Si6 0.590368 0.574662 0.083535
Si Si7 0.017952 0.319136 0.034637
Si Si8 0.456123 0.635353 0.863495
O O1 0.529417 0.817264 0.763017
O O2 0.602236 0.756157 0.849818
O O3 0.000000 0.500000 0.500000
O O4 0.892395 0.882545 0.719083
O O5 0.728857 0.203723 0.703290
O O6 0.222165 0.185113 0.530306
O O7 0.761391 0.435442 0.882883
O O8 0.074259 0.027892 0.617051
O O9 0.652439 0.129692 0.425719
O O10 0.654135 0.384505 0.642197
O O11 0.561529 0.258058 0.378275
O O12 0.732427 0.878965 0.101906
O O13 0.000000 0.000000 0.000000
O O14 0.791366 0.498136 0.260497
O O15 0.579712 0.407747 0.060039
O O16 0.817378 0.619684 0.050082
O O17 0.838245 0.258740 0.023488
#
# Coordination Sequence:
#
# PCOD9008221 Si02
#       8
#     2   2   2   2   2   2   2   2
#     4  10  23  44  65  98 136 176 230 274 331 407
#     4  10  22  40  62  97 132 169 224 276 340 400
#     4  10  22  41  65  96 129 175 223 269 339 401
#     4  12  25  44  73 100 132 180 231 272 334 407
#     4  10  25  43  68 100 137 177 214 290 337 395
#     4  10  22  38  64  96 133 171 220 283 331 397
#     4  10  22  44  65 103 133 173 228 273 344 397
#     4  10  21  39  64  90 132 177 215 276 332 393
#
# _framework density 25.009283
#
# number of rings (size 3 to 8) (size 9 to 14) (size 15 to 20)
#    0.000    1.750    1.250    1.500    7.000    1.000 
#    0.000    2.500    0.000    0.000    0.000    0.000 
#    0.000    0.000    0.000    0.000    0.000    0.000 
#
# Total GULP energy -89416.148152 kJ/mol
# GULP energy per Si atom -5588.509259 kJ/mol
# Density = 2.495236 g / cm^3
# Si number density = 25.009283 Si / 1000 Ang^3
#
#
#
# Elastic Constant Matrix: (Units=GPa)
#
#
# Indices 1 2 3 4 5 6 
#
# 1 75.5102 18.3214 36.3812 -12.1707 -23.6578 -10.5330
# 2 18.3214 101.9005 31.7676 -17.3229 -21.7445 -13.8172
# 3 36.3812 31.7676 145.1083 -20.1096 -17.4872 -13.6329
# 4 -12.1707 -17.3229 -20.1096 53.6087 0.0583 -6.6794
# 5 -23.6578 -21.7445 -17.4872 0.0583 38.6231 0.9753
# 6 -10.5330 -13.8172 -13.6329 -6.6794 0.9753 39.0686
#
#
#
# Elastic Compliance Matrix: (Units=1/GPa)
#
#
# Indices 1 2 3 4 5 6 
#
# 1 0.019098 0.001174 -0.002632 0.004353 0.011032 0.005115
# 2 0.001174 0.013028 -0.001120 0.004690 0.007410 0.005150
# 3 -0.002632 -0.001120 0.008549 0.002529 0.001567 0.002271
# 4 0.004353 0.004690 0.002529 0.023033 0.006228 0.007497
# 5 0.011032 0.007410 0.001567 0.006228 0.037362 0.006274
# 6 0.005115 0.005150 0.002271 0.007497 0.006274 0.030714
#
#
# Mechanical properties :
#
#
# Convention : Reuss Voigt Hill
#
# Bulk Modulus (GPa) = 28.15279 55.05106 41.60192
# Shear Modulus (GPa) = 33.60673 41.99665 37.80169
#
# Velocity S-wave (km/s) = 3.66972 4.10230 3.89203
# Velocity P-wave (km/s) = 5.40714 6.67072 6.07189
#
# Compressibility (1/GPa) = 0.03552046
#
# Stress axis : x y z
#
# Youngs Moduli (GPa) = 52.36200 76.75557 116.97190
#
# Poissons Ratio (x) = -0.09014 0.30787
# Poissons Ratio (y) = -0.06150 0.13098
# Poissons Ratio (z) = 0.13782 0.08595
#
# Static dielectric constant tensor:
#      x y z
#    x 2.101350 0.097030 0.055550 
#    y 0.097030 1.978930 0.018110 
#    z 0.055550 0.018110 2.070920 
# 
# From -- ./inp_files/318060.got.cif
#   From: 2010.05.17/outbox.cif.g08.bks.cpg/sg2_160_cif.got.tgz:318060.got - 2010.06.03 11:33:40.
