data_PCOD9008502
_publ_section_title
;
Structure prediction by ZEFSAII (Michael W. Deem and Ramdas Pophale) SiO2 
 PCOD9008502
Probable space group: P -1
;
_chemical_formula_sum "Si O2"
_cell_formula_units_Z 12
_cell_length_a 8.199454
_cell_length_b 7.513097
_cell_length_c 12.697509
_cell_angle_alpha 41.965801
_cell_angle_beta 116.507020
_cell_angle_gamma 109.299554
_cell_volume 468.067881
_symmetry_space_group_name_H-M "P -1"
_symmetry_group_IT_number 2
_symmetry_cell_setting 'triclinic'
loop_
_space_group_symop_operation_xyz
x,y,z
-x,-y,-z
loop_
_atom_site_type_symbol
_atom_site_label
_atom_site_fract_x
_atom_site_fract_y
_atom_site_fract_z
Si Si1 0.930439 0.082519 0.315944
Si Si2 0.586514 0.709516 0.352428
Si Si3 0.962127 0.419078 0.785230
Si Si4 0.159753 0.696660 0.430413
Si Si5 0.649762 0.828156 0.020142
Si Si6 0.274846 0.703435 0.025623
O O1 0.980993 0.270271 0.345710
O O2 0.760709 0.879241 0.368568
O O3 0.851152 0.293583 0.113307
O O4 0.107227 0.960242 0.361849
O O5 0.500000 0.500000 0.500000
O O6 0.668063 0.474157 0.404931
O O7 0.444216 0.936727 0.178699
O O8 0.869869 0.294750 0.708710
O O9 0.823302 0.407305 0.849662
O O10 0.157134 0.273034 0.921589
O O11 0.000000 0.500000 0.500000
O O12 0.481079 0.627958 0.082953
O O13 0.701717 0.982914 0.074599
#
# Coordination Sequence:
#
# PCOD9008502 Si02
#       6
#     2   2   2   2   2   2
#     4  10  23  42  66 102 127 172 230 270 328 400
#     4  10  22  40  64  95 132 176 217 267 337 393
#     4  12  23  42  74  95 134 177 219 280 336 387
#     4  10  23  43  66  92 135 177 217 270 331 402
#     4  10  22  40  70  98 131 174 224 276 330 393
#     4  10  21  39  65 103 131 167 223 274 329 394
#
# _framework density 25.637305999999999
#
# number of rings (size 3 to 8) (size 9 to 14) (size 15 to 20)
#    0.000    1.667    1.667    2.000    4.667    5.333 
#    3.000    0.000    3.667    6.000    0.000    0.000 
#    0.000    0.000    0.000    0.000    0.000    0.000 
#
# Total GULP energy -66871.132405 kJ/mol
# GULP energy per Si atom -5572.594367 kJ/mol
# Density = 2.557895 g / cm^3
# Si number density = 25.637306 Si / 1000 Ang^3
#
#
#
# Elastic Constant Matrix: (Units=GPa)
#
#
# Indices 1 2 3 4 5 6 
#
# 1 157.2096 20.1086 70.0251 -4.0641 -1.8165 13.6494
# 2 20.1086 101.6951 37.9395 2.6782 12.1301 -8.7648
# 3 70.0251 37.9395 141.3913 8.6675 29.7986 0.3152
# 4 -4.0641 2.6782 8.6675 37.0946 1.3628 -0.7589
# 5 -1.8165 12.1301 29.7986 1.3628 54.0376 -4.8501
# 6 13.6494 -8.7648 0.3152 -0.7589 -4.8501 26.2599
#
#
#
# Elastic Compliance Matrix: (Units=1/GPa)
#
#
# Indices 1 2 3 4 5 6 
#
# 1 0.009168 -0.000688 -0.005065 0.002045 0.002813 -0.004356
# 2 -0.000688 0.011364 -0.002535 -0.000191 -0.000810 0.004026
# 3 -0.005065 -0.002535 0.011686 -0.002875 -0.005931 0.000468
# 4 0.002045 -0.000191 -0.002875 0.027829 0.000986 -0.000106
# 5 0.002813 -0.000810 -0.005931 0.000986 0.022250 0.002477
# 6 -0.004356 0.004026 0.000468 -0.000106 0.002477 0.042137
#
#
# Mechanical properties :
#
#
# Convention : Reuss Voigt Hill
#
# Bulk Modulus (GPa) = 63.92660 72.93802 68.43231
# Shear Modulus (GPa) = 34.19390 41.62662 37.91026
#
# Velocity S-wave (km/s) = 3.65602 4.03385 3.84958
# Velocity P-wave (km/s) = 6.54302 7.08574 6.81978
#
# Compressibility (1/GPa) = 0.01564294
#
# Stress axis : x y z
#
# Youngs Moduli (GPa) = 109.07025 87.99916 85.57117
#
# Poissons Ratio (x) = 0.06057 0.43338
# Poissons Ratio (y) = 0.07507 0.21691
# Poissons Ratio (z) = 0.55239 0.22307
#
# Static dielectric constant tensor:
#      x y z
#    x 2.122810 -0.016840 -0.082340 
#    y -0.016840 2.027130 0.092920 
#    z -0.082340 0.092920 2.211930 
# 
# From -- ./inp_files/490328.got.cif
#   From: 2010.05.17/outbox.cif.g08.bks.cpg/sg2_246_cif.got.tgz:490328.got - 2010.06.03 11:33:40.
