data_PCOD9008778
_publ_section_title
;
Structure prediction by ZEFSAII (Michael W. Deem and Ramdas Pophale) SiO2 
 PCOD9008778
Probable space group: P -1
;
_chemical_formula_sum "Si O2"
_cell_formula_units_Z 16
_cell_length_a 11.561281
_cell_length_b 6.154621
_cell_length_c 16.018046
_cell_angle_alpha 131.194475
_cell_angle_beta 90.150555
_cell_angle_gamma 61.307785
_cell_volume 662.026696
_symmetry_space_group_name_H-M "P -1"
_symmetry_group_IT_number 2
_symmetry_cell_setting 'triclinic'
loop_
_space_group_symop_operation_xyz
x,y,z
-x,-y,-z
loop_
_atom_site_type_symbol
_atom_site_label
_atom_site_fract_x
_atom_site_fract_y
_atom_site_fract_z
Si Si1 0.072078 0.466586 0.341402
Si Si2 0.172506 0.011684 0.073012
Si Si3 0.227089 0.716811 0.492464
Si Si4 0.874554 0.330592 0.354314
Si Si5 0.608023 0.958440 0.418356
Si Si6 0.930835 0.648834 0.127966
Si Si7 0.548718 0.091986 0.937297
Si Si8 0.629033 0.849510 0.197522
O O1 0.136025 0.105918 0.194042
O O2 0.198685 0.492424 0.374307
O O3 0.978531 0.435925 0.401362
O O4 0.936776 0.865559 0.401167
O O5 0.016688 0.292019 0.096974
O O6 0.280322 0.116885 0.091265
O O7 0.264485 0.596737 0.933600
O O8 0.237718 0.559036 0.542958
O O9 0.352377 0.764899 0.493999
O O10 0.771776 0.558756 0.332100
O O11 0.968662 0.901098 0.226328
O O12 0.572013 0.954512 0.319628
O O13 0.500000 0.000000 0.500000
O O14 0.751145 0.907108 0.197793
O O15 0.000000 0.500000 0.000000
O O16 0.495301 0.974608 0.830765
O O17 0.500000 0.500000 0.000000
O O18 0.500000 0.000000 0.000000
#
# Coordination Sequence:
#
# PCOD9008778 Si02
#       8
#     2   2   2   2   2   2   2   2
#     4  10  21  39  65  97 136 178 229 300 370 433
#     4  11  22  42  67 104 138 183 241 291 374 449
#     4  10  21  43  61  97 137 179 236 302 358 432
#     4  11  21  40  67  99 139 177 239 310 360 431
#     4  11  25  45  67  98 141 194 251 296 367 443
#     4  12  21  36  69 107 139 179 228 300 378 442
#     4  10  24  46  68 100 149 196 242 301 374 452
#     4  11  23  45  68 103 150 185 239 309 371 447
#
# _framework density 24.168209999999998
#
# number of rings (size 3 to 8) (size 9 to 14) (size 15 to 20)
#    0.000    1.250    2.500    3.750    0.000    3.500 
#    6.750    0.000    0.000    0.000    0.000    0.000 
#    0.000    0.000    0.000    0.000    0.000    0.000 
#
# Total GULP energy -89138.060035 kJ/mol
# GULP energy per Si atom -5571.128752 kJ/mol
# Density = 2.411320 g / cm^3
# Si number density = 24.168210 Si / 1000 Ang^3
#
#
#
# Elastic Constant Matrix: (Units=GPa)
#
#
# Indices 1 2 3 4 5 6 
#
# 1 170.8148 49.0212 46.4393 -31.3139 1.5935 16.5175
# 2 49.0212 76.4391 56.6516 -10.3621 15.1895 6.2934
# 3 46.4393 56.6516 131.3195 -27.3388 9.0591 4.9117
# 4 -31.3139 -10.3621 -27.3388 44.6388 -0.8240 -5.9389
# 5 1.5935 15.1895 9.0591 -0.8240 40.7846 -8.4002
# 6 16.5175 6.2934 4.9117 -5.9389 -8.4002 37.4117
#
#
#
# Elastic Compliance Matrix: (Units=1/GPa)
#
#
# Indices 1 2 3 4 5 6 
#
# 1 0.008192 -0.004791 0.000089 0.004463 0.001152 -0.001855
# 2 -0.004791 0.023863 -0.008747 -0.003717 -0.007453 -0.003014
# 3 0.000089 -0.008747 0.012479 0.005807 0.000783 0.000892
# 4 0.004463 -0.003717 0.005807 0.028601 0.001047 0.002668
# 5 0.001152 -0.007453 0.000783 0.001047 0.028585 0.007227
# 6 -0.001855 -0.003014 0.000892 0.002668 0.007227 0.029985
#
#
# Mechanical properties :
#
#
# Convention : Reuss Voigt Hill
#
# Bulk Modulus (GPa) = 56.70416 75.86641 66.28528
# Shear Modulus (GPa) = 30.39860 39.66444 35.03152
#
# Velocity S-wave (km/s) = 3.55039 4.05555 3.81134
# Velocity P-wave (km/s) = 6.34982 7.30678 6.84504
#
# Compressibility (1/GPa) = 0.01763539
#
# Stress axis : x y z
#
# Youngs Moduli (GPa) = 122.07285 41.90630 80.13570
#
# Poissons Ratio (x) = 0.20075 -0.00712
# Poissons Ratio (y) = 0.58480 0.70097
# Poissons Ratio (z) = -0.01084 0.36657
#
# Static dielectric constant tensor:
#      x y z
#    x 2.056530 0.006690 0.004530 
#    y 0.006690 1.996930 -0.004350 
#    z 0.004530 -0.004350 2.024630 
# 
# From -- ./inp_files/511246.got.cif
#   From: 2010.05.17/outbox.cif.g08.bks.cpg/sg2_256_cif.got.tgz:511246.got - 2010.06.03 11:33:40.
