data_PCOD9008970
_publ_section_title
;
Structure prediction by ZEFSAII (Michael W. Deem and Ramdas Pophale) SiO2 
 PCOD9008970
Probable space group: P -1
;
_chemical_formula_sum "Si O2"
_cell_formula_units_Z 16
_cell_length_a 10.949563
_cell_length_b 10.993251
_cell_length_c 10.911938
_cell_angle_alpha 52.195162
_cell_angle_beta 103.290675
_cell_angle_gamma 62.889843
_cell_volume 637.162069
_symmetry_space_group_name_H-M "P -1"
_symmetry_group_IT_number 2
_symmetry_cell_setting 'triclinic'
loop_
_space_group_symop_operation_xyz
x,y,z
-x,-y,-z
loop_
_atom_site_type_symbol
_atom_site_label
_atom_site_fract_x
_atom_site_fract_y
_atom_site_fract_z
Si Si1 0.581258 0.249952 0.009941
Si Si2 0.920885 0.710166 0.761612
Si Si3 0.830646 0.368207 0.766773
Si Si4 0.721665 0.697595 0.041437
Si Si5 0.850453 0.754470 0.241134
Si Si6 0.311045 0.658097 0.495130
Si Si7 0.080714 0.871911 0.811425
Si Si8 0.563155 0.113590 0.570865
O O1 0.406429 0.332216 0.990067
O O2 0.483484 0.417452 0.762837
O O3 0.714753 0.248069 0.110970
O O4 0.735285 0.975101 0.169269
O O5 0.042361 0.556421 0.763076
O O6 0.017582 0.777410 0.788288
O O7 0.683592 0.960228 0.567351
O O8 0.000000 0.500000 0.000000
O O9 0.721193 0.385808 0.617987
O O10 0.673332 0.636127 0.628730
O O11 0.022786 0.265932 0.815218
O O12 0.892237 0.195762 0.996382
O O13 0.699338 0.787183 0.115328
O O14 0.637030 0.909411 0.802579
O O15 0.000000 0.500000 0.500000
O O16 0.350943 0.803322 0.414739
O O17 0.105188 0.835459 0.413474
#
# Coordination Sequence:
#
# PCOD9008970 Si02
#       8
#     2   2   2   2   2   2   2   2
#     4  12  25  43  68 100 137 170 221 271 334 398
#     4   9  21  45  67  92 133 173 226 273 320 393
#     4  12  21  37  67  99 131 171 219 271 334 387
#     4  11  24  44  66  90 134 186 213 269 340 384
#     4  12  25  42  65 102 138 171 221 272 329 404
#     4  11  22  40  66  99 138 168 213 278 336 385
#     4  11  24  40  69 102 132 170 227 276 317 396
#     4  10  21  39  66  95 127 173 220 268 326 387
#
# _framework density 25.111350000000002
#
# number of rings (size 3 to 8) (size 9 to 14) (size 15 to 20)
#    0.000    1.000    2.500    5.625    1.750    0.500 
#    0.000    9.375    0.000    0.000    0.000    0.000 
#    0.000    0.000    0.000    0.000    0.000    0.000 
#
# Total GULP energy -89582.516396 kJ/mol
# GULP energy per Si atom -5598.907275 kJ/mol
# Density = 2.505420 g / cm^3
# Si number density = 25.111350 Si / 1000 Ang^3
#
#
#
# Elastic Constant Matrix: (Units=GPa)
#
#
# Indices 1 2 3 4 5 6 
#
# 1 74.5689 8.8914 7.7638 -9.4137 -1.2217 -6.3387
# 2 8.8914 78.9769 17.5758 -36.8401 3.2283 3.4099
# 3 7.7638 17.5758 96.5179 -22.0622 0.2030 -4.8134
# 4 -9.4137 -36.8401 -22.0622 36.2372 -6.2836 12.9834
# 5 -1.2217 3.2283 0.2030 -6.2836 32.2851 -9.8046
# 6 -6.3387 3.4099 -4.8134 12.9834 -9.8046 36.9146
#
#
#
# Elastic Compliance Matrix: (Units=1/GPa)
#
#
# Indices 1 2 3 4 5 6 
#
# 1 0.014017 -0.000470 -0.000370 0.002526 0.001665 0.001956
# 2 -0.000470 0.030820 0.002392 0.038398 -0.000584 -0.016276
# 3 -0.000370 0.002392 0.012314 0.010808 0.001109 -0.002186
# 4 0.002526 0.038398 0.010808 0.085529 0.003461 -0.030866
# 5 0.001665 -0.000584 0.001109 0.003461 0.034307 0.008379
# 6 0.001956 -0.016276 -0.002186 -0.030866 0.008379 0.041726
#
#
# Mechanical properties :
#
#
# Convention : Reuss Voigt Hill
#
# Bulk Modulus (GPa) = 16.59595 35.39175 25.99385
# Shear Modulus (GPa) = 21.21389 35.47622 28.34506
#
# Velocity S-wave (km/s) = 2.90969 3.76274 3.36337
# Velocity P-wave (km/s) = 4.23222 5.74475 5.04548
#
# Compressibility (1/GPa) = 0.06025568
#
# Stress axis : x y z
#
# Youngs Moduli (GPa) = 71.33956 32.44603 81.20692
#
# Poissons Ratio (x) = 0.01524 0.03009
# Poissons Ratio (y) = 0.03351 -0.19424
# Poissons Ratio (z) = 0.02643 -0.07761
#
# Static dielectric constant tensor:
#      x y z
#    x 2.050970 -0.041140 0.036290 
#    y -0.041140 1.988590 -0.031250 
#    z 0.036290 -0.031250 1.958090 
# 
# From -- ./inp_files/345898.got.cif
#   From: 2010.05.17/outbox.cif.g08.bks.cpg/sg2_173_cif.got.tgz:345898.got - 2010.06.03 11:33:40.
