data_PCOD9008824
_publ_section_title
;
Structure prediction by ZEFSAII (Michael W. Deem and Ramdas Pophale) SiO2 
 PCOD9008824
Probable space group: P -1
;
_chemical_formula_sum "Si O2"
_cell_formula_units_Z 14
_cell_length_a 8.606564
_cell_length_b 9.262160
_cell_length_c 19.775620
_cell_angle_alpha 52.176831
_cell_angle_beta 133.140168
_cell_angle_gamma 92.018866
_cell_volume 677.482068
_symmetry_space_group_name_H-M "P -1"
_symmetry_group_IT_number 2
_symmetry_cell_setting 'triclinic'
loop_
_space_group_symop_operation_xyz
x,y,z
-x,-y,-z
loop_
_atom_site_type_symbol
_atom_site_label
_atom_site_fract_x
_atom_site_fract_y
_atom_site_fract_z
Si Si1 0.324664 0.702601 0.785187
Si Si2 0.252692 0.156046 0.619822
Si Si3 0.535251 0.965026 0.906057
Si Si4 0.854102 0.270995 0.855324
Si Si5 0.186120 0.805139 0.866717
Si Si6 0.366174 0.742098 0.349814
Si Si7 0.661687 0.530319 0.271431
O O1 0.152869 0.797986 0.777837
O O2 0.230534 0.616458 0.724221
O O3 0.310480 0.911920 0.688932
O O4 0.642739 0.461537 0.973099
O O5 0.386144 0.087103 0.754221
O O6 0.411915 0.221999 0.607138
O O7 0.916986 0.382615 0.444337
O O8 0.457022 0.197012 0.854884
O O9 0.391209 0.864616 0.918886
O O10 0.876628 0.747746 0.062837
O O11 0.729678 0.293951 0.738799
O O12 0.596758 0.443682 0.782027
O O13 0.000000 0.000000 0.000000
O O14 0.899589 0.017980 0.758888
O O15 0.500000 0.500000 0.500000
#
# Coordination Sequence:
#
# PCOD9008824 Si02
#       7
#     2   2   2   2   2   2   2
#     4  10  24  42  65  90 133 181 212 257 330 394
#     4  11  23  41  65  96 126 180 214 255 339 385
#     4  10  21  40  71  93 123 173 224 266 323 377
#     4  10  21  39  66 101 123 164 222 272 313 379
#     4  10  23  44  63  95 136 168 217 270 321 391
#     4  12  25  40  68 104 132 163 219 283 324 370
#     4  11  21  39  68  96 128 164 224 273 312 388
#
# _framework density 20.664753999999999
#
# number of rings (size 3 to 8) (size 9 to 14) (size 15 to 20)
#    0.000    1.429    2.857    3.429    4.000    4.000 
#    5.143    0.714    0.000    0.000    0.000    0.000 
#    0.000    0.000    0.000    0.000    0.000    0.000 
#
# Total GULP energy -78176.076304 kJ/mol
# GULP energy per Si atom -5584.005450 kJ/mol
# Density = 2.061772 g / cm^3
# Si number density = 20.664754 Si / 1000 Ang^3
#
#
#
# Elastic Constant Matrix: (Units=GPa)
#
#
# Indices 1 2 3 4 5 6 
#
# 1 56.3645 10.7066 33.9848 -3.8760 5.3706 9.9306
# 2 10.7066 60.6799 -8.6370 1.4412 4.6878 -5.2215
# 3 33.9848 -8.6370 78.2849 -1.7170 0.9558 12.9229
# 4 -3.8760 1.4412 -1.7170 37.6228 1.2648 -7.4875
# 5 5.3706 4.6878 0.9558 1.2648 36.2139 6.7111
# 6 9.9306 -5.2215 12.9229 -7.4875 6.7111 32.9879
#
#
#
# Elastic Compliance Matrix: (Units=1/GPa)
#
#
# Indices 1 2 3 4 5 6 
#
# 1 0.027137 -0.006664 -0.011835 0.001846 -0.002225 -0.003716
# 2 -0.006664 0.018772 0.004385 -0.000411 -0.002213 0.003617
# 3 -0.011835 0.004385 0.018971 -0.001319 0.001431 -0.003765
# 4 0.001846 -0.000411 -0.001319 0.028156 -0.002426 0.006780
# 5 -0.002225 -0.002213 0.001431 -0.002426 0.029537 -0.006801
# 6 -0.003716 0.003617 -0.003765 0.006780 -0.006801 0.036403
#
#
# Mechanical properties :
#
#
# Convention : Reuss Voigt Hill
#
# Bulk Modulus (GPa) = 27.28407 29.71536 28.49971
# Shear Modulus (GPa) = 25.07255 31.98326 28.52791
#
# Velocity S-wave (km/s) = 3.48702 3.93838 3.71955
# Velocity P-wave (km/s) = 5.42626 5.92385 5.68051
#
# Compressibility (1/GPa) = 0.03665143
#
# Stress axis : x y z
#
# Youngs Moduli (GPa) = 36.84992 53.27094 52.71334
#
# Poissons Ratio (x) = 0.35502 0.62385
# Poissons Ratio (y) = 0.24558 -0.23116
# Poissons Ratio (z) = 0.43611 -0.23360
#
# Static dielectric constant tensor:
#      x y z
#    x 1.752250 -0.010460 0.007820 
#    y -0.010460 1.773840 0.008260 
#    z 0.007820 0.008260 1.727800 
# 
# From -- ./inp_files/158296.got.cif
#   From: 2010.05.17/outbox.cif.g08.bks.cpg/sg2_80_cif.got.tgz:158296.got - 2010.06.03 11:33:40.
