data_PCOD9008292
_publ_section_title
;
Structure prediction by ZEFSAII (Michael W. Deem and Ramdas Pophale) SiO2 
 PCOD9008292
Probable space group: P -1
;
_chemical_formula_sum "Si O2"
_cell_formula_units_Z 15
_cell_length_a 8.722320
_cell_length_b 12.547051
_cell_length_c 9.265348
_cell_angle_alpha 60.431119
_cell_angle_beta 127.012361
_cell_angle_gamma 127.104683
_cell_volume 632.085323
_symmetry_space_group_name_H-M "P -1"
_symmetry_group_IT_number 2
_symmetry_cell_setting 'triclinic'
loop_
_space_group_symop_operation_xyz
x,y,z
-x,-y,-z
loop_
_atom_site_type_symbol
_atom_site_label
_atom_site_fract_x
_atom_site_fract_y
_atom_site_fract_z
Si Si1 0.010961 0.986857 0.344335
Si Si2 0.199366 0.663797 0.298603
Si Si3 0.000000 0.500000 0.500000
Si Si4 0.674268 0.040189 0.948606
Si Si5 0.229235 0.103375 0.132353
Si Si6 0.800079 0.667300 0.440058
Si Si7 0.314714 0.495805 0.241193
Si Si8 0.257523 0.402096 0.961676
O O1 0.893231 0.825889 0.353514
O O2 0.000000 0.000000 0.500000
O O3 0.228429 0.053507 0.329523
O O4 0.879099 0.058616 0.146831
O O5 0.256288 0.621525 0.511219
O O6 0.275812 0.819600 0.199499
O O7 0.249637 0.594198 0.236237
O O8 0.938211 0.589911 0.245478
O O9 0.036879 0.390409 0.479130
O O10 0.615716 0.921844 0.874464
O O11 0.500000 0.000000 0.000000
O O12 0.240253 0.252084 0.036951
O O13 0.000000 0.000000 0.000000
O O14 0.565952 0.584225 0.293752
O O15 0.741842 0.632809 0.599167
O O16 0.205010 0.438254 0.066561
O O17 0.500000 0.500000 0.000000
#
# Coordination Sequence:
#
# PCOD9008292 Si02
#       8
#     2   2   1   2   2   2   2   2
#     4  11  22  41  71  96 134 177 229 279 343 405
#     4  11  22  42  64  96 134 174 228 277 337 407
#     4  10  22  38  64  94 126 174 220 278 334 400
#     4  11  24  42  72  98 136 186 232 274 342 421
#     4  10  22  42  64  92 130 179 222 275 338 408
#     4  10  21  39  64  92 130 174 215 269 337 398
#     4  10  23  39  61  93 134 170 217 275 331 398
#     4  12  24  38  64  95 129 167 224 277 331 394
#
# _framework density 23.730972000000001
#
# number of rings (size 3 to 8) (size 9 to 14) (size 15 to 20)
#    0.000    1.333    2.667    3.600    7.467    0.000 
#    0.000    3.333    0.000    0.000    0.000    0.000 
#    0.000    0.000    0.000    0.000    0.000    0.000 
#
# Total GULP energy -83596.858864 kJ/mol
# GULP energy per Si atom -5573.123924 kJ/mol
# Density = 2.367696 g / cm^3
# Si number density = 23.730972 Si / 1000 Ang^3
#
#
#
# Elastic Constant Matrix: (Units=GPa)
#
#
# Indices 1 2 3 4 5 6 
#
# 1 156.5797 63.2652 32.8761 -8.3873 -28.5204 -18.1278
# 2 63.2652 121.2748 35.4106 -44.1422 -4.8723 -6.9872
# 3 32.8761 35.4106 89.1939 -11.5390 -33.1491 -8.7457
# 4 -8.3873 -44.1422 -11.5390 43.5632 -6.4957 -5.0848
# 5 -28.5204 -4.8723 -33.1491 -6.4957 41.0077 5.7795
# 6 -18.1278 -6.9872 -8.7457 -5.0848 5.7795 34.8166
#
#
#
# Elastic Compliance Matrix: (Units=1/GPa)
#
#
# Indices 1 2 3 4 5 6 
#
# 1 0.009915 -0.006028 0.000930 -0.002718 0.006110 0.002775
# 2 -0.006028 0.018531 -0.003799 0.016484 -0.002803 0.002499
# 3 0.000930 -0.003799 0.019040 0.004027 0.015878 0.002457
# 4 -0.002718 0.016484 0.004027 0.042428 0.008971 0.007612
# 5 0.006110 -0.002803 0.015878 0.008971 0.042435 0.000873
# 6 0.002775 0.002499 0.002457 0.007612 0.000873 0.032252
#
#
# Mechanical properties :
#
#
# Convention : Reuss Voigt Hill
#
# Bulk Modulus (GPa) = 33.67960 70.01691 51.84826
# Shear Modulus (GPa) = 26.00185 39.57728 32.78956
#
# Velocity S-wave (km/s) = 3.31372 4.08824 3.72118
# Velocity P-wave (km/s) = 5.37252 7.20093 6.35285
#
# Compressibility (1/GPa) = 0.02969156
#
# Stress axis : x y z
#
# Youngs Moduli (GPa) = 100.85256 53.96385 52.52041
#
# Poissons Ratio (x) = 0.32529 -0.04882
# Poissons Ratio (y) = 0.60793 0.19954
# Poissons Ratio (z) = -0.09375 0.20502
#
# Static dielectric constant tensor:
#      x y z
#    x 2.178350 0.037350 0.071410 
#    y 0.037350 1.939840 -0.009080 
#    z 0.071410 -0.009080 2.135870 
# 
# From -- ./inp_files/185435.got.cif
#   From: 2010.05.17/outbox.cif.g08.bks.cpg/sg2_93_cif.got.tgz:185435.got - 2010.06.03 11:33:40.
