data_PCOD9008512
_publ_section_title
;
Structure prediction by ZEFSAII (Michael W. Deem and Ramdas Pophale) SiO2 
 PCOD9008512
Probable space group: P -1
;
_chemical_formula_sum "Si O2"
_cell_formula_units_Z 12
_cell_length_a 5.200925
_cell_length_b 8.077963
_cell_length_c 15.072192
_cell_angle_alpha 98.916850
_cell_angle_beta 109.319932
_cell_angle_gamma 92.710146
_cell_volume 587.036074
_symmetry_space_group_name_H-M "P -1"
_symmetry_group_IT_number 2
_symmetry_cell_setting 'triclinic'
loop_
_space_group_symop_operation_xyz
x,y,z
-x,-y,-z
loop_
_atom_site_type_symbol
_atom_site_label
_atom_site_fract_x
_atom_site_fract_y
_atom_site_fract_z
Si Si1 0.183915 0.877657 0.871160
Si Si2 0.497490 0.689190 0.481018
Si Si3 0.313006 0.930868 0.150180
Si Si4 0.269525 0.614966 0.012637
Si Si5 0.066394 0.158861 0.586702
Si Si6 0.168834 0.075531 0.316954
O O1 0.204675 0.737005 0.934647
O O2 0.011592 0.816275 0.758117
O O3 0.481180 0.954256 0.879577
O O4 0.999745 0.023394 0.895713
O O5 0.500000 0.500000 0.500000
O O6 0.187914 0.730883 0.439845
O O7 0.664729 0.734417 0.412762
O O8 0.651109 0.814549 0.582438
O O9 0.356403 0.985127 0.261812
O O10 0.350426 0.741156 0.113904
O O11 0.500000 0.500000 0.000000
O O12 0.000000 0.500000 0.000000
O O13 0.000000 0.000000 0.500000
O O14 0.035150 0.069740 0.671527
#
# Coordination Sequence:
#
# PCOD9008512 Si02
#       6
#     2   2   2   2   2   2
#     4  10  22  40  66  84 122 162 209 244 292 369
#     4  11  23  40  61  91 126 161 195 256 311 350
#     4  10  22  40  66  85 119 162 209 239 296 366
#     4  12  24  42  62  93 128 156 196 251 318 355
#     4  10  21  39  65  83 120 166 204 242 297 370
#     4   9  23  38  67  86 120 158 222 236 295 356
#
# _framework density 20.441673000000002
#
# number of rings (size 3 to 8) (size 9 to 14) (size 15 to 20)
#    1.000    0.667    0.000    5.500    7.000    0.000 
#    3.000    0.000    0.000    0.000    0.000    0.000 
#    0.000    0.000    0.000    0.000    0.000    0.000 
#
# Total GULP energy -66953.461288 kJ/mol
# GULP energy per Si atom -5579.455107 kJ/mol
# Density = 2.039515 g / cm^3
# Si number density = 20.441673 Si / 1000 Ang^3
#
#
#
# Elastic Constant Matrix: (Units=GPa)
#
#
# Indices 1 2 3 4 5 6 
#
# 1 167.1841 58.2465 20.8307 -6.5283 -26.5308 -4.6311
# 2 58.2465 106.2289 24.7229 -7.1027 -23.0547 -1.5038
# 3 20.8307 24.7229 62.9020 4.6321 -15.6927 -0.8876
# 4 -6.5283 -7.1027 4.6321 19.7557 0.8805 1.0059
# 5 -26.5308 -23.0547 -15.6927 0.8805 30.9833 -12.6489
# 6 -4.6311 -1.5038 -0.8876 1.0059 -12.6489 41.3302
#
#
#
# Elastic Compliance Matrix: (Units=1/GPa)
#
#
# Indices 1 2 3 4 5 6 
#
# 1 0.008059 -0.003075 -0.000143 0.001221 0.005503 0.002442
# 2 -0.003075 0.013530 -0.002911 0.004130 0.006669 0.002026
# 3 -0.000143 -0.002911 0.019935 -0.006354 0.009345 0.003321
# 4 0.001221 0.004130 -0.006354 0.054132 -0.001273 -0.001556
# 5 0.005503 0.006669 0.009345 -0.001273 0.053899 0.017586
# 6 0.002442 0.002026 0.003321 -0.001556 0.017586 0.030034
#
#
# Mechanical properties :
#
#
# Convention : Reuss Voigt Hill
#
# Bulk Modulus (GPa) = 34.16931 60.43502 47.30217
# Shear Modulus (GPa) = 24.80122 33.91485 29.35803
#
# Velocity S-wave (km/s) = 3.48698 4.07763 3.79382
# Velocity P-wave (km/s) = 5.74141 7.19710 6.51007
#
# Compressibility (1/GPa) = 0.02926603
#
# Stress axis : x y z
#
# Youngs Moduli (GPa) = 124.08120 73.91246 50.16234
#
# Poissons Ratio (x) = 0.22729 0.00717
# Poissons Ratio (y) = 0.38157 0.14602
# Poissons Ratio (z) = 0.01773 0.21516
#
# Static dielectric constant tensor:
#      x y z
#    x 1.765340 0.027070 0.037770 
#    y 0.027070 1.718880 0.045470 
#    z 0.037770 0.045470 1.849630 
# 
# From -- ./inp_files/545661.got.cif
#   From: 2010.05.17/outbox.cif.g08.bks.cpg/sg2_273_cif.got.tgz:545661.got - 2010.06.03 11:33:40.
