data_PCOD9008908
_publ_section_title
;
Structure prediction by ZEFSAII (Michael W. Deem and Ramdas Pophale) SiO2 
 PCOD9008908
Probable space group: P -1
;
_chemical_formula_sum "Si O2"
_cell_formula_units_Z 16
_cell_length_a 5.758215
_cell_length_b 17.752831
_cell_length_c 10.662692
_cell_angle_alpha 44.446269
_cell_angle_beta 96.817844
_cell_angle_gamma 113.737507
_cell_volume 674.060634
_symmetry_space_group_name_H-M "P -1"
_symmetry_group_IT_number 2
_symmetry_cell_setting 'triclinic'
loop_
_space_group_symop_operation_xyz
x,y,z
-x,-y,-z
loop_
_atom_site_type_symbol
_atom_site_label
_atom_site_fract_x
_atom_site_fract_y
_atom_site_fract_z
Si Si1 0.771840 0.486225 0.408096
Si Si2 0.220768 0.930634 0.996020
Si Si3 0.171947 0.374280 0.188987
Si Si4 0.018419 0.976322 0.319663
Si Si5 0.548827 0.154615 0.092028
Si Si6 0.280626 0.593826 0.773326
Si Si7 0.687709 0.707496 0.235852
Si Si8 0.036906 0.833635 0.725523
O O1 0.841710 0.473547 0.284563
O O2 0.738859 0.605057 0.293090
O O3 0.513169 0.365285 0.579320
O O4 0.000000 0.500000 0.500000
O O5 0.248431 0.840477 0.004422
O O6 0.180420 0.030889 0.792501
O O7 0.939520 0.831867 0.152408
O O8 0.500000 0.000000 0.000000
O O9 0.405242 0.356180 0.291100
O O10 0.889266 0.334904 0.286558
O O11 0.135506 0.308144 0.130625
O O12 0.256424 0.512448 0.991539
O O13 0.299050 0.024799 0.215786
O O14 0.035132 0.087324 0.277111
O O15 0.996745 0.876956 0.534725
O O16 0.677154 0.152168 0.235979
O O17 0.453942 0.250374 0.930158
#
# Coordination Sequence:
#
# PCOD9008908 Si02
#       8
#     2   2   2   2   2   2   2   2
#     4  11  25  44  69  99 141 176 235 297 346 428
#     4  10  22  44  64  97 141 180 226 284 353 426
#     4  10  24  44  68  98 137 184 227 292 364 421
#     4   9  21  39  62  99 129 173 234 282 344 419
#     4  10  21  39  66  92 125 180 224 286 348 422
#     4  10  25  45  65 101 137 179 237 286 360 433
#     4  10  24  41  67 103 127 187 231 281 361 411
#     4  10  21  39  66  94 130 172 232 291 348 417
#
# _framework density 23.736737000000002
#
# number of rings (size 3 to 8) (size 9 to 14) (size 15 to 20)
#    0.000    2.000    0.000    1.125   12.250    3.000 
#    6.750    0.000    0.000    0.000    0.000    0.000 
#    0.000    0.000    0.000    0.000    0.000    0.000 
#
# Total GULP energy -89078.062312 kJ/mol
# GULP energy per Si atom -5567.378894 kJ/mol
# Density = 2.368271 g / cm^3
# Si number density = 23.736737 Si / 1000 Ang^3
#
#
#
# Elastic Constant Matrix: (Units=GPa)
#
#
# Indices 1 2 3 4 5 6 
#
# 1 122.1804 44.2339 45.2403 6.8944 21.2344 15.6140
# 2 44.2339 84.4204 39.3140 17.6272 15.8942 21.5511
# 3 45.2403 39.3140 106.9821 5.3265 10.6114 14.1289
# 4 6.8944 17.6272 5.3265 25.6760 1.2113 7.6224
# 5 21.2344 15.8942 10.6114 1.2113 35.2001 9.0109
# 6 15.6140 21.5511 14.1289 7.6224 9.0109 45.3824
#
#
#
# Elastic Compliance Matrix: (Units=1/GPa)
#
#
# Indices 1 2 3 4 5 6 
#
# 1 0.011420 -0.003794 -0.002985 0.000488 -0.004177 -0.000451
# 2 -0.003794 0.019746 -0.004191 -0.010215 -0.003919 -0.004273
# 3 -0.002985 -0.004191 0.012195 0.001456 0.000241 -0.001072
# 4 0.000488 -0.010215 0.001456 0.046636 0.003368 -0.004272
# 5 -0.004177 -0.003919 0.000241 0.003368 0.033534 -0.004001
# 6 -0.000451 -0.004273 -0.001072 -0.004272 -0.004001 0.026065
#
#
# Mechanical properties :
#
#
# Convention : Reuss Voigt Hill
#
# Bulk Modulus (GPa) = 46.68165 63.46213 55.07189
# Shear Modulus (GPa) = 27.98367 33.57135 30.77751
#
# Velocity S-wave (km/s) = 3.43726 3.76483 3.60477
# Velocity P-wave (km/s) = 5.95501 6.75962 6.37003
#
# Compressibility (1/GPa) = 0.02142169
#
# Stress axis : x y z
#
# Youngs Moduli (GPa) = 87.56936 50.64202 82.00125
#
# Poissons Ratio (x) = 0.19212 0.24481
# Poissons Ratio (y) = 0.33221 0.34363
# Poissons Ratio (z) = 0.26143 0.21222
#
# Static dielectric constant tensor:
#      x y z
#    x 1.982880 0.025230 -0.013380 
#    y 0.025230 1.909830 -0.022790 
#    z -0.013380 -0.022790 1.943640 
# 
# From -- ./inp_files/370357.got.cif
#   From: 2010.05.17/outbox.cif.g08.bks.cpg/sg2_186_cif.got.tgz:370357.got - 2010.06.03 11:33:40.
