data_PCOD9008909
_publ_section_title
;
Structure prediction by ZEFSAII (Michael W. Deem and Ramdas Pophale) SiO2 
 PCOD9008909
Probable space group: P -1
;
_chemical_formula_sum "Si O2"
_cell_formula_units_Z 16
_cell_length_a 11.843964
_cell_length_b 13.435508
_cell_length_c 13.334947
_cell_angle_alpha 136.799565
_cell_angle_beta 30.781999
_cell_angle_gamma 130.822196
_cell_volume 741.122159
_symmetry_space_group_name_H-M "P -1"
_symmetry_group_IT_number 2
_symmetry_cell_setting 'triclinic'
loop_
_space_group_symop_operation_xyz
x,y,z
-x,-y,-z
loop_
_atom_site_type_symbol
_atom_site_label
_atom_site_fract_x
_atom_site_fract_y
_atom_site_fract_z
Si Si1 0.052614 0.836085 0.127955
Si Si2 0.925604 0.552088 0.704172
Si Si3 0.718412 0.858207 0.058882
Si Si4 0.263174 0.609365 0.663160
Si Si5 0.831471 0.022217 0.290481
Si Si6 0.252597 0.332893 0.607728
Si Si7 0.133348 0.094324 0.382923
Si Si8 0.250096 0.755140 0.329119
O O1 0.950223 0.727963 0.212916
O O2 0.844337 0.907788 0.287234
O O3 0.199678 0.971643 0.164900
O O4 0.173863 0.748649 0.887866
O O5 0.773784 0.418082 0.770115
O O6 0.000000 0.500000 0.500000
O O7 0.139163 0.580979 0.632894
O O8 0.803399 0.700232 0.902669
O O9 0.483070 0.824946 0.160827
O O10 0.912180 0.942900 0.910564
O O11 0.705869 0.953226 0.239794
O O12 0.206519 0.473824 0.681854
O O13 0.527367 0.629627 0.468500
O O14 0.758051 0.172512 0.500890
O O15 0.298821 0.207118 0.398759
O O16 0.959006 0.190991 0.530705
O O17 0.000000 0.000000 0.500000
#
# Coordination Sequence:
#
# PCOD9008909 Si02
#       8
#     2   2   2   2   2   2   2   2
#     4  10  21  39  66  92 126 162 207 262 317 382
#     4  12  24  44  64  92 133 168 218 268 307 380
#     4  11  23  41  63  92 122 170 211 256 322 369
#     4  11  23  42  65  91 129 168 211 266 314 374
#     4  10  22  40  61  93 127 156 211 262 308 384
#     4  10  22  42  66  93 124 168 211 260 324 369
#     4   9  20  40  62  94 125 157 209 259 310 382
#     4  11  22  41  65  88 126 167 206 264 314 372
#
# _framework density 21.588882999999999
#
# number of rings (size 3 to 8) (size 9 to 14) (size 15 to 20)
#    0.000    1.500    3.750    1.125    0.000    4.500 
#    2.250    6.250    0.000    0.000    0.000    0.000 
#    0.000    0.000    0.000    0.000    0.000    0.000 
#
# Total GULP energy -89358.968246 kJ/mol
# GULP energy per Si atom -5584.935515 kJ/mol
# Density = 2.153975 g / cm^3
# Si number density = 21.588883 Si / 1000 Ang^3
#
#
#
# Elastic Constant Matrix: (Units=GPa)
#
#
# Indices 1 2 3 4 5 6 
#
# 1 72.7911 20.7058 18.3326 6.3681 7.1220 23.6420
# 2 20.7058 90.8870 10.9335 16.7269 -1.7835 3.9546
# 3 18.3326 10.9335 29.7378 12.1529 0.2429 11.1138
# 4 6.3681 16.7269 12.1529 36.8304 4.5422 -2.2146
# 5 7.1220 -1.7835 0.2429 4.5422 20.6759 2.6318
# 6 23.6420 3.9546 11.1138 -2.2146 2.6318 36.9125
#
#
#
# Elastic Compliance Matrix: (Units=1/GPa)
#
#
# Indices 1 2 3 4 5 6 
#
# 1 0.020482 -0.003564 -0.007939 0.000870 -0.006207 -0.009852
# 2 -0.003564 0.012936 -0.000522 -0.005489 0.003495 0.000476
# 3 -0.007939 -0.000522 0.049515 -0.016283 0.007117 -0.011252
# 4 0.000870 -0.005489 -0.016283 0.036520 -0.009599 0.007809
# 5 -0.006207 0.003495 0.007117 -0.009599 0.053200 -0.002911
# 6 -0.009852 0.000476 -0.011252 0.007809 -0.002911 0.037414
#
#
# Mechanical properties :
#
#
# Convention : Reuss Voigt Hill
#
# Bulk Modulus (GPa) = 16.98337 32.59552 24.78944
# Shear Modulus (GPa) = 19.70482 28.44669 24.07576
#
# Velocity S-wave (km/s) = 3.02442 3.63389 3.34307
# Velocity P-wave (km/s) = 4.48107 5.72171 5.13896
#
# Compressibility (1/GPa) = 0.05888114
#
# Stress axis : x y z
#
# Youngs Moduli (GPa) = 48.82269 77.30644 20.19602
#
# Poissons Ratio (x) = 0.27556 0.16034
# Poissons Ratio (y) = 0.17403 0.01054
# Poissons Ratio (z) = 0.38762 0.04034
#
# Static dielectric constant tensor:
#      x y z
#    x 1.806330 -0.007940 0.008480 
#    y -0.007940 1.793420 0.009820 
#    z 0.008480 0.009820 1.805900 
# 
# From -- ./inp_files/455114.got.cif
#   From: 2010.05.17/outbox.cif.g08.bks.cpg/sg2_228_cif.got.tgz:455114.got - 2010.06.03 11:33:40.
