data_PCOD9008196
_publ_section_title
;
Structure prediction by ZEFSAII (Michael W. Deem and Ramdas Pophale) SiO2 
 PCOD9008196
Probable space group: P -1
;
_chemical_formula_sum "Si O2"
_cell_formula_units_Z 12
_cell_length_a 8.725020
_cell_length_b 24.821359
_cell_length_c 6.192538
_cell_angle_alpha 108.078475
_cell_angle_beta 82.595227
_cell_angle_gamma 149.714934
_cell_volume 615.276577
_symmetry_space_group_name_H-M "P -1"
_symmetry_group_IT_number 2
_symmetry_cell_setting 'triclinic'
loop_
_space_group_symop_operation_xyz
x,y,z
-x,-y,-z
loop_
_atom_site_type_symbol
_atom_site_label
_atom_site_fract_x
_atom_site_fract_y
_atom_site_fract_z
Si Si1 0.877374 0.406023 0.526385
Si Si2 0.225256 0.838662 0.782292
Si Si3 0.887744 0.628724 0.811796
Si Si4 0.697273 0.496993 0.071891
Si Si5 0.733827 0.055274 0.717801
Si Si6 0.722943 0.729671 0.397849
O O1 0.504986 0.298357 0.478958
O O2 0.000000 0.500000 0.500000
O O3 0.009742 0.394363 0.362474
O O4 0.037169 0.452656 0.788990
O O5 0.124184 0.750925 0.822813
O O6 0.954039 0.771753 0.578088
O O7 0.557974 0.945031 0.721311
O O8 0.252574 0.894765 0.031561
O O9 0.541645 0.548397 0.772668
O O10 0.871474 0.601052 0.027752
O O11 0.484978 0.386035 0.827343
O O12 0.075170 0.169260 0.685765
O O13 0.500000 0.000000 0.500000
#
# Coordination Sequence:
#
# PCOD9008196 Si02
#       6
#     2   2   2   2   2   2
#     4  12  25  38  57  91 128 160 194 240 301 353
#     4  10  21  39  64  90 115 156 205 244 293 352
#     4  11  24  37  60  88 125 158 197 245 291 353
#     4  11  24  38  59  90 122 161 201 238 291 358
#     4   9  20  38  64  89 114 151 206 248 293 346
#     4  11  22  38  63  90 121 157 197 249 294 347
#
# _framework density 19.503425
#
# number of rings (size 3 to 8) (size 9 to 14) (size 15 to 20)
#    0.000    1.333    3.333    2.000    4.667    0.000 
#    0.000    0.833    0.000   10.000    0.000    0.000 
#    0.000    0.000    0.000    0.000    0.000    0.000 
#
# Total GULP energy -66837.492776 kJ/mol
# GULP energy per Si atom -5569.791065 kJ/mol
# Density = 1.945903 g / cm^3
# Si number density = 19.503425 Si / 1000 Ang^3
#
#
#
# Elastic Constant Matrix: (Units=GPa)
#
#
# Indices 1 2 3 4 5 6 
#
# 1 71.3860 43.7716 15.6343 5.6275 -10.6492 -14.1074
# 2 43.7716 186.8398 21.5669 -31.0064 -0.7516 -28.7538
# 3 15.6343 21.5669 51.6577 1.3270 -7.0932 -4.5736
# 4 5.6275 -31.0064 1.3270 23.5042 3.2870 -2.6014
# 5 -10.6492 -0.7516 -7.0932 3.2870 33.6780 -13.8251
# 6 -14.1074 -28.7538 -4.5736 -2.6014 -13.8251 30.1018
#
#
#
# Elastic Compliance Matrix: (Units=1/GPa)
#
#
# Indices 1 2 3 4 5 6 
#
# 1 0.022621 -0.006043 -0.001597 -0.013958 0.011623 0.008718
# 2 -0.006043 0.011400 -0.002605 0.017667 -0.000194 0.009099
# 3 -0.001597 -0.002605 0.021993 -0.004815 0.005436 0.002185
# 4 -0.013958 0.017667 -0.004815 0.071824 -0.006844 0.012667
# 5 0.011623 -0.000194 0.005436 -0.006844 0.046130 0.026682
# 6 0.008718 0.009099 0.002185 0.012667 0.026682 0.059679
#
#
# Mechanical properties :
#
#
# Convention : Reuss Voigt Hill
#
# Bulk Modulus (GPa) = 28.15100 52.42545 40.28822
# Shear Modulus (GPa) = 18.79850 32.71752 25.75801
#
# Velocity S-wave (km/s) = 3.10797 4.10021 3.63807
# Velocity P-wave (km/s) = 5.22920 7.02524 6.19268
#
# Compressibility (1/GPa) = 0.03552272
#
# Stress axis : x y z
#
# Youngs Moduli (GPa) = 44.20755 87.71881 45.46953
#
# Poissons Ratio (x) = 0.53009 0.07261
# Poissons Ratio (y) = 0.26715 0.11847
# Poissons Ratio (z) = 0.07059 0.22855
#
# Static dielectric constant tensor:
#      x y z
#    x 1.766230 -0.039440 0.035860 
#    y -0.039440 1.779140 -0.034060 
#    z 0.035860 -0.034060 1.733300 
# 
# From -- ./inp_files/19867.got.cif
#   From: 2010.05.17/outbox.cif.g08.bks.cpg/sg2_10_cif.got.tgz:19867.got - 2010.06.03 11:33:40.
