data_PCOD9008782
_publ_section_title
;
Structure prediction by ZEFSAII (Michael W. Deem and Ramdas Pophale) SiO2 
 PCOD9008782
Probable space group: P -1
;
_chemical_formula_sum "Si O2"
_cell_formula_units_Z 14
_cell_length_a 8.254683
_cell_length_b 17.152723
_cell_length_c 8.443165
_cell_angle_alpha 46.074798
_cell_angle_beta 45.519768
_cell_angle_gamma 45.953170
_cell_volume 561.139722
_symmetry_space_group_name_H-M "P -1"
_symmetry_group_IT_number 2
_symmetry_cell_setting 'triclinic'
loop_
_space_group_symop_operation_xyz
x,y,z
-x,-y,-z
loop_
_atom_site_type_symbol
_atom_site_label
_atom_site_fract_x
_atom_site_fract_y
_atom_site_fract_z
Si Si1 0.712165 0.997727 0.720442
Si Si2 0.285772 0.583256 0.210625
Si Si3 0.920691 0.787868 0.642510
Si Si4 0.242517 0.785757 0.171165
Si Si5 0.524662 0.119311 0.370171
Si Si6 0.161682 0.557857 0.985924
Si Si7 0.356053 0.422486 0.644454
O O1 0.564050 0.105571 0.549085
O O2 0.780086 0.872027 0.764019
O O3 0.000000 0.000000 0.500000
O O4 0.500000 0.000000 0.000000
O O5 0.170051 0.689095 0.264799
O O6 0.578722 0.555307 0.037639
O O7 0.309454 0.457443 0.442503
O O8 0.160901 0.608815 0.091020
O O9 0.721841 0.775884 0.675191
O O10 0.056148 0.848875 0.350936
O O11 0.123471 0.665216 0.741155
O O12 0.493120 0.707835 0.207415
O O13 0.265749 0.866400 0.901440
O O14 0.500000 0.000000 0.500000
O O15 0.920734 0.532345 0.166040
O O16 0.500000 0.500000 0.500000
#
# Coordination Sequence:
#
# PCOD9008782 Si02
#       7
#     2   2   2   2   2   2   2
#     4  11  29  50  77 109 148 186 246 316 381 448
#     4  10  24  40  63 102 147 190 245 290 368 419
#     4  11  25  43  75 101 142 194 242 300 371 443
#     4  11  23  42  70 104 140 191 248 295 359 450
#     4  10  25  46  71 103 140 189 237 303 369 442
#     4  11  22  42  65 101 147 192 239 302 359 434
#     4  10  21  39  65  97 137 190 241 291 356 427
#
# _framework density 24.949224000000001
#
# number of rings (size 3 to 8) (size 9 to 14) (size 15 to 20)
#    0.000    1.429    2.857    0.429    8.000    5.714 
#    0.000    0.000    0.000    0.000    0.000    0.000 
#    0.000    0.000    0.000    0.000    0.000    0.000 
#
# Total GULP energy -77953.787842 kJ/mol
# GULP energy per Si atom -5568.127703 kJ/mol
# Density = 2.489244 g / cm^3
# Si number density = 24.949224 Si / 1000 Ang^3
#
#
#
# Elastic Constant Matrix: (Units=GPa)
#
#
# Indices 1 2 3 4 5 6 
#
# 1 88.3313 34.9667 53.7885 5.5578 13.4546 -22.2100
# 2 34.9667 86.9886 40.8095 18.6580 8.9355 1.1920
# 3 53.7885 40.8095 199.9869 10.3817 20.7694 -5.0268
# 4 5.5578 18.6580 10.3817 51.5443 -5.5763 6.8490
# 5 13.4546 8.9355 20.7694 -5.5763 53.2785 -0.1605
# 6 -22.2100 1.1920 -5.0268 6.8490 -0.1605 33.8512
#
#
#
# Elastic Compliance Matrix: (Units=1/GPa)
#
#
# Indices 1 2 3 4 5 6 
#
# 1 0.019333 -0.005824 -0.003348 -0.001273 -0.002696 0.012638
# 2 -0.005824 0.015574 -0.001366 -0.004360 -0.001076 -0.003696
# 3 -0.003348 -0.001366 0.006322 -0.000423 -0.001438 -0.001131
# 4 -0.001273 -0.004360 -0.000423 0.022279 0.003534 -0.005235
# 5 -0.002696 -0.001076 -0.001438 0.003534 0.020553 -0.002562
# 6 0.012638 -0.003696 -0.001131 -0.005235 -0.002562 0.038842
#
#
# Mechanical properties :
#
#
# Convention : Reuss Voigt Hill
#
# Bulk Modulus (GPa) = 49.61943 70.49292 60.05617
# Shear Modulus (GPa) = 33.17874 44.11760 38.64817
#
# Velocity S-wave (km/s) = 3.65067 4.20967 3.94010
# Velocity P-wave (km/s) = 6.14013 7.20724 6.69498
#
# Compressibility (1/GPa) = 0.02015340
#
# Stress axis : x y z
#
# Youngs Moduli (GPa) = 51.72393 64.20883 158.16676
#
# Poissons Ratio (x) = 0.37396 0.52950
# Poissons Ratio (y) = 0.30125 0.21613
# Poissons Ratio (z) = 0.17316 0.08774
#
# Static dielectric constant tensor:
#      x y z
#    x 2.055130 -0.041030 -0.033450 
#    y -0.041030 1.991230 0.068710 
#    z -0.033450 0.068710 2.178170 
# 
# From -- ./inp_files/222952.got.cif
#   From: 2010.05.17/outbox.cif.g08.bks.cpg/sg2_112_cif.got.tgz:222952.got - 2010.06.03 11:33:40.
