data_PCOD9008059
_publ_section_title
;
Structure prediction by ZEFSAII (Michael W. Deem and Ramdas Pophale) SiO2 
 PCOD9008059
Probable space group: P -1
;
_chemical_formula_sum "Si O2"
_cell_formula_units_Z 16
_cell_length_a 8.705306
_cell_length_b 9.162772
_cell_length_c 17.737559
_cell_angle_alpha 33.365484
_cell_angle_beta 118.720743
_cell_angle_gamma 108.017804
_cell_volume 669.858578
_symmetry_space_group_name_H-M "P -1"
_symmetry_group_IT_number 2
_symmetry_cell_setting 'triclinic'
loop_
_space_group_symop_operation_xyz
x,y,z
-x,-y,-z
loop_
_atom_site_type_symbol
_atom_site_label
_atom_site_fract_x
_atom_site_fract_y
_atom_site_fract_z
Si Si1 0.669519 0.660880 0.249379
Si Si2 0.964887 0.699372 0.704653
Si Si3 0.847419 0.845019 0.085550
Si Si4 0.405910 0.285545 0.314037
Si Si5 0.390018 0.244232 0.643175
Si Si6 0.559023 0.705233 0.862381
Si Si7 0.778660 0.104733 0.806700
Si Si8 0.050384 0.259224 0.492508
O O1 0.682794 0.831762 0.104930
O O2 0.515238 0.493082 0.285021
O O3 0.643558 0.827888 0.247457
O O4 0.855278 0.439404 0.383940
O O5 0.799218 0.661888 0.732259
O O6 0.903071 0.766565 0.574425
O O7 0.104122 0.425407 0.837517
O O8 0.036842 0.954775 0.644405
O O9 0.017400 0.864147 0.171031
O O10 0.797058 0.079263 0.912499
O O11 0.418806 0.337484 0.203952
O O12 0.500000 0.000000 0.500000
O O13 0.589683 0.311240 0.657141
O O14 0.197543 0.403717 0.504494
O O15 0.407751 0.975183 0.714327
O O16 0.729212 0.832428 0.876494
O O17 0.500000 0.500000 0.000000
#
# Coordination Sequence:
#
# PCOD9008059 Si02
#       8
#     2   2   2   2   2   2   2   2
#     4  11  23  40  65  94 130 175 217 274 329 399
#     4  10  22  38  65  95 129 178 213 271 333 391
#     4  10  21  42  64  94 132 168 223 270 337 387
#     4  12  23  43  68 101 133 177 228 270 329 401
#     4  10  23  40  64  94 126 174 217 266 337 385
#     4  10  24  44  66  98 133 176 220 276 328 392
#     4   9  22  41  64  89 129 170 218 271 324 397
#     4  10  21  39  63  95 134 168 220 272 330 395
#
# _framework density 23.885638
#
# number of rings (size 3 to 8) (size 9 to 14) (size 15 to 20)
#    0.750    1.000    1.250    2.625    5.250    1.500 
#    9.000    4.375    0.000    0.000    0.000    0.000 
#    0.000    0.000    0.000    0.000    0.000    0.000 
#
# Total GULP energy -89067.652454 kJ/mol
# GULP energy per Si atom -5566.728278 kJ/mol
# Density = 2.383127 g / cm^3
# Si number density = 23.885638 Si / 1000 Ang^3
#
#
#
# Elastic Constant Matrix: (Units=GPa)
#
#
# Indices 1 2 3 4 5 6 
#
# 1 148.4698 31.8658 25.0194 -1.3030 -7.3964 -1.6752
# 2 31.8658 37.2746 10.2300 2.5641 3.8815 -6.4984
# 3 25.0194 10.2300 66.8805 16.7480 7.7546 13.3347
# 4 -1.3030 2.5641 16.7480 20.9798 5.0821 -5.9947
# 5 -7.3964 3.8815 7.7546 5.0821 43.2345 8.7894
# 6 -1.6752 -6.4984 13.3347 -5.9947 8.7894 35.5715
#
#
#
# Elastic Compliance Matrix: (Units=1/GPa)
#
#
# Indices 1 2 3 4 5 6 
#
# 1 0.009037 -0.007116 -0.003679 0.004002 0.002248 0.000624
# 2 -0.007116 0.036552 -0.005240 0.003743 -0.006124 0.010451
# 3 -0.003679 -0.005240 0.026504 -0.025538 0.001278 -0.015686
# 4 0.004002 0.003743 -0.025538 0.077511 -0.009435 0.025839
# 5 0.002248 -0.006124 0.001278 -0.009435 0.026923 -0.009734
# 6 0.000624 0.010451 -0.015686 0.025839 -0.009734 0.042691
#
#
# Mechanical properties :
#
#
# Convention : Reuss Voigt Hill
#
# Bulk Modulus (GPa) = 24.98608 42.98392 33.98500
# Shear Modulus (GPa) = 18.89436 32.32449 25.60942
#
# Velocity S-wave (km/s) = 2.81558 3.68272 3.27795
# Velocity P-wave (km/s) = 4.58840 6.00982 5.34656
#
# Compressibility (1/GPa) = 0.04002228
#
# Stress axis : x y z
#
# Youngs Moduli (GPa) = 110.65773 27.35840 37.72986
#
# Poissons Ratio (x) = 0.19469 0.13882
# Poissons Ratio (y) = 0.78748 0.19770
# Poissons Ratio (z) = 0.40713 0.14335
#
# Static dielectric constant tensor:
#      x y z
#    x 1.961720 0.046040 0.024440 
#    y 0.046040 1.892540 -0.024640 
#    z 0.024440 -0.024640 2.078800 
# 
# From -- ./inp_files/494429.got.cif
#   From: 2010.05.17/outbox.cif.g08.bks.cpg/sg2_248_cif.got.tgz:494429.got - 2010.06.03 11:33:40.
