data_PCOD9008047
_publ_section_title
;
Structure prediction by ZEFSAII (Michael W. Deem and Ramdas Pophale) SiO2 
 PCOD9008047
Probable space group: P -1
;
_chemical_formula_sum "Si O2"
_cell_formula_units_Z 14
_cell_length_a 10.049140
_cell_length_b 5.907812
_cell_length_c 18.506480
_cell_angle_alpha 120.211241
_cell_angle_beta 44.042326
_cell_angle_gamma 128.892004
_cell_volume 591.755125
_symmetry_space_group_name_H-M "P -1"
_symmetry_group_IT_number 2
_symmetry_cell_setting 'triclinic'
loop_
_space_group_symop_operation_xyz
x,y,z
-x,-y,-z
loop_
_atom_site_type_symbol
_atom_site_label
_atom_site_fract_x
_atom_site_fract_y
_atom_site_fract_z
Si Si1 0.130162 0.469865 0.012220
Si Si2 0.795152 0.969913 0.164884
Si Si3 0.609541 0.361400 0.334534
Si Si4 0.139732 0.720920 0.399064
Si Si5 0.873830 0.840050 0.638981
Si Si6 0.336379 0.661362 0.521369
Si Si7 0.974169 0.120171 0.803487
O O1 0.192583 0.767722 0.080540
O O2 0.279656 0.343196 0.895568
O O3 0.966103 0.209337 0.083786
O O4 0.000000 0.500000 0.000000
O O5 0.936876 0.014117 0.189425
O O6 0.601913 0.052469 0.267547
O O7 0.426396 0.462474 0.413161
O O8 0.659355 0.393649 0.404614
O O9 0.810540 0.591849 0.251048
O O10 0.081777 0.877842 0.514957
O O11 0.909284 0.463424 0.422884
O O12 0.240894 0.512884 0.358101
O O13 0.204346 0.950734 0.343496
O O14 0.908383 0.962999 0.727157
O O15 0.500000 0.000000 0.500000
#
# Coordination Sequence:
#
# PCOD9008047 Si02
#       7
#     2   2   2   2   2   2   2
#     4   8  16  27  43  67  95 123 154 197 250 300
#     4   9  16  28  44  66  98 125 155 200 247 303
#     4  10  19  28  44  67  94 129 163 198 245 293
#     4  10  21  35  49  70  99 134 172 211 246 290
#     4  10  20  34  52  70  97 133 171 211 250 289
#     4  11  21  31  45  68  98 134 171 204 242 297
#     4  10  17  29  47  70  96 128 164 201 249 299
#
# _framework density 23.658436999999999
#
# number of rings (size 3 to 8) (size 9 to 14) (size 15 to 20)
#    0.000    2.286    1.429    2.571    4.000    0.000 
#    0.000    0.000    0.000    0.000    0.000    1.000 
#    0.000   46.857    0.000    8.286    0.000    0.571 
#
# Total GULP energy -77968.892662 kJ/mol
# GULP energy per Si atom -5569.206619 kJ/mol
# Density = 2.360459 g / cm^3
# Si number density = 23.658437 Si / 1000 Ang^3
#
#
#
# Elastic Constant Matrix: (Units=GPa)
#
#
# Indices 1 2 3 4 5 6 
#
# 1 102.2499 58.9349 46.5151 2.2320 24.2441 -39.6124
# 2 58.9349 127.9932 46.2706 4.4141 13.3977 -31.9845
# 3 46.5151 46.2706 145.5438 46.1662 20.2623 -29.6046
# 4 2.2320 4.4141 46.1662 52.9653 -16.2476 3.0068
# 5 24.2441 13.3977 20.2623 -16.2476 41.3243 -5.0001
# 6 -39.6124 -31.9845 -29.6046 3.0068 -5.0001 45.9738
#
#
#
# Elastic Compliance Matrix: (Units=1/GPa)
#
#
# Indices 1 2 3 4 5 6 
#
# 1 0.020390 -0.004938 0.001636 -0.006344 -0.011927 0.014304
# 2 -0.004938 0.011253 -0.002102 0.001301 0.001063 0.002251
# 3 0.001636 -0.002102 0.018618 -0.021872 -0.016608 0.011560
# 4 -0.006344 0.001301 -0.021872 0.048635 0.030912 -0.018465
# 5 -0.011927 0.001063 -0.016608 0.030912 0.049102 -0.016913
# 6 0.014304 0.002251 0.011560 -0.018465 -0.016913 0.042455
#
#
# Mechanical properties :
#
#
# Convention : Reuss Voigt Hill
#
# Bulk Modulus (GPa) = 25.34753 75.46978 50.40866
# Shear Modulus (GPa) = 23.31961 42.99042 33.15501
#
# Velocity S-wave (km/s) = 3.14296 4.26740 3.74759
# Velocity P-wave (km/s) = 4.88959 7.50000 6.33080
#
# Compressibility (1/GPa) = 0.03945157
#
# Stress axis : x y z
#
# Youngs Moduli (GPa) = 49.04302 88.86545 53.71282
#
# Poissons Ratio (x) = 0.43884 -0.08787
# Poissons Ratio (y) = 0.24219 0.11291
# Poissons Ratio (z) = -0.08023 0.18681
#
# Static dielectric constant tensor:
#      x y z
#    x 1.966350 -0.032630 -0.049000 
#    y -0.032630 2.178110 -0.036960 
#    z -0.049000 -0.036960 2.028190 
# 
# From -- ./inp_files/54794.got.cif
#   From: 2010.05.17/outbox.cif.g08.bks.cpg/sg2_28_cif.got.tgz:54794.got - 2010.06.03 11:33:40.
