data_PCOD9008595
_publ_section_title
;
Structure prediction by ZEFSAII (Michael W. Deem and Ramdas Pophale) SiO2 
 PCOD9008595
Probable space group: P -1
;
_chemical_formula_sum "Si O2"
_cell_formula_units_Z 14
_cell_length_a 30.424818
_cell_length_b 24.391077
_cell_length_c 5.044010
_cell_angle_alpha 69.282671
_cell_angle_beta 111.411240
_cell_angle_gamma 170.931516
_cell_volume 548.676145
_symmetry_space_group_name_H-M "P -1"
_symmetry_group_IT_number 2
_symmetry_cell_setting 'triclinic'
loop_
_space_group_symop_operation_xyz
x,y,z
-x,-y,-z
loop_
_atom_site_type_symbol
_atom_site_label
_atom_site_fract_x
_atom_site_fract_y
_atom_site_fract_z
Si Si1 0.069849 0.865336 0.066453
Si Si2 0.893957 0.466679 0.843478
Si Si3 0.694587 0.793518 0.491653
Si Si4 0.738330 0.108164 0.588939
Si Si5 0.382384 0.766458 0.073170
Si Si6 0.585783 0.403823 0.274494
Si Si7 0.216765 0.304512 0.290793
O O1 0.141977 0.998464 0.231469
O O2 0.320195 0.123263 0.174567
O O3 0.785452 0.480692 0.075387
O O4 0.092978 0.931892 0.740851
O O5 0.833556 0.457420 0.849130
O O6 0.050828 0.656038 0.584423
O O7 0.084605 0.665944 0.140234
O O8 0.592649 0.066313 0.865239
O O9 0.500000 0.500000 0.500000
O O10 0.478842 0.582712 0.371644
O O11 0.566539 0.952257 0.359814
O O12 0.526270 0.795737 0.718146
O O13 0.695202 0.536839 0.586660
O O14 0.817909 0.714265 0.051217
O O15 0.000000 0.000000 0.500000
#
# Coordination Sequence:
#
# PCOD9008595 Si02
#       7
#     2   2   2   2   2   2   2
#     4  10  22  40  67  93 137 178 229 284 352 418
#     4  11  27  46  72 104 154 186 246 308 356 426
#     4  10  22  40  65  94 131 176 223 287 346 416
#     4  12  25  46  72 104 148 191 246 299 359 429
#     4  11  26  46  74 109 140 203 242 294 372 433
#     4  10  21  40  64  94 132 180 224 290 343 413
#     4  10  21  39  65  91 130 177 222 278 357 415
#
# _framework density 25.515964
#
# number of rings (size 3 to 8) (size 9 to 14) (size 15 to 20)
#    0.000    1.429    1.429    2.571    4.000    6.857 
#    0.000    2.857    0.000    0.000    0.000    0.000 
#    0.000    0.000    0.000    0.000    0.000    0.000 
#
# Total GULP energy -78442.403675 kJ/mol
# GULP energy per Si atom -5603.028834 kJ/mol
# Density = 2.545789 g / cm^3
# Si number density = 25.515964 Si / 1000 Ang^3
#
#
#
# Elastic Constant Matrix: (Units=GPa)
#
#
# Indices 1 2 3 4 5 6 
#
# 1 94.8100 38.8970 -10.4493 -4.7299 3.2759 7.4159
# 2 38.8970 89.7704 -1.3742 -13.6743 -10.8347 -11.3630
# 3 -10.4493 -1.3742 -63.6303 -75.8624 -45.2097 44.5244
# 4 -4.7299 -13.6743 -75.8624 15.8382 -5.4780 21.4406
# 5 3.2759 -10.8347 -45.2097 -5.4780 39.6328 20.9168
# 6 7.4159 -11.3630 44.5244 21.4406 20.9168 51.2894
#
#
#
# Elastic Compliance Matrix: (Units=1/GPa)
#
#
# Indices 1 2 3 4 5 6 
#
# 1 0.013332 -0.006457 -0.000222 -0.001136 -0.002366 -0.001726
# 2 -0.006457 0.014932 -0.001012 0.002252 0.001997 0.003364
# 3 -0.000222 -0.001012 0.000086 -0.008197 -0.003774 0.004699
# 4 -0.001136 0.002252 -0.008197 0.015440 -0.009183 0.005070
# 5 -0.002366 0.001997 -0.003774 -0.009183 0.020681 -0.000534
# 6 -0.001726 0.003364 0.004699 0.005070 -0.000534 0.014511
#
#
# Mechanical properties :
#
#
# Convention : Reuss Voigt Hill
#
# Bulk Modulus (GPa) = 77.11321 19.45524 48.28423
# Shear Modulus (GPa) = 50.66592 27.61052 39.13822
#
# Velocity S-wave (km/s) = 4.46090 3.29308 3.92072
# Velocity P-wave (km/s) = 7.53791 4.70111 6.28174
#
# Compressibility (1/GPa) = 0.01296795
#
# Stress axis : x y z
#
# Youngs Moduli (GPa) = 75.00600 66.97059 11691.69035
#
# Poissons Ratio (x) = 0.43245 2.58987
# Poissons Ratio (y) = 0.48434 11.83230
# Poissons Ratio (z) = 0.01661 0.06778
#
# Static dielectric constant tensor:
#      x y z
#    x 1.907990 0.118190 -0.104780 
#    y 0.118190 2.107310 -0.171410 
#    z -0.104780 -0.171410 2.209480 
# 
# From -- ./inp_files/128823.got.cif
#   From: 2010.05.17/outbox.cif.g08.bks.cpg/sg2_65_cif.got.tgz:128823.got - 2010.06.03 11:33:40.
