data_PCOD9008713
_publ_section_title
;
Structure prediction by ZEFSAII (Michael W. Deem and Ramdas Pophale) SiO2 
 PCOD9008713
Probable space group: P -1
;
_chemical_formula_sum "Si O2"
_cell_formula_units_Z 14
_cell_length_a 9.246846
_cell_length_b 9.931598
_cell_length_c 9.283918
_cell_angle_alpha 50.556626
_cell_angle_beta 83.096603
_cell_angle_gamma 81.878505
_cell_volume 651.300376
_symmetry_space_group_name_H-M "P -1"
_symmetry_group_IT_number 2
_symmetry_cell_setting 'triclinic'
loop_
_space_group_symop_operation_xyz
x,y,z
-x,-y,-z
loop_
_atom_site_type_symbol
_atom_site_label
_atom_site_fract_x
_atom_site_fract_y
_atom_site_fract_z
Si Si1 0.912594 0.962367 0.755121
Si Si2 0.489720 0.675707 0.791466
Si Si3 0.618085 0.379476 0.479161
Si Si4 0.660768 0.047907 0.907533
Si Si5 0.200003 0.204523 0.395292
Si Si6 0.765733 0.085445 0.187857
Si Si7 0.052214 0.622858 0.536686
O O1 0.864094 0.927814 0.621322
O O2 0.070416 0.863512 0.834800
O O3 0.780922 0.913145 0.907256
O O4 0.934876 0.168644 0.640352
O O5 0.443110 0.647687 0.652621
O O6 0.649926 0.742781 0.723250
O O7 0.364346 0.803511 0.791874
O O8 0.500000 0.500000 0.000000
O O9 0.500000 0.500000 0.500000
O O10 0.635530 0.201391 0.689625
O O11 0.780849 0.443621 0.401504
O O12 0.734763 0.096040 0.015524
O O13 0.500000 0.000000 0.000000
O O14 0.074391 0.359609 0.338244
O O15 0.237096 0.106463 0.608908
O O16 0.000000 0.500000 0.500000
#
# Coordination Sequence:
#
# PCOD9008713 Si02
#       7
#     2   2   2   2   2   2   2
#     4  10  22  41  65  95 129 169 214 262 316 381
#     4  12  25  42  63  95 130 169 214 267 321 379
#     4  11  23  42  61  88 129 168 205 259 318 376
#     4  11  22  38  61  93 123 161 209 258 308 372
#     4  11  22  43  69  95 127 171 214 263 320 381
#     4  11  21  39  65  93 125 167 213 261 315 382
#     4  10  21  39  65  95 127 167 212 262 319 375
#
# _framework density 21.495459
#
# number of rings (size 3 to 8) (size 9 to 14) (size 15 to 20)
#    0.000    1.143    0.000    8.571    0.000    2.286 
#    0.000    7.143    0.000    0.000    0.000    0.000 
#    0.000    0.000    0.000    0.000    0.000    0.000 
#
# Total GULP energy -78176.029300 kJ/mol
# GULP energy per Si atom -5584.002093 kJ/mol
# Density = 2.144653 g / cm^3
# Si number density = 21.495459 Si / 1000 Ang^3
#
#
#
# Elastic Constant Matrix: (Units=GPa)
#
#
# Indices 1 2 3 4 5 6 
#
# 1 220.0766 57.7353 45.3993 8.0298 -15.2748 -18.8914
# 2 57.7353 110.3184 27.3634 31.7261 0.1254 -1.2786
# 3 45.3993 27.3634 110.3396 23.8512 10.2687 10.7690
# 4 8.0298 31.7261 23.8512 36.0060 1.7262 0.1528
# 5 -15.2748 0.1254 10.2687 1.7262 28.5440 14.7727
# 6 -18.8914 -1.2786 10.7690 0.1528 14.7727 54.5486
#
#
#
# Elastic Compliance Matrix: (Units=1/GPa)
#
#
# Indices 1 2 3 4 5 6 
#
# 1 0.006357 -0.003593 -0.002979 0.003554 0.003349 0.001789
# 2 -0.003593 0.014261 0.000757 -0.012208 -0.001150 -0.000714
# 3 -0.002979 0.000757 0.012472 -0.008043 -0.004432 -0.002253
# 4 0.003554 -0.012208 -0.008043 0.043001 0.001163 0.002097
# 5 0.003349 -0.001150 -0.004432 0.001163 0.043400 -0.009749
# 6 0.001789 -0.000714 -0.002253 0.002097 -0.009749 0.022014
#
#
# Mechanical properties :
#
#
# Convention : Reuss Voigt Hill
#
# Bulk Modulus (GPa) = 46.59686 77.97007 62.28347
# Shear Modulus (GPa) = 31.19365 44.50216 37.84791
#
# Velocity S-wave (km/s) = 3.81356 4.55500 4.20067
# Velocity P-wave (km/s) = 6.41214 8.00097 7.25021
#
# Compressibility (1/GPa) = 0.02146068
#
# Stress axis : x y z
#
# Youngs Moduli (GPa) = 157.29682 70.11963 80.18176
#
# Poissons Ratio (x) = 0.25196 0.23887
# Poissons Ratio (y) = 0.56521 -0.06074
# Poissons Ratio (z) = 0.46860 -0.05311
#
# Static dielectric constant tensor:
#      x y z
#    x 1.779540 -0.004810 -0.166580 
#    y -0.004810 1.797630 0.063870 
#    z -0.166580 0.063870 1.582690 
# 
# From -- ./inp_files/156808.got.cif
#   From: 2010.05.17/outbox.cif.g08.bks.cpg/sg2_79_cif.got.tgz:156808.got - 2010.06.03 11:33:40.
