data_PCOD9008636
_publ_section_title
;
Structure prediction by ZEFSAII (Michael W. Deem and Ramdas Pophale) SiO2 
 PCOD9008636
Probable space group: P -1
;
_chemical_formula_sum "Si O2"
_cell_formula_units_Z 13
_cell_length_a 12.684150
_cell_length_b 15.614757
_cell_length_c 9.082216
_cell_angle_alpha 44.767106
_cell_angle_beta 146.551392
_cell_angle_gamma 151.679861
_cell_volume 468.285244
_symmetry_space_group_name_H-M "P -1"
_symmetry_group_IT_number 2
_symmetry_cell_setting 'triclinic'
loop_
_space_group_symop_operation_xyz
x,y,z
-x,-y,-z
loop_
_atom_site_type_symbol
_atom_site_label
_atom_site_fract_x
_atom_site_fract_y
_atom_site_fract_z
Si Si1 0.183258 0.296623 0.386364
Si Si2 0.135672 0.146494 0.800006
Si Si3 0.287116 0.635689 0.382242
Si Si4 0.537933 0.982790 0.395289
Si Si5 0.261576 0.733719 0.930382
Si Si6 0.859461 0.766751 0.921649
Si Si7 0.500000 0.500000 0.000000
O O1 0.500000 0.500000 0.500000
O O2 0.187207 0.186601 0.637360
O O3 0.100831 0.234422 0.199832
O O4 0.956870 0.281230 0.216017
O O5 0.378708 0.331817 0.943123
O O6 0.841775 0.073972 0.587578
O O7 0.055372 0.968986 0.952729
O O8 0.334045 0.774699 0.367237
O O9 0.506666 0.631191 0.697207
O O10 0.960405 0.444482 0.213253
O O11 0.392615 0.718905 0.236664
O O12 0.500000 0.000000 0.500000
O O13 0.523213 0.090542 0.134803
O O14 0.837037 0.644145 0.152555
#
# Coordination Sequence:
#
# PCOD9008636 Si02
#       7
#     2   2   2   2   2   2   1
#     4  11  19  40  66  93 124 161 204 256 309 365
#     4  10  23  40  63  91 126 163 207 261 305 372
#     4  10  21  40  63  89 124 159 211 255 299 372
#     4  10  22  41  61  89 129 166 201 252 313 367
#     4  10  21  39  65  93 122 163 206 256 305 362
#     4  11  22  40  63  93 125 164 205 260 315 368
#     4  12  22  40  62  88 128 162 208 252 316 372
#
# _framework density 27.760857999999999
#
# number of rings (size 3 to 8) (size 9 to 14) (size 15 to 20)
#    0.000    1.538    3.077    2.308    0.000    1.846 
#    0.000   10.769    0.000    0.000    0.000    0.000 
#    0.000    0.000    0.000    0.000    0.000    0.000 
#
# Total GULP energy -72700.079505 kJ/mol
# GULP energy per Si atom -5592.313808 kJ/mol
# Density = 2.769767 g / cm^3
# Si number density = 27.760858 Si / 1000 Ang^3
#
#
#
# Elastic Constant Matrix: (Units=GPa)
#
#
# Indices 1 2 3 4 5 6 
#
# 1 173.9549 93.7260 50.0898 8.9443 -44.5072 8.3608
# 2 93.7260 224.2753 28.4906 5.7016 -25.8268 -14.3598
# 3 50.0898 28.4906 85.1749 -11.6399 -7.9868 7.7834
# 4 8.9443 5.7016 -11.6399 45.6210 2.0199 -19.6436
# 5 -44.5072 -25.8268 -7.9868 2.0199 58.5166 9.0122
# 6 8.3608 -14.3598 7.7834 -19.6436 9.0122 53.6326
#
#
#
# Elastic Compliance Matrix: (Units=1/GPa)
#
#
# Indices 1 2 3 4 5 6 
#
# 1 0.011699 -0.003535 -0.005286 -0.005884 0.007658 -0.005445
# 2 -0.003535 0.006033 -0.000079 0.001084 -0.000483 0.002656
# 3 -0.005286 -0.000079 0.015319 0.005475 -0.002303 0.000972
# 4 -0.005884 0.001084 0.005475 0.029961 -0.006198 0.012428
# 5 0.007658 -0.000483 -0.002303 -0.006198 0.023716 -0.007244
# 6 -0.005445 0.002656 0.000972 0.012428 -0.007244 0.025833
#
#
# Mechanical properties :
#
#
# Convention : Reuss Voigt Hill
#
# Bulk Modulus (GPa) = 65.56896 92.00200 78.78548
# Shear Modulus (GPa) = 36.91565 52.29393 44.60479
#
# Velocity S-wave (km/s) = 3.65056 4.34490 4.01278
# Velocity P-wave (km/s) = 6.43734 7.64093 7.06481
#
# Compressibility (1/GPa) = 0.01525112
#
# Stress axis : x y z
#
# Youngs Moduli (GPa) = 85.47902 165.75789 65.27813
#
# Poissons Ratio (x) = 0.58590 0.34506
# Poissons Ratio (y) = 0.30214 0.00517
# Poissons Ratio (z) = 0.45184 0.01313
#
# Static dielectric constant tensor:
#      x y z
#    x 2.193000 0.076010 0.018490 
#    y 0.076010 2.342180 -0.245020 
#    z 0.018490 -0.245020 2.492590 
# 
# From -- ./inp_files/182611.got.cif
#   From: 2010.05.17/outbox.cif.g08.bks.cpg/sg2_92_cif.got.tgz:182611.got - 2010.06.03 11:33:40.
