data_PCOD9008122
_publ_section_title
;
Structure prediction by ZEFSAII (Michael W. Deem and Ramdas Pophale) SiO2 
 PCOD9008122
Probable space group: P -1
;
_chemical_formula_sum "Si O2"
_cell_formula_units_Z 15
_cell_length_a 20.291267
_cell_length_b 8.813732
_cell_length_c 12.117088
_cell_angle_alpha 142.221456
_cell_angle_beta 143.462215
_cell_angle_gamma 30.764729
_cell_volume 623.346721
_symmetry_space_group_name_H-M "P -1"
_symmetry_group_IT_number 2
_symmetry_cell_setting 'triclinic'
loop_
_space_group_symop_operation_xyz
x,y,z
-x,-y,-z
loop_
_atom_site_type_symbol
_atom_site_label
_atom_site_fract_x
_atom_site_fract_y
_atom_site_fract_z
Si Si1 0.735737 0.082818 0.050246
Si Si2 0.417044 0.915308 0.949456
Si Si3 0.369840 0.746802 0.231774
Si Si4 0.848912 0.415048 0.840949
Si Si5 0.839445 0.379085 0.054600
Si Si6 0.969542 0.117867 0.400128
Si Si7 0.480593 0.250494 0.378275
Si Si8 0.000000 0.500000 0.500000
O O1 0.641743 0.178588 0.086533
O O2 0.655466 0.139611 0.861961
O O3 0.850907 0.707357 0.999276
O O4 0.812121 0.237994 0.236273
O O5 0.510320 0.994202 0.182720
O O6 0.504382 0.627096 0.819465
O O7 0.287854 0.242351 0.911183
O O8 0.418521 0.894064 0.463746
O O9 0.235413 0.779758 0.112250
O O10 0.683629 0.562756 0.705560
O O11 0.924006 0.180652 0.706718
O O12 0.902234 0.281744 0.959551
O O13 0.930760 0.354757 0.263318
O O14 0.989331 0.372644 0.535247
O O15 0.000000 0.000000 0.500000
O O16 0.500000 0.500000 0.500000
#
# Coordination Sequence:
#
# PCOD9008122 Si02
#       8
#     2   2   2   2   2   2   2   1
#     4  10  23  45  61 100 134 180 231 286 350 415
#     4  10  23  40  68  96 143 181 225 287 353 416
#     4  12  21  41  69  97 140 176 228 290 342 423
#     4  10  24  45  71  93 143 185 225 294 355 420
#     4  10  22  44  63 105 133 178 233 282 354 415
#     4  12  26  48  71 100 139 186 237 292 359 418
#     4  10  21  39  64 102 128 181 227 273 353 420
#     4  12  26  44  72 106 136 176 246 286 342 438
#
# _framework density 24.063652000000001
#
# number of rings (size 3 to 8) (size 9 to 14) (size 15 to 20)
#    0.000    1.600    4.000    2.800    3.733    2.667 
#    4.800    0.000    0.000    0.000    0.000    0.000 
#    0.000    0.000    0.000    0.000    0.000    0.000 
#
# Total GULP energy -83694.341351 kJ/mol
# GULP energy per Si atom -5579.622757 kJ/mol
# Density = 2.400888 g / cm^3
# Si number density = 24.063652 Si / 1000 Ang^3
#
#
#
# Elastic Constant Matrix: (Units=GPa)
#
#
# Indices 1 2 3 4 5 6 
#
# 1 132.9855 26.8336 19.0110 4.4175 -2.1186 20.7381
# 2 26.8336 40.4584 15.3672 -5.2680 -10.6614 12.1632
# 3 19.0110 15.3672 113.6064 -20.8771 -5.8971 -3.5767
# 4 4.4175 -5.2680 -20.8771 36.0161 13.2934 -6.9210
# 5 -2.1186 -10.6614 -5.8971 13.2934 52.9114 4.7406
# 6 20.7381 12.1632 -3.5767 -6.9210 4.7406 29.6458
#
#
#
# Elastic Compliance Matrix: (Units=1/GPa)
#
#
# Indices 1 2 3 4 5 6 
#
# 1 0.009875 -0.003998 -0.002145 -0.004781 0.001164 -0.006829
# 2 -0.003998 0.035263 -0.004644 -0.002896 0.008432 -0.014256
# 3 -0.002145 -0.004644 0.011453 0.008539 -0.002534 0.007187
# 4 -0.004781 -0.002896 0.008539 0.040341 -0.011465 0.016814
# 5 0.001164 0.008432 -0.002534 -0.011465 0.024241 -0.011132
# 6 -0.006829 -0.014256 0.007187 0.016814 -0.011132 0.050930
#
#
# Mechanical properties :
#
#
# Convention : Reuss Voigt Hill
#
# Bulk Modulus (GPa) = 28.55683 45.49708 37.02696
# Shear Modulus (GPa) = 24.34870 38.77055 31.55962
#
# Velocity S-wave (km/s) = 3.18440 4.01829 3.62540
# Velocity P-wave (km/s) = 5.04118 6.36214 5.73979
#
# Compressibility (1/GPa) = 0.03501789
#
# Stress axis : x y z
#
# Youngs Moduli (GPa) = 101.26399 28.35820 87.31015
#
# Poissons Ratio (x) = 0.11337 0.18728
# Poissons Ratio (y) = 0.40483 0.40549
# Poissons Ratio (z) = 0.21721 0.13170
#
# Static dielectric constant tensor:
#      x y z
#    x 1.917700 0.001720 -0.002830 
#    y 0.001720 1.978640 -0.028740 
#    z -0.002830 -0.028740 1.888950 
# 
# From -- ./inp_files/284012.got.cif
#   From: 2010.05.17/outbox.cif.g08.bks.cpg/sg2_143_cif.got.tgz:284012.got - 2010.06.03 11:33:40.
