data_PCOD9008920
_publ_section_title
;
Structure prediction by ZEFSAII (Michael W. Deem and Ramdas Pophale) SiO2 
 PCOD9008920
Probable space group: P -1
;
_chemical_formula_sum "Si O2"
_cell_formula_units_Z 16
_cell_length_a 9.584280
_cell_length_b 16.316951
_cell_length_c 11.863812
_cell_angle_alpha 47.488744
_cell_angle_beta 72.853211
_cell_angle_gamma 113.577933
_cell_volume 686.953391
_symmetry_space_group_name_H-M "P -1"
_symmetry_group_IT_number 2
_symmetry_cell_setting 'triclinic'
loop_
_space_group_symop_operation_xyz
x,y,z
-x,-y,-z
loop_
_atom_site_type_symbol
_atom_site_label
_atom_site_fract_x
_atom_site_fract_y
_atom_site_fract_z
Si Si1 0.877470 0.551129 0.815995
Si Si2 0.547497 0.694221 0.051654
Si Si3 0.141876 0.982112 0.932150
Si Si4 0.280456 0.793485 0.823181
Si Si5 0.719652 0.275667 0.621577
Si Si6 0.972045 0.141845 0.171798
Si Si7 0.799179 0.044040 0.551482
Si Si8 0.957063 0.623113 0.364439
O O1 0.620380 0.419950 0.919818
O O2 0.143662 0.705242 0.528959
O O3 0.966451 0.710396 0.724178
O O4 0.821322 0.391478 0.026367
O O5 0.315307 0.573034 0.310936
O O6 0.710330 0.690412 0.052495
O O7 0.789651 0.942354 0.741853
O O8 0.168527 0.004244 0.769231
O O9 0.427972 0.137634 0.782998
O O10 0.962332 0.754335 0.207671
O O11 0.000000 0.000000 0.000000
O O12 0.058060 0.744968 0.939729
O O13 0.500000 0.000000 0.500000
O O14 0.492088 0.898314 0.774935
O O15 0.920957 0.511522 0.377563
O O16 0.771805 0.234926 0.758591
O O17 0.832754 0.019738 0.438723
#
# Coordination Sequence:
#
# PCOD9008920 Si02
#       8
#     2   2   2   2   2   2   2   2
#     4  10  21  39  66  93 120 167 218 258 308 374
#     4  10  23  42  63  91 127 167 214 264 310 370
#     4  12  26  42  64  97 130 164 207 260 324 382
#     4   9  20  38  60  90 126 160 202 256 309 368
#     4  10  22  41  69  93 122 167 215 259 309 375
#     4  11  23  40  64  92 131 167 201 263 322 368
#     4  10  22  43  65  90 126 168 218 261 305 373
#     4  10  23  44  67  94 126 165 212 263 313 371
#
# _framework density 23.291246000000001
#
# number of rings (size 3 to 8) (size 9 to 14) (size 15 to 20)
#    0.000    1.750    0.000    3.000    0.000   13.500 
#    0.000   11.250    0.000    2.250    0.000    0.000 
#    0.000    0.000    0.000    0.000    0.000    0.000 
#
# Total GULP energy -89310.821937 kJ/mol
# GULP energy per Si atom -5581.926371 kJ/mol
# Density = 2.323823 g / cm^3
# Si number density = 23.291246 Si / 1000 Ang^3
#
#
#
# Elastic Constant Matrix: (Units=GPa)
#
#
# Indices 1 2 3 4 5 6 
#
# 1 156.2553 36.5402 20.8605 -6.9713 -21.3967 -9.3619
# 2 36.5402 109.3489 28.4655 -6.1093 3.0031 -3.2240
# 3 20.8605 28.4655 55.3111 -3.5314 4.9669 0.0669
# 4 -6.9713 -6.1093 -3.5314 30.2161 -1.2132 5.2912
# 5 -21.3967 3.0031 4.9669 -1.2132 44.5953 -6.1067
# 6 -9.3619 -3.2240 0.0669 5.2912 -6.1067 24.1564
#
#
#
# Elastic Compliance Matrix: (Units=1/GPa)
#
#
# Indices 1 2 3 4 5 6 
#
# 1 0.008141 -0.002074 -0.002402 0.000679 0.004875 0.003969
# 2 -0.002074 0.011188 -0.004798 0.001149 -0.001161 0.000157
# 3 -0.002402 -0.004798 0.021872 0.001386 -0.003618 -0.002850
# 4 0.000679 0.001149 0.001386 0.034912 0.000055 -0.007221
# 5 0.004875 -0.001161 -0.003618 0.000055 0.026397 0.008405
# 6 0.003969 0.000157 -0.002850 -0.007221 0.008405 0.046670
#
#
# Mechanical properties :
#
#
# Convention : Reuss Voigt Hill
#
# Bulk Modulus (GPa) = 44.14649 54.73862 49.44255
# Shear Modulus (GPa) = 28.52583 35.46349 31.99466
#
# Velocity S-wave (km/s) = 3.50343 3.90630 3.71034
# Velocity P-wave (km/s) = 5.94648 6.62558 6.29520
#
# Compressibility (1/GPa) = 0.02265186
#
# Stress axis : x y z
#
# Youngs Moduli (GPa) = 122.83226 89.38267 45.72114
#
# Poissons Ratio (x) = 0.18538 0.10984
# Poissons Ratio (y) = 0.25476 0.21937
# Poissons Ratio (z) = 0.29508 0.42887
#
# Static dielectric constant tensor:
#      x y z
#    x 1.954420 0.005010 0.019090 
#    y 0.005010 1.910490 0.006290 
#    z 0.019090 0.006290 1.923630 
# 
# From -- ./inp_files/398570.got.cif
#   From: 2010.05.17/outbox.cif.g08.bks.cpg/sg2_200_cif.got.tgz:398570.got - 2010.06.03 11:33:40.
