data_PCOD9008251
_publ_section_title
;
Structure prediction by ZEFSAII (Michael W. Deem and Ramdas Pophale) SiO2 
 PCOD9008251
Probable space group: P -1
;
_chemical_formula_sum "Si O2"
_cell_formula_units_Z 12
_cell_length_a 7.201399
_cell_length_b 7.510311
_cell_length_c 13.430886
_cell_angle_alpha 117.314337
_cell_angle_beta 129.116953
_cell_angle_gamma 54.412919
_cell_volume 453.460002
_symmetry_space_group_name_H-M "P -1"
_symmetry_group_IT_number 2
_symmetry_cell_setting 'triclinic'
loop_
_space_group_symop_operation_xyz
x,y,z
-x,-y,-z
loop_
_atom_site_type_symbol
_atom_site_label
_atom_site_fract_x
_atom_site_fract_y
_atom_site_fract_z
Si Si1 0.735896 0.266536 0.032957
Si Si2 0.916273 0.888282 0.294606
Si Si3 0.045820 0.453790 0.303972
Si Si4 0.492786 0.240583 0.554557
Si Si5 0.535543 0.628787 0.754124
Si Si6 0.153008 0.179215 0.976792
O O1 0.910360 0.224401 0.981529
O O2 0.500000 0.500000 0.000000
O O3 0.905034 0.294841 0.190218
O O4 0.659380 0.068078 0.983626
O O5 0.920841 0.824162 0.163024
O O6 0.850487 0.712605 0.291056
O O7 0.217524 0.826177 0.413534
O O8 0.721833 0.146037 0.299135
O O9 0.224924 0.388978 0.444305
O O10 0.264169 0.401673 0.277102
O O11 0.485823 0.408653 0.683968
O O12 0.500000 0.000000 0.500000
O O13 0.698240 0.667246 0.910076
#
# Coordination Sequence:
#
# PCOD9008251 Si02
#       6
#     2   2   2   2   2   2
#     4  10  21  39  64  91 127 166 200 253 314 365
#     4  11  22  40  66  91 125 167 206 254 312 370
#     4  10  23  41  61  92 126 160 210 258 301 370
#     4  11  25  43  61  89 126 164 212 261 306 368
#     4  10  22  40  65  92 125 166 205 255 312 367
#     4  10  22  39  61  97 128 157 209 257 302 370
#
# _framework density 26.463194000000001
#
# number of rings (size 3 to 8) (size 9 to 14) (size 15 to 20)
#    0.000    1.667    0.000    4.500    0.000   12.000 
#    0.000    3.333    0.000    0.000    0.000    0.000 
#    0.000    0.000    0.000    0.000    0.000    0.000 
#
# Total GULP energy -67201.507147 kJ/mol
# GULP energy per Si atom -5600.125596 kJ/mol
# Density = 2.640296 g / cm^3
# Si number density = 26.463194 Si / 1000 Ang^3
#
#
#
# Elastic Constant Matrix: (Units=GPa)
#
#
# Indices 1 2 3 4 5 6 
#
# 1 51.9603 32.4452 23.8745 10.1190 0.9175 9.1462
# 2 32.4452 195.6781 51.4391 10.0151 -2.4290 19.4289
# 3 23.8745 51.4391 135.0774 5.1937 8.0390 20.3641
# 4 10.1190 10.0151 5.1937 55.0919 4.8672 11.8145
# 5 0.9175 -2.4290 8.0390 4.8672 23.4643 2.4770
# 6 9.1462 19.4289 20.3641 11.8145 2.4770 51.7287
#
#
#
# Elastic Compliance Matrix: (Units=1/GPa)
#
#
# Indices 1 2 3 4 5 6 
#
# 1 0.023101 -0.002816 -0.002732 -0.003257 0.000547 -0.001234
# 2 -0.002816 0.006191 -0.001769 -0.000336 0.001546 -0.001128
# 3 -0.002732 -0.001769 0.009084 0.000766 -0.003088 -0.002456
# 4 -0.003257 -0.000336 0.000766 0.019932 -0.003886 -0.003966
# 5 0.000547 0.001546 -0.003088 -0.003886 0.044696 -0.000714
# 6 -0.001234 -0.001128 -0.002456 -0.003966 -0.000714 0.021880
#
#
# Mechanical properties :
#
#
# Convention : Reuss Voigt Hill
#
# Bulk Modulus (GPa) = 42.11909 66.47038 54.29474
# Shear Modulus (GPa) = 33.91377 44.38744 39.15061
#
# Velocity S-wave (km/s) = 3.58375 4.09996 3.85052
# Velocity P-wave (km/s) = 5.75109 6.89822 6.35061
#
# Compressibility (1/GPa) = 0.02374220
#
# Stress axis : x y z
#
# Youngs Moduli (GPa) = 43.28801 161.53119 110.08161
#
# Poissons Ratio (x) = 0.45491 0.30074
# Poissons Ratio (y) = 0.12191 0.19471
# Poissons Ratio (z) = 0.11826 0.28571
#
# Static dielectric constant tensor:
#      x y z
#    x 2.104590 -0.037320 0.027760 
#    y -0.037320 2.144650 0.063440 
#    z 0.027760 0.063440 2.122680 
# 
# From -- ./inp_files/493730.got.cif
#   From: 2010.05.17/outbox.cif.g08.bks.cpg/sg2_247_cif.got.tgz:493730.got - 2010.06.03 11:33:40.
