data_PCOD9008733
_publ_section_title
;
Structure prediction by ZEFSAII (Michael W. Deem and Ramdas Pophale) SiO2 
 PCOD9008733
Probable space group: P -1
;
_chemical_formula_sum "Si O2"
_cell_formula_units_Z 16
_cell_length_a 23.229480
_cell_length_b 15.391663
_cell_length_c 11.340232
_cell_angle_alpha 37.167865
_cell_angle_beta 152.008111
_cell_angle_gamma 158.834414
_cell_volume 678.605689
_symmetry_space_group_name_H-M "P -1"
_symmetry_group_IT_number 2
_symmetry_cell_setting 'triclinic'
loop_
_space_group_symop_operation_xyz
x,y,z
-x,-y,-z
loop_
_atom_site_type_symbol
_atom_site_label
_atom_site_fract_x
_atom_site_fract_y
_atom_site_fract_z
Si Si1 0.476909 0.239691 0.556019
Si Si2 0.251778 0.769206 0.309235
Si Si3 0.113589 0.271395 0.150925
Si Si4 0.925655 0.701076 0.514648
Si Si5 0.872203 0.280129 0.595426
Si Si6 0.572277 0.499781 0.928378
Si Si7 0.150948 0.993835 0.821931
Si Si8 0.662863 0.820036 0.370505
O O1 0.725786 0.477108 0.756857
O O2 0.413450 0.319091 0.277473
O O3 0.410073 0.201126 0.611797
O O4 0.356863 0.985684 0.571657
O O5 0.163780 0.537148 0.351920
O O6 0.162700 0.693494 0.364218
O O7 0.500000 0.000000 0.500000
O O8 0.194028 0.862687 0.040684
O O9 0.237331 0.245609 0.368202
O O10 0.932054 0.058330 0.141969
O O11 0.010400 0.265618 0.868764
O O12 0.975373 0.842639 0.567472
O O13 0.763845 0.617137 0.220188
O O14 0.150552 0.905773 0.637295
O O15 0.000000 0.500000 0.500000
O O16 0.519786 0.366764 0.854543
O O17 0.363410 0.273944 0.870084
#
# Coordination Sequence:
#
# PCOD9008733 Si02
#       8
#     2   2   2   2   2   2   2   2
#     4  11  24  42  66  92 127 173 211 259 329 380
#     4  11  23  43  64  93 132 169 214 270 315 378
#     4  10  23  43  64  94 134 162 205 273 317 378
#     4  11  22  39  67  90 126 173 209 265 316 378
#     4  11  26  45  65  97 128 169 222 264 317 389
#     4  10  21  39  65  96 125 166 211 264 316 385
#     4  10  23  41  62  96 130 166 214 258 326 383
#     4  10  23  41  62  97 125 167 213 262 322 386
#
# _framework density 23.577756999999998
#
# number of rings (size 3 to 8) (size 9 to 14) (size 15 to 20)
#    0.000    1.500    1.250    3.375    1.750   10.000 
#    0.000    4.375    0.000    0.000    0.000    0.000 
#    0.000    0.000    0.000    0.000    0.000    0.000 
#
# Total GULP energy -89573.460110 kJ/mol
# GULP energy per Si atom -5598.341257 kJ/mol
# Density = 2.352409 g / cm^3
# Si number density = 23.577757 Si / 1000 Ang^3
#
#
#
# Elastic Constant Matrix: (Units=GPa)
#
#
# Indices 1 2 3 4 5 6 
#
# 1 57.0524 4.5267 14.7752 2.5862 -19.8721 10.7910
# 2 4.5267 149.9063 22.4048 -3.1610 -18.8130 5.9995
# 3 14.7752 22.4048 86.7248 6.1755 -12.8335 7.6705
# 4 2.5862 -3.1610 6.1755 38.7107 1.1270 -14.1863
# 5 -19.8721 -18.8130 -12.8335 1.1270 21.4104 -7.6657
# 6 10.7910 5.9995 7.6705 -14.1863 -7.6657 32.3213
#
#
#
# Elastic Compliance Matrix: (Units=1/GPa)
#
#
# Indices 1 2 3 4 5 6 
#
# 1 0.027747 0.002662 -0.000813 -0.004185 0.025946 -0.005248
# 2 0.002662 0.007870 -0.001256 0.000495 0.008688 0.000227
# 3 -0.000813 -0.001256 0.013264 -0.003373 0.005238 -0.002881
# 4 -0.004185 0.000495 -0.003373 0.032628 -0.001428 0.016088
# 5 0.025946 0.008688 0.005238 -0.001428 0.084460 0.007887
# 6 -0.005248 0.000227 -0.002881 0.016088 0.007887 0.042265
#
#
# Mechanical properties :
#
#
# Convention : Reuss Voigt Hill
#
# Bulk Modulus (GPa) = 19.97407 41.89963 30.93685
# Shear Modulus (GPa) = 22.34762 35.28695 28.81729
#
# Velocity S-wave (km/s) = 3.08202 3.87281 3.49982
# Velocity P-wave (km/s) = 4.59947 6.14879 5.42968
#
# Compressibility (1/GPa) = 0.05006490
#
# Stress axis : x y z
#
# Youngs Moduli (GPa) = 36.04023 127.06668 75.39269
#
# Poissons Ratio (x) = -0.33820 0.06130
# Poissons Ratio (y) = -0.09593 0.09472
# Poissons Ratio (z) = 0.02931 0.15964
#
# Static dielectric constant tensor:
#      x y z
#    x 1.883690 -0.038350 0.012140 
#    y -0.038350 1.896710 -0.022090 
#    z 0.012140 -0.022090 1.927630 
# 
# From -- ./inp_files/476953.got.cif
#   From: 2010.05.17/outbox.cif.g08.bks.cpg/sg2_239_cif.got.tgz:476953.got - 2010.06.03 11:33:40.
