data_PCOD9008421
_publ_section_title
;
Structure prediction by ZEFSAII (Michael W. Deem and Ramdas Pophale) SiO2 
 PCOD9008421
Probable space group: P -1
;
_chemical_formula_sum "Si O2"
_cell_formula_units_Z 12
_cell_length_a 19.989747
_cell_length_b 9.184898
_cell_length_c 9.412314
_cell_angle_alpha 128.961179
_cell_angle_beta 27.645055
_cell_angle_gamma 145.108987
_cell_volume 426.387648
_symmetry_space_group_name_H-M "P -1"
_symmetry_group_IT_number 2
_symmetry_cell_setting 'triclinic'
loop_
_space_group_symop_operation_xyz
x,y,z
-x,-y,-z
loop_
_atom_site_type_symbol
_atom_site_label
_atom_site_fract_x
_atom_site_fract_y
_atom_site_fract_z
Si Si1 0.242602 0.863468 0.347019
Si Si2 0.979887 0.362485 0.739960
Si Si3 0.882954 0.801351 0.895547
Si Si4 0.184077 0.424332 0.684940
Si Si5 0.649342 0.788225 0.101162
Si Si6 0.515389 0.209133 0.307206
O O1 0.065199 0.825863 0.595523
O O2 0.159759 0.588025 0.924029
O O3 0.378976 0.101053 0.353846
O O4 0.133507 0.590640 0.472008
O O5 0.623151 0.111954 0.012346
O O6 0.812821 0.036431 0.838453
O O7 0.121094 0.430543 0.649668
O O8 0.006477 0.111338 0.880872
O O9 0.768953 0.727315 0.911837
O O10 0.688824 0.538311 0.191388
O O11 0.415349 0.551583 0.334026
O O12 0.617013 0.897329 0.365662
#
# Coordination Sequence:
#
# PCOD9008421 Si02
#       6
#     2   2   2   2   2   2
#     4  11  24  43  64  94 132 165 211 264 320 379
#     4  10  22  40  66  94 127 171 210 261 319 374
#     4  11  23  40  66  98 128 165 212 267 318 372
#     4  10  21  39  64  96 129 161 214 267 310 373
#     4  11  23  41  69  97 124 166 218 262 313 377
#     4  11  24  40  65  96 127 169 212 261 319 377
#
# _framework density 28.143407
#
# number of rings (size 3 to 8) (size 9 to 14) (size 15 to 20)
#    0.000    1.333    0.000    6.500    0.000    6.000 
#    0.000    3.333    0.000   33.000    0.000    0.000 
#    0.000    0.000    0.000    0.000    0.000    0.000 
#
# Total GULP energy -67341.281439 kJ/mol
# GULP energy per Si atom -5611.773453 kJ/mol
# Density = 2.807935 g / cm^3
# Si number density = 28.143407 Si / 1000 Ang^3
#
#
#
# Elastic Constant Matrix: (Units=GPa)
#
#
# Indices 1 2 3 4 5 6 
#
# 1 144.0429 43.3849 74.2585 4.3569 -19.2074 -21.5643
# 2 43.3849 102.6723 44.3448 -17.2032 -11.5668 -17.9071
# 3 74.2585 44.3448 172.2073 2.5296 -37.9004 -11.5722
# 4 4.3569 -17.2032 2.5296 59.2366 -0.2786 -0.8733
# 5 -19.2074 -11.5668 -37.9004 -0.2786 74.6982 8.6065
# 6 -21.5643 -17.9071 -11.5722 -0.8733 8.6065 50.2654
#
#
#
# Elastic Compliance Matrix: (Units=1/GPa)
#
#
# Indices 1 2 3 4 5 6 
#
# 1 0.009873 -0.002454 -0.003408 -0.001255 0.000133 0.002532
# 2 -0.002454 0.012920 -0.002130 0.004070 -0.000058 0.003140
# 3 -0.003408 -0.002130 0.008482 -0.000727 0.003190 -0.000827
# 4 -0.001255 0.004070 -0.000727 0.018202 -0.000118 0.001080
# 5 0.000133 -0.000058 0.003190 -0.000118 0.015243 -0.001841
# 6 0.002532 0.003140 -0.000827 0.001080 -0.001841 0.022243
#
#
# Mechanical properties :
#
#
# Convention : Reuss Voigt Hill
#
# Bulk Modulus (GPa) = 65.39588 82.54434 73.97011
# Shear Modulus (GPa) = 46.27769 53.96899 50.12334
#
# Velocity S-wave (km/s) = 4.05946 4.38384 4.22477
# Velocity P-wave (km/s) = 6.72751 7.41739 7.08086
#
# Compressibility (1/GPa) = 0.01529148
#
# Stress axis : x y z
#
# Youngs Moduli (GPa) = 101.28620 77.40110 117.89456
#
# Poissons Ratio (x) = 0.18993 0.40173
# Poissons Ratio (y) = 0.24854 0.25115
# Poissons Ratio (z) = 0.34514 0.16489
#
# Static dielectric constant tensor:
#      x y z
#    x 2.202440 0.090370 -0.013070 
#    y 0.090370 2.227850 0.079400 
#    z -0.013070 0.079400 2.128270 
# 
# From -- ./inp_files/461355.got.cif
#   From: 2010.05.17/outbox.cif.g08.bks.cpg/sg2_231_cif.got.tgz:461355.got - 2010.06.03 11:33:40.
