data_PCOD9008503
_publ_section_title
;
Structure prediction by ZEFSAII (Michael W. Deem and Ramdas Pophale) SiO2 
 PCOD9008503
Probable space group: P -1
;
_chemical_formula_sum "Si O2"
_cell_formula_units_Z 16
_cell_length_a 7.692734
_cell_length_b 16.806404
_cell_length_c 12.258946
_cell_angle_alpha 126.872330
_cell_angle_beta 54.825744
_cell_angle_gamma 145.763256
_cell_volume 701.977005
_symmetry_space_group_name_H-M "P -1"
_symmetry_group_IT_number 2
_symmetry_cell_setting 'triclinic'
loop_
_space_group_symop_operation_xyz
x,y,z
-x,-y,-z
loop_
_atom_site_type_symbol
_atom_site_label
_atom_site_fract_x
_atom_site_fract_y
_atom_site_fract_z
Si Si1 0.284397 0.872690 0.156539
Si Si2 0.969565 0.878950 0.462604
Si Si3 0.755978 0.341703 0.903889
Si Si4 0.864861 0.195919 0.224995
Si Si5 0.899090 0.564212 0.352479
Si Si6 0.292230 0.657344 0.474845
Si Si7 0.779702 0.739390 0.640888
Si Si8 0.729012 0.666513 0.014899
O O1 0.353817 0.780953 0.075318
O O2 0.212719 0.897225 0.321531
O O3 0.986696 0.779218 0.107401
O O4 0.589549 0.035880 0.140730
O O5 0.621666 0.720569 0.428710
O O6 0.954792 0.865817 0.589079
O O7 0.000000 0.000000 0.500000
O O8 0.473617 0.307366 0.926167
O O9 0.982239 0.370121 0.755371
O O10 0.000000 0.500000 0.000000
O O11 0.714388 0.237972 0.377400
O O12 0.058291 0.200638 0.250410
O O13 0.092728 0.307797 0.138078
O O14 0.822257 0.639795 0.504303
O O15 0.601658 0.386810 0.317931
O O16 0.206997 0.631304 0.358112
O O17 0.000000 0.500000 0.500000
O O18 0.500000 0.500000 0.000000
#
# Coordination Sequence:
#
# PCOD9008503 Si02
#       8
#     2   2   2   2   2   2   2   2
#     4  12  27  49  73 103 154 183 240 306 355 439
#     4  12  24  44  70 110 143 184 234 289 378 430
#     4  12  25  45  73 106 138 194 241 297 358 418
#     4  11  27  48  67 105 144 191 240 293 370 422
#     4  10  21  39  65 103 137 178 233 297 350 410
#     4  11  23  39  70 103 141 184 234 295 355 427
#     4  10  22  40  71  98 144 180 229 296 353 431
#     4  12  28  48  76 104 140 194 252 299 349 435
#
# _framework density 22.792771999999999
#
# number of rings (size 3 to 8) (size 9 to 14) (size 15 to 20)
#    0.000    0.750    5.000    1.875    3.500    3.000 
#    2.250    0.000    0.000    0.000    0.000    0.000 
#    0.000    0.000    0.000    0.000    0.000    0.000 
#
# Total GULP energy -89419.663099 kJ/mol
# GULP energy per Si atom -5588.728944 kJ/mol
# Density = 2.274089 g / cm^3
# Si number density = 22.792772 Si / 1000 Ang^3
#
#
#
# Elastic Constant Matrix: (Units=GPa)
#
#
# Indices 1 2 3 4 5 6 
#
# 1 106.2028 41.5493 13.0445 10.0836 9.9775 1.0063
# 2 41.5493 125.4962 16.3879 4.2380 15.0685 -1.7056
# 3 13.0445 16.3879 48.1859 -5.8942 16.3750 6.2439
# 4 10.0836 4.2380 -5.8942 39.3135 -1.9732 0.9066
# 5 9.9775 15.0685 16.3750 -1.9732 34.4899 -1.2147
# 6 1.0063 -1.7056 6.2439 0.9066 -1.2147 37.5983
#
#
#
# Elastic Compliance Matrix: (Units=1/GPa)
#
#
# Indices 1 2 3 4 5 6 
#
# 1 0.011307 -0.003265 -0.001916 -0.002889 -0.001104 -0.000099
# 2 -0.003265 0.009597 -0.001720 -0.000595 -0.002440 0.000744
# 3 -0.001916 -0.001720 0.026892 0.004251 -0.011393 -0.004963
# 4 -0.002889 -0.000595 0.004251 0.026937 0.000573 -0.001287
# 5 -0.001104 -0.002440 -0.011393 0.000573 0.035925 0.002958
# 6 -0.000099 0.000744 -0.004963 -0.001287 0.002958 0.027584
#
#
# Mechanical properties :
#
#
# Convention : Reuss Voigt Hill
#
# Bulk Modulus (GPa) = 29.41719 46.87203 38.14461
# Shear Modulus (GPa) = 30.60414 36.20723 33.40569
#
# Velocity S-wave (km/s) = 3.66828 3.98997 3.83250
# Velocity P-wave (km/s) = 5.55663 6.46804 6.02958
#
# Compressibility (1/GPa) = 0.03399373
#
# Stress axis : x y z
#
# Youngs Moduli (GPa) = 88.43726 104.19921 37.18624
#
# Poissons Ratio (x) = 0.34018 0.07126
# Poissons Ratio (y) = 0.28872 0.06397
# Poissons Ratio (z) = 0.16947 0.17925
#
# Static dielectric constant tensor:
#      x y z
#    x 1.905690 -0.024840 0.044820 
#    y -0.024840 1.832080 -0.012280 
#    z 0.044820 -0.012280 1.995080 
# 
# From -- ./inp_files/403190.got.cif
#   From: 2010.05.17/outbox.cif.g08.bks.cpg/sg2_202_cif.got.tgz:403190.got - 2010.06.03 11:33:40.
