data_PCOD9008149
_publ_section_title
;
Structure prediction by ZEFSAII (Michael W. Deem and Ramdas Pophale) SiO2 
 PCOD9008149
Probable space group: P -1
;
_chemical_formula_sum "Si O2"
_cell_formula_units_Z 16
_cell_length_a 8.428246
_cell_length_b 11.915145
_cell_length_c 19.419754
_cell_angle_alpha 44.554903
_cell_angle_beta 45.597881
_cell_angle_gamma 32.419558
_cell_volume 708.113870
_symmetry_space_group_name_H-M "P -1"
_symmetry_group_IT_number 2
_symmetry_cell_setting 'triclinic'
loop_
_space_group_symop_operation_xyz
x,y,z
-x,-y,-z
loop_
_atom_site_type_symbol
_atom_site_label
_atom_site_fract_x
_atom_site_fract_y
_atom_site_fract_z
Si Si1 0.785844 0.124873 0.111976
Si Si2 0.365791 0.785639 0.481897
Si Si3 0.279577 0.694525 0.405406
Si Si4 0.703395 0.858530 0.595495
Si Si5 0.060122 0.315459 0.109295
Si Si6 0.148106 0.922984 0.735287
Si Si7 0.749109 0.897016 0.097022
Si Si8 0.104705 0.416169 0.205961
O O1 0.889586 0.004537 0.206134
O O2 0.429922 0.348350 0.130484
O O3 0.787987 0.989039 0.112018
O O4 0.008633 0.156020 0.008544
O O5 0.431065 0.722887 0.408697
O O6 0.492037 0.560006 0.575979
O O7 0.480736 0.887333 0.440375
O O8 0.000000 0.000000 0.500000
O O9 0.983258 0.755794 0.504432
O O10 0.133564 0.878137 0.311888
O O11 0.461985 0.848001 0.646781
O O12 0.840415 0.726944 0.683841
O O13 0.047275 0.361220 0.174397
O O14 0.840774 0.274412 0.179944
O O15 0.407772 0.086580 0.090146
O O16 0.000000 0.500000 0.000000
O O17 0.836675 0.674363 0.186147
#
# Coordination Sequence:
#
# PCOD9008149 Si02
#       8
#     2   2   2   2   2   2   2   2
#     4   9  21  39  62  90 118 153 206 264 313 370
#     4   9  20  40  62  86 120 164 207 248 299 360
#     4  10  21  40  66  90 124 165 204 251 305 368
#     4  10  22  39  61  92 127 163 206 253 302 368
#     4  11  25  42  61  91 129 164 207 263 315 367
#     4  11  23  40  62  94 129 163 205 258 317 366
#     4  10  21  41  64  85 117 163 211 253 310 376
#     4  10  21  39  64  87 119 164 206 252 307 371
#
# _framework density 22.595236
#
# number of rings (size 3 to 8) (size 9 to 14) (size 15 to 20)
#    0.000    2.000    0.000    2.250    0.000   13.500 
#    0.000    8.750    0.000    0.000    0.000    0.000 
#    0.000    0.000    0.000    0.000    0.000    0.000 
#
# Total GULP energy -89454.795596 kJ/mol
# GULP energy per Si atom -5590.924725 kJ/mol
# Density = 2.254381 g / cm^3
# Si number density = 22.595236 Si / 1000 Ang^3
#
#
#
# Elastic Constant Matrix: (Units=GPa)
#
#
# Indices 1 2 3 4 5 6 
#
# 1 71.6157 12.3396 21.7424 0.2341 -14.1943 -13.8655
# 2 12.3396 90.0210 45.3549 -23.7779 -8.5824 -5.2895
# 3 21.7424 45.3549 84.2170 -7.9705 -0.8695 -2.8862
# 4 0.2341 -23.7779 -7.9705 39.3394 -1.9062 -6.4585
# 5 -14.1943 -8.5824 -0.8695 -1.9062 46.4001 -1.8270
# 6 -13.8655 -5.2895 -2.8862 -6.4585 -1.8270 9.7971
#
#
#
# Elastic Compliance Matrix: (Units=1/GPa)
#
#
# Indices 1 2 3 4 5 6 
#
# 1 0.027108 0.007456 -0.008100 0.011457 0.011951 0.049786
# 2 0.007456 0.023258 -0.011590 0.017449 0.008372 0.032759
# 3 -0.008100 -0.011590 0.018980 -0.006183 -0.005196 -0.017175
# 4 0.011457 0.017449 -0.006183 0.044173 0.010593 0.054909
# 5 0.011951 0.008372 -0.005196 0.010593 0.028361 0.032175
# 6 0.049786 0.032759 -0.017175 0.054909 0.032175 0.227356
#
#
# Mechanical properties :
#
#
# Convention : Reuss Voigt Hill
#
# Bulk Modulus (GPa) = 22.28275 44.96972 33.62624
# Shear Modulus (GPa) = 12.23504 30.20178 21.21841
#
# Velocity S-wave (km/s) = 2.32951 3.65998 3.06774
# Velocity P-wave (km/s) = 4.13747 6.14867 5.24045
#
# Compressibility (1/GPa) = 0.04487777
#
# Stress axis : x y z
#
# Youngs Moduli (GPa) = 36.88926 42.99649 52.68829
#
# Poissons Ratio (x) = -0.32059 0.42678
# Poissons Ratio (y) = -0.27505 0.61065
# Poissons Ratio (z) = 0.29881 0.49832
#
# Static dielectric constant tensor:
#      x y z
#    x 1.871940 -0.010150 -0.041210 
#    y -0.010150 1.843290 0.035790 
#    z -0.041210 0.035790 1.863990 
# 
# From -- ./inp_files/589462.got.cif
#   From: 2010.05.17/outbox.cif.g08.bks.cpg/sg2_295_cif.got.tgz:589462.got - 2010.06.03 11:33:40.
