data_PCOD9008354
_publ_section_title
;
Structure prediction by ZEFSAII (Michael W. Deem and Ramdas Pophale) SiO2 
 PCOD9008354
Probable space group: P -1
;
_chemical_formula_sum "Si O2"
_cell_formula_units_Z 15
_cell_length_a 17.363625
_cell_length_b 9.279511
_cell_length_c 14.753814
_cell_angle_alpha 141.441269
_cell_angle_beta 25.288576
_cell_angle_gamma 143.728121
_cell_volume 587.419130
_symmetry_space_group_name_H-M "P -1"
_symmetry_group_IT_number 2
_symmetry_cell_setting 'triclinic'
loop_
_space_group_symop_operation_xyz
x,y,z
-x,-y,-z
loop_
_atom_site_type_symbol
_atom_site_label
_atom_site_fract_x
_atom_site_fract_y
_atom_site_fract_z
Si Si1 0.086171 0.787401 0.469947
Si Si2 0.661755 0.386384 0.754391
Si Si3 0.693052 0.983104 0.826746
Si Si4 0.681500 0.518483 0.530691
Si Si5 0.000000 0.000000 0.000000
Si Si6 0.746285 0.731692 0.380517
Si Si7 0.110310 0.532225 0.045951
Si Si8 0.605252 0.950792 0.476461
O O1 0.266190 0.719384 0.283752
O O2 0.137814 0.894257 0.367422
O O3 0.877158 0.570880 0.586026
O O4 0.082814 0.002397 0.648398
O O5 0.569596 0.177614 0.673304
O O6 0.500000 0.500000 0.000000
O O7 0.754835 0.179519 0.938908
O O8 0.666702 0.693194 0.714435
O O9 0.500000 0.000000 0.000000
O O10 0.641954 0.652530 0.548366
O O11 0.537480 0.234603 0.535053
O O12 0.894977 0.526886 0.286856
O O13 0.884268 0.692394 0.004149
O O14 0.821341 0.058099 0.259608
O O15 0.610091 0.786704 0.479128
O O16 0.836716 0.551528 0.148667
#
# Coordination Sequence:
#
# PCOD9008354 Si02
#       8
#     2   2   2   2   1   2   2   2
#     4   9  21  42  64  93 131 172 215 272 329 386
#     4  10  21  39  65  99 128 169 225 274 323 390
#     4  11  23  44  64  90 131 175 209 261 337 393
#     4  11  23  40  64  98 125 161 221 270 313 386
#     4  10  22  42  60  84 132 176 202 258 324 392
#     4   9  20  40  66  88 126 165 207 269 324 381
#     4  11  23  40  65  95 128 167 212 266 322 388
#     4  10  21  39  64  94 126 171 216 261 332 391
#
# _framework density 25.535430000000002
#
# number of rings (size 3 to 8) (size 9 to 14) (size 15 to 20)
#    0.000    1.867    0.000    3.600    1.867    3.733 
#    9.600    0.000    0.000    0.000    0.000    0.000 
#    0.000    0.000    0.000    0.000    0.000    0.000 
#
# Total GULP energy -83624.106524 kJ/mol
# GULP energy per Si atom -5574.940435 kJ/mol
# Density = 2.547731 g / cm^3
# Si number density = 25.535430 Si / 1000 Ang^3
#
#
#
# Elastic Constant Matrix: (Units=GPa)
#
#
# Indices 1 2 3 4 5 6 
#
# 1 79.4886 31.1277 26.7559 15.4294 -6.6363 6.9384
# 2 31.1277 135.8656 40.3827 36.8485 2.5493 12.6272
# 3 26.7559 40.3827 168.6971 45.4595 -2.2673 16.9748
# 4 15.4294 36.8485 45.4595 53.0986 3.0201 13.1803
# 5 -6.6363 2.5493 -2.2673 3.0201 22.3128 1.2691
# 6 6.9384 12.6272 16.9748 13.1803 1.2691 31.1716
#
#
#
# Elastic Compliance Matrix: (Units=1/GPa)
#
#
# Indices 1 2 3 4 5 6 
#
# 1 0.014788 -0.002630 -0.001131 -0.001487 0.004852 -0.001179
# 2 -0.002630 0.009615 -0.000388 -0.005310 -0.001156 -0.000806
# 3 -0.001131 -0.000388 0.007967 -0.005936 0.001405 -0.001477
# 4 -0.001487 -0.005310 -0.005936 0.029949 -0.004107 -0.006782
# 5 0.004852 -0.001156 0.001405 -0.004107 0.047180 -0.001561
# 6 -0.001179 -0.000806 -0.001477 -0.006782 -0.001561 0.036405
#
#
# Mechanical properties :
#
#
# Convention : Reuss Voigt Hill
#
# Bulk Modulus (GPa) = 41.54329 64.50933 53.02631
# Shear Modulus (GPa) = 30.82122 40.36893 35.59508
#
# Velocity S-wave (km/s) = 3.47796 3.98037 3.73761
# Velocity P-wave (km/s) = 5.69495 6.81483 6.27990
#
# Compressibility (1/GPa) = 0.02407128
#
# Stress axis : x y z
#
# Youngs Moduli (GPa) = 67.62380 104.00579 125.51330
#
# Poissons Ratio (x) = 0.27353 0.14200
# Poissons Ratio (y) = 0.17785 0.04869
# Poissons Ratio (z) = 0.07651 0.04035
#
# Static dielectric constant tensor:
#      x y z
#    x 2.117730 -0.048820 -0.042850 
#    y -0.048820 2.130920 0.035540 
#    z -0.042850 0.035540 1.923650 
# 
# From -- ./inp_files/578026.got.cif
#   From: 2010.05.17/outbox.cif.g08.bks.cpg/sg2_290_cif.got.tgz:578026.got - 2010.06.03 11:33:40.
