data_PCOD9008741
_publ_section_title
;
Structure prediction by ZEFSAII (Michael W. Deem and Ramdas Pophale) SiO2 
 PCOD9008741
Probable space group: P -1
;
_chemical_formula_sum "Si O2"
_cell_formula_units_Z 16
_cell_length_a 8.646466
_cell_length_b 8.886149
_cell_length_c 18.411124
_cell_angle_alpha 53.486785
_cell_angle_beta 141.806613
_cell_angle_gamma 111.131463
_cell_volume 686.462165
_symmetry_space_group_name_H-M "P -1"
_symmetry_group_IT_number 2
_symmetry_cell_setting 'triclinic'
loop_
_space_group_symop_operation_xyz
x,y,z
-x,-y,-z
loop_
_atom_site_type_symbol
_atom_site_label
_atom_site_fract_x
_atom_site_fract_y
_atom_site_fract_z
Si Si1 0.638483 0.618862 0.925438
Si Si2 0.953454 0.379466 0.317169
Si Si3 0.044508 0.287975 0.542539
Si Si4 0.614257 0.152001 0.835541
Si Si5 0.266107 0.005973 0.223617
Si Si6 0.308442 0.021230 0.490212
Si Si7 0.279493 0.241944 0.929828
Si Si8 0.239259 0.762952 0.989749
O O1 0.346056 0.630528 0.789611
O O2 0.731074 0.796195 0.873733
O O3 0.810184 0.421830 0.016948
O O4 0.649596 0.639859 0.009377
O O5 0.950495 0.602554 0.235709
O O6 0.062889 0.320438 0.453989
O O7 0.100341 0.222210 0.360053
O O8 0.312135 0.174885 0.707355
O O9 0.000000 0.500000 0.500000
O O10 0.835528 0.156499 0.512310
O O11 0.683738 0.293642 0.881354
O O12 0.716862 0.144660 0.793283
O O13 0.729815 0.955175 0.977140
O O14 0.510575 0.972914 0.374822
O O15 0.003273 0.059388 0.156644
O O16 0.500000 0.000000 0.500000
O O17 0.509492 0.198962 0.969030
#
# Coordination Sequence:
#
# PCOD9008741 Si02
#       8
#     2   2   2   2   2   2   2   2
#     4  10  21  39  65  96 127 176 230 280 333 405
#     4  11  21  45  68  98 136 181 237 280 337 421
#     4  12  25  46  75 100 141 184 236 280 345 426
#     4  11  24  44  66  98 136 188 232 278 346 410
#     4  11  23  41  63  97 136 175 226 282 345 409
#     4  12  27  44  71 105 138 184 231 291 349 413
#     4  10  23  40  67 100 132 175 234 288 331 399
#     4  11  22  38  64  99 132 173 224 285 343 397
#
# _framework density 23.307912000000002
#
# number of rings (size 3 to 8) (size 9 to 14) (size 15 to 20)
#    0.000    1.000    2.500    6.000    5.250    0.000 
#    0.000    1.875    0.000    0.000    0.000    0.000 
#    0.000    0.000    0.000    0.000    0.000    0.000 
#
# Total GULP energy -89386.807567 kJ/mol
# GULP energy per Si atom -5586.675473 kJ/mol
# Density = 2.325486 g / cm^3
# Si number density = 23.307912 Si / 1000 Ang^3
#
#
#
# Elastic Constant Matrix: (Units=GPa)
#
#
# Indices 1 2 3 4 5 6 
#
# 1 109.5287 49.9358 41.6528 -9.8545 13.4428 -20.5949
# 2 49.9358 89.9420 31.8206 -5.3210 7.1936 -25.2588
# 3 41.6528 31.8206 108.8341 9.0131 12.3950 0.2886
# 4 -9.8545 -5.3210 9.0131 39.8957 -1.0699 -3.3819
# 5 13.4428 7.1936 12.3950 -1.0699 31.6355 -7.4528
# 6 -20.5949 -25.2588 0.2886 -3.3819 -7.4528 38.1927
#
#
#
# Elastic Compliance Matrix: (Units=1/GPa)
#
#
# Indices 1 2 3 4 5 6 
#
# 1 0.014440 -0.004807 -0.004236 0.004214 -0.002159 0.004591
# 2 -0.004807 0.018000 -0.003919 0.002997 0.001939 0.009986
# 3 -0.004236 -0.003919 0.012847 -0.005104 -0.003976 -0.006201
# 4 0.004214 0.002997 -0.005104 0.028330 0.002189 0.007229
# 5 -0.002159 0.001939 -0.003976 0.002189 0.035428 0.007255
# 6 0.004591 0.009986 -0.006201 0.007229 0.007255 0.037365
#
#
# Mechanical properties :
#
#
# Convention : Reuss Voigt Hill
#
# Bulk Modulus (GPa) = 51.64327 61.68037 56.66182
# Shear Modulus (GPa) = 27.96595 34.27116 31.11855
#
# Velocity S-wave (km/s) = 3.46764 3.83869 3.65788
# Velocity P-wave (km/s) = 6.18367 6.79472 6.49638
#
# Compressibility (1/GPa) = 0.01936361
#
# Stress axis : x y z
#
# Youngs Moduli (GPa) = 69.25165 55.55565 77.83794
#
# Poissons Ratio (x) = 0.26705 0.32975
# Poissons Ratio (y) = 0.33289 0.30501
# Poissons Ratio (z) = 0.29337 0.21770
#
# Static dielectric constant tensor:
#      x y z
#    x 1.913570 0.021030 0.008930 
#    y 0.021030 1.984100 -0.009100 
#    z 0.008930 -0.009100 1.898720 
# 
# From -- ./inp_files/557055.got.cif
#   From: 2010.05.17/outbox.cif.g08.bks.cpg/sg2_279_cif.got.tgz:557055.got - 2010.06.03 11:33:40.
