data_PCOD9008215
_publ_section_title
;
Structure prediction by ZEFSAII (Michael W. Deem and Ramdas Pophale) SiO2 
 PCOD9008215
Probable space group: P -1
;
_chemical_formula_sum "Si O2"
_cell_formula_units_Z 16
_cell_length_a 7.496833
_cell_length_b 14.126306
_cell_length_c 15.924313
_cell_angle_alpha 37.274769
_cell_angle_beta 117.280506
_cell_angle_gamma 133.480335
_cell_volume 725.682522
_symmetry_space_group_name_H-M "P -1"
_symmetry_group_IT_number 2
_symmetry_cell_setting 'triclinic'
loop_
_space_group_symop_operation_xyz
x,y,z
-x,-y,-z
loop_
_atom_site_type_symbol
_atom_site_label
_atom_site_fract_x
_atom_site_fract_y
_atom_site_fract_z
Si Si1 0.718597 0.884082 0.488742
Si Si2 0.074738 0.299562 0.594926
Si Si3 0.302999 0.779813 0.578167
Si Si4 0.322253 0.931034 0.929432
Si Si5 0.513212 0.713832 0.393588
Si Si6 0.134212 0.702396 0.776764
Si Si7 0.666426 0.368717 0.969781
Si Si8 0.911688 0.946700 0.922229
O O1 0.489509 0.743412 0.601330
O O2 0.666493 0.770687 0.472507
O O3 0.710716 0.066385 0.338570
O O4 0.000000 0.000000 0.500000
O O5 0.226532 0.531843 0.478436
O O6 0.321067 0.310725 0.617530
O O7 0.885661 0.240580 0.518158
O O8 0.937170 0.130787 0.754593
O O9 0.158975 0.662916 0.713522
O O10 0.500000 0.000000 0.500000
O O11 0.276896 0.747348 0.001145
O O12 0.077158 0.906072 0.929566
O O13 0.463376 0.104687 0.769118
O O14 0.500000 0.000000 0.000000
O O15 0.240280 0.629836 0.917692
O O16 0.842313 0.589006 0.817698
O O17 0.371148 0.247177 0.997355
O O18 0.000000 0.000000 0.000000
#
# Coordination Sequence:
#
# PCOD9008215 Si02
#       8
#     2   2   2   2   2   2   2   2
#     4  11  22  40  63  94 127 164 208 267 322 383
#     4  10  23  40  65  95 127 166 212 266 324 384
#     4  10  21  39  64  90 125 166 207 258 323 378
#     4  11  23  41  67  94 130 172 213 262 325 389
#     4  10  22  41  64  95 128 162 213 270 320 379
#     4  10  23  43  65  89 124 174 209 265 324 374
#     4  11  23  45  66  90 133 167 219 265 315 389
#     4  11  23  41  67  93 131 171 208 264 327 382
#
# _framework density 22.048209
#
# number of rings (size 3 to 8) (size 9 to 14) (size 15 to 20)
#    0.000    1.500    2.500    3.000    1.750    3.500 
#    4.500    1.250    0.000    0.000    0.000    0.000 
#    0.000    0.000    0.000    0.000    0.000    0.000 
#
# Total GULP energy -89273.890833 kJ/mol
# GULP energy per Si atom -5579.618177 kJ/mol
# Density = 2.199803 g / cm^3
# Si number density = 22.048209 Si / 1000 Ang^3
#
#
#
# Elastic Constant Matrix: (Units=GPa)
#
#
# Indices 1 2 3 4 5 6 
#
# 1 88.7380 5.8784 32.2093 -5.2562 -24.7527 18.7240
# 2 5.8784 104.6337 40.0657 13.7901 -13.3372 28.6327
# 3 32.2093 40.0657 73.7366 17.4179 -32.6525 10.5992
# 4 -5.2562 13.7901 17.4179 41.0694 2.1162 -5.2945
# 5 -24.7527 -13.3372 -32.6525 2.1162 31.2713 -5.2434
# 6 18.7240 28.6327 10.5992 -5.2945 -5.2434 39.7778
#
#
#
# Elastic Compliance Matrix: (Units=1/GPa)
#
#
# Indices 1 2 3 4 5 6 
#
# 1 0.017055 0.004179 -0.005124 0.001440 0.008431 -0.008367
# 2 0.004179 0.016052 -0.008352 -0.002806 -0.000342 -0.011715
# 3 -0.005124 -0.008352 0.039658 -0.016436 0.034950 0.000276
# 4 0.001440 -0.002806 -0.016436 0.034403 -0.018223 0.007898
# 5 0.008431 -0.000342 0.034950 -0.018223 0.075305 -0.005534
# 6 -0.008367 -0.011715 0.000276 0.007898 -0.005534 0.037759
#
#
# Mechanical properties :
#
#
# Convention : Reuss Voigt Hill
#
# Bulk Modulus (GPa) = 18.46059 47.04612 32.75336
# Shear Modulus (GPa) = 19.46405 35.02069 27.24237
#
# Velocity S-wave (km/s) = 2.97441 3.98976 3.51890
# Velocity P-wave (km/s) = 4.49301 6.52751 5.60337
#
# Compressibility (1/GPa) = 0.05416946
#
# Stress axis : x y z
#
# Youngs Moduli (GPa) = 58.63454 62.29570 25.21569
#
# Poissons Ratio (x) = -0.26031 0.12921
# Poissons Ratio (y) = -0.24501 0.21061
# Poissons Ratio (z) = 0.30046 0.52031
#
# Static dielectric constant tensor:
#      x y z
#    x 1.852550 0.009890 0.026270 
#    y 0.009890 1.781320 -0.073620 
#    z 0.026270 -0.073620 1.845390 
# 
# From -- ./inp_files/503917.got.cif
#   From: 2010.05.17/outbox.cif.g08.bks.cpg/sg2_252_cif.got.tgz:503917.got - 2010.06.03 11:33:40.
