data_PCOD9008487
_publ_section_title
;
Structure prediction by ZEFSAII (Michael W. Deem and Ramdas Pophale) SiO2 
 PCOD9008487
Probable space group: P -1
;
_chemical_formula_sum "Si O2"
_cell_formula_units_Z 16
_cell_length_a 7.824768
_cell_length_b 9.080481
_cell_length_c 11.753703
_cell_angle_alpha 102.904478
_cell_angle_beta 109.134707
_cell_angle_gamma 107.942384
_cell_volume 700.055223
_symmetry_space_group_name_H-M "P -1"
_symmetry_group_IT_number 2
_symmetry_cell_setting 'triclinic'
loop_
_space_group_symop_operation_xyz
x,y,z
-x,-y,-z
loop_
_atom_site_type_symbol
_atom_site_label
_atom_site_fract_x
_atom_site_fract_y
_atom_site_fract_z
Si Si1 0.479963 0.740373 0.747287
Si Si2 0.111586 0.438586 0.210372
Si Si3 0.569515 0.625926 0.332449
Si Si4 0.132885 0.180922 0.011729
Si Si5 0.878092 0.861146 0.265290
Si Si6 0.529879 0.849358 0.540517
Si Si7 0.921951 0.312143 0.604773
Si Si8 0.934792 0.234371 0.346323
O O1 0.422348 0.548624 0.669375
O O2 0.642313 0.773470 0.887353
O O3 0.590023 0.863920 0.687627
O O4 0.277518 0.761331 0.731991
O O5 0.333820 0.569530 0.252302
O O6 0.054478 0.312365 0.070676
O O7 0.998932 0.545330 0.257077
O O8 0.090086 0.319855 0.294335
O O9 0.696626 0.718641 0.267313
O O10 0.634898 0.762185 0.470222
O O11 0.127646 0.176549 0.874779
O O12 0.000000 0.000000 0.000000
O O13 0.067182 0.847771 0.363171
O O14 0.886911 0.042187 0.317177
O O15 0.300558 0.714128 0.474113
O O16 0.500000 0.000000 0.500000
O O17 0.007452 0.326572 0.498982
#
# Coordination Sequence:
#
# PCOD9008487 Si02
#       8
#     2   2   2   2   2   2   2   2
#     4  10  23  40  68  92 133 172 215 265 323 387
#     4  10  22  43  68  94 130 173 217 264 323 389
#     4  10  22  40  64  99 131 170 211 273 328 380
#     4  11  25  46  65  94 128 175 225 264 316 386
#     4  12  25  42  65  95 137 173 217 265 319 383
#     4  10  21  39  65 101 131 167 213 269 331 384
#     4  10  23  39  65  99 131 164 211 272 328 382
#     4  11  22  43  67 100 128 170 216 267 329 382
#
# _framework density 22.855339000000001
#
# number of rings (size 3 to 8) (size 9 to 14) (size 15 to 20)
#    0.000    1.500    1.250    3.375    1.750    8.000 
#    0.000    0.000    0.000    0.000    0.000    0.000 
#    0.000    0.000    0.000    0.000    0.000    0.000 
#
# Total GULP energy -89356.889349 kJ/mol
# GULP energy per Si atom -5584.805584 kJ/mol
# Density = 2.280332 g / cm^3
# Si number density = 22.855339 Si / 1000 Ang^3
#
#
#
# Elastic Constant Matrix: (Units=GPa)
#
#
# Indices 1 2 3 4 5 6 
#
# 1 97.0897 31.6573 42.6396 -0.4313 -15.2669 -3.6369
# 2 31.6573 123.0693 17.7305 -4.0299 -12.4881 -9.4487
# 3 42.6396 17.7305 108.0985 -8.6857 -18.7846 8.8181
# 4 -0.4313 -4.0299 -8.6857 40.4945 1.4018 -11.2657
# 5 -15.2669 -12.4881 -18.7846 1.4018 40.9072 -6.7048
# 6 -3.6369 -9.4487 8.8181 -11.2657 -6.7048 42.4418
#
#
#
# Elastic Compliance Matrix: (Units=1/GPa)
#
#
# Indices 1 2 3 4 5 6 
#
# 1 0.013643 -0.002456 -0.004752 -0.000699 0.002481 0.001816
# 2 -0.002456 0.009269 -0.000270 0.001501 0.002172 0.002651
# 3 -0.004752 -0.000270 0.012050 0.001848 0.003293 -0.001960
# 4 -0.000699 0.001501 0.001848 0.027225 0.001313 0.007324
# 5 0.002481 0.002172 0.003293 0.001313 0.028294 0.004830
# 6 0.001816 0.002651 -0.001960 0.007324 0.004830 0.027422
#
#
# Mechanical properties :
#
#
# Convention : Reuss Voigt Hill
#
# Bulk Modulus (GPa) = 49.98346 56.92360 53.45353
# Shear Modulus (GPa) = 35.83550 40.51737 38.17643
#
# Velocity S-wave (km/s) = 3.96400 4.21500 4.09143
# Velocity P-wave (km/s) = 6.54737 6.97484 6.76448
#
# Compressibility (1/GPa) = 0.02000662
#
# Stress axis : x y z
#
# Youngs Moduli (GPa) = 73.30004 107.88328 82.98815
#
# Poissons Ratio (x) = 0.26501 0.39432
# Poissons Ratio (y) = 0.18006 0.02237
# Poissons Ratio (z) = 0.34829 0.02909
#
# Static dielectric constant tensor:
#      x y z
#    x 1.938230 0.011470 -0.000800 
#    y 0.011470 1.861610 0.022150 
#    z -0.000800 0.022150 1.844240 
# 
# From -- ./inp_files/382413.got.cif
#   From: 2010.05.17/outbox.cif.g08.bks.cpg/sg2_192_cif.got.tgz:382413.got - 2010.06.03 11:33:40.
