data_PCOD9008396
_publ_section_title
;
Structure prediction by ZEFSAII (Michael W. Deem and Ramdas Pophale) SiO2 
 PCOD9008396
Probable space group: P -1
;
_chemical_formula_sum "Si O2"
_cell_formula_units_Z 14
_cell_length_a 12.462032
_cell_length_b 19.967781
_cell_length_c 9.535533
_cell_angle_alpha 36.609048
_cell_angle_beta 46.327966
_cell_angle_gamma 27.597412
_cell_volume 653.649755
_symmetry_space_group_name_H-M "P -1"
_symmetry_group_IT_number 2
_symmetry_cell_setting 'triclinic'
loop_
_space_group_symop_operation_xyz
x,y,z
-x,-y,-z
loop_
_atom_site_type_symbol
_atom_site_label
_atom_site_fract_x
_atom_site_fract_y
_atom_site_fract_z
Si Si1 0.062465 0.528685 0.540233
Si Si2 0.528962 0.773600 0.114559
Si Si3 0.167905 0.306536 0.243140
Si Si4 0.158171 0.890451 0.408141
Si Si5 0.920430 0.902273 0.357362
Si Si6 0.634186 0.266963 0.908731
Si Si7 0.424199 0.504801 0.212223
O O1 0.271199 0.345569 0.747443
O O2 0.175532 0.585759 0.308705
O O3 0.000000 0.500000 0.500000
O O4 0.856511 0.657022 0.627820
O O5 0.269585 0.929427 0.153013
O O6 0.514341 0.668316 0.207057
O O7 0.605098 0.817376 0.853663
O O8 0.094686 0.221231 0.431358
O O9 0.000000 0.500000 0.000000
O O10 0.391751 0.695155 0.573441
O O11 0.016657 0.890288 0.437242
O O12 0.000000 0.000000 0.500000
O O13 0.119139 0.824508 0.201151
O O14 0.695170 0.110227 0.182150
O O15 0.537767 0.411032 0.862742
O O16 0.500000 0.500000 0.000000
#
# Coordination Sequence:
#
# PCOD9008396 Si02
#       7
#     2   2   2   2   2   2   2
#     4  10  22  39  60  98 137 169 214 271 326 392
#     4   9  22  39  67  92 128 172 220 263 331 389
#     4  10  21  39  64  95 131 170 221 259 329 393
#     4  10  22  41  64  94 132 168 223 278 330 379
#     4  10  21  39  65  92 132 174 210 276 323 389
#     4  10  21  39  65  97 129 165 226 267 324 393
#     4  11  23  36  66  98 129 171 220 269 331 388
#
# _framework density 21.418199000000001
#
# number of rings (size 3 to 8) (size 9 to 14) (size 15 to 20)
#    0.000    2.000    1.429    0.857    6.000    3.429 
#    0.000    0.714    0.000    0.000    0.000    0.000 
#    0.000    0.000    0.000    0.000    0.000    0.000 
#
# Total GULP energy -77968.982917 kJ/mol
# GULP energy per Si atom -5569.213065 kJ/mol
# Density = 2.136945 g / cm^3
# Si number density = 21.418199 Si / 1000 Ang^3
#
#
#
# Elastic Constant Matrix: (Units=GPa)
#
#
# Indices 1 2 3 4 5 6 
#
# 1 129.6768 47.7854 43.7280 19.3322 8.5578 8.1778
# 2 47.7854 109.0675 39.1903 26.9073 1.9088 25.4903
# 3 43.7280 39.1903 96.7379 24.0148 -13.8355 1.9714
# 4 19.3322 26.9073 24.0148 38.7311 7.7431 8.3267
# 5 8.5578 1.9088 -13.8355 7.7431 29.3588 8.9915
# 6 8.1778 25.4903 1.9714 8.3267 8.9915 26.5399
#
#
#
# Elastic Compliance Matrix: (Units=1/GPa)
#
#
# Indices 1 2 3 4 5 6 
#
# 1 0.010697 -0.003726 -0.004355 0.000599 -0.005818 0.002389
# 2 -0.003726 0.016382 -0.002542 -0.005841 0.004699 -0.014156
# 3 -0.004355 -0.002542 0.017310 -0.009443 0.011616 0.001525
# 4 0.000599 -0.005841 -0.009443 0.038496 -0.014031 -0.001197
# 5 -0.005818 0.004699 0.011616 -0.014031 0.049513 -0.015956
# 6 0.002389 -0.014156 0.001525 -0.001197 -0.015956 0.056207
#
#
# Mechanical properties :
#
#
# Convention : Reuss Voigt Hill
#
# Bulk Modulus (GPa) = 43.21039 66.32107 54.76573
# Shear Modulus (GPa) = 22.98155 32.57787 27.77971
#
# Velocity S-wave (km/s) = 3.27921 3.90428 3.60532
# Velocity P-wave (km/s) = 5.87844 7.16635 6.55411
#
# Compressibility (1/GPa) = 0.02314258
#
# Stress axis : x y z
#
# Youngs Moduli (GPa) = 93.48256 61.04390 57.76954
#
# Poissons Ratio (x) = 0.22746 0.25161
# Poissons Ratio (y) = 0.34833 0.14683
# Poissons Ratio (z) = 0.40716 0.15515
#
# Static dielectric constant tensor:
#      x y z
#    x 1.792260 -0.053910 -0.007380 
#    y -0.053910 1.887150 0.085740 
#    z -0.007380 0.085740 1.683430 
# 
# From -- ./inp_files/150966.got.cif
#   From: 2010.05.17/outbox.cif.g08.bks.cpg/sg2_76_cif.got.tgz:150966.got - 2010.06.03 11:33:40.
