data_PCOD9008101
_publ_section_title
;
Structure prediction by ZEFSAII (Michael W. Deem and Ramdas Pophale) SiO2 
 PCOD9008101
Probable space group: P -1
;
_chemical_formula_sum "Si O2"
_cell_formula_units_Z 14
_cell_length_a 11.050903
_cell_length_b 11.457553
_cell_length_c 13.757944
_cell_angle_alpha 55.932356
_cell_angle_beta 33.948876
_cell_angle_gamma 44.014348
_cell_volume 672.967472
_symmetry_space_group_name_H-M "P -1"
_symmetry_group_IT_number 2
_symmetry_cell_setting 'triclinic'
loop_
_space_group_symop_operation_xyz
x,y,z
-x,-y,-z
loop_
_atom_site_type_symbol
_atom_site_label
_atom_site_fract_x
_atom_site_fract_y
_atom_site_fract_z
Si Si1 0.884828 0.360583 0.321646
Si Si2 0.760083 0.176215 0.645294
Si Si3 0.682024 0.014067 0.602072
Si Si4 0.180224 0.756819 0.909997
Si Si5 0.336883 0.883028 0.931786
Si Si6 0.508906 0.329214 0.447750
Si Si7 0.640888 0.622930 0.024460
O O1 0.881286 0.227042 0.455156
O O2 0.702917 0.374497 0.348488
O O3 0.765366 0.517043 0.402900
O O4 0.151935 0.326332 0.122517
O O5 0.646516 0.086798 0.701897
O O6 0.538283 0.326059 0.785181
O O7 0.016928 0.067765 0.588910
O O8 0.532930 0.168652 0.556147
O O9 0.573047 0.896523 0.729878
O O10 0.241750 0.814251 0.942271
O O11 0.402333 0.710248 0.703608
O O12 0.206963 0.579252 0.994253
O O13 0.904787 0.921372 0.978892
O O14 0.452478 0.746954 0.005943
#
# Coordination Sequence:
#
# PCOD9008101 Si02
#       7
#     2   2   2   2   2   2   2
#     4  10  21  39  63  99 128 160 214 273 326 383
#     4  10  21  39  63  99 128 160 214 273 326 383
#     4  10  21  40  62  93 134 164 212 273 321 386
#     4  11  25  43  64  95 134 175 221 264 314 390
#     4  11  25  43  64  95 134 175 221 264 314 390
#     4  10  21  40  62  93 134 164 212 273 321 386
#     4  12  23  42  72  94 129 174 216 270 330 376
#
# _framework density 20.803383
#
# number of rings (size 3 to 8) (size 9 to 14) (size 15 to 20)
#    0.000    1.429    2.857    2.143    2.000    1.714 
#    0.000    4.286    0.000    0.000    0.000    0.000 
#    0.000    0.000    0.000    0.000    0.000    0.000 
#
# Total GULP energy -78027.343060 kJ/mol
# GULP energy per Si atom -5573.381647 kJ/mol
# Density = 2.075603 g / cm^3
# Si number density = 20.803383 Si / 1000 Ang^3
#
#
#
# Elastic Constant Matrix: (Units=GPa)
#
#
# Indices 1 2 3 4 5 6 
#
# 1 31.0882 19.6537 7.2266 -6.4484 2.0781 0.3888
# 2 19.6537 93.0527 30.5599 1.1870 8.6648 -6.6340
# 3 7.2266 30.5599 56.5675 -6.4578 3.7055 12.1129
# 4 -6.4484 1.1870 -6.4578 28.2798 1.7287 6.0973
# 5 2.0781 8.6648 3.7055 1.7287 20.8308 -5.3559
# 6 0.3888 -6.6340 12.1129 6.0973 -5.3559 27.0363
#
#
#
# Elastic Compliance Matrix: (Units=1/GPa)
#
#
# Indices 1 2 3 4 5 6 
#
# 1 0.040748 -0.010283 0.003833 0.012635 -0.003679 -0.008405
# 2 -0.010283 0.017694 -0.011566 -0.008139 -0.000677 0.011373
# 3 0.003833 -0.011566 0.029824 0.013064 -0.007268 -0.020641
# 4 0.012635 -0.008139 0.013064 0.046526 -0.009297 -0.020366
# 5 -0.003679 -0.000677 -0.007268 -0.009297 0.054861 0.016107
# 6 -0.008405 0.011373 -0.020641 -0.020366 0.016107 0.056930
#
#
# Mechanical properties :
#
#
# Convention : Reuss Voigt Hill
#
# Bulk Modulus (GPa) = 19.14425 32.84320 25.99372
# Shear Modulus (GPa) = 16.66518 23.44726 20.05622
#
# Velocity S-wave (km/s) = 2.83341 3.36086 3.10834
# Velocity P-wave (km/s) = 4.46393 5.55717 5.04028
#
# Compressibility (1/GPa) = 0.05223501
#
# Stress axis : x y z
#
# Youngs Moduli (GPa) = 24.54095 56.51499 33.53015
#
# Poissons Ratio (x) = 0.58114 -0.12851
# Poissons Ratio (y) = 0.25235 0.38779
# Poissons Ratio (z) = -0.09406 0.65363
#
# Static dielectric constant tensor:
#      x y z
#    x 1.783880 -0.062190 -0.010710 
#    y -0.062190 1.851860 0.020040 
#    z -0.010710 0.020040 1.727020 
# 
# From -- ./inp_files/285649.got.cif
#   From: 2010.05.17/outbox.cif.g08.bks.cpg/sg2_143_cif.got.tgz:285649.got - 2010.06.03 11:33:40.
