data_PCOD9008902
_publ_section_title
;
Structure prediction by ZEFSAII (Michael W. Deem and Ramdas Pophale) SiO2 
 PCOD9008902
Probable space group: P -1
;
_chemical_formula_sum "Si O2"
_cell_formula_units_Z 14
_cell_length_a 14.394180
_cell_length_b 14.582553
_cell_length_c 15.018976
_cell_angle_alpha 140.629868
_cell_angle_beta 140.996455
_cell_angle_gamma 19.399882
_cell_volume 646.815213
_symmetry_space_group_name_H-M "P -1"
_symmetry_group_IT_number 2
_symmetry_cell_setting 'triclinic'
loop_
_space_group_symop_operation_xyz
x,y,z
-x,-y,-z
loop_
_atom_site_type_symbol
_atom_site_label
_atom_site_fract_x
_atom_site_fract_y
_atom_site_fract_z
Si Si1 0.639169 0.577294 0.384458
Si Si2 0.246743 0.205494 0.847452
Si Si3 0.176288 0.159106 0.566341
Si Si4 0.157388 0.183945 0.956728
Si Si5 0.593476 0.279952 0.961025
Si Si6 0.138560 0.776217 0.108676
Si Si7 0.629394 0.768647 0.358666
O O1 0.391062 0.674484 0.245535
O O2 0.759410 0.546226 0.359155
O O3 0.908846 0.294970 0.429080
O O4 0.472189 0.834203 0.514067
O O5 0.155641 0.202563 0.687855
O O6 0.238948 0.110590 0.858152
O O7 0.053565 0.504941 0.951730
O O8 0.562724 0.005412 0.922120
O O9 0.174972 0.313599 0.628778
O O10 0.019287 0.156637 0.873145
O O11 0.600035 0.133837 0.793719
O O12 0.500000 0.500000 0.000000
O O13 0.320013 0.496475 0.985612
O O14 0.891627 0.043643 0.059213
O O15 0.500000 0.000000 0.500000
#
# Coordination Sequence:
#
# PCOD9008902 Si02
#       7
#     2   2   2   2   2   2   2
#     4  11  24  38  57  86 125 166 202 255 301 383
#     4  10  21  40  64  94 121 153 214 263 319 370
#     4  11  22  39  59  86 121 164 207 252 312 365
#     4  10  21  39  66  92 121 159 201 271 319 374
#     4  12  25  41  66  92 130 167 212 262 311 380
#     4  12  24  42  63  92 129 166 212 253 328 371
#     4  10  23  40  62  89 125 165 211 256 313 371
#
# _framework density 21.644514000000001
#
# number of rings (size 3 to 8) (size 9 to 14) (size 15 to 20)
#    0.000    1.143    1.429    5.143    0.000    4.571 
#    0.000    1.429    0.000    0.000    0.000    0.000 
#    0.000    0.000    0.000    0.000    0.000    0.000 
#
# Total GULP energy -78239.256359 kJ/mol
# GULP energy per Si atom -5588.518311 kJ/mol
# Density = 2.159525 g / cm^3
# Si number density = 21.644514 Si / 1000 Ang^3
#
#
#
# Elastic Constant Matrix: (Units=GPa)
#
#
# Indices 1 2 3 4 5 6 
#
# 1 98.2444 0.7025 30.3895 -13.3231 2.4736 7.3175
# 2 0.7025 100.8792 16.2413 -15.8770 -0.7885 -7.8669
# 3 30.3895 16.2413 109.0176 -13.4626 -9.6271 6.6753
# 4 -13.3231 -15.8770 -13.4626 38.4320 -4.1187 -7.1506
# 5 2.4736 -0.7885 -9.6271 -4.1187 34.9414 0.4853
# 6 7.3175 -7.8669 6.6753 -7.1506 0.4853 26.1339
#
#
#
# Elastic Compliance Matrix: (Units=1/GPa)
#
#
# Indices 1 2 3 4 5 6 
#
# 1 0.011639 0.000734 -0.003023 0.002871 -0.001282 -0.001456
# 2 0.000734 0.011404 -0.001514 0.005421 0.000356 0.005091
# 3 -0.003023 -0.001514 0.010932 0.002180 0.003475 -0.001870
# 4 0.002871 0.005421 0.002180 0.032139 0.004183 0.008987
# 5 -0.001282 0.000356 0.003475 0.004183 0.030166 0.000163
# 6 -0.001456 0.005091 -0.001870 0.008987 0.000163 0.043138
#
#
# Mechanical properties :
#
#
# Convention : Reuss Voigt Hill
#
# Bulk Modulus (GPa) = 37.92576 44.75641 41.34108
# Shear Modulus (GPa) = 32.08936 37.28865 34.68900
#
# Velocity S-wave (km/s) = 3.85458 4.15514 4.00768
# Velocity P-wave (km/s) = 6.11315 6.61385 6.36842
#
# Compressibility (1/GPa) = 0.02636730
#
# Stress axis : x y z
#
# Youngs Moduli (GPa) = 85.92071 87.68471 91.47663
#
# Poissons Ratio (x) = -0.06435 0.27655
# Poissons Ratio (y) = -0.06305 0.13854
# Poissons Ratio (z) = 0.25976 0.13279
#
# Static dielectric constant tensor:
#      x y z
#    x 1.823520 -0.004050 -0.000180 
#    y -0.004050 1.780110 0.008590 
#    z -0.000180 0.008590 1.818480 
# 
# From -- ./inp_files/453200.got.cif
#   From: 2010.05.17/outbox.cif.g08.bks.cpg/sg2_227_cif.got.tgz:453200.got - 2010.06.03 11:33:40.
