data_PCOD9008051
_publ_section_title
;
Structure prediction by ZEFSAII (Michael W. Deem and Ramdas Pophale) SiO2 
 PCOD9008051
Probable space group: P -1
;
_chemical_formula_sum "Si O2"
_cell_formula_units_Z 16
_cell_length_a 7.627910
_cell_length_b 16.543141
_cell_length_c 15.845436
_cell_angle_alpha 152.495294
_cell_angle_beta 67.974919
_cell_angle_gamma 93.333817
_cell_volume 656.958656
_symmetry_space_group_name_H-M "P -1"
_symmetry_group_IT_number 2
_symmetry_cell_setting 'triclinic'
loop_
_space_group_symop_operation_xyz
x,y,z
-x,-y,-z
loop_
_atom_site_type_symbol
_atom_site_label
_atom_site_fract_x
_atom_site_fract_y
_atom_site_fract_z
Si Si1 0.685541 0.402151 0.120361
Si Si2 0.655814 0.885571 0.782006
Si Si3 0.237095 0.213308 0.034797
Si Si4 0.181316 0.259706 0.889333
Si Si5 0.643009 0.118715 0.626630
Si Si6 0.276570 0.569009 0.662212
Si Si7 0.934488 0.905015 0.531721
Si Si8 0.143514 0.665896 0.441718
O O1 0.687470 0.387384 0.208085
O O2 0.403399 0.610258 0.338905
O O3 0.793243 0.159255 0.834058
O O4 0.888761 0.427848 0.083170
O O5 0.718236 0.644913 0.537578
O O6 0.901524 0.859531 0.718074
O O7 0.500000 0.000000 0.000000
O O8 0.488127 0.022508 0.858530
O O9 0.214109 0.436338 0.254153
O O10 0.008483 0.235648 0.133389
O O11 0.222409 0.198487 0.923563
O O12 0.297980 0.030590 0.603862
O O13 0.354798 0.313750 0.876253
O O14 0.816262 0.182222 0.641645
O O15 0.751035 0.954214 0.537160
O O16 0.500000 0.500000 0.500000
O O17 0.022170 0.731071 0.431076
#
# Coordination Sequence:
#
# PCOD9008051 Si02
#       8
#     2   2   2   2   2   2   2   2
#     4  10  22  39  62  91 128 168 210 262 319 379
#     4  11  26  43  67  94 124 173 213 264 328 375
#     4  10  23  44  64  90 129 171 213 260 320 385
#     4   9  18  38  61  87 127 169 205 265 320 363
#     4   9  18  36  65  93 125 163 218 267 309 389
#     4  10  25  41  65  96 128 159 215 266 315 385
#     4  10  21  39  63  95 128 171 211 262 329 363
#     4  11  23  39  65  90 128 170 218 258 317 392
#
# _framework density 24.354655000000001
#
# number of rings (size 3 to 8) (size 9 to 14) (size 15 to 20)
#    0.000    2.000    0.000    2.250    5.250    4.500 
#    0.000   16.250    0.000    0.000    0.000    0.000 
#    0.000    0.000    0.000    0.000    0.000    0.000 
#
# Total GULP energy -89343.500920 kJ/mol
# GULP energy per Si atom -5583.968807 kJ/mol
# Density = 2.429922 g / cm^3
# Si number density = 24.354655 Si / 1000 Ang^3
#
#
#
# Elastic Constant Matrix: (Units=GPa)
#
#
# Indices 1 2 3 4 5 6 
#
# 1 109.1357 12.7723 63.7669 -9.4571 -49.4782 -4.0483
# 2 12.7723 19.3614 24.3152 -9.8187 -19.8119 9.2579
# 3 63.7669 24.3152 114.3626 -29.1078 -44.7104 2.0241
# 4 -9.4571 -9.8187 -29.1078 40.6354 9.8607 -2.9485
# 5 -49.4782 -19.8119 -44.7104 9.8607 66.5820 -16.7580
# 6 -4.0483 9.2579 2.0241 -2.9485 -16.7580 33.1313
#
#
#
# Elastic Compliance Matrix: (Units=1/GPa)
#
#
# Indices 1 2 3 4 5 6 
#
# 1 0.018633 0.005058 -0.007141 -0.002107 0.012775 0.007574
# 2 0.005058 0.095647 -0.013581 0.009105 0.017868 -0.015431
# 3 -0.007141 -0.013581 0.018813 0.008072 0.003113 0.004066
# 4 -0.002107 0.009105 0.008072 0.031652 0.002012 0.000540
# 5 0.012775 0.017868 0.003113 0.002012 0.035242 0.014383
# 6 0.007574 -0.015431 0.004066 0.000540 0.014383 0.042495
#
#
# Mechanical properties :
#
#
# Convention : Reuss Voigt Hill
#
# Bulk Modulus (GPa) = 9.82637 49.39650 29.61143
# Shear Modulus (GPa) = 16.24798 37.53677 26.89238
#
# Velocity S-wave (km/s) = 2.58571 3.93014 3.32655
# Velocity P-wave (km/s) = 3.59972 6.39694 5.19032
#
# Compressibility (1/GPa) = 0.10176702
#
# Stress axis : x y z
#
# Youngs Moduli (GPa) = 53.66684 10.45512 53.15438
#
# Poissons Ratio (x) = -0.05289 0.37958
# Poissons Ratio (y) = -0.27147 0.72186
# Poissons Ratio (z) = 0.38324 0.14199
#
# Static dielectric constant tensor:
#      x y z
#    x 2.035420 0.064280 -0.043160 
#    y 0.064280 1.954310 0.032750 
#    z -0.043160 0.032750 2.057370 
# 
# From -- ./inp_files/504362.got.cif
#   From: 2010.05.17/outbox.cif.g08.bks.cpg/sg2_253_cif.got.tgz:504362.got - 2010.06.03 11:33:40.
