data_PCOD9008135
_publ_section_title
;
Structure prediction by ZEFSAII (Michael W. Deem and Ramdas Pophale) SiO2 
 PCOD9008135
Probable space group: P -1
;
_chemical_formula_sum "Si O2"
_cell_formula_units_Z 16
_cell_length_a 13.068918
_cell_length_b 9.573410
_cell_length_c 18.728536
_cell_angle_alpha 125.180410
_cell_angle_beta 153.994980
_cell_angle_gamma 55.691826
_cell_volume 832.825703
_symmetry_space_group_name_H-M "P -1"
_symmetry_group_IT_number 2
_symmetry_cell_setting 'triclinic'
loop_
_space_group_symop_operation_xyz
x,y,z
-x,-y,-z
loop_
_atom_site_type_symbol
_atom_site_label
_atom_site_fract_x
_atom_site_fract_y
_atom_site_fract_z
Si Si1 0.570345 0.459631 0.825269
Si Si2 0.497809 0.417555 0.551754
Si Si3 0.828644 0.065075 0.691537
Si Si4 0.088487 0.865161 0.076632
Si Si5 0.623522 0.379843 0.103126
Si Si6 0.180180 0.326666 0.441617
Si Si7 0.617623 0.990441 0.993399
Si Si8 0.677973 0.696357 0.848115
O O1 0.717477 0.275895 0.877253
O O2 0.495746 0.564347 0.879929
O O3 0.341092 0.422873 0.624756
O O4 0.738204 0.565674 0.913688
O O5 0.500000 0.500000 0.500000
O O6 0.677727 0.240862 0.621878
O O7 0.260388 0.365641 0.422793
O O8 0.558703 0.574490 0.684969
O O9 0.810493 0.060557 0.765386
O O10 0.101737 0.069783 0.843758
O O11 0.769303 0.879543 0.573472
O O12 0.877996 0.771655 0.950631
O O13 0.000000 0.000000 0.000000
O O14 0.902529 0.384347 0.289309
O O15 0.592531 0.184309 0.006654
O O16 0.500000 0.500000 0.000000
O O17 0.527932 0.857875 0.841689
O O18 0.500000 0.000000 0.000000
#
# Coordination Sequence:
#
# PCOD9008135 Si02
#       8
#     2   2   2   2   2   2   2   2
#     4  11  22  40  67  86 129 172 204 263 320 379
#     4  11  24  39  65  90 126 171 206 264 313 379
#     4  10  22  40  60  92 126 162 211 254 320 374
#     4  11  24  36  65  98 124 163 209 270 315 372
#     4  11  25  41  63  95 120 162 220 264 312 378
#     4  10  23  43  62  88 129 166 211 256 322 383
#     4  10  21  39  64  85 122 164 201 263 314 371
#     4  10  22  40  60  92 126 157 218 247 321 371
#
# _framework density 19.211703
#
# number of rings (size 3 to 8) (size 9 to 14) (size 15 to 20)
#    0.000    1.500    3.750    1.125    8.750    1.000 
#    0.000    0.000    0.000    2.250    0.000    0.000 
#    0.000    0.000    0.000    0.000    0.000    0.000 
#
# Total GULP energy -89215.466589 kJ/mol
# GULP energy per Si atom -5575.966662 kJ/mol
# Density = 1.916798 g / cm^3
# Si number density = 19.211703 Si / 1000 Ang^3
#
#
#
# Elastic Constant Matrix: (Units=GPa)
#
#
# Indices 1 2 3 4 5 6 
#
# 1 118.5224 48.4114 25.3777 -18.0709 -2.1499 1.7366
# 2 48.4114 121.6127 40.3960 -15.8321 -11.9801 5.3991
# 3 25.3777 40.3960 34.6353 -3.0679 -1.7651 6.9723
# 4 -18.0709 -15.8321 -3.0679 34.2234 -1.8020 -4.3172
# 5 -2.1499 -11.9801 -1.7651 -1.8020 29.3520 -0.3114
# 6 1.7366 5.3991 6.9723 -4.3172 -0.3114 39.9647
#
#
#
# Elastic Compliance Matrix: (Units=1/GPa)
#
#
# Indices 1 2 3 4 5 6 
#
# 1 0.011160 -0.002020 -0.005672 0.004608 -0.000052 0.001275
# 2 -0.002020 0.015574 -0.016229 0.005155 0.005564 0.001415
# 3 -0.005672 -0.016229 0.052632 -0.006965 -0.004382 -0.007530
# 4 0.004608 0.005155 -0.006965 0.034142 0.004161 0.004039
# 5 -0.000052 0.005564 -0.004382 0.004161 0.036336 0.000748
# 6 0.001275 0.001415 -0.007530 0.004039 0.000748 0.026531
#
#
# Mechanical properties :
#
#
# Convention : Reuss Voigt Hill
#
# Bulk Modulus (GPa) = 31.72208 55.90453 43.81331
# Shear Modulus (GPa) = 21.30150 31.41371 26.35760
#
# Velocity S-wave (km/s) = 3.33344 4.04807 3.70801
# Velocity P-wave (km/s) = 5.60031 7.14223 6.41775
#
# Compressibility (1/GPa) = 0.03152378
#
# Stress axis : x y z
#
# Youngs Moduli (GPa) = 89.60770 64.20848 18.99989
#
# Poissons Ratio (x) = 0.12973 0.10776
# Poissons Ratio (y) = 0.18104 0.30835
# Poissons Ratio (z) = 0.50822 1.04204
#
# Static dielectric constant tensor:
#      x y z
#    x 1.725440 -0.040360 -0.030930 
#    y -0.040360 1.717660 0.056160 
#    z -0.030930 0.056160 1.734000 
# 
# From -- ./inp_files/271839.got.cif
#   From: 2010.05.17/outbox.cif.g08.bks.cpg/sg2_136_cif.got.tgz:271839.got - 2010.06.03 11:33:40.
