data_PCOD9008513
_publ_section_title
;
Structure prediction by ZEFSAII (Michael W. Deem and Ramdas Pophale) SiO2 
 PCOD9008513
Probable space group: P -1
;
_chemical_formula_sum "Si O2"
_cell_formula_units_Z 16
_cell_length_a 9.853732
_cell_length_b 21.554488
_cell_length_c 11.923211
_cell_angle_alpha 24.149349
_cell_angle_beta 39.971068
_cell_angle_gamma 52.152940
_cell_volume 629.140918
_symmetry_space_group_name_H-M "P -1"
_symmetry_group_IT_number 2
_symmetry_cell_setting 'triclinic'
loop_
_space_group_symop_operation_xyz
x,y,z
-x,-y,-z
loop_
_atom_site_type_symbol
_atom_site_label
_atom_site_fract_x
_atom_site_fract_y
_atom_site_fract_z
Si Si1 0.175616 0.168940 0.267291
Si Si2 0.122316 0.644421 0.530397
Si Si3 0.651343 0.457333 0.233572
Si Si4 0.491336 0.848489 0.329817
Si Si5 0.202855 0.816248 0.779230
Si Si6 0.196675 0.439693 0.623966
Si Si7 0.582660 0.857666 0.640212
Si Si8 0.907166 0.067272 0.811389
O O1 0.387058 0.223468 0.126833
O O2 0.974419 0.162122 0.491958
O O3 0.153709 0.984805 0.552415
O O4 0.204961 0.294658 0.942647
O O5 0.255524 0.574550 0.652196
O O6 0.137504 0.571241 0.520183
O O7 0.195168 0.832171 0.206018
O O8 0.860951 0.580900 0.835320
O O9 0.558536 0.300105 0.475803
O O10 0.436795 0.509530 0.301122
O O11 0.292595 0.820756 0.589307
O O12 0.500000 0.000000 0.000000
O O13 0.725041 0.900358 0.166205
O O14 0.400137 0.793343 0.766796
O O15 0.986315 0.660525 0.183205
O O16 0.500000 0.000000 0.500000
O O17 0.843147 0.924366 0.323838
#
# Coordination Sequence:
#
# PCOD9008513 Si02
#       8
#     2   2   2   2   2   2   2   2
#     4   9  19  37  60  90 121 160 209 258 311 365
#     4  11  23  42  58  95 134 167 204 261 316 388
#     4  11  23  38  62  91 137 161 205 257 329 364
#     4  12  21  36  61 100 126 158 209 273 310 368
#     4  11  21  38  63  94 129 160 218 258 315 372
#     4  12  22  38  66  96 123 170 207 263 318 373
#     4   8  20  40  60  88 124 172 203 264 312 375
#     4  10  21  39  65  83 130 164 207 256 323 358
#
# _framework density 25.431505000000001
#
# number of rings (size 3 to 8) (size 9 to 14) (size 15 to 20)
#    0.750    0.750    2.500    4.500    0.000    0.500 
#    0.000    0.625    0.000    0.750    0.000    0.000 
#    0.000    0.000    0.000    0.000    0.000    0.000 
#
# Total GULP energy -89515.248486 kJ/mol
# GULP energy per Si atom -5594.703030 kJ/mol
# Density = 2.537362 g / cm^3
# Si number density = 25.431505 Si / 1000 Ang^3
#
#
#
# Elastic Constant Matrix: (Units=GPa)
#
#
# Indices 1 2 3 4 5 6 
#
# 1 119.0988 19.0546 36.0539 -1.0708 -28.2425 6.2806
# 2 19.0546 160.4275 27.9831 -13.4249 -18.8381 10.0147
# 3 36.0539 27.9831 48.3700 -11.9454 -24.5239 -3.7343
# 4 -1.0708 -13.4249 -11.9454 43.2812 -1.0142 -17.2562
# 5 -28.2425 -18.8381 -24.5239 -1.0142 61.3044 -5.3071
# 6 6.2806 10.0147 -3.7343 -17.2562 -5.3071 35.3573
#
#
#
# Elastic Compliance Matrix: (Units=1/GPa)
#
#
# Indices 1 2 3 4 5 6 
#
# 1 0.011862 0.000429 -0.010073 -0.004445 0.001034 -0.005307
# 2 0.000429 0.007164 -0.004451 0.000014 0.000401 -0.002508
# 3 -0.010073 -0.004451 0.043302 0.017954 0.013201 0.018367
# 4 -0.004445 0.000014 0.017954 0.036825 0.007635 0.021800
# 5 0.001034 0.000401 0.013201 0.007635 0.023036 0.008281
# 6 -0.005307 -0.002508 0.018367 0.021800 0.008281 0.043758
#
#
# Mechanical properties :
#
#
# Convention : Reuss Voigt Hill
#
# Bulk Modulus (GPa) = 29.29305 54.89773 42.09539
# Shear Modulus (GPa) = 24.32901 44.30890 34.31895
#
# Velocity S-wave (km/s) = 3.09633 4.17860 3.67749
# Velocity P-wave (km/s) = 4.93218 6.70181 5.88390
#
# Compressibility (1/GPa) = 0.03413779
#
# Stress axis : x y z
#
# Youngs Moduli (GPa) = 84.30110 139.59447 23.09364
#
# Poissons Ratio (x) = -0.05986 0.23263
# Poissons Ratio (y) = -0.03615 0.10278
# Poissons Ratio (z) = 0.84918 0.62129
#
# Static dielectric constant tensor:
#      x y z
#    x 2.022950 0.060620 -0.074310 
#    y 0.060620 1.973840 0.047120 
#    z -0.074310 0.047120 2.057680 
# 
# From -- ./inp_files/438582.got.cif
#   From: 2010.05.17/outbox.cif.g08.bks.cpg/sg2_220_cif.got.tgz:438582.got - 2010.06.03 11:33:40.
