data_PCOD9008376
_publ_section_title
;
Structure prediction by ZEFSAII (Michael W. Deem and Ramdas Pophale) SiO2 
 PCOD9008376
Probable space group: P -1
;
_chemical_formula_sum "Si O2"
_cell_formula_units_Z 16
_cell_length_a 23.073443
_cell_length_b 5.893691
_cell_length_c 4.923041
_cell_angle_alpha 83.037623
_cell_angle_beta 90.305975
_cell_angle_gamma 94.064043
_cell_volume 662.861937
_symmetry_space_group_name_H-M "P -1"
_symmetry_group_IT_number 2
_symmetry_cell_setting 'triclinic'
loop_
_space_group_symop_operation_xyz
x,y,z
-x,-y,-z
loop_
_atom_site_type_symbol
_atom_site_label
_atom_site_fract_x
_atom_site_fract_y
_atom_site_fract_z
Si Si1 0.039645 0.162365 0.175623
Si Si2 0.570497 0.420178 0.289133
Si Si3 0.071813 0.752056 0.623092
Si Si4 0.855713 0.580822 0.683231
Si Si5 0.540220 0.834975 0.861821
Si Si6 0.181079 0.006168 0.747874
Si Si7 0.627870 0.231768 0.797259
Si Si8 0.763235 0.186121 0.747265
O O1 0.100953 0.303798 0.101404
O O2 0.991373 0.328339 0.256602
O O3 0.059402 0.980576 0.422302
O O4 0.000000 0.000000 0.000000
O O5 0.505439 0.296332 0.324042
O O6 0.602962 0.424150 0.574760
O O7 0.563089 0.657071 0.102816
O O8 0.608371 0.280453 0.096695
O O9 0.101868 0.573298 0.464373
O O10 0.120382 0.854228 0.820249
O O11 0.801506 0.416171 0.802253
O O12 0.832294 0.765146 0.446140
O O13 0.593313 0.997143 0.728329
O O14 0.500000 0.000000 0.000000
O O15 0.218035 0.869472 0.549928
O O16 0.216129 0.014828 0.026939
O O17 0.695870 0.217233 0.771837
#
# Coordination Sequence:
#
# PCOD9008376 Si02
#       8
#     2   2   2   2   2   2   2   2
#     4  10  21  39  64  95 123 156 211 265 321 398
#     4  10  22  39  64  97 129 168 221 257 316 387
#     4   9  21  40  60  92 124 158 208 260 326 393
#     4  10  23  43  66  91 127 173 204 267 333 383
#     4   9  21  39  63  96 133 172 207 267 322 368
#     4  10  24  43  66  90 129 162 219 265 318 387
#     4  11  23  40  65  91 131 169 217 267 314 373
#     4  11  25  45  63  96 126 171 220 267 317 387
#
# _framework density 24.137756
#
# number of rings (size 3 to 8) (size 9 to 14) (size 15 to 20)
#    0.000    2.000    0.000    1.500    5.250   11.000 
#    9.000    0.000    0.000    0.000    0.000    0.000 
#    0.000    0.000    0.000    0.000    0.000    0.000 
#
# Total GULP energy -89519.143452 kJ/mol
# GULP energy per Si atom -5594.946466 kJ/mol
# Density = 2.408282 g / cm^3
# Si number density = 24.137756 Si / 1000 Ang^3
#
#
#
# Elastic Constant Matrix: (Units=GPa)
#
#
# Indices 1 2 3 4 5 6 
#
# 1 208.1356 54.1241 39.9964 -15.0273 10.3524 7.1704
# 2 54.1241 75.1252 3.7931 -6.1264 -0.9030 0.7998
# 3 39.9964 3.7931 93.1726 -4.8834 9.3497 2.0420
# 4 -15.0273 -6.1264 -4.8834 32.9722 -6.0323 -0.9542
# 5 10.3524 -0.9030 9.3497 -6.0323 32.6660 -3.7330
# 6 7.1704 0.7998 2.0420 -0.9542 -3.7330 20.7298
#
#
#
# Elastic Compliance Matrix: (Units=1/GPa)
#
#
# Indices 1 2 3 4 5 6 
#
# 1 0.006722 -0.004593 -0.002420 0.001511 -0.001527 -0.002115
# 2 -0.004593 0.016703 0.001144 0.001587 0.002028 0.001270
# 3 -0.002420 0.001144 0.012032 0.000378 -0.002673 -0.000856
# 4 0.001511 0.001587 0.000378 0.032460 0.005667 0.001894
# 5 -0.001527 0.002028 -0.002673 0.005667 0.033771 0.007056
# 6 -0.002115 0.001270 -0.000856 0.001894 0.007056 0.050364
#
#
# Mechanical properties :
#
#
# Convention : Reuss Voigt Hill
#
# Bulk Modulus (GPa) = 42.16242 63.58452 52.87347
# Shear Modulus (GPa) = 29.12113 35.84158 32.48135
#
# Velocity S-wave (km/s) = 3.47718 3.85759 3.67231
# Velocity P-wave (km/s) = 5.79882 6.80006 6.31930
#
# Compressibility (1/GPa) = 0.02371780
#
# Stress axis : x y z
#
# Youngs Moduli (GPa) = 148.76700 59.86987 83.11333
#
# Poissons Ratio (x) = 0.27500 0.20111
# Poissons Ratio (y) = 0.68333 -0.09505
# Poissons Ratio (z) = 0.35997 -0.06847
#
# Static dielectric constant tensor:
#      x y z
#    x 1.893090 0.009720 -0.014490 
#    y 0.009720 2.005630 0.051090 
#    z -0.014490 0.051090 1.952810 
# 
# From -- ./inp_files/121570.got.cif
#   From: 2010.05.17/outbox.cif.g08.bks.cpg/sg2_61_cif.got.tgz:121570.got - 2010.06.03 11:33:40.
