data_PCOD9008437
_publ_section_title
;
Structure prediction by ZEFSAII (Michael W. Deem and Ramdas Pophale) SiO2 
 PCOD9008437
Probable space group: P -1
;
_chemical_formula_sum "Si O2"
_cell_formula_units_Z 16
_cell_length_a 17.696318
_cell_length_b 7.471849
_cell_length_c 10.209059
_cell_angle_alpha 60.757408
_cell_angle_beta 131.686919
_cell_angle_gamma 84.186629
_cell_volume 665.399895
_symmetry_space_group_name_H-M "P -1"
_symmetry_group_IT_number 2
_symmetry_cell_setting 'triclinic'
loop_
_space_group_symop_operation_xyz
x,y,z
-x,-y,-z
loop_
_atom_site_type_symbol
_atom_site_label
_atom_site_fract_x
_atom_site_fract_y
_atom_site_fract_z
Si Si1 0.607180 0.790624 0.588844
Si Si2 0.748267 0.167355 0.689261
Si Si3 0.573776 0.971864 0.962957
Si Si4 0.799609 0.333392 0.423857
Si Si5 0.936992 0.908534 0.547134
Si Si6 0.013778 0.605313 0.252462
Si Si7 0.145680 0.567498 0.142197
Si Si8 0.552189 0.451507 0.726652
O O1 0.743587 0.703726 0.717515
O O2 0.647977 0.518685 0.799280
O O3 0.500000 0.000000 0.500000
O O4 0.521513 0.898557 0.318582
O O5 0.783705 0.203761 0.574392
O O6 0.779235 0.324747 0.760990
O O7 0.591555 0.318212 0.451964
O O8 0.855494 0.856714 0.969899
O O9 0.614519 0.157170 0.954102
O O10 0.685550 0.655910 0.177758
O O11 0.500000 0.000000 0.000000
O O12 0.929516 0.301172 0.615371
O O13 0.803847 0.185377 0.354732
O O14 0.943241 0.682480 0.563284
O O15 0.000000 0.000000 0.500000
O O16 0.026797 0.759668 0.834923
O O17 0.084756 0.554802 0.210344
O O18 0.500000 0.500000 0.500000
#
# Coordination Sequence:
#
# PCOD9008437 Si02
#       8
#     2   2   2   2   2   2   2   2
#     4  11  26  42  65 101 136 175 223 280 335 396
#     4  11  19  42  74  96 122 175 235 267 323 406
#     4  11  21  43  67  92 130 177 221 271 328 401
#     4  11  23  42  69  99 133 172 223 276 333 395
#     4  12  28  42  62 103 138 168 217 283 338 391
#     4  11  24  44  72  97 124 182 224 273 330 396
#     4  11  21  45  68  91 134 172 224 270 325 408
#     4  10  21  39  64  97 127 175 220 262 331 398
#
# _framework density 24.04569
#
# number of rings (size 3 to 8) (size 9 to 14) (size 15 to 20)
#    0.000    1.000    6.250    1.875    3.500    2.500 
#    0.000    0.625    0.000    0.000    0.000    0.000 
#    0.000    0.000    0.000    0.000    0.000    0.000 
#
# Total GULP energy -89342.474355 kJ/mol
# GULP energy per Si atom -5583.904647 kJ/mol
# Density = 2.399096 g / cm^3
# Si number density = 24.045690 Si / 1000 Ang^3
#
#
#
# Elastic Constant Matrix: (Units=GPa)
#
#
# Indices 1 2 3 4 5 6 
#
# 1 52.7787 12.8809 -4.1402 -14.0693 -16.9622 -13.4340
# 2 12.8809 71.3283 10.0975 -14.4822 -5.4010 -12.1865
# 3 -4.1402 10.0975 93.2100 -24.4178 -0.1080 -5.6071
# 4 -14.0693 -14.4822 -24.4178 49.6673 -4.9116 4.9483
# 5 -16.9622 -5.4010 -0.1080 -4.9116 40.3050 -10.0970
# 6 -13.4340 -12.1865 -5.6071 4.9483 -10.0970 34.0022
#
#
#
# Elastic Compliance Matrix: (Units=1/GPa)
#
#
# Indices 1 2 3 4 5 6 
#
# 1 0.034328 0.000409 0.006051 0.012987 0.020864 0.019013
# 2 0.000409 0.016399 -0.000140 0.004616 0.004614 0.006715
# 3 0.006051 -0.000140 0.013478 0.008296 0.004770 0.004772
# 4 0.012987 0.004616 0.008296 0.029655 0.011540 0.007265
# 5 0.020864 0.004614 0.004770 0.011540 0.040929 0.021158
# 6 0.019013 0.006715 0.004772 0.007265 0.021158 0.045341
#
#
# Mechanical properties :
#
#
# Convention : Reuss Voigt Hill
#
# Bulk Modulus (GPa) = 13.01304 28.33262 20.67283
# Shear Modulus (GPa) = 25.89251 38.02680 31.95965
#
# Velocity S-wave (km/s) = 3.28503 3.98105 3.64967
# Velocity P-wave (km/s) = 4.45108 5.73934 5.13576
#
# Compressibility (1/GPa) = 0.07684600
#
# Stress axis : x y z
#
# Youngs Moduli (GPa) = 29.13033 60.97768 74.19428
#
# Poissons Ratio (x) = -0.02495 -0.44891
# Poissons Ratio (y) = -0.01192 0.01037
# Poissons Ratio (z) = -0.17625 0.00852
#
# Static dielectric constant tensor:
#      x y z
#    x 1.935130 0.036370 0.084700 
#    y 0.036370 2.007330 -0.048450 
#    z 0.084700 -0.048450 1.985740 
# 
# From -- ./inp_files/239557.got.cif
#   From: 2010.05.17/outbox.cif.g08.bks.cpg/sg2_120_cif.got.tgz:239557.got - 2010.06.03 11:33:40.
