data_PCOD9008140
_publ_section_title
;
Structure prediction by ZEFSAII (Michael W. Deem and Ramdas Pophale) SiO2 
 PCOD9008140
Probable space group: P -1
;
_chemical_formula_sum "Si O2"
_cell_formula_units_Z 14
_cell_length_a 15.053315
_cell_length_b 17.335911
_cell_length_c 8.211990
_cell_angle_alpha 138.531438
_cell_angle_beta 126.215750
_cell_angle_gamma 24.853542
_cell_volume 565.076362
_symmetry_space_group_name_H-M "P -1"
_symmetry_group_IT_number 2
_symmetry_cell_setting 'triclinic'
loop_
_space_group_symop_operation_xyz
x,y,z
-x,-y,-z
loop_
_atom_site_type_symbol
_atom_site_label
_atom_site_fract_x
_atom_site_fract_y
_atom_site_fract_z
Si Si1 0.870651 0.193084 0.441458
Si Si2 0.352984 0.777801 0.213877
Si Si3 0.615755 0.008780 0.275574
Si Si4 0.263494 0.245058 0.715769
Si Si5 0.968521 0.312931 0.971929
Si Si6 0.902504 0.486329 0.488069
Si Si7 0.503579 0.549700 0.358584
O O1 0.926430 0.232982 0.706452
O O2 0.713822 0.390549 0.443205
O O3 0.716562 0.238405 0.433354
O O4 0.108878 0.944070 0.230012
O O5 0.341451 0.927151 0.444064
O O6 0.477705 0.635095 0.293179
O O7 0.464027 0.615520 0.922468
O O8 0.354814 0.251478 0.340970
O O9 0.696610 0.818490 0.153080
O O10 0.775191 0.889041 0.107889
O O11 0.069682 0.338164 0.584580
O O12 0.500000 0.000000 0.500000
O O13 0.182544 0.448522 0.901456
O O14 0.919101 0.361181 0.186360
O O15 0.000000 0.500000 0.500000
#
# Coordination Sequence:
#
# PCOD9008140 Si02
#       7
#     2   2   2   2   2   2   2
#     4  10  21  40  61  91 119 153 201 240 297 350
#     4  10  22  39  61  89 121 154 198 242 295 352
#     4  11  22  40  61  90 120 158 200 245 293 355
#     4  11  22  41  61  85 122 159 197 244 297 352
#     4  10  22  40  61  89 123 155 199 250 290 355
#     4  10  21  40  58  83 119 157 198 243 295 346
#     4  10  21  39  64  86 121 157 191 248 297 349
#
# _framework density 24.775411999999999
#
# number of rings (size 3 to 8) (size 9 to 14) (size 15 to 20)
#    0.000    1.714    2.857    2.143    0.000    4.571 
#    7.714    1.429    0.000    0.000    0.000    0.000 
#    0.000    0.000    0.000    0.000    0.000    0.000 
#
# Total GULP energy -78343.259883 kJ/mol
# GULP energy per Si atom -5595.947134 kJ/mol
# Density = 2.471902 g / cm^3
# Si number density = 24.775412 Si / 1000 Ang^3
#
#
#
# Elastic Constant Matrix: (Units=GPa)
#
#
# Indices 1 2 3 4 5 6 
#
# 1 39.7641 36.1313 7.1226 12.1537 -21.2580 -12.5193
# 2 36.1313 177.0453 35.9125 11.6321 -34.8503 -11.5519
# 3 7.1226 35.9125 62.4261 7.9202 -15.1346 -4.7978
# 4 12.1537 11.6321 7.9202 42.3855 -6.6566 -13.2287
# 5 -21.2580 -34.8503 -15.1346 -6.6566 37.3817 13.7894
# 6 -12.5193 -11.5519 -4.7978 -13.2287 13.7894 33.3231
#
#
#
# Elastic Compliance Matrix: (Units=1/GPa)
#
#
# Indices 1 2 3 4 5 6 
#
# 1 0.042262 -0.005095 0.003698 -0.007239 0.017879 0.004372
# 2 -0.005095 0.007984 -0.003221 0.000109 0.003660 -0.001081
# 3 0.003698 -0.003221 0.019402 -0.003032 0.006760 -0.000935
# 4 -0.007239 0.000109 -0.003032 0.028681 -0.003759 0.009823
# 5 0.017879 0.003660 0.006760 -0.003759 0.046786 -0.011893
# 6 0.004372 -0.001081 -0.000935 0.009823 -0.011893 0.039963
#
#
# Mechanical properties :
#
#
# Convention : Reuss Voigt Hill
#
# Bulk Modulus (GPa) = 16.55291 48.61870 32.58580
# Shear Modulus (GPa) = 23.31526 35.95601 29.63564
#
# Velocity S-wave (km/s) = 3.07101 3.81370 3.46232
# Velocity P-wave (km/s) = 4.38981 6.24970 5.40043
#
# Compressibility (1/GPa) = 0.06041235
#
# Stress axis : x y z
#
# Youngs Moduli (GPa) = 23.66168 125.24663 51.54134
#
# Poissons Ratio (x) = 0.63809 -0.19060
# Poissons Ratio (y) = 0.12055 0.16604
# Poissons Ratio (z) = -0.08750 0.40347
#
# Static dielectric constant tensor:
#      x y z
#    x 2.023830 -0.029780 0.043380 
#    y -0.029780 1.944510 -0.005470 
#    z 0.043380 -0.005470 2.016770 
# 
# From -- ./inp_files/312801.got.cif
#   From: 2010.05.17/outbox.cif.g08.bks.cpg/sg2_157_cif.got.tgz:312801.got - 2010.06.03 11:33:40.
