data_PCOD9008560
_publ_section_title
;
Structure prediction by ZEFSAII (Michael W. Deem and Ramdas Pophale) SiO2 
 PCOD9008560
Probable space group: P -1
;
_chemical_formula_sum "Si O2"
_cell_formula_units_Z 14
_cell_length_a 11.781455
_cell_length_b 11.009332
_cell_length_c 8.093979
_cell_angle_alpha 136.617311
_cell_angle_beta 55.965332
_cell_angle_gamma 111.744913
_cell_volume 596.358060
_symmetry_space_group_name_H-M "P -1"
_symmetry_group_IT_number 2
_symmetry_cell_setting 'triclinic'
loop_
_space_group_symop_operation_xyz
x,y,z
-x,-y,-z
loop_
_atom_site_type_symbol
_atom_site_label
_atom_site_fract_x
_atom_site_fract_y
_atom_site_fract_z
Si Si1 0.096692 0.047422 0.122285
Si Si2 0.842713 0.988723 0.448264
Si Si3 0.775730 0.706404 0.942952
Si Si4 0.285246 0.638070 0.169804
Si Si5 0.574092 0.583930 0.727128
Si Si6 0.363349 0.791574 0.604918
Si Si7 0.399294 0.145643 0.313990
O O1 0.124511 0.249757 0.249636
O O2 0.006416 0.988126 0.291265
O O3 0.243701 0.938420 0.891030
O O4 0.000000 0.000000 0.000000
O O5 0.799521 0.197967 0.681899
O O6 0.754098 0.909097 0.587304
O O7 0.789512 0.869766 0.219184
O O8 0.794911 0.527125 0.858799
O O9 0.635635 0.682775 0.933421
O O10 0.345308 0.731298 0.373966
O O11 0.413800 0.571812 0.887629
O O12 0.650292 0.390217 0.462957
O O13 0.597725 0.689409 0.646658
O O14 0.517281 0.838582 0.567361
O O15 0.500000 0.000000 0.000000
#
# Coordination Sequence:
#
# PCOD9008560 Si02
#       7
#     2   2   2   2   2   2   2
#     4  10  21  41  63  93 126 165 204 256 318 364
#     4  11  23  42  64  92 131 160 209 261 307 371
#     4  10  21  39  65  90 124 163 204 254 317 361
#     4  11  21  38  66  97 124 157 209 262 313 360
#     4  11  23  40  61 101 125 161 213 257 311 372
#     4  11  22  41  66  92 128 161 208 268 303 372
#     4  12  24  39  65  90 127 170 208 252 317 366
#
# _framework density 23.475830999999999
#
# number of rings (size 3 to 8) (size 9 to 14) (size 15 to 20)
#    0.000    1.143    4.286    4.714    0.000    1.714 
#    2.571    3.571    0.000    0.000    0.000    0.000 
#    0.000    0.000    0.000    0.000    0.000    0.000 
#
# Total GULP energy -78114.103397 kJ/mol
# GULP energy per Si atom -5579.578814 kJ/mol
# Density = 2.342240 g / cm^3
# Si number density = 23.475831 Si / 1000 Ang^3
#
#
#
# Elastic Constant Matrix: (Units=GPa)
#
#
# Indices 1 2 3 4 5 6 
#
# 1 62.7887 16.4138 13.6793 -0.1349 -14.5446 14.1858
# 2 16.4138 165.5950 44.5976 -14.7642 -25.6736 13.4358
# 3 13.6793 44.5976 68.6003 -3.9300 -3.1849 7.0025
# 4 -0.1349 -14.7642 -3.9300 40.6070 2.8617 -6.7105
# 5 -14.5446 -25.6736 -3.1849 2.8617 25.6045 -1.0869
# 6 14.1858 13.4358 7.0025 -6.7105 -1.0869 37.8039
#
#
#
# Elastic Compliance Matrix: (Units=1/GPa)
#
#
# Indices 1 2 3 4 5 6 
#
# 1 0.021091 0.001368 -0.003832 -0.001971 0.012771 -0.007674
# 2 0.001368 0.009087 -0.005443 0.001796 0.008920 -0.002160
# 3 -0.003832 -0.005443 0.018662 0.000156 -0.005340 -0.000210
# 4 -0.001971 0.001796 0.000156 0.026202 -0.002030 0.004665
# 5 0.012771 0.008920 -0.005340 -0.002030 0.054572 -0.005765
# 6 -0.007674 -0.002160 -0.000210 0.004665 -0.005765 0.030801
#
#
# Mechanical properties :
#
#
# Convention : Reuss Voigt Hill
#
# Bulk Modulus (GPa) = 30.27779 49.59614 39.93697
# Shear Modulus (GPa) = 26.70385 35.62263 31.16324
#
# Velocity S-wave (km/s) = 3.37635 3.89963 3.64739
# Velocity P-wave (km/s) = 5.30331 6.43805 5.89803
#
# Compressibility (1/GPa) = 0.03302750
#
# Stress axis : x y z
#
# Youngs Moduli (GPa) = 47.41270 110.04205 53.58344
#
# Poissons Ratio (x) = -0.15057 0.20533
# Poissons Ratio (y) = -0.06487 0.29166
# Poissons Ratio (z) = 0.18168 0.59898
#
# Static dielectric constant tensor:
#      x y z
#    x 1.956050 -0.026830 0.055070 
#    y -0.026830 1.966510 -0.028040 
#    z 0.055070 -0.028040 1.969650 
# 
# From -- ./inp_files/304269.got.cif
#   From: 2010.05.17/outbox.cif.g08.bks.cpg/sg2_153_cif.got.tgz:304269.got - 2010.06.03 11:33:40.
