data_PCOD9008282
_publ_section_title
;
Structure prediction by ZEFSAII (Michael W. Deem and Ramdas Pophale) SiO2 
 PCOD9008282
Probable space group: P -1
;
_chemical_formula_sum "Si O2"
_cell_formula_units_Z 16
_cell_length_a 11.138950
_cell_length_b 9.444242
_cell_length_c 16.854734
_cell_angle_alpha 116.843282
_cell_angle_beta 45.236068
_cell_angle_gamma 138.795605
_cell_volume 817.624472
_symmetry_space_group_name_H-M "P -1"
_symmetry_group_IT_number 2
_symmetry_cell_setting 'triclinic'
loop_
_space_group_symop_operation_xyz
x,y,z
-x,-y,-z
loop_
_atom_site_type_symbol
_atom_site_label
_atom_site_fract_x
_atom_site_fract_y
_atom_site_fract_z
Si Si1 0.015693 0.548297 0.295015
Si Si2 0.784796 0.071022 0.807393
Si Si3 0.839567 0.741412 0.729089
Si Si4 0.724605 0.109885 0.022369
Si Si5 0.900852 0.212388 0.130446
Si Si6 0.420365 0.728119 0.271370
Si Si7 0.262449 0.252787 0.047397
Si Si8 0.739090 0.223975 0.478381
O O1 0.957921 0.385699 0.211402
O O2 0.831537 0.407476 0.415753
O O3 0.050036 0.737930 0.284546
O O4 0.257621 0.664553 0.255993
O O5 0.809115 0.897247 0.748657
O O6 0.518440 0.953448 0.886026
O O7 0.833339 0.168706 0.898684
O O8 0.613084 0.483335 0.758119
O O9 0.872486 0.789568 0.819990
O O10 0.061877 0.783105 0.608373
O O11 0.869005 0.261447 0.069409
O O12 0.688034 0.900806 0.008992
O O13 0.110430 0.221673 0.038754
O O14 0.669302 0.968551 0.203590
O O15 0.308662 0.729840 0.402900
O O16 0.500000 0.500000 0.000000
O O17 0.500000 0.000000 0.500000
#
# Coordination Sequence:
#
# PCOD9008282 Si02
#       8
#     2   2   2   2   2   2   2   2
#     4  11  21  39  66  89 127 169 202 267 310 376
#     4  10  22  42  60  89 138 170 209 246 328 381
#     4  10  21  39  64  92 126 170 198 268 317 372
#     4  10  22  37  59  88 130 176 204 258 304 382
#     4  12  21  38  67  97 122 165 225 259 310 369
#     4  11  21  41  68  93 122 160 217 267 319 361
#     4  11  20  36  61  95 126 162 219 264 311 359
#     4  11  21  41  67  98 121 158 221 264 318 371
#
# _framework density 19.568887
#
# number of rings (size 3 to 8) (size 9 to 14) (size 15 to 20)
#    0.000    1.250    5.000    3.375    0.000    0.500 
#    0.000    6.875    0.000    0.000    0.000    0.000 
#    0.000    0.000    0.000    0.000    0.000    0.000 
#
# Total GULP energy -89319.730085 kJ/mol
# GULP energy per Si atom -5582.483130 kJ/mol
# Density = 1.952435 g / cm^3
# Si number density = 19.568887 Si / 1000 Ang^3
#
#
#
# Elastic Constant Matrix: (Units=GPa)
#
#
# Indices 1 2 3 4 5 6 
#
# 1 127.0642 55.1569 43.5934 2.4226 11.5134 -3.8084
# 2 55.1569 100.3876 25.5538 2.8222 2.8515 -1.4395
# 3 43.5934 25.5538 95.0714 5.1593 13.6356 -3.2728
# 4 2.4226 2.8222 5.1593 37.6432 3.5860 1.7459
# 5 11.5134 2.8515 13.6356 3.5860 29.7531 2.2268
# 6 -3.8084 -1.4395 -3.2728 1.7459 2.2268 44.0045
#
#
#
# Elastic Compliance Matrix: (Units=1/GPa)
#
#
# Indices 1 2 3 4 5 6 
#
# 1 0.011687 -0.005451 -0.003534 0.000345 -0.002473 0.000682
# 2 -0.005451 0.013246 -0.001249 -0.000605 0.001499 -0.000183
# 3 -0.003534 -0.001249 0.013212 -0.001103 -0.004502 0.000907
# 4 0.000345 -0.000605 -0.001103 0.027049 -0.002755 -0.001006
# 5 -0.002473 0.001499 -0.004502 -0.002755 0.036988 -0.002262
# 6 0.000682 -0.000183 0.000907 -0.001006 -0.002262 0.023000
#
#
# Mechanical properties :
#
#
# Convention : Reuss Voigt Hill
#
# Bulk Modulus (GPa) = 56.57616 63.45906 60.01761
# Shear Modulus (GPa) = 32.99412 35.49478 34.24445
#
# Velocity S-wave (km/s) = 4.11061 4.26354 4.18777
# Velocity P-wave (km/s) = 7.17659 7.53233 7.35661
#
# Compressibility (1/GPa) = 0.01767529
#
# Stress axis : x y z
#
# Youngs Moduli (GPa) = 85.56684 75.49259 75.69127
#
# Poissons Ratio (x) = 0.41153 0.26750
# Poissons Ratio (y) = 0.46644 0.09456
# Poissons Ratio (z) = 0.30241 0.09431
#
# Static dielectric constant tensor:
#      x y z
#    x 1.704010 0.008900 0.023190 
#    y 0.008900 1.708390 0.008560 
#    z 0.023190 0.008560 1.705340 
# 
# From -- ./inp_files/557366.got.cif
#   From: 2010.05.17/outbox.cif.g08.bks.cpg/sg2_279_cif.got.tgz:557366.got - 2010.06.03 11:33:40.
