data_PCOD9008179
_publ_section_title
;
Structure prediction by ZEFSAII (Michael W. Deem and Ramdas Pophale) SiO2 
 PCOD9008179
Probable space group: P -1
;
_chemical_formula_sum "Si O2"
_cell_formula_units_Z 14
_cell_length_a 10.388587
_cell_length_b 12.944058
_cell_length_c 10.660105
_cell_angle_alpha 122.941000
_cell_angle_beta 45.557993
_cell_angle_gamma 146.868397
_cell_volume 556.035860
_symmetry_space_group_name_H-M "P -1"
_symmetry_group_IT_number 2
_symmetry_cell_setting 'triclinic'
loop_
_space_group_symop_operation_xyz
x,y,z
-x,-y,-z
loop_
_atom_site_type_symbol
_atom_site_label
_atom_site_fract_x
_atom_site_fract_y
_atom_site_fract_z
Si Si1 0.205490 0.090847 0.036931
Si Si2 0.045207 0.334436 0.542789
Si Si3 0.446964 0.541365 0.847186
Si Si4 0.211893 0.064132 0.562492
Si Si5 0.148568 0.796243 0.888264
Si Si6 0.372689 0.658688 0.731134
Si Si7 0.698693 0.219858 0.483158
O O1 0.039618 0.023310 0.236726
O O2 0.430261 0.315963 0.027939
O O3 0.319685 0.011761 0.907890
O O4 0.000000 0.000000 0.000000
O O5 0.318993 0.426572 0.344944
O O6 0.148600 0.461283 0.676710
O O7 0.876433 0.332766 0.560182
O O8 0.864766 0.116228 0.543908
O O9 0.388713 0.612776 0.826912
O O10 0.154591 0.328460 0.936068
O O11 0.328255 0.196070 0.449040
O O12 0.481778 0.202972 0.562385
O O13 0.285479 0.756071 0.845328
O O14 0.115012 0.727337 0.725273
O O15 0.500000 0.000000 0.500000
#
# Coordination Sequence:
#
# PCOD9008179 Si02
#       7
#     2   2   2   2   2   2   2
#     4  11  24  42  65  92 124 159 202 257 311 365
#     4  10  21  39  64  89 121 160 206 257 299 357
#     4  11  25  41  61  92 126 163 207 249 300 367
#     4   9  21  39  63  89 119 161 205 252 304 356
#     4  11  24  40  63  92 126 163 199 251 312 360
#     4  11  24  40  61  91 124 165 210 247 297 365
#     4   9  19  39  62  90 117 151 203 251 301 357
#
# _framework density 25.178232999999999
#
# number of rings (size 3 to 8) (size 9 to 14) (size 15 to 20)
#    0.000    1.714    0.000    4.286    0.000   14.286 
#    0.000    0.000    0.000    0.000    0.000    0.000 
#    0.000    0.000    0.000    0.000    0.000    0.000 
#
# Total GULP energy -78409.928545 kJ/mol
# GULP energy per Si atom -5600.709182 kJ/mol
# Density = 2.512093 g / cm^3
# Si number density = 25.178233 Si / 1000 Ang^3
#
#
#
# Elastic Constant Matrix: (Units=GPa)
#
#
# Indices 1 2 3 4 5 6 
#
# 1 73.7582 15.1362 -0.9340 11.8259 -2.7005 0.8657
# 2 15.1362 74.8176 3.3517 15.0971 -16.7005 -12.8444
# 3 -0.9340 3.3517 51.0647 -7.6573 -12.9398 -0.8718
# 4 11.8259 15.0971 -7.6573 50.9876 -11.4979 -3.2455
# 5 -2.7005 -16.7005 -12.9398 -11.4979 30.9052 -3.5628
# 6 0.8657 -12.8444 -0.8718 -3.2455 -3.5628 32.3615
#
#
#
# Elastic Compliance Matrix: (Units=1/GPa)
#
#
# Indices 1 2 3 4 5 6 
#
# 1 0.014653 -0.003145 -0.000566 -0.003163 -0.002087 -0.002202
# 2 -0.003145 0.017983 0.001299 -0.001538 0.010365 0.008243
# 3 -0.000566 0.001299 0.023963 0.006608 0.013527 0.003328
# 4 -0.003163 -0.001538 0.006608 0.024525 0.011169 0.003341
# 5 -0.002087 0.010365 0.013527 0.011169 0.048866 0.011034
# 6 -0.002202 0.008243 0.003328 0.003341 0.011034 0.035871
#
#
# Mechanical properties :
#
#
# Convention : Reuss Voigt Hill
#
# Bulk Modulus (GPa) = 19.31474 26.08315 22.69895
# Shear Modulus (GPa) = 26.60366 34.98997 30.79682
#
# Velocity S-wave (km/s) = 3.25409 3.73190 3.50115
# Velocity P-wave (km/s) = 4.66976 5.38064 5.03776
#
# Compressibility (1/GPa) = 0.05177393
#
# Stress axis : x y z
#
# Youngs Moduli (GPa) = 68.24745 55.60814 41.73108
#
# Poissons Ratio (x) = 0.17486 0.02363
# Poissons Ratio (y) = 0.21461 -0.05419
# Poissons Ratio (z) = 0.03865 -0.07221
#
# Static dielectric constant tensor:
#      x y z
#    x 1.974510 -0.004250 -0.017570 
#    y -0.004250 1.991660 -0.030040 
#    z -0.017570 -0.030040 1.987260 
# 
# From -- ./inp_files/433171.got.cif
#   From: 2010.05.17/outbox.cif.g08.bks.cpg/sg2_217_cif.got.tgz:433171.got - 2010.06.03 11:33:40.
