data_PCOD9008360
_publ_section_title
;
Structure prediction by ZEFSAII (Michael W. Deem and Ramdas Pophale) SiO2 
 PCOD9008360
Probable space group: P -1
;
_chemical_formula_sum "Si O2"
_cell_formula_units_Z 14
_cell_length_a 9.607214
_cell_length_b 9.045760
_cell_length_c 23.126625
_cell_angle_alpha 135.149504
_cell_angle_beta 153.774333
_cell_angle_gamma 46.004883
_cell_volume 615.193992
_symmetry_space_group_name_H-M "P -1"
_symmetry_group_IT_number 2
_symmetry_cell_setting 'triclinic'
loop_
_space_group_symop_operation_xyz
x,y,z
-x,-y,-z
loop_
_atom_site_type_symbol
_atom_site_label
_atom_site_fract_x
_atom_site_fract_y
_atom_site_fract_z
Si Si1 0.792448 0.536758 0.814309
Si Si2 0.464765 0.084529 0.444116
Si Si3 0.855790 0.765636 0.741528
Si Si4 0.640399 0.683802 0.325882
Si Si5 0.251630 0.369964 0.844020
Si Si6 0.264883 0.847571 0.116854
Si Si7 0.374419 0.563416 0.560608
O O1 0.071110 0.537735 0.774916
O O2 0.609712 0.433360 0.766773
O O3 0.510669 0.630188 0.690426
O O4 0.023964 0.359958 0.811908
O O5 0.147830 0.133043 0.295844
O O6 0.540188 0.319863 0.542235
O O7 0.500000 0.000000 0.500000
O O8 0.673237 0.894417 0.432976
O O9 0.494498 0.720668 0.603839
O O10 0.905280 0.928531 0.856380
O O11 0.481298 0.743455 0.221812
O O12 0.001650 0.560910 0.421891
O O13 0.470598 0.164771 0.839174
O O14 0.500000 0.500000 0.000000
O O15 0.002988 0.705945 0.961700
#
# Coordination Sequence:
#
# PCOD9008360 Si02
#       7
#     2   2   2   2   2   2   2
#     4  10  21  39  64  94 129 166 211 268 321 380
#     4  11  23  40  62  92 133 171 213 266 320 381
#     4  10  23  41  65  99 129 167 220 269 321 385
#     4  11  23  42  64  94 130 172 216 265 326 383
#     4   9  20  39  63  91 127 167 209 259 320 379
#     4  10  22  41  66  93 129 171 214 265 327 388
#     4  11  23  40  65  94 131 167 220 265 321 385
#
# _framework density 22.757048000000001
#
# number of rings (size 3 to 8) (size 9 to 14) (size 15 to 20)
#    0.000    1.714    1.429    2.143    0.000   10.857 
#    0.000    4.286    0.000   10.286    0.000    0.000 
#    0.000    0.000    0.000    0.000    0.000    0.000 
#
# Total GULP energy -77973.490375 kJ/mol
# GULP energy per Si atom -5569.535027 kJ/mol
# Density = 2.270525 g / cm^3
# Si number density = 22.757048 Si / 1000 Ang^3
#
#
#
# Elastic Constant Matrix: (Units=GPa)
#
#
# Indices 1 2 3 4 5 6 
#
# 1 84.1622 29.4002 49.0199 -3.7289 -0.1949 7.4633
# 2 29.4002 82.9479 30.2954 20.0805 -11.6729 -8.1189
# 3 49.0199 30.2954 118.3254 13.1713 -14.9453 -10.9943
# 4 -3.7289 20.0805 13.1713 37.2328 2.0594 -9.7995
# 5 -0.1949 -11.6729 -14.9453 2.0594 42.0978 -2.0801
# 6 7.4633 -8.1189 -10.9943 -9.7995 -2.0801 28.7041
#
#
#
# Elastic Compliance Matrix: (Units=1/GPa)
#
#
# Indices 1 2 3 4 5 6 
#
# 1 0.021020 -0.007635 -0.009191 0.007429 -0.006093 -0.009050
# 2 -0.007635 0.018174 0.000795 -0.010008 0.005995 0.004448
# 3 -0.009191 0.000795 0.013936 -0.004826 0.005693 0.006717
# 4 0.007429 -0.010008 -0.004826 0.036459 -0.005970 0.005404
# 5 -0.006093 0.005995 0.005693 -0.005970 0.027971 0.005449
# 6 -0.009050 0.004448 0.006717 0.005404 0.005449 0.043262
#
#
# Mechanical properties :
#
#
# Convention : Reuss Voigt Hill
#
# Bulk Modulus (GPa) = 47.46895 55.87403 51.67149
# Shear Modulus (GPa) = 25.01173 33.38827 29.20000
#
# Velocity S-wave (km/s) = 3.31883 3.83451 3.58595
# Velocity P-wave (km/s) = 5.96577 6.64909 6.31668
#
# Compressibility (1/GPa) = 0.02106640
#
# Stress axis : x y z
#
# Youngs Moduli (GPa) = 47.57432 55.02453 71.75804
#
# Poissons Ratio (x) = 0.42013 0.65950
# Poissons Ratio (y) = 0.36325 -0.05702
# Poissons Ratio (z) = 0.43724 -0.04373
#
# Static dielectric constant tensor:
#      x y z
#    x 1.898270 -0.017780 -0.029940 
#    y -0.017780 1.912340 -0.022300 
#    z -0.029940 -0.022300 1.863390 
# 
# From -- ./inp_files/468843.got.cif
#   From: 2010.05.17/outbox.cif.g08.bks.cpg/sg2_235_cif.got.tgz:468843.got - 2010.06.03 11:33:40.
