data_PCOD9008550
_publ_section_title
;
Structure prediction by ZEFSAII (Michael W. Deem and Ramdas Pophale) SiO2 
 PCOD9008550
Probable space group: P -1
;
_chemical_formula_sum "Si O2"
_cell_formula_units_Z 16
_cell_length_a 7.369121
_cell_length_b 6.391318
_cell_length_c 20.354492
_cell_angle_alpha 59.878248
_cell_angle_beta 66.157200
_cell_angle_gamma 55.555747
_cell_volume 674.018470
_symmetry_space_group_name_H-M "P -1"
_symmetry_group_IT_number 2
_symmetry_cell_setting 'triclinic'
loop_
_space_group_symop_operation_xyz
x,y,z
-x,-y,-z
loop_
_atom_site_type_symbol
_atom_site_label
_atom_site_fract_x
_atom_site_fract_y
_atom_site_fract_z
Si Si1 0.528664 0.184296 0.340129
Si Si2 0.370111 0.432270 0.917577
Si Si3 0.186584 0.521894 0.789065
Si Si4 0.689678 0.419954 0.579956
Si Si5 0.799017 0.933843 0.956484
Si Si6 0.773843 0.546826 0.409468
Si Si7 0.255807 0.960495 0.896230
Si Si8 0.158074 0.187483 0.306613
O O1 0.660032 0.359544 0.283778
O O2 0.361803 0.331819 0.401966
O O3 0.381033 0.196646 0.296571
O O4 0.699941 0.868410 0.375450
O O5 0.217382 0.541508 0.858708
O O6 0.601757 0.171716 0.908230
O O7 0.432441 0.656781 0.901782
O O8 0.238488 0.333278 0.004066
O O9 0.269799 0.201528 0.816897
O O10 0.940861 0.690880 0.768918
O O11 0.822460 0.423341 0.494898
O O12 0.447697 0.465518 0.582298
O O13 0.801805 0.122906 0.643698
O O14 0.026110 0.951507 0.912407
O O15 0.749400 0.990468 0.033092
O O16 0.968219 0.381345 0.355611
#
# Coordination Sequence:
#
# PCOD9008550 Si02
#       8
#     2   2   2   2   2   2   2   2
#     4  11  25  42  64  93 131 170 213 266 322 382
#     4  10  21  39  65  89 128 161 205 258 313 366
#     4  11  26  42  58  96 131 170 211 253 313 390
#     4  10  22  43  69  96 123 167 218 272 324 373
#     4   9  20  40  62  98 116 156 212 260 304 367
#     4  10  22  43  69  95 126 163 220 275 316 380
#     4  10  21  39  65  90 128 160 207 257 310 371
#     4  11  25  42  64  93 131 169 214 267 319 385
#
# _framework density 23.738220999999999
#
# number of rings (size 3 to 8) (size 9 to 14) (size 15 to 20)
#    0.000    1.750    1.250    1.500    5.250    0.500 
#    0.000    0.000    0.000    0.000    0.000    0.000 
#    0.000    0.000    0.000    0.000    0.000    0.000 
#
# Total GULP energy -89458.211449 kJ/mol
# GULP energy per Si atom -5591.138216 kJ/mol
# Density = 2.368419 g / cm^3
# Si number density = 23.738221 Si / 1000 Ang^3
#
#
#
# Elastic Constant Matrix: (Units=GPa)
#
#
# Indices 1 2 3 4 5 6 
#
# 1 77.0800 4.2949 14.4261 -6.5466 5.6372 17.4692
# 2 4.2949 94.4746 17.4266 -16.9154 4.6076 5.1384
# 3 14.4261 17.4266 60.3284 -17.2191 14.7014 15.2690
# 4 -6.5466 -16.9154 -17.2191 30.3953 -0.7059 -3.7235
# 5 5.6372 4.6076 14.7014 -0.7059 37.0327 -1.6787
# 6 17.4692 5.1384 15.2690 -3.7235 -1.6787 21.3041
#
#
#
# Elastic Compliance Matrix: (Units=1/GPa)
#
#
# Indices 1 2 3 4 5 6 
#
# 1 0.016451 0.000459 0.001182 0.002636 -0.003627 -0.014273
# 2 0.000459 0.011973 -0.001315 0.005825 -0.000989 -0.001382
# 3 0.001182 -0.001315 0.028153 0.012805 -0.011834 -0.019525
# 4 0.002636 0.005825 0.012805 0.043140 -0.005643 -0.005648
# 5 -0.003627 -0.000989 -0.011834 -0.005643 0.032871 0.013298
# 6 -0.014273 -0.001382 -0.019525 -0.005648 0.013298 0.073030
#
#
# Mechanical properties :
#
#
# Convention : Reuss Voigt Hill
#
# Bulk Modulus (GPa) = 17.47357 33.79758 25.63557
# Shear Modulus (GPa) = 22.31722 30.79546 26.55634
#
# Velocity S-wave (km/s) = 3.06949 3.60570 3.34835
# Velocity P-wave (km/s) = 4.46535 5.62168 5.07655
#
# Compressibility (1/GPa) = 0.05722930
#
# Stress axis : x y z
#
# Youngs Moduli (GPa) = 60.78827 83.52239 35.51978
#
# Poissons Ratio (x) = -0.03835 -0.04199
# Poissons Ratio (y) = -0.02791 0.04671
# Poissons Ratio (z) = -0.07186 0.10984
#
# Static dielectric constant tensor:
#      x y z
#    x 1.905280 -0.023210 -0.016950 
#    y -0.023210 1.975570 0.025500 
#    z -0.016950 0.025500 1.908440 
# 
# From -- ./inp_files/585109.got.cif
#   From: 2010.05.17/outbox.cif.g08.bks.cpg/sg2_293_cif.got.tgz:585109.got - 2010.06.03 11:33:40.
