data_PCOD9008940
_publ_section_title
;
Structure prediction by ZEFSAII (Michael W. Deem and Ramdas Pophale) SiO2 
 PCOD9008940
Probable space group: P -1
;
_chemical_formula_sum "Si O2"
_cell_formula_units_Z 16
_cell_length_a 11.906638
_cell_length_b 8.916166
_cell_length_c 12.106078
_cell_angle_alpha 128.121309
_cell_angle_beta 132.679480
_cell_angle_gamma 69.554466
_cell_volume 737.963737
_symmetry_space_group_name_H-M "P -1"
_symmetry_group_IT_number 2
_symmetry_cell_setting 'triclinic'
loop_
_space_group_symop_operation_xyz
x,y,z
-x,-y,-z
loop_
_atom_site_type_symbol
_atom_site_label
_atom_site_fract_x
_atom_site_fract_y
_atom_site_fract_z
Si Si1 0.613438 0.500509 0.472617
Si Si2 0.572431 0.849399 0.901013
Si Si3 0.088062 0.695711 0.407874
Si Si4 0.155204 0.080274 0.738272
Si Si5 0.663156 0.125978 0.901034
Si Si6 0.870168 0.446618 0.296106
Si Si7 0.334968 0.073657 0.401514
Si Si8 0.670780 0.776436 0.306891
O O1 0.500000 0.500000 0.500000
O O2 0.528441 0.354275 0.260027
O O3 0.761865 0.400945 0.563912
O O4 0.651412 0.711061 0.541618
O O5 0.585865 0.936567 0.827055
O O6 0.741784 0.841833 0.056415
O O7 0.500000 0.000000 0.000000
O O8 0.002817 0.826377 0.327615
O O9 0.959785 0.527126 0.283039
O O10 0.126821 0.849597 0.604043
O O11 0.252793 0.145123 0.721401
O O12 0.514480 0.238470 0.830916
O O13 0.734853 0.066517 0.806182
O O14 0.787353 0.237204 0.116375
O O15 0.733555 0.576305 0.282438
O O16 0.000000 0.500000 0.500000
O O17 0.271161 0.088074 0.489119
O O18 0.500000 0.000000 0.500000
#
# Coordination Sequence:
#
# PCOD9008940 Si02
#       8
#     2   2   2   2   2   2   2   2
#     4  12  24  44  71  97 134 176 228 276 333 406
#     4  12  22  38  72  99 128 170 234 282 326 389
#     4  10  22  40  63  92 136 171 217 276 337 393
#     4  10  21  39  67 100 132 169 221 284 335 392
#     4  11  22  41  62  95 133 173 227 272 329 400
#     4  11  23  37  63  93 130 171 222 277 339 392
#     4  10  24  41  64  97 135 175 219 275 335 392
#     4  10  21  39  66  94 124 173 224 279 330 389
#
# _framework density 21.681281999999999
#
# number of rings (size 3 to 8) (size 9 to 14) (size 15 to 20)
#    0.000    1.250    3.750    1.875    3.500    4.000 
#    0.000    3.125    5.500    0.000    0.000    0.000 
#    0.000    0.000    0.000    0.000    0.000    0.000 
#
# Total GULP energy -89311.896676 kJ/mol
# GULP energy per Si atom -5581.993542 kJ/mol
# Density = 2.163193 g / cm^3
# Si number density = 21.681282 Si / 1000 Ang^3
#
#
#
# Elastic Constant Matrix: (Units=GPa)
#
#
# Indices 1 2 3 4 5 6 
#
# 1 72.2848 36.6827 11.8784 -3.6271 -1.1095 -16.7202
# 2 36.6827 94.9954 34.8130 -3.1949 4.9023 -26.7155
# 3 11.8784 34.8130 112.0901 -3.4296 2.6064 -17.2037
# 4 -3.6271 -3.1949 -3.4296 34.1759 3.5208 5.6001
# 5 -1.1095 4.9023 2.6064 3.5208 30.8976 -4.5206
# 6 -16.7202 -26.7155 -17.2037 5.6001 -4.5206 34.9281
#
#
#
# Elastic Compliance Matrix: (Units=1/GPa)
#
#
# Indices 1 2 3 4 5 6 
#
# 1 0.017847 -0.005944 0.000610 0.000441 0.002141 0.004504
# 2 -0.005944 0.016278 -0.003192 -0.000601 -0.001294 0.007961
# 3 0.000610 -0.003192 0.010299 0.000324 0.000044 0.002877
# 4 0.000441 -0.000601 0.000324 0.030627 -0.004217 -0.005545
# 5 0.002141 -0.001294 0.000044 -0.004217 0.033873 0.005117
# 6 0.004504 0.007961 0.002877 -0.005545 0.005117 0.039844
#
#
# Mechanical properties :
#
#
# Convention : Reuss Voigt Hill
#
# Bulk Modulus (GPa) = 36.53581 49.56873 43.05227
# Shear Modulus (GPa) = 28.58071 33.06671 30.82371
#
# Velocity S-wave (km/s) = 3.63467 3.90952 3.77460
# Velocity P-wave (km/s) = 5.87387 6.57961 6.23673
#
# Compressibility (1/GPa) = 0.02737040
#
# Stress axis : x y z
#
# Youngs Moduli (GPa) = 56.03087 61.43432 97.10107
#
# Poissons Ratio (x) = 0.36519 -0.05921
# Poissons Ratio (y) = 0.33307 0.30994
# Poissons Ratio (z) = -0.03417 0.19609
#
# Static dielectric constant tensor:
#      x y z
#    x 1.854170 0.012290 -0.002410 
#    y 0.012290 1.823580 -0.008250 
#    z -0.002410 -0.008250 1.822650 
# 
# From -- ./inp_files/420142.got.cif
#   From: 2010.05.17/outbox.cif.g08.bks.cpg/sg2_211_cif.got.tgz:420142.got - 2010.06.03 11:33:40.
