data_PCOD9008432
_publ_section_title
;
Structure prediction by ZEFSAII (Michael W. Deem and Ramdas Pophale) SiO2 
 PCOD9008432
Probable space group: P -1
;
_chemical_formula_sum "Si O2"
_cell_formula_units_Z 16
_cell_length_a 22.058545
_cell_length_b 16.008780
_cell_length_c 4.828251
_cell_angle_alpha 103.745865
_cell_angle_beta 108.208735
_cell_angle_gamma 27.445790
_cell_volume 743.425037
_symmetry_space_group_name_H-M "P -1"
_symmetry_group_IT_number 2
_symmetry_cell_setting 'triclinic'
loop_
_space_group_symop_operation_xyz
x,y,z
-x,-y,-z
loop_
_atom_site_type_symbol
_atom_site_label
_atom_site_fract_x
_atom_site_fract_y
_atom_site_fract_z
Si Si1 0.873528 0.171753 0.149228
Si Si2 0.364247 0.011287 0.056268
Si Si3 0.892588 0.796196 0.255605
Si Si4 0.960390 0.902867 0.259260
Si Si5 0.781189 0.435596 0.975439
Si Si6 0.964551 0.452456 0.255431
Si Si7 0.323018 0.178790 0.631712
Si Si8 0.361721 0.315631 0.553849
O O1 0.937067 0.162540 0.454698
O O2 0.847194 0.108629 0.183419
O O3 0.762004 0.357523 0.966872
O O4 0.000000 0.000000 0.000000
O O5 0.293969 0.147440 0.315145
O O6 0.498895 0.812479 0.228046
O O7 0.254468 0.072461 0.855171
O O8 0.400930 0.030332 0.861881
O O9 0.895647 0.892861 0.268917
O O10 0.954167 0.712017 0.578384
O O11 0.988531 0.625144 0.049538
O O12 0.065461 0.745049 0.052391
O O13 0.681958 0.597217 0.737632
O O14 0.759344 0.512032 0.286123
O O15 0.805082 0.637146 0.227456
O O16 0.000000 0.500000 0.500000
O O17 0.378806 0.194266 0.551793
#
# Coordination Sequence:
#
# PCOD9008432 Si02
#       8
#     2   2   2   2   2   2   2   2
#     4   9  20  38  65  96 123 145 180 247 317 362
#     4  12  24  41  56  82 121 166 206 244 285 341
#     4  12  24  38  60  89 124 159 197 240 299 364
#     4  10  21  39  64  97 122 149 188 241 314 366
#     4  11  21  40  60  93 118 147 196 249 296 350
#     4  12  22  39  58  86 123 159 198 249 301 343
#     4  12  23  40  58  82 117 161 209 254 292 332
#     4  12  24  38  61  84 117 163 209 246 282 340
#
# _framework density 21.522008
#
# number of rings (size 3 to 8) (size 9 to 14) (size 15 to 20)
#    0.000    0.750    3.750    4.875    3.500    0.000 
#    0.000    0.000    0.000    1.500    0.000    0.000 
#    0.000    0.000    0.000    0.000    0.000    0.000 
#
# Total GULP energy -89270.417200 kJ/mol
# GULP energy per Si atom -5579.401075 kJ/mol
# Density = 2.147302 g / cm^3
# Si number density = 21.522008 Si / 1000 Ang^3
#
#
#
# Elastic Constant Matrix: (Units=GPa)
#
#
# Indices 1 2 3 4 5 6 
#
# 1 97.1732 44.0515 24.4530 -17.9444 -10.6561 42.0157
# 2 44.0515 65.7636 7.4577 -9.4964 3.7101 22.7694
# 3 24.4530 7.4577 71.2066 -5.4701 -12.2076 11.3621
# 4 -17.9444 -9.4964 -5.4701 43.3378 9.3724 -11.6889
# 5 -10.6561 3.7101 -12.2076 9.3724 30.4031 -3.7270
# 6 42.0157 22.7694 11.3621 -11.6889 -3.7270 35.1409
#
#
#
# Elastic Compliance Matrix: (Units=1/GPa)
#
#
# Indices 1 2 3 4 5 6 
#
# 1 0.026250 -0.009333 -0.003226 0.000827 0.005922 -0.023392
# 2 -0.009333 0.023594 0.000359 0.001684 -0.007069 -0.004434
# 3 -0.003226 0.000359 0.016186 -0.000725 0.005392 -0.001279
# 4 0.000827 0.001684 -0.000725 0.027087 -0.007780 0.006339
# 5 0.005922 -0.007069 0.005392 -0.007780 0.040076 -0.002581
# 6 -0.023392 -0.004434 -0.001279 0.006339 -0.002581 0.061547
#
#
# Mechanical properties :
#
#
# Convention : Reuss Voigt Hill
#
# Bulk Modulus (GPa) = 24.02068 42.89642 33.45855
# Shear Modulus (GPa) = 21.45765 32.32178 26.88972
#
# Velocity S-wave (km/s) = 3.16097 3.87951 3.53853
# Velocity P-wave (km/s) = 4.95051 6.32789 5.68110
#
# Compressibility (1/GPa) = 0.04163080
#
# Stress axis : x y z
#
# Youngs Moduli (GPa) = 38.09539 42.38288 61.78010
#
# Poissons Ratio (x) = 0.39557 0.19928
# Poissons Ratio (y) = 0.35556 -0.02218
# Poissons Ratio (z) = 0.12288 -0.01522
#
# Static dielectric constant tensor:
#      x y z
#    x 1.898880 0.061630 -0.033160 
#    y 0.061630 1.874320 0.033480 
#    z -0.033160 0.033480 1.868490 
# 
# From -- ./inp_files/119327.got.cif
#   From: 2010.05.17/outbox.cif.g08.bks.cpg/sg2_60_cif.got.tgz:119327.got - 2010.06.03 11:33:40.
