data_PCOD9008064
_publ_section_title
;
Structure prediction by ZEFSAII (Michael W. Deem and Ramdas Pophale) SiO2 
 PCOD9008064
Probable space group: P -1
;
_chemical_formula_sum "Si O2"
_cell_formula_units_Z 16
_cell_length_a 5.285210
_cell_length_b 8.362360
_cell_length_c 16.602569
_cell_angle_alpha 129.381722
_cell_angle_beta 92.081175
_cell_angle_gamma 90.705163
_cell_volume 566.197757
_symmetry_space_group_name_H-M "P -1"
_symmetry_group_IT_number 2
_symmetry_cell_setting 'triclinic'
loop_
_space_group_symop_operation_xyz
x,y,z
-x,-y,-z
loop_
_atom_site_type_symbol
_atom_site_label
_atom_site_fract_x
_atom_site_fract_y
_atom_site_fract_z
Si Si1 0.587436 0.116571 0.632856
Si Si2 0.745432 0.476317 0.914065
Si Si3 0.232386 0.426328 0.792924
Si Si4 0.258345 0.137131 0.034842
Si Si5 0.644213 0.315039 0.542828
Si Si6 0.945031 0.703257 0.768051
Si Si7 0.725739 0.312072 0.362042
Si Si8 0.335350 0.949069 0.202356
O O1 0.316848 0.223041 0.680070
O O2 0.740478 0.272630 0.622253
O O3 0.702274 0.085381 0.713017
O O4 0.558483 0.883860 0.525676
O O5 0.479614 0.463790 0.860560
O O6 0.773981 0.724122 0.000758
O O7 0.691560 0.280825 0.909414
O O8 0.999547 0.420759 0.850802
O O9 0.176392 0.615203 0.793288
O O10 0.259222 0.293187 0.161850
O O11 0.500000 0.000000 0.000000
O O12 0.000000 0.000000 0.000000
O O13 0.776147 0.283346 0.447918
O O14 0.488303 0.521652 0.601147
O O15 0.018211 0.599936 0.650555
O O16 0.880566 0.922239 0.798702
O O17 0.592711 0.100097 0.254451
#
# Coordination Sequence:
#
# PCOD9008064 Si02
#       8
#     2   2   2   2   2   2   2   2
#     4   9  18  38  61  94 136 188 235 292 330 392
#     4  10  23  43  70 104 130 178 224 277 333 422
#     4  10  21  39  69  94 135 182 239 273 331 401
#     4  11  25  47  75 105 134 172 223 282 345 420
#     4   9  18  35  65  90 139 187 235 293 334 392
#     4  11  24  40  69  99 133 179 225 281 345 418
#     4  10  21  39  63  95 139 183 231 287 343 398
#     4  10  24  37  66  98 133 180 232 276 339 408
#
# _framework density 28.258676999999999
#
# number of rings (size 3 to 8) (size 9 to 14) (size 15 to 20)
#    0.000    2.000    1.250    1.500   10.500    0.000 
#    0.000    7.500    8.250    0.000    0.000    0.000 
#    0.000    0.000    0.000    0.000    0.000    0.000 
#
# Total GULP energy -89142.614145 kJ/mol
# GULP energy per Si atom -5571.413384 kJ/mol
# Density = 2.819436 g / cm^3
# Si number density = 28.258677 Si / 1000 Ang^3
#
#
#
# Elastic Constant Matrix: (Units=GPa)
#
#
# Indices 1 2 3 4 5 6 
#
# 1 166.2146 39.5767 42.4171 3.7429 -24.0925 -9.9895
# 2 39.5767 132.0872 3.9766 2.6830 -11.4458 -32.5207
# 3 42.4171 3.9766 94.8246 5.1455 -5.8673 6.1250
# 4 3.7429 2.6830 5.1455 59.3357 8.8260 -13.1277
# 5 -24.0925 -11.4458 -5.8673 8.8260 42.6867 -11.7770
# 6 -9.9895 -32.5207 6.1250 -13.1277 -11.7770 53.7941
#
#
#
# Elastic Compliance Matrix: (Units=1/GPa)
#
#
# Indices 1 2 3 4 5 6 
#
# 1 0.007940 -0.001464 -0.003326 -0.000374 0.004204 0.001797
# 2 -0.001464 0.009947 -0.000004 0.000588 0.003557 0.006664
# 3 -0.003326 -0.000004 0.012226 -0.001305 -0.000608 -0.002464
# 4 -0.000374 0.000588 -0.001305 0.018334 -0.002841 0.004287
# 5 0.004204 0.003557 -0.000608 -0.002841 0.029687 0.008806
# 6 0.001797 0.006664 -0.002464 0.004287 0.008806 0.026206
#
#
# Mechanical properties :
#
#
# Convention : Reuss Voigt Hill
#
# Bulk Modulus (GPa) = 48.72543 62.78523 55.75533
# Shear Modulus (GPa) = 41.40112 51.64038 46.52075
#
# Velocity S-wave (km/s) = 3.83178 4.27947 4.06180
# Velocity P-wave (km/s) = 6.07098 6.83262 6.46303
#
# Compressibility (1/GPa) = 0.02052316
#
# Stress axis : x y z
#
# Youngs Moduli (GPa) = 125.95160 100.53650 81.79291
#
# Poissons Ratio (x) = 0.14723 0.27202
# Poissons Ratio (y) = 0.18445 0.00035
# Poissons Ratio (z) = 0.41888 0.00044
#
# Static dielectric constant tensor:
#      x y z
#    x 2.145540 0.128220 0.131160 
#    y 0.128220 2.296640 0.016990 
#    z 0.131160 0.016990 2.535980 
# 
# From -- ./inp_files/582596.got.cif
#   From: 2010.05.17/outbox.cif.g08.bks.cpg/sg2_292_cif.got.tgz:582596.got - 2010.06.03 11:33:40.
