data_PCOD9008165
_publ_section_title
;
Structure prediction by ZEFSAII (Michael W. Deem and Ramdas Pophale) SiO2 
 PCOD9008165
Probable space group: P -1
;
_chemical_formula_sum "Si O2"
_cell_formula_units_Z 16
_cell_length_a 8.884206
_cell_length_b 9.825887
_cell_length_c 11.796466
_cell_angle_alpha 54.467355
_cell_angle_beta 123.444861
_cell_angle_gamma 92.593977
_cell_volume 639.323841
_symmetry_space_group_name_H-M "P -1"
_symmetry_group_IT_number 2
_symmetry_cell_setting 'triclinic'
loop_
_space_group_symop_operation_xyz
x,y,z
-x,-y,-z
loop_
_atom_site_type_symbol
_atom_site_label
_atom_site_fract_x
_atom_site_fract_y
_atom_site_fract_z
Si Si1 0.810416 0.105013 0.796403
Si Si2 0.834804 0.558941 0.663718
Si Si3 0.438564 0.225274 0.732487
Si Si4 0.915713 0.234781 0.281938
Si Si5 0.162855 0.863203 0.462034
Si Si6 0.587073 0.779233 0.651536
Si Si7 0.828189 0.715153 0.985391
Si Si8 0.533971 0.187852 0.052276
O O1 0.622566 0.227230 0.734877
O O2 0.864088 0.168741 0.666234
O O3 0.754694 0.934336 0.824297
O O4 0.000000 0.000000 0.000000
O O5 0.758563 0.617277 0.477603
O O6 0.653109 0.684283 0.603973
O O7 0.022113 0.596691 0.770605
O O8 0.948339 0.348363 0.842642
O O9 0.413897 0.030994 0.807317
O O10 0.489554 0.239358 0.877411
O O11 0.938786 0.187126 0.448902
O O12 0.710009 0.238321 0.149018
O O13 0.080917 0.080437 0.348957
O O14 0.395163 0.756223 0.629614
O O15 0.500000 0.000000 0.500000
O O16 0.769644 0.666582 0.862071
O O17 0.668227 0.712727 0.011974
#
# Coordination Sequence:
#
# PCOD9008165 Si02
#       8
#     2   2   2   2   2   2   2   2
#     4  11  22  40  66  92 119 163 219 263 300 372
#     4  12  24  39  63  95 132 168 202 253 327 383
#     4  10  21  39  64  88 122 169 212 256 314 370
#     4  11  22  35  64  98 124 159 211 263 308 364
#     4  11  20  35  65  93 119 154 216 265 297 350
#     4  12  19  40  65  91 118 166 213 257 304 364
#     4  11  24  39  63  92 129 165 202 259 326 374
#     4  10  21  40  61  90 125 164 216 262 301 368
#
# _framework density 25.026440999999998
#
# number of rings (size 3 to 8) (size 9 to 14) (size 15 to 20)
#    0.000    1.000    5.000    3.375    0.000    3.000 
#    0.000    0.625    0.000    0.000    0.000    0.000 
#    0.000    0.000    0.000    0.000    0.000    0.000 
#
# Total GULP energy -89254.249006 kJ/mol
# GULP energy per Si atom -5578.390563 kJ/mol
# Density = 2.496948 g / cm^3
# Si number density = 25.026441 Si / 1000 Ang^3
#
#
#
# Elastic Constant Matrix: (Units=GPa)
#
#
# Indices 1 2 3 4 5 6 
#
# 1 115.8822 36.9495 53.0983 23.0584 5.7991 -23.2926
# 2 36.9495 42.4114 42.5771 17.9047 2.8463 -7.3971
# 3 53.0983 42.5771 195.9287 31.0239 5.0910 -13.8435
# 4 23.0584 17.9047 31.0239 39.6998 -15.2578 4.0412
# 5 5.7991 2.8463 5.0910 -15.2578 41.7968 15.1666
# 6 -23.2926 -7.3971 -13.8435 4.0412 15.1666 33.7934
#
#
#
# Elastic Compliance Matrix: (Units=1/GPa)
#
#
# Indices 1 2 3 4 5 6 
#
# 1 0.018513 -0.004263 0.000784 -0.018203 -0.016983 0.021947
# 2 -0.004263 0.043505 -0.003415 -0.021819 -0.015229 0.014630
# 3 0.000784 -0.003415 0.007454 -0.007664 -0.005910 0.006415
# 4 -0.018203 -0.021819 -0.007664 0.077155 0.052421 -0.053216
# 5 -0.016983 -0.015229 -0.005910 0.052421 0.066637 -0.053635
# 6 0.021947 0.014630 0.006415 -0.053216 -0.053635 0.080985
#
#
# Mechanical properties :
#
#
# Convention : Reuss Voigt Hill
#
# Bulk Modulus (GPa) = 17.95842 68.83023 43.39433
# Shear Modulus (GPa) = 15.30930 37.83117 26.57023
#
# Velocity S-wave (km/s) = 2.47599 3.89221 3.26189
# Velocity P-wave (km/s) = 3.91987 6.91099 5.61815
#
# Compressibility (1/GPa) = 0.05568417
#
# Stress axis : x y z
#
# Youngs Moduli (GPa) = 54.01565 22.98573 134.15605
#
# Poissons Ratio (x) = 0.09799 -0.10512
# Poissons Ratio (y) = 0.23027 0.45809
# Poissons Ratio (z) = -0.04232 0.07849
#
# Static dielectric constant tensor:
#      x y z
#    x 1.901970 -0.362570 0.266490 
#    y -0.362570 -1.073490 2.228230 
#    z 0.266490 2.228230 0.385030 
# 
# From -- ./inp_files/392164.got.cif
#   From: 2010.05.17/outbox.cif.g08.bks.cpg/sg2_197_cif.got.tgz:392164.got - 2010.06.03 11:33:40.
