data_PCOD9008200
_publ_section_title
;
Structure prediction by ZEFSAII (Michael W. Deem and Ramdas Pophale) SiO2 
 PCOD9008200
Probable space group: P -1
;
_chemical_formula_sum "Si O2"
_cell_formula_units_Z 16
_cell_length_a 5.602659
_cell_length_b 9.032285
_cell_length_c 14.556818
_cell_angle_alpha 114.095187
_cell_angle_beta 103.507167
_cell_angle_gamma 95.459233
_cell_volume 638.625196
_symmetry_space_group_name_H-M "P -1"
_symmetry_group_IT_number 2
_symmetry_cell_setting 'triclinic'
loop_
_space_group_symop_operation_xyz
x,y,z
-x,-y,-z
loop_
_atom_site_type_symbol
_atom_site_label
_atom_site_fract_x
_atom_site_fract_y
_atom_site_fract_z
Si Si1 0.953517 0.882009 0.674305
Si Si2 0.276886 0.644392 0.642241
Si Si3 0.907694 0.441246 0.699627
Si Si4 0.656465 0.311511 0.893298
Si Si5 0.406554 0.298188 0.538244
Si Si6 0.763486 0.769249 0.823089
Si Si7 0.206800 0.285269 0.985045
Si Si8 0.762406 0.784095 0.300560
O O1 0.138912 0.775153 0.616590
O O2 0.681226 0.802083 0.586905
O O3 0.933041 0.864272 0.778858
O O4 0.060300 0.063007 0.692948
O O5 0.383243 0.490843 0.573350
O O6 0.480913 0.748538 0.756000
O O7 0.044285 0.541106 0.651775
O O8 0.685859 0.305671 0.601341
O O9 0.805245 0.580255 0.779636
O O10 0.118913 0.373186 0.755496
O O11 0.719278 0.512273 0.949296
O O12 0.520094 0.243954 0.769165
O O13 0.430523 0.249790 0.931005
O O14 0.914920 0.252021 0.918451
O O15 0.239454 0.217375 0.589648
O O16 0.791011 0.812357 0.943092
#
# Coordination Sequence:
#
# PCOD9008200 Si02
#       8
#     2   2   2   2   2   2   2   2
#     4  11  24  39  60  90 132 169 211 256 333 396
#     4   9  20  38  62  87 123 160 214 262 316 375
#     4   9  20  36  63  85 125 154 217 264 319 373
#     4  10  23  39  68 100 129 167 221 277 330 388
#     4  10  21  39  64  90 119 170 219 268 313 381
#     4  10  22  39  62  94 122 167 209 272 321 385
#     4  10  22  40  70  99 127 166 225 277 329 385
#     4  11  24  40  59  93 129 169 207 270 328 389
#
# _framework density 25.053818
#
# number of rings (size 3 to 8) (size 9 to 14) (size 15 to 20)
#    0.000    2.000    0.000    3.000   10.500    8.000 
#    0.000    1.250    0.000    0.000    0.000    0.000 
#    0.000    0.000    0.000    0.000    0.000    0.000 
#
# Total GULP energy -89417.708626 kJ/mol
# GULP energy per Si atom -5588.606789 kJ/mol
# Density = 2.499679 g / cm^3
# Si number density = 25.053818 Si / 1000 Ang^3
#
#
#
# Elastic Constant Matrix: (Units=GPa)
#
#
# Indices 1 2 3 4 5 6 
#
# 1 119.6020 9.2229 37.9485 -22.5742 3.7355 11.3739
# 2 9.2229 62.0238 4.9824 -15.0485 -17.8399 -2.1712
# 3 37.9485 4.9824 71.7464 -27.3853 -16.9223 -19.3665
# 4 -22.5742 -15.0485 -27.3853 28.4227 14.2601 0.3665
# 5 3.7355 -17.8399 -16.9223 14.2601 32.8827 -14.9353
# 6 11.3739 -2.1712 -19.3665 0.3665 -14.9353 -6.9162
#
#
#
# Elastic Compliance Matrix: (Units=1/GPa)
#
#
# Indices 1 2 3 4 5 6 
#
# 1 0.008517 0.001126 0.001065 0.007803 0.000930 0.009076
# 2 0.001126 0.018663 0.000189 0.010074 0.001973 -0.008262
# 3 0.001065 0.000189 0.013915 0.019026 -0.008875 -0.017099
# 4 0.007803 0.010074 0.019026 0.074120 -0.018071 -0.000655
# 5 0.000930 0.001973 -0.008875 -0.018071 0.023178 -0.025248
# 6 0.009076 -0.008262 -0.017099 -0.000655 -0.025248 -0.024700
#
#
# Mechanical properties :
#
#
# Convention : Reuss Voigt Hill
#
# Bulk Modulus (GPa) = 21.80814 39.74221 30.77518
# Shear Modulus (GPa) = 40.25195 24.29241 32.27218
#
# Velocity S-wave (km/s) = 4.01261 3.11723 3.59292
# Velocity P-wave (km/s) = 5.49468 5.37153 5.43346
#
# Compressibility (1/GPa) = 0.04585443
#
# Stress axis : x y z
#
# Youngs Moduli (GPa) = 117.41280 53.58268 71.86507
#
# Poissons Ratio (x) = -0.06036 -0.07651
# Poissons Ratio (y) = -0.13226 -0.01357
# Poissons Ratio (z) = -0.12500 -0.01011
#
# Static dielectric constant tensor:
#      x y z
#    x 2.002050 0.014000 -0.052890 
#    y 0.014000 1.969460 0.005330 
#    z -0.052890 0.005330 2.027230 
# 
# From -- ./inp_files/112514.got.cif
#   From: 2010.05.17/outbox.cif.g08.bks.cpg/sg2_57_cif.got.tgz:112514.got - 2010.06.03 11:33:40.
