data_PCOD9008486
_publ_section_title
;
Structure prediction by ZEFSAII (Michael W. Deem and Ramdas Pophale) SiO2 
 PCOD9008486
Probable space group: P -1
;
_chemical_formula_sum "Si O2"
_cell_formula_units_Z 12
_cell_length_a 17.012576
_cell_length_b 8.258127
_cell_length_c 5.055590
_cell_angle_alpha 62.170929
_cell_angle_beta 81.697953
_cell_angle_gamma 50.043753
_cell_volume 468.654328
_symmetry_space_group_name_H-M "P -1"
_symmetry_group_IT_number 2
_symmetry_cell_setting 'triclinic'
loop_
_space_group_symop_operation_xyz
x,y,z
-x,-y,-z
loop_
_atom_site_type_symbol
_atom_site_label
_atom_site_fract_x
_atom_site_fract_y
_atom_site_fract_z
Si Si1 0.501335 0.752807 0.400793
Si Si2 0.684493 0.095817 0.971387
Si Si3 0.196985 0.046396 0.478542
Si Si4 0.776380 0.620418 0.559439
Si Si5 0.607394 0.680062 0.908192
Si Si6 0.008548 0.858246 0.355649
O O1 0.419124 0.754099 0.274943
O O2 0.538846 0.660496 0.751660
O O3 0.446026 0.036037 0.253089
O O4 0.600547 0.619935 0.255709
O O5 0.772486 0.040785 0.769804
O O6 0.709604 0.143225 0.211257
O O7 0.702066 0.853737 0.224750
O O8 0.189583 0.277372 0.323407
O O9 0.089094 0.130802 0.576137
O O10 0.715742 0.556791 0.798731
O O11 0.878033 0.406244 0.515547
O O12 0.000000 0.000000 0.500000
O O13 0.000000 0.000000 0.000000
#
# Coordination Sequence:
#
# PCOD9008486 Si02
#       6
#     2   2   2   2   2   2
#     4  10  17  29  47  93 129 144 174 237 299 339
#     4  10  19  33  61  89 124 147 190 237 299 341
#     4  10  22  39  61  87 115 156 192 246 295 346
#     4  10  23  37  63  88 121 153 198 240 294 343
#     4  10  18  27  52  83 133 146 178 231 301 336
#     4  12  28  44  61  84 117 158 202 247 296 349
#
# _framework density 25.605225000000001
#
# number of rings (size 3 to 8) (size 9 to 14) (size 15 to 20)
#    1.000    0.667    1.667    5.500    2.333    0.667 
#    0.000    0.000    0.000    0.000    0.000   23.333 
#    0.000    0.000    0.000    0.000    0.000    0.000 
#
# Total GULP energy -67097.924289 kJ/mol
# GULP energy per Si atom -5591.493691 kJ/mol
# Density = 2.554695 g / cm^3
# Si number density = 25.605225 Si / 1000 Ang^3
#
#
#
# Elastic Constant Matrix: (Units=GPa)
#
#
# Indices 1 2 3 4 5 6 
#
# 1 120.3820 21.7892 19.9371 12.8623 -8.6824 -17.8190
# 2 21.7892 64.3423 51.9149 15.5396 8.1636 -6.6099
# 3 19.9371 51.9149 97.5465 34.1076 -3.9027 -3.5080
# 4 12.8623 15.5396 34.1076 58.4916 0.0544 0.4133
# 5 -8.6824 8.1636 -3.9027 0.0544 38.5000 13.1146
# 6 -17.8190 -6.6099 -3.5080 0.4133 13.1146 40.4290
#
#
#
# Elastic Compliance Matrix: (Units=1/GPa)
#
#
# Indices 1 2 3 4 5 6 
#
# 1 0.009564 -0.003106 0.000426 -0.001550 0.001776 0.003184
# 2 -0.003106 0.032316 -0.017621 0.002340 -0.011407 0.006062
# 3 0.000426 -0.017621 0.022752 -0.008666 0.007156 -0.002952
# 4 -0.001550 0.002340 -0.008666 0.021876 -0.001484 -0.000795
# 5 0.001776 -0.011407 0.007156 -0.001484 0.033359 -0.011267
# 6 0.003184 0.006062 -0.002952 -0.000795 -0.011267 0.030536
#
#
# Mechanical properties :
#
#
# Convention : Reuss Voigt Hill
#
# Bulk Modulus (GPa) = 41.61390 52.17259 46.89324
# Shear Modulus (GPa) = 25.12384 40.05942 32.59163
#
# Velocity S-wave (km/s) = 3.13581 3.95967 3.57157
# Velocity P-wave (km/s) = 5.42203 6.42848 5.94659
#
# Compressibility (1/GPa) = 0.02403043
#
# Stress axis : x y z
#
# Youngs Moduli (GPa) = 104.56293 30.94448 43.95161
#
# Poissons Ratio (x) = 0.09613 -0.01874
# Poissons Ratio (y) = 0.32482 0.77445
# Poissons Ratio (z) = -0.04458 0.54526
#
# Static dielectric constant tensor:
#      x y z
#    x 2.191860 -0.135780 -0.091460 
#    y -0.135780 2.222110 -0.013960 
#    z -0.091460 -0.013960 2.037880 
# 
# From -- ./inp_files/106253.got.cif
#   From: 2010.05.17/outbox.cif.g08.bks.cpg/sg2_54_cif.got.tgz:106253.got - 2010.06.03 11:33:40.
