data_PCOD9008420
_publ_section_title
;
Structure prediction by ZEFSAII (Michael W. Deem and Ramdas Pophale) SiO2 
 PCOD9008420
Probable space group: P -1
;
_chemical_formula_sum "Si O2"
_cell_formula_units_Z 16
_cell_length_a 5.578901
_cell_length_b 8.528759
_cell_length_c 17.097903
_cell_angle_alpha 126.385832
_cell_angle_beta 86.709148
_cell_angle_gamma 90.807960
_cell_volume 653.648800
_symmetry_space_group_name_H-M "P -1"
_symmetry_group_IT_number 2
_symmetry_cell_setting 'triclinic'
loop_
_space_group_symop_operation_xyz
x,y,z
-x,-y,-z
loop_
_atom_site_type_symbol
_atom_site_label
_atom_site_fract_x
_atom_site_fract_y
_atom_site_fract_z
Si Si1 0.697752 0.913433 0.753297
Si Si2 0.258980 0.887201 0.451315
Si Si3 0.883790 0.231810 0.745344
Si Si4 0.221067 0.522659 0.744323
Si Si5 0.080807 0.499505 0.409114
Si Si6 0.329900 0.212277 0.897322
Si Si7 0.966992 0.940968 0.895931
Si Si8 0.511881 0.536084 0.891970
O O1 0.746496 0.690848 0.664269
O O2 0.721136 0.920899 0.849153
O O3 0.894331 0.034577 0.736760
O O4 0.459789 0.047648 0.790991
O O5 0.278642 0.827088 0.342749
O O6 0.230539 0.689840 0.442472
O O7 0.500000 0.000000 0.500000
O O8 0.000000 0.000000 0.500000
O O9 0.752709 0.400647 0.848435
O O10 0.106801 0.331863 0.729223
O O11 0.084245 0.727737 0.822247
O O12 0.450005 0.556204 0.807095
O O13 0.151305 0.498717 0.645975
O O14 0.000000 0.500000 0.500000
O O15 0.317581 0.405805 0.902282
O O16 0.090658 0.115249 0.899819
O O17 0.452681 0.281090 0.997546
O O18 0.000000 0.000000 0.000000
#
# Coordination Sequence:
#
# PCOD9008420 Si02
#       8
#     2   2   2   2   2   2   2   2
#     4  10  22  43  64  96 131 178 225 286 349 418
#     4  11  26  48  77 107 142 189 245 303 364 438
#     4  10  22  41  67  93 132 174 230 285 351 419
#     4  10  22  37  63  92 127 172 219 280 340 415
#     4  10  23  47  72 101 141 179 236 293 366 432
#     4  10  22  39  63  93 134 173 225 278 341 417
#     4  11  22  36  59  90 129 173 217 275 342 410
#     4  10  21  39  64  96 128 176 226 279 342 416
#
# _framework density 24.477976999999999
#
# number of rings (size 3 to 8) (size 9 to 14) (size 15 to 20)
#    0.000    1.750    0.000    3.000    3.500    5.000 
#   11.250    6.250    0.000    0.000    0.000    0.000 
#    0.000    0.000    0.000    0.000    0.000    0.000 
#
# Total GULP energy -89201.369156 kJ/mol
# GULP energy per Si atom -5575.085572 kJ/mol
# Density = 2.442226 g / cm^3
# Si number density = 24.477977 Si / 1000 Ang^3
#
#
#
# Elastic Constant Matrix: (Units=GPa)
#
#
# Indices 1 2 3 4 5 6 
#
# 1 57.3543 38.7088 44.6946 7.4758 15.0538 4.1957
# 2 38.7088 125.6552 63.2639 7.1144 24.8397 21.0612
# 3 44.6946 63.2639 176.2270 -9.2964 11.0726 3.4805
# 4 7.4758 7.1144 -9.2964 60.3906 -11.8502 -3.8563
# 5 15.0538 24.8397 11.0726 -11.8502 33.3250 4.7694
# 6 4.1957 21.0612 3.4805 -3.8563 4.7694 28.1562
#
#
#
# Elastic Compliance Matrix: (Units=1/GPa)
#
#
# Indices 1 2 3 4 5 6 
#
# 1 0.027318 -0.003391 -0.005383 -0.005788 -0.010089 0.000047
# 2 -0.003391 0.014163 -0.003761 -0.003944 -0.007915 -0.008824
# 3 -0.005383 -0.003761 0.008305 0.003184 0.003254 0.002474
# 4 -0.005788 -0.003944 0.003184 0.020714 0.011239 0.004352
# 5 -0.010089 -0.007915 0.003254 0.011239 0.043202 0.001243
# 6 0.000047 -0.008824 0.002474 0.004352 0.001243 0.042189
#
#
# Mechanical properties :
#
#
# Convention : Reuss Voigt Hill
#
# Bulk Modulus (GPa) = 40.46050 72.50792 56.48421
# Shear Modulus (GPa) = 26.42697 38.54563 32.48630
#
# Velocity S-wave (km/s) = 3.28933 3.97256 3.64698
# Velocity P-wave (km/s) = 5.56700 7.12234 6.39215
#
# Compressibility (1/GPa) = 0.02471547
#
# Stress axis : x y z
#
# Youngs Moduli (GPa) = 36.60560 70.60421 120.41415
#
# Poissons Ratio (x) = 0.23942 0.64824
# Poissons Ratio (y) = 0.12413 0.45288
# Poissons Ratio (z) = 0.19706 0.26554
#
# Static dielectric constant tensor:
#      x y z
#    x 2.047370 -0.081280 -0.013080 
#    y -0.081280 2.011590 -0.077410 
#    z -0.013080 -0.077410 1.977840 
# 
# From -- ./inp_files/135521.got.cif
#   From: 2010.05.17/outbox.cif.g08.bks.cpg/sg2_68_cif.got.tgz:135521.got - 2010.06.03 11:33:40.
