data_PCOD9008142
_publ_section_title
;
Structure prediction by ZEFSAII (Michael W. Deem and Ramdas Pophale) SiO2 
 PCOD9008142
Probable space group: P -1
;
_chemical_formula_sum "Si O2"
_cell_formula_units_Z 16
_cell_length_a 14.383955
_cell_length_b 7.706378
_cell_length_c 6.457220
_cell_angle_alpha 99.678296
_cell_angle_beta 80.230648
_cell_angle_gamma 90.774704
_cell_volume 695.269002
_symmetry_space_group_name_H-M "P -1"
_symmetry_group_IT_number 2
_symmetry_cell_setting 'triclinic'
loop_
_space_group_symop_operation_xyz
x,y,z
-x,-y,-z
loop_
_atom_site_type_symbol
_atom_site_label
_atom_site_fract_x
_atom_site_fract_y
_atom_site_fract_z
Si Si1 0.163820 0.336683 0.850744
Si Si2 0.905082 0.409347 0.438385
Si Si3 0.795752 0.898078 0.590425
Si Si4 0.387057 0.951806 0.152265
Si Si5 0.541019 0.377121 0.721921
Si Si6 0.468121 0.744649 0.770111
Si Si7 0.965232 0.862291 0.822399
Si Si8 0.260467 0.455223 0.217784
O O1 0.128621 0.484829 0.732219
O O2 0.187625 0.167328 0.663505
O O3 0.087808 0.282971 0.043717
O O4 0.249579 0.409216 0.970685
O O5 0.825541 0.421761 0.644627
O O6 0.000000 0.500000 0.500000
O O7 0.941224 0.216455 0.333415
O O8 0.891815 0.929759 0.688918
O O9 0.755822 0.724686 0.687015
O O10 0.712454 0.038968 0.691939
O O11 0.458086 0.800590 0.181966
O O12 0.440168 0.135390 0.195656
O O13 0.382063 0.872051 0.905603
O O14 0.471265 0.544306 0.817597
O O15 0.531409 0.301101 0.480294
O O16 0.643184 0.460246 0.734051
O O17 0.000000 0.000000 0.000000
#
# Coordination Sequence:
#
# PCOD9008142 Si02
#       8
#     2   2   2   2   2   2   2   2
#     4  10  21  39  64  86 121 177 201 259 315 367
#     4  11  20  40  64  88 122 165 218 250 307 372
#     4  10  22  41  58  89 129 164 207 261 317 373
#     4  11  23  43  67  96 127 171 207 257 329 376
#     4  11  23  43  66 100 125 167 214 254 323 383
#     4  10  24  44  68  93 135 159 208 271 310 383
#     4  11  24  38  59  93 127 160 208 266 311 364
#     4  10  22  38  63  91 126 165 213 262 307 374
#
# _framework density 23.012675999999999
#
# number of rings (size 3 to 8) (size 9 to 14) (size 15 to 20)
#    0.000    1.500    5.000    1.125    0.000    7.500 
#    2.250    0.000    0.000    0.000    0.000    0.000 
#    0.000    0.000    0.000    0.000    0.000    0.000 
#
# Total GULP energy -89318.273555 kJ/mol
# GULP energy per Si atom -5582.392097 kJ/mol
# Density = 2.296030 g / cm^3
# Si number density = 23.012676 Si / 1000 Ang^3
#
#
#
# Elastic Constant Matrix: (Units=GPa)
#
#
# Indices 1 2 3 4 5 6 
#
# 1 73.9074 19.2219 31.4863 29.0576 -11.7802 -8.5472
# 2 19.2219 80.5142 33.8700 19.8757 5.3087 -1.6696
# 3 31.4863 33.8700 128.3831 40.2705 -4.8853 -14.4571
# 4 29.0576 19.8757 40.2705 49.9752 0.1184 -9.4578
# 5 -11.7802 5.3087 -4.8853 0.1184 20.2021 13.3832
# 6 -8.5472 -1.6696 -14.4571 -9.4578 13.3832 29.7135
#
#
#
# Elastic Compliance Matrix: (Units=1/GPa)
#
#
# Indices 1 2 3 4 5 6 
#
# 1 0.021275 -0.003125 -0.000739 -0.011660 0.016927 -0.005751
# 2 -0.003125 0.015309 -0.002874 -0.001676 -0.007447 0.001384
# 3 -0.000739 -0.002874 0.011258 -0.007112 0.001720 0.002065
# 4 -0.011660 -0.001676 -0.007112 0.035408 -0.015929 0.011536
# 5 0.016927 -0.007447 0.001720 -0.015929 0.087929 -0.039386
# 6 -0.005751 0.001384 0.002065 0.011536 -0.039386 0.054495
#
#
# Mechanical properties :
#
#
# Convention : Reuss Voigt Hill
#
# Bulk Modulus (GPa) = 29.09995 50.21789 39.65892
# Shear Modulus (GPa) = 19.95169 33.19326 26.57247
#
# Velocity S-wave (km/s) = 2.94766 3.80200 3.40176
# Velocity P-wave (km/s) = 4.92520 6.41427 5.71841
#
# Compressibility (1/GPa) = 0.03436432
#
# Stress axis : x y z
#
# Youngs Moduli (GPa) = 47.00254 65.32207 88.82937
#
# Poissons Ratio (x) = 0.20414 0.06568
# Poissons Ratio (y) = 0.14689 0.25531
# Poissons Ratio (z) = 0.03475 0.18775
#
# Static dielectric constant tensor:
#      x y z
#    x 1.902670 -0.079600 -0.093460 
#    y -0.079600 2.076920 0.108110 
#    z -0.093460 0.108110 2.076100 
# 
# From -- ./inp_files/90999.got.cif
#   From: 2010.05.17/outbox.cif.g08.bks.cpg/sg2_46_cif.got.tgz:90999.got - 2010.06.03 11:33:40.
