data_PCOD9008504
_publ_section_title
;
Structure prediction by ZEFSAII (Michael W. Deem and Ramdas Pophale) SiO2 
 PCOD9008504
Probable space group: P -1
;
_chemical_formula_sum "Si O2"
_cell_formula_units_Z 16
_cell_length_a 22.650164
_cell_length_b 5.535262
_cell_length_c 5.442900
_cell_angle_alpha 76.695999
_cell_angle_beta 79.625527
_cell_angle_gamma 106.898688
_cell_volume 612.654389
_symmetry_space_group_name_H-M "P -1"
_symmetry_group_IT_number 2
_symmetry_cell_setting 'triclinic'
loop_
_space_group_symop_operation_xyz
x,y,z
-x,-y,-z
loop_
_atom_site_type_symbol
_atom_site_label
_atom_site_fract_x
_atom_site_fract_y
_atom_site_fract_z
Si Si1 0.688118 0.526612 0.985529
Si Si2 0.072655 0.509869 0.387439
Si Si3 0.742321 0.414269 0.448656
Si Si4 0.542862 0.828198 0.594408
Si Si5 0.992494 0.207528 0.146138
Si Si6 0.138174 0.188920 0.611057
Si Si7 0.199549 0.971746 0.232148
Si Si8 0.428180 0.302498 0.896339
O O1 0.705544 0.450309 0.716819
O O2 0.617105 0.532162 0.043426
O O3 0.731445 0.832418 0.951596
O O4 0.702756 0.360652 0.239294
O O5 0.100914 0.393424 0.615202
O O6 0.134409 0.762609 0.202295
O O7 0.000000 0.500000 0.500000
O O8 0.050477 0.257912 0.279863
O O9 0.801208 0.694296 0.289466
O O10 0.777092 0.206394 0.547224
O O11 0.573627 0.893003 0.828335
O O12 0.500000 0.000000 0.500000
O O13 0.412106 0.165295 0.673682
O O14 0.501693 0.478555 0.253371
O O15 0.917373 0.090863 0.289102
O O16 0.000000 0.500000 0.000000
O O17 0.000000 0.000000 0.000000
O O18 0.172760 0.183050 0.329777
#
# Coordination Sequence:
#
# PCOD9008504 Si02
#       8
#     2   2   2   2   2   2   2   2
#     4  11  24  45  68  98 136 182 234 287 344 417
#     4  11  22  43  66  87 127 174 225 289 369 444
#     4  10  25  43  66  93 132 177 232 291 350 421
#     4  10  21  39  65 103 143 184 225 281 340 400
#     4  12  27  38  62 100 126 169 225 292 372 452
#     4  10  23  43  61  88 129 167 226 286 363 435
#     4  10  24  43  66  94 127 181 230 294 357 439
#     4  10  22  39  65 100 140 182 233 281 336 409
#
# _framework density 26.115866
#
# number of rings (size 3 to 8) (size 9 to 14) (size 15 to 20)
#    0.000    1.500    1.250    2.250    5.250    6.000 
#    0.000    0.000    0.000    0.000    0.000    0.000 
#    0.000    0.000    0.000    0.000    0.000    0.000 
#
# Total GULP energy -89092.671405 kJ/mol
# GULP energy per Si atom -5568.291963 kJ/mol
# Density = 2.605642 g / cm^3
# Si number density = 26.115866 Si / 1000 Ang^3
#
#
#
# Elastic Constant Matrix: (Units=GPa)
#
#
# Indices 1 2 3 4 5 6 
#
# 1 95.3272 8.2571 35.1655 3.1982 1.4504 -7.1211
# 2 8.2571 69.4678 10.4587 1.0263 -4.9938 8.8328
# 3 35.1655 10.4587 135.2245 5.2880 9.0552 -0.0579
# 4 3.1982 1.0263 5.2880 22.1360 -12.9425 3.4452
# 5 1.4504 -4.9938 9.0552 -12.9425 37.9309 3.4065
# 6 -7.1211 8.8328 -0.0579 3.4452 3.4065 44.7114
#
#
#
# Elastic Compliance Matrix: (Units=1/GPa)
#
#
# Indices 1 2 3 4 5 6 
#
# 1 0.011911 -0.001310 -0.002874 -0.001784 -0.000761 0.002348
# 2 -0.001310 0.015417 -0.001182 0.002385 0.003509 -0.003707
# 3 -0.002874 -0.001182 0.008599 -0.003595 -0.003354 0.000319
# 4 -0.001784 0.002385 -0.003595 0.060451 0.022508 -0.007133
# 5 -0.000761 0.003509 -0.003354 0.022508 0.035810 -0.005281
# 6 0.002348 -0.003707 0.000319 -0.007133 -0.005281 0.024424
#
#
# Mechanical properties :
#
#
# Convention : Reuss Voigt Hill
#
# Bulk Modulus (GPa) = 39.68963 45.30913 42.49938
# Shear Modulus (GPa) = 28.45076 37.36487 32.90781
#
# Velocity S-wave (km/s) = 3.30419 3.78661 3.55360
# Velocity P-wave (km/s) = 5.45779 6.04192 5.75727
#
# Compressibility (1/GPa) = 0.02519550
#
# Stress axis : x y z
#
# Youngs Moduli (GPa) = 83.95760 64.86316 116.28872
#
# Poissons Ratio (x) = 0.08496 0.33426
# Poissons Ratio (y) = 0.10997 0.13741
# Poissons Ratio (z) = 0.24133 0.07664
#
# Static dielectric constant tensor:
#      x y z
#    x 1.458500 0.073550 -0.685540 
#    y 0.073550 2.150560 0.084310 
#    z -0.685540 0.084310 1.625310 
# 
# From -- ./inp_files/114555.got.cif
#   From: 2010.05.17/outbox.cif.g08.bks.cpg/sg2_58_cif.got.tgz:114555.got - 2010.06.03 11:33:40.
