data_PCOD9008316
_publ_section_title
;
Structure prediction by ZEFSAII (Michael W. Deem and Ramdas Pophale) SiO2 
 PCOD9008316
Probable space group: P -1
;
_chemical_formula_sum "Si O2"
_cell_formula_units_Z 13
_cell_length_a 7.708032
_cell_length_b 11.507056
_cell_length_c 15.469047
_cell_angle_alpha 40.884649
_cell_angle_beta 60.407991
_cell_angle_gamma 38.602812
_cell_volume 544.278787
_symmetry_space_group_name_H-M "P -1"
_symmetry_group_IT_number 2
_symmetry_cell_setting 'triclinic'
loop_
_space_group_symop_operation_xyz
x,y,z
-x,-y,-z
loop_
_atom_site_type_symbol
_atom_site_label
_atom_site_fract_x
_atom_site_fract_y
_atom_site_fract_z
Si Si1 0.019576 0.197333 0.899710
Si Si2 0.227676 0.403531 0.127776
Si Si3 0.767702 0.904771 0.569233
Si Si4 0.500000 0.500000 0.500000
Si Si5 0.596000 0.706483 0.045264
Si Si6 0.589012 0.408627 0.345308
Si Si7 0.048368 0.494134 0.592398
O O1 0.007971 0.335024 0.742776
O O2 0.807354 0.408067 0.905944
O O3 0.347164 0.002871 0.961431
O O4 0.000000 0.000000 0.000000
O O5 0.332507 0.173186 0.291225
O O6 0.906462 0.563947 0.083513
O O7 0.399080 0.315987 0.046864
O O8 0.089715 0.755520 0.605052
O O9 0.831151 0.772964 0.535764
O O10 0.593969 0.197065 0.444311
O O11 0.402679 0.583425 0.375167
O O12 0.357509 0.387472 0.596118
O O13 0.536184 0.558467 0.190636
O O14 0.000000 0.500000 0.500000
#
# Coordination Sequence:
#
# PCOD9008316 Si02
#       7
#     2   2   2   1   2   2   2
#     4  11  25  42  61  94 135 170 211 271 324 393
#     4   9  20  40  63  92 123 166 215 269 322 381
#     4   8  17  37  59  87 127 157 207 270 316 385
#     4  10  22  38  68  92 124 164 212 274 312 384
#     4  10  21  39  64  93 124 166 217 265 325 389
#     4   9  18  35  60  94 119 162 213 259 328 380
#     4  10  23  43  64  95 127 170 222 264 328 386
#
# _framework density 23.884817000000002
#
# number of rings (size 3 to 8) (size 9 to 14) (size 15 to 20)
#    0.000    2.462    0.000    1.385    4.308    1.846 
#   11.077    0.769    0.000    0.000    0.000    0.000 
#    0.000    0.000    0.000    0.000    0.000    0.000 
#
# Total GULP energy -72410.843555 kJ/mol
# GULP energy per Si atom -5570.064889 kJ/mol
# Density = 2.383045 g / cm^3
# Si number density = 23.884817 Si / 1000 Ang^3
#
#
#
# Elastic Constant Matrix: (Units=GPa)
#
#
# Indices 1 2 3 4 5 6 
#
# 1 127.6688 31.6712 50.9104 7.8239 -12.9108 32.6679
# 2 31.6712 83.0347 59.4355 10.3963 5.0158 43.5605
# 3 50.9104 59.4355 125.0373 8.2414 3.0949 44.0390
# 4 7.8239 10.3963 8.2414 37.7289 -0.7346 10.6977
# 5 -12.9108 5.0158 3.0949 -0.7346 36.5420 -0.9375
# 6 32.6679 43.5605 44.0390 10.6977 -0.9375 49.8031
#
#
#
# Elastic Compliance Matrix: (Units=1/GPa)
#
#
# Indices 1 2 3 4 5 6 
#
# 1 0.010448 0.000134 -0.002883 -0.000284 0.003802 -0.004289
# 2 0.000134 0.025550 -0.006101 -0.001014 -0.003396 -0.016887
# 3 -0.002883 -0.006101 0.013912 0.000701 -0.001480 -0.005253
# 4 -0.000284 -0.001014 0.000701 0.028290 0.000404 -0.005616
# 5 0.003802 -0.003396 -0.001480 0.000404 0.029366 0.002252
# 6 -0.004289 -0.016887 -0.005253 -0.005616 0.002252 0.043556
#
#
# Mechanical properties :
#
#
# Convention : Reuss Voigt Hill
#
# Bulk Modulus (GPa) = 31.04490 68.86390 49.95440
# Shear Modulus (GPa) = 27.84589 37.72970 32.78780
#
# Velocity S-wave (km/s) = 3.41815 3.97880 3.70908
# Velocity P-wave (km/s) = 5.34830 7.07121 6.26922
#
# Compressibility (1/GPa) = 0.03221141
#
# Stress axis : x y z
#
# Youngs Moduli (GPa) = 95.70870 39.13887 71.88006
#
# Poissons Ratio (x) = -0.00526 0.20720
# Poissons Ratio (y) = -0.01285 0.43856
# Poissons Ratio (z) = 0.27589 0.23879
#
# Static dielectric constant tensor:
#      x y z
#    x 2.089080 -0.103280 0.039160 
#    y -0.103280 1.978510 0.013320 
#    z 0.039160 0.013320 1.869050 
# 
# From -- ./inp_files/266604.got.cif
#   From: 2010.05.17/outbox.cif.g08.bks.cpg/sg2_134_cif.got.tgz:266604.got - 2010.06.03 11:33:40.
