data_PCOD9008749
_publ_section_title
;
Structure prediction by ZEFSAII (Michael W. Deem and Ramdas Pophale) SiO2 
 PCOD9008749
Probable space group: P -1
;
_chemical_formula_sum "Si O2"
_cell_formula_units_Z 16
_cell_length_a 13.336977
_cell_length_b 11.618385
_cell_length_c 5.621025
_cell_angle_alpha 109.351470
_cell_angle_beta 106.871059
_cell_angle_gamma 95.357372
_cell_volume 768.900480
_symmetry_space_group_name_H-M "P -1"
_symmetry_group_IT_number 2
_symmetry_cell_setting 'triclinic'
loop_
_space_group_symop_operation_xyz
x,y,z
-x,-y,-z
loop_
_atom_site_type_symbol
_atom_site_label
_atom_site_fract_x
_atom_site_fract_y
_atom_site_fract_z
Si Si1 0.995033 0.101859 0.864930
Si Si2 0.153466 0.124095 0.597571
Si Si3 0.542622 0.095215 0.302439
Si Si4 0.909832 0.451932 0.709420
Si Si5 0.605285 0.860725 0.391517
Si Si6 0.442820 0.613214 0.981291
Si Si7 0.023520 0.303416 0.363055
Si Si8 0.332736 0.639777 0.431355
O O1 0.111226 0.143259 0.847774
O O2 0.904368 0.021808 0.580172
O O3 0.966622 0.221807 0.048704
O O4 0.000000 0.000000 0.000000
O O5 0.275457 0.145625 0.611077
O O6 0.098953 0.219891 0.474934
O O7 0.444611 0.151943 0.383856
O O8 0.635920 0.212661 0.393002
O O9 0.593362 0.002770 0.439226
O O10 0.500000 0.000000 0.000000
O O11 0.914073 0.564306 0.601371
O O12 0.792270 0.415322 0.703845
O O13 0.940758 0.335245 0.517243
O O14 0.000000 0.500000 0.000000
O O15 0.525341 0.748663 0.121176
O O16 0.375521 0.620860 0.182413
O O17 0.500000 0.500000 0.000000
O O18 0.382805 0.587646 0.667210
#
# Coordination Sequence:
#
# PCOD9008749 Si02
#       8
#     2   2   2   2   2   2   2   2
#     4   9  20  39  59  93 130 165 218 267 335 408
#     4  10  21  39  65  96 131 172 217 278 347 398
#     4  10  21  43  63  95 135 170 233 278 339 416
#     4  11  26  43  65  96 131 180 231 281 342 413
#     4  10  23  39  66  97 130 178 222 282 343 410
#     4  11  25  46  68 104 139 179 233 284 342 419
#     4  10  23  41  63  93 131 167 229 278 331 418
#     4  11  26  45  73  98 139 185 225 289 354 398
#
# _framework density 20.808935000000002
#
# number of rings (size 3 to 8) (size 9 to 14) (size 15 to 20)
#    0.000    1.750    1.250    1.125    5.250    8.000 
#    0.000    0.000    0.000    0.000    0.000    0.000 
#    0.000    0.000    0.000    0.000    0.000    0.000 
#
# Total GULP energy -89119.820439 kJ/mol
# GULP energy per Si atom -5569.988777 kJ/mol
# Density = 2.076157 g / cm^3
# Si number density = 20.808935 Si / 1000 Ang^3
#
#
#
# Elastic Constant Matrix: (Units=GPa)
#
#
# Indices 1 2 3 4 5 6 
#
# 1 140.0157 45.8352 25.5232 -0.8691 -0.0637 14.1129
# 2 45.8352 88.4349 7.5429 -3.5476 2.1015 -3.8572
# 3 25.5232 7.5429 64.9510 2.6508 -9.5095 2.1953
# 4 -0.8691 -3.5476 2.6508 33.2289 -0.6240 -6.8358
# 5 -0.0637 2.1015 -9.5095 -0.6240 23.1378 3.3442
# 6 14.1129 -3.8572 2.1953 -6.8358 3.3442 23.7780
#
#
#
# Elastic Compliance Matrix: (Units=1/GPa)
#
#
# Indices 1 2 3 4 5 6 
#
# 1 0.010164 -0.005386 -0.003029 -0.001524 0.000258 -0.007101
# 2 -0.005386 0.014581 -0.000260 0.002774 -0.002341 0.006713
# 3 -0.003029 -0.000260 0.017832 -0.001683 0.007506 -0.001430
# 4 -0.001524 0.002774 -0.001683 0.032749 -0.001678 0.011160
# 5 0.000258 -0.002341 0.007506 -0.001678 0.047689 -0.008415
# 6 -0.007101 0.006713 -0.001430 0.011160 -0.008415 0.051883
#
#
# Mechanical properties :
#
#
# Convention : Reuss Voigt Hill
#
# Bulk Modulus (GPa) = 39.63786 50.13381 44.88584
# Shear Modulus (GPa) = 24.91812 30.32897 27.62355
#
# Velocity S-wave (km/s) = 3.46421 3.82186 3.64742
# Velocity P-wave (km/s) = 5.92375 6.60456 6.27340
#
# Compressibility (1/GPa) = 0.02522840
#
# Stress axis : x y z
#
# Youngs Moduli (GPa) = 98.38815 68.58066 56.07781
#
# Poissons Ratio (x) = 0.36941 0.16983
# Poissons Ratio (y) = 0.52997 0.01456
# Poissons Ratio (z) = 0.29797 0.01780
#
# Static dielectric constant tensor:
#      x y z
#    x 1.780250 0.040690 -0.042900 
#    y 0.040690 1.809130 -0.066480 
#    z -0.042900 -0.066480 1.854920 
# 
# From -- ./inp_files/72390.got.cif
#   From: 2010.05.17/outbox.cif.g08.bks.cpg/sg2_37_cif.got.tgz:72390.got - 2010.06.03 11:33:40.
