data_PCOD9008837
_publ_section_title
;
Structure prediction by ZEFSAII (Michael W. Deem and Ramdas Pophale) SiO2 
 PCOD9008837
Probable space group: P -1
;
_chemical_formula_sum "Si O2"
_cell_formula_units_Z 14
_cell_length_a 11.602317
_cell_length_b 8.616584
_cell_length_c 17.693916
_cell_angle_alpha 59.214403
_cell_angle_beta 150.541657
_cell_angle_gamma 134.384803
_cell_volume 597.446716
_symmetry_space_group_name_H-M "P -1"
_symmetry_group_IT_number 2
_symmetry_cell_setting 'triclinic'
loop_
_space_group_symop_operation_xyz
x,y,z
-x,-y,-z
loop_
_atom_site_type_symbol
_atom_site_label
_atom_site_fract_x
_atom_site_fract_y
_atom_site_fract_z
Si Si1 0.150244 0.487975 0.398509
Si Si2 0.777052 0.861302 0.473937
Si Si3 0.688800 0.521536 0.979836
Si Si4 0.123578 0.295111 0.801631
Si Si5 0.410547 0.009725 0.537141
Si Si6 0.890391 0.538693 0.850527
Si Si7 0.600793 0.696991 0.730187
O O1 0.128231 0.284858 0.397961
O O2 0.377282 0.721596 0.424604
O O3 0.298727 0.516891 0.557363
O O4 0.867005 0.479157 0.252259
O O5 0.787329 0.028186 0.496189
O O6 0.437498 0.683725 0.299341
O O7 0.000000 0.000000 0.500000
O O8 0.377892 0.328589 0.888136
O O9 0.639412 0.612145 0.852378
O O10 0.831713 0.709374 0.081992
O O11 0.889596 0.441679 0.091652
O O12 0.812715 0.113574 0.629593
O O13 0.569533 0.895899 0.675343
O O14 0.842460 0.726980 0.801150
O O15 0.000000 0.500000 0.000000
#
# Coordination Sequence:
#
# PCOD9008837 Si02
#       7
#     2   2   2   2   2   2   2
#     4  10  22  43  66  95 135 174 223 281 343 385
#     4  11  25  41  71 101 131 175 235 282 332 404
#     4  10  21  39  66 101 143 182 215 279 339 410
#     4  10  22  38  69  99 141 174 226 274 346 391
#     4  11  23  41  69 100 135 173 236 280 332 398
#     4   9  20  41  65  96 139 170 219 279 344 384
#     4   9  20  38  70  96 125 176 230 271 325 399
#
# _framework density 23.433053999999998
#
# number of rings (size 3 to 8) (size 9 to 14) (size 15 to 20)
#    0.000    2.000    0.000    3.000    8.000    2.286 
#    0.000   15.000    0.000   12.857    0.000    0.000 
#    0.000    0.000    0.000    0.000    0.000    0.000 
#
# Total GULP energy -78079.829902 kJ/mol
# GULP energy per Si atom -5577.130707 kJ/mol
# Density = 2.337972 g / cm^3
# Si number density = 23.433054 Si / 1000 Ang^3
#
#
#
# Elastic Constant Matrix: (Units=GPa)
#
#
# Indices 1 2 3 4 5 6 
#
# 1 195.5155 44.0129 45.3057 -26.7448 19.5454 -13.6985
# 2 44.0129 70.2466 24.1629 -25.6115 15.0944 -10.9771
# 3 45.3057 24.1629 121.4989 -21.6525 -0.6389 3.2171
# 4 -26.7448 -25.6115 -21.6525 32.4501 -5.1786 10.9087
# 5 19.5454 15.0944 -0.6389 -5.1786 49.2270 -3.9202
# 6 -13.6985 -10.9771 3.2171 10.9087 -3.9202 26.9288
#
#
#
# Elastic Compliance Matrix: (Units=1/GPa)
#
#
# Indices 1 2 3 4 5 6 
#
# 1 0.006536 -0.002308 -0.001755 0.001556 -0.001609 0.001729
# 2 -0.002308 0.022268 -0.001237 0.013498 -0.004353 0.001949
# 3 -0.001755 -0.001237 0.010425 0.006467 0.001490 -0.005045
# 4 0.001556 0.013498 0.006467 0.052284 -0.000424 -0.015721
# 5 -0.001609 -0.004353 0.001490 -0.000424 0.022314 0.000650
# 6 0.001729 0.001949 -0.005045 -0.015721 0.000650 0.045875
#
#
# Mechanical properties :
#
#
# Convention : Reuss Voigt Hill
#
# Bulk Modulus (GPa) = 34.92997 68.24712 51.58854
# Shear Modulus (GPa) = 27.80166 39.97316 33.88741
#
# Velocity S-wave (km/s) = 3.44819 4.13467 3.80694
# Velocity P-wave (km/s) = 5.54906 7.20982 6.43325
#
# Compressibility (1/GPa) = 0.02862871
#
# Stress axis : x y z
#
# Youngs Moduli (GPa) = 153.00463 44.90682 95.92399
#
# Poissons Ratio (x) = 0.10365 0.16835
# Poissons Ratio (y) = 0.35316 0.11865
# Poissons Ratio (z) = 0.26853 0.05555
#
# Static dielectric constant tensor:
#      x y z
#    x 1.997910 -0.050040 0.007310 
#    y -0.050040 1.968800 0.027670 
#    z 0.007310 0.027670 1.918340 
# 
# From -- ./inp_files/566662.got.cif
#   From: 2010.05.17/outbox.cif.g08.bks.cpg/sg2_284_cif.got.tgz:566662.got - 2010.06.03 11:33:40.
