data_PCOD9008164
_publ_section_title
;
Structure prediction by ZEFSAII (Michael W. Deem and Ramdas Pophale) SiO2 
 PCOD9008164
Probable space group: P -1
;
_chemical_formula_sum "Si O2"
_cell_formula_units_Z 14
_cell_length_a 9.684961
_cell_length_b 8.909868
_cell_length_c 11.627737
_cell_angle_alpha 137.350743
_cell_angle_beta 55.871435
_cell_angle_gamma 119.412273
_cell_volume 557.193135
_symmetry_space_group_name_H-M "P -1"
_symmetry_group_IT_number 2
_symmetry_cell_setting 'triclinic'
loop_
_space_group_symop_operation_xyz
x,y,z
-x,-y,-z
loop_
_atom_site_type_symbol
_atom_site_label
_atom_site_fract_x
_atom_site_fract_y
_atom_site_fract_z
Si Si1 0.196049 0.099429 0.455750
Si Si2 0.429067 0.796817 0.302714
Si Si3 0.645656 0.399899 0.538454
Si Si4 0.664252 0.398271 0.266885
Si Si5 0.840651 0.831418 0.740361
Si Si6 0.256934 0.301495 0.033913
Si Si7 0.979983 0.277326 0.962444
O O1 0.229550 0.354581 0.627210
O O2 0.245851 0.096011 0.296029
O O3 0.316118 0.964110 0.394450
O O4 0.000000 0.000000 0.500000
O O5 0.404471 0.781887 0.443364
O O6 0.343076 0.549669 0.163713
O O7 0.615730 0.810254 0.170356
O O8 0.629961 0.318662 0.368737
O O9 0.499841 0.562087 0.704324
O O10 0.821756 0.561748 0.568881
O O11 0.781012 0.248829 0.064438
O O12 0.782711 0.817990 0.892731
O O13 0.004732 0.025003 0.770198
O O14 0.089736 0.320753 0.049826
O O15 0.000000 0.500000 0.000000
#
# Coordination Sequence:
#
# PCOD9008164 Si02
#       7
#     2   2   2   2   2   2   2
#     4  11  23  40  61  90 122 160 202 246 302 358
#     4  10  21  39  64  88 122 160 199 249 297 357
#     4   9  21  41  60  88 122 161 204 244 300 359
#     4  10  22  39  61  89 124 160 200 248 300 358
#     4  10  23  40  62  87 121 160 201 249 300 358
#     4  10  22  39  60  93 122 155 203 249 301 354
#     4  12  23  39  63  91 123 157 199 253 302 357
#
# _framework density 25.125937
#
# number of rings (size 3 to 8) (size 9 to 14) (size 15 to 20)
#    0.000    1.714    0.000    3.857    0.000    8.571 
#    0.000    5.714    0.000    0.000    0.000    0.000 
#    0.000    0.000    0.000    0.000    0.000    0.000 
#
# Total GULP energy -78179.025960 kJ/mol
# GULP energy per Si atom -5584.216140 kJ/mol
# Density = 2.506875 g / cm^3
# Si number density = 25.125937 Si / 1000 Ang^3
#
#
#
# Elastic Constant Matrix: (Units=GPa)
#
#
# Indices 1 2 3 4 5 6 
#
# 1 110.5873 55.6660 23.5496 -13.4860 1.0057 -22.1562
# 2 55.6660 186.0074 32.7749 -1.8942 11.7213 -33.8158
# 3 23.5496 32.7749 69.6626 -10.0131 0.2054 -22.9578
# 4 -13.4860 -1.8942 -10.0131 31.5581 2.8482 21.5755
# 5 1.0057 11.7213 0.2054 2.8482 32.5126 -5.6367
# 6 -22.1562 -33.8158 -22.9578 21.5755 -5.6367 52.4644
#
#
#
# Elastic Compliance Matrix: (Units=1/GPa)
#
#
# Indices 1 2 3 4 5 6 
#
# 1 0.011506 -0.003006 -0.001712 0.003643 0.000547 0.000733
# 2 -0.003006 0.007405 -0.001629 -0.004214 -0.001440 0.004369
# 3 -0.001712 -0.001629 0.017726 0.000640 0.001492 0.005881
# 4 0.003643 -0.004214 0.000640 0.048531 -0.006588 -0.021563
# 5 0.000547 -0.001440 0.001492 -0.006588 0.032902 0.006200
# 6 0.000733 0.004369 0.005881 -0.021563 0.006200 0.034293
#
#
# Mechanical properties :
#
#
# Convention : Reuss Voigt Hill
#
# Bulk Modulus (GPa) = 41.76652 65.58205 53.67429
# Shear Modulus (GPa) = 28.89526 40.25815 34.57671
#
# Velocity S-wave (km/s) = 3.39487 4.00716 3.71366
# Velocity P-wave (km/s) = 5.65914 6.89694 6.30847
#
# Compressibility (1/GPa) = 0.02394262
#
# Stress axis : x y z
#
# Youngs Moduli (GPa) = 86.90787 135.04736 56.41508
#
# Poissons Ratio (x) = 0.40594 0.09658
# Poissons Ratio (y) = 0.26124 0.09192
# Poissons Ratio (z) = 0.14878 0.22005
#
# Static dielectric constant tensor:
#      x y z
#    x 1.963810 0.062030 0.017210 
#    y 0.062030 2.029720 -0.005120 
#    z 0.017210 -0.005120 2.057130 
# 
# From -- ./inp_files/189973.got.cif
#   From: 2010.05.17/outbox.cif.g08.bks.cpg/sg2_95_cif.got.tgz:189973.got - 2010.06.03 11:33:40.
