data_PCOD9008659
_publ_section_title
;
Structure prediction by ZEFSAII (Michael W. Deem and Ramdas Pophale) SiO2 
 PCOD9008659
Probable space group: P -1
;
_chemical_formula_sum "Si O2"
_cell_formula_units_Z 14
_cell_length_a 7.488424
_cell_length_b 7.195788
_cell_length_c 13.159676
_cell_angle_alpha 72.204645
_cell_angle_beta 57.927246
_cell_angle_gamma 91.408346
_cell_volume 556.577307
_symmetry_space_group_name_H-M "P -1"
_symmetry_group_IT_number 2
_symmetry_cell_setting 'triclinic'
loop_
_space_group_symop_operation_xyz
x,y,z
-x,-y,-z
loop_
_atom_site_type_symbol
_atom_site_label
_atom_site_fract_x
_atom_site_fract_y
_atom_site_fract_z
Si Si1 0.746855 0.910337 0.976350
Si Si2 0.243022 0.353610 0.418792
Si Si3 0.705173 0.289549 0.219194
Si Si4 0.670021 0.846858 0.373148
Si Si5 0.559832 0.915095 0.833934
Si Si6 0.084965 0.293426 0.856573
Si Si7 0.779373 0.225679 0.551732
O O1 0.532950 0.920503 0.102460
O O2 0.875916 0.793933 0.029975
O O3 0.882885 0.141000 0.891840
O O4 0.689731 0.827032 0.895216
O O5 0.476782 0.343058 0.309563
O O6 0.220282 0.226668 0.551428
O O7 0.233348 0.578843 0.411768
O O8 0.026332 0.260629 0.435899
O O9 0.737024 0.081976 0.290437
O O10 0.647656 0.237262 0.126839
O O11 0.891830 0.473654 0.168661
O O12 0.727659 0.733507 0.274912
O O13 0.408606 0.794239 0.472056
O O14 0.701167 0.033025 0.680009
#
# Coordination Sequence:
#
# PCOD9008659 Si02
#       7
#     2   2   2   2   2   2   2
#     4  10  21  41  68  87 127 177 205 271 328 376
#     4  11  22  39  68  93 133 175 213 258 333 381
#     4  11  23  40  66  99 131 166 218 272 309 396
#     4  11  22  42  64  95 135 171 208 273 320 393
#     4  10  21  41  63  92 130 166 217 266 324 375
#     4  11  22  41  67  94 127 168 220 262 325 383
#     4  10  21  39  65  93 127 174 215 257 317 398
#
# _framework density 25.153738000000001
#
# number of rings (size 3 to 8) (size 9 to 14) (size 15 to 20)
#    0.000    1.429    4.286    1.714    0.000    3.429 
#    0.000    1.429   12.571    0.000    0.000    0.000 
#    0.000    0.000    0.000    0.000    0.000    0.000 
#
# Total GULP energy -78306.691447 kJ/mol
# GULP energy per Si atom -5593.335103 kJ/mol
# Density = 2.509649 g / cm^3
# Si number density = 25.153738 Si / 1000 Ang^3
#
#
#
# Elastic Constant Matrix: (Units=GPa)
#
#
# Indices 1 2 3 4 5 6 
#
# 1 86.1776 9.2861 14.2260 -2.4227 3.7645 13.2819
# 2 9.2861 119.1823 9.2993 -11.5632 10.0510 0.7158
# 3 14.2260 9.2993 25.6895 11.5251 6.1602 2.0025
# 4 -2.4227 -11.5632 11.5251 28.0245 6.4136 -9.1805
# 5 3.7645 10.0510 6.1602 6.4136 30.0014 6.0172
# 6 13.2819 0.7158 2.0025 -9.1805 6.0172 33.2725
#
#
#
# Elastic Compliance Matrix: (Units=1/GPa)
#
#
# Indices 1 2 3 4 5 6 
#
# 1 0.013792 -0.000032 -0.008916 0.003482 0.000176 -0.004039
# 2 -0.000032 0.010232 -0.007059 0.009403 -0.004720 0.003665
# 3 -0.008916 -0.007059 0.061425 -0.031610 -0.000649 -0.008591
# 4 0.003482 0.009403 -0.031610 0.062853 -0.014603 0.020294
# 5 0.000176 -0.004720 -0.000649 -0.014603 0.040405 -0.011266
# 6 -0.004039 0.003665 -0.008591 0.020294 -0.011266 0.039742
#
#
# Mechanical properties :
#
#
# Convention : Reuss Voigt Hill
#
# Bulk Modulus (GPa) = 18.71358 32.96357 25.83857
# Shear Modulus (GPa) = 17.96785 31.47555 24.72170
#
# Velocity S-wave (km/s) = 2.67558 3.54125 3.13840
# Velocity P-wave (km/s) = 4.12320 5.46387 4.84018
#
# Compressibility (1/GPa) = 0.05343712
#
# Stress axis : x y z
#
# Youngs Moduli (GPa) = 72.50647 97.73236 16.27995
#
# Poissons Ratio (x) = 0.00310 0.14515
# Poissons Ratio (y) = 0.00230 0.11491
# Poissons Ratio (z) = 0.64644 0.68986
#
# Static dielectric constant tensor:
#      x y z
#    x 2.023150 0.013590 -0.060220 
#    y 0.013590 1.972420 0.022070 
#    z -0.060220 0.022070 2.005750 
# 
# From -- ./inp_files/373800.got.cif
#   From: 2010.05.17/outbox.cif.g08.bks.cpg/sg2_187_cif.got.tgz:373800.got - 2010.06.03 11:33:40.
