data_PCOD9008501
_publ_section_title
;
Structure prediction by ZEFSAII (Michael W. Deem and Ramdas Pophale) SiO2 
 PCOD9008501
Probable space group: P -1
;
_chemical_formula_sum "Si O2"
_cell_formula_units_Z 15
_cell_length_a 14.822643
_cell_length_b 9.369201
_cell_length_c 8.898926
_cell_angle_alpha 75.278135
_cell_angle_beta 39.337972
_cell_angle_gamma 80.315981
_cell_volume 756.869673
_symmetry_space_group_name_H-M "P -1"
_symmetry_group_IT_number 2
_symmetry_cell_setting 'triclinic'
loop_
_space_group_symop_operation_xyz
x,y,z
-x,-y,-z
loop_
_atom_site_type_symbol
_atom_site_label
_atom_site_fract_x
_atom_site_fract_y
_atom_site_fract_z
Si Si1 0.870732 0.433778 0.585634
Si Si2 0.268780 0.321391 0.461546
Si Si3 0.977417 0.139069 0.381959
Si Si4 0.430917 0.998930 0.846664
Si Si5 0.272698 0.243183 0.820461
Si Si6 0.580892 0.340255 0.138934
Si Si7 0.720200 0.974626 0.641342
Si Si8 0.500000 0.500000 0.500000
O O1 0.835081 0.547512 0.468882
O O2 0.909006 0.273726 0.520396
O O3 0.000000 0.500000 0.500000
O O4 0.723685 0.418398 0.871079
O O5 0.247694 0.251669 0.672108
O O6 0.434461 0.379061 0.232128
O O7 0.249723 0.193374 0.395964
O O8 0.862659 0.077005 0.424773
O O9 0.000000 0.000000 0.500000
O O10 0.124702 0.200096 0.105007
O O11 0.409279 0.834331 0.854755
O O12 0.595356 0.023074 0.678226
O O13 0.377664 0.115683 0.766364
O O14 0.342129 0.015059 0.112036
O O15 0.348568 0.397061 0.734183
O O16 0.553917 0.388046 0.330232
#
# Coordination Sequence:
#
# PCOD9008501 Si02
#       8
#     2   2   2   2   2   2   2   1
#     4  12  24  40  65  95 132 175 220 274 326 398
#     4  10  25  41  63  95 134 176 216 269 334 389
#     4  12  23  42  70  99 129 176 222 276 329 387
#     4  10  21  41  71  95 129 170 223 276 317 388
#     4  11  24  45  65  97 141 173 218 273 328 398
#     4  10  21  43  65  98 127 171 227 270 321 391
#     4  10  21  39  65 103 121 168 227 266 329 378
#     4  10  24  38  64  96 128 178 206 266 328 384
#
# _framework density 19.818470999999999
#
# number of rings (size 3 to 8) (size 9 to 14) (size 15 to 20)
#    0.000    1.333    2.667    2.000    1.867    8.000 
#    0.000    2.667    0.000    0.000    0.000    0.000 
#    0.000    0.000    0.000    0.000    0.000    0.000 
#
# Total GULP energy -83537.752580 kJ/mol
# GULP energy per Si atom -5569.183505 kJ/mol
# Density = 1.977336 g / cm^3
# Si number density = 19.818471 Si / 1000 Ang^3
#
#
#
# Elastic Constant Matrix: (Units=GPa)
#
#
# Indices 1 2 3 4 5 6 
#
# 1 101.2767 73.3825 50.2825 -12.4359 -8.5465 -0.5234
# 2 73.3825 120.3669 36.1322 10.0302 13.3245 0.9124
# 3 50.2825 36.1322 132.1069 -11.7412 -14.2060 8.2443
# 4 -12.4359 10.0302 -11.7412 24.0058 11.6826 -3.1797
# 5 -8.5465 13.3245 -14.2060 11.6826 42.6910 -5.1268
# 6 -0.5234 0.9124 8.2443 -3.1797 -5.1268 36.1112
#
#
#
# Elastic Compliance Matrix: (Units=1/GPa)
#
#
# Indices 1 2 3 4 5 6 
#
# 1 0.026802 -0.017318 -0.003602 0.017294 0.005311 0.003925
# 2 -0.017318 0.021252 -0.001135 -0.015593 -0.006551 -0.002832
# 3 -0.003602 -0.001135 0.009776 0.002139 0.002088 -0.001771
# 4 0.017294 -0.015593 0.002139 0.062431 -0.007493 0.004590
# 5 0.005311 -0.006551 0.002088 -0.007493 0.029676 0.003319
# 6 0.003925 -0.002832 -0.001771 0.004590 0.003319 0.029100
#
#
# Mechanical properties :
#
#
# Convention : Reuss Voigt Hill
#
# Bulk Modulus (GPa) = 72.87468 74.81610 73.84539
# Shear Modulus (GPa) = 21.95675 33.49182 27.72428
#
# Velocity S-wave (km/s) = 3.33211 4.11533 3.74426
# Velocity P-wave (km/s) = 7.18713 7.77264 7.48561
#
# Compressibility (1/GPa) = 0.01372219
#
# Stress axis : x y z
#
# Youngs Moduli (GPa) = 37.31048 47.05346 102.29081
#
# Poissons Ratio (x) = 0.81486 0.36842
# Poissons Ratio (y) = 0.64613 0.11608
# Poissons Ratio (z) = 0.13438 0.05340
#
# Static dielectric constant tensor:
#      x y z
#    x 1.708580 -0.016730 -0.006930 
#    y -0.016730 1.673360 -0.005470 
#    z -0.006930 -0.005470 1.714130 
# 
# From -- ./inp_files/294682.got.cif
#   From: 2010.05.17/outbox.cif.g08.bks.cpg/sg2_148_cif.got.tgz:294682.got - 2010.06.03 11:33:40.
