data_PCOD9008104
_publ_section_title
;
Structure prediction by ZEFSAII (Michael W. Deem and Ramdas Pophale) SiO2 
 PCOD9008104
Probable space group: P -1
;
_chemical_formula_sum "Si O2"
_cell_formula_units_Z 16
_cell_length_a 12.180127
_cell_length_b 10.052152
_cell_length_c 14.684813
_cell_angle_alpha 59.913756
_cell_angle_beta 117.085815
_cell_angle_gamma 64.794507
_cell_volume 731.661216
_symmetry_space_group_name_H-M "P -1"
_symmetry_group_IT_number 2
_symmetry_cell_setting 'triclinic'
loop_
_space_group_symop_operation_xyz
x,y,z
-x,-y,-z
loop_
_atom_site_type_symbol
_atom_site_label
_atom_site_fract_x
_atom_site_fract_y
_atom_site_fract_z
Si Si1 0.072793 0.101456 0.497817
Si Si2 0.247438 0.170389 0.088718
Si Si3 0.611516 0.772135 0.045716
Si Si4 0.668212 0.275545 0.724679
Si Si5 0.307714 0.810218 0.868812
Si Si6 0.619173 0.188547 0.460315
Si Si7 0.280289 0.305841 0.237011
Si Si8 0.966408 0.144623 0.132809
O O1 0.863816 0.435929 0.279831
O O2 0.152064 0.045091 0.649430
O O3 0.276536 0.905718 0.568383
O O4 0.000000 0.000000 0.500000
O O5 0.355726 0.171404 0.056060
O O6 0.961517 0.477930 0.875134
O O7 0.323101 0.137344 0.230920
O O8 0.330238 0.908028 0.191767
O O9 0.442571 0.805153 0.967421
O O10 0.500000 0.000000 0.000000
O O11 0.500000 0.500000 0.500000
O O12 0.572727 0.479784 0.700208
O O13 0.917678 0.040460 0.852875
O O14 0.157674 0.860643 0.859560
O O15 0.500000 0.500000 0.000000
O O16 0.492324 0.156947 0.425884
O O17 0.834064 0.993760 0.677691
O O18 0.200363 0.539748 0.065761
#
# Coordination Sequence:
#
# PCOD9008104 Si02
#       8
#     2   2   2   2   2   2   2   2
#     4  12  24  42  70 101 131 179 237 271 327 419
#     4  10  22  44  62  94 142 168 223 277 339 401
#     4  12  29  45  67 102 143 184 222 283 350 396
#     4   9  22  40  66  95 127 174 217 284 334 393
#     4  12  23  42  72 101 138 185 230 283 335 404
#     4  11  21  40  68  96 126 164 232 267 333 396
#     4  10  22  40  69  93 127 177 211 276 340 388
#     4  10  21  39  63  99 131 162 231 275 326 401
#
# _framework density 21.868044999999999
#
# number of rings (size 3 to 8) (size 9 to 14) (size 15 to 20)
#    0.000    1.250    2.500    3.000    1.750    4.500 
#    0.000   21.875    0.000    0.000    0.000    0.000 
#    0.000    0.000    0.000    0.000    0.000    0.000 
#
# Total GULP energy -89505.663706 kJ/mol
# GULP energy per Si atom -5594.103982 kJ/mol
# Density = 2.181827 g / cm^3
# Si number density = 21.868045 Si / 1000 Ang^3
#
#
#
# Elastic Constant Matrix: (Units=GPa)
#
#
# Indices 1 2 3 4 5 6 
#
# 1 162.2420 67.6562 31.9436 -3.7010 9.9316 2.9142
# 2 67.6562 126.5311 3.4937 -22.2831 14.3324 11.4209
# 3 31.9436 3.4937 34.8942 2.6033 11.5595 -2.6223
# 4 -3.7010 -22.2831 2.6033 33.4373 8.0782 -3.0956
# 5 9.9316 14.3324 11.5595 8.0782 33.8077 7.0244
# 6 2.9142 11.4209 -2.6223 -3.0956 7.0244 35.5348
#
#
#
# Elastic Compliance Matrix: (Units=1/GPa)
#
#
# Indices 1 2 3 4 5 6 
#
# 1 0.010455 -0.006273 -0.010053 -0.003251 0.003936 -0.000644
# 2 -0.006273 0.013882 0.006316 0.010005 -0.008395 -0.000950
# 3 -0.010053 0.006316 0.042812 0.004279 -0.016548 0.005598
# 4 -0.003251 0.010005 0.004279 0.039876 -0.015072 0.003820
# 5 0.003936 -0.008395 -0.016548 -0.015072 0.043042 -0.008667
# 6 -0.000644 -0.000950 0.005598 0.003820 -0.008667 0.030959
#
#
# Mechanical properties :
#
#
# Convention : Reuss Voigt Hill
#
# Bulk Modulus (GPa) = 21.21838 58.87268 40.04553
# Shear Modulus (GPa) = 23.06746 35.26090 29.16418
#
# Velocity S-wave (km/s) = 3.25137 4.01988 3.65587
# Velocity P-wave (km/s) = 4.88049 6.96607 6.01437
#
# Compressibility (1/GPa) = 0.04712894
#
# Stress axis : x y z
#
# Youngs Moduli (GPa) = 95.64475 72.03751 23.35792
#
# Poissons Ratio (x) = 0.45190 0.23482
# Poissons Ratio (y) = 0.59999 -0.14753
# Poissons Ratio (z) = 0.96151 -0.45499
#
# Static dielectric constant tensor:
#      x y z
#    x 1.889720 0.096880 0.171910 
#    y 0.096880 1.841190 0.155700 
#    z 0.171910 0.155700 2.131640 
# 
# From -- ./inp_files/515228.got.cif
#   From: 2010.05.17/outbox.cif.g08.bks.cpg/sg2_258_cif.got.tgz:515228.got - 2010.06.03 11:33:40.
