data_PCOD9008752
_publ_section_title
;
Structure prediction by ZEFSAII (Michael W. Deem and Ramdas Pophale) SiO2 
 PCOD9008752
Probable space group: P -1
;
_chemical_formula_sum "Si O2"
_cell_formula_units_Z 14
_cell_length_a 9.268317
_cell_length_b 8.538357
_cell_length_c 14.687488
_cell_angle_alpha 38.269105
_cell_angle_beta 105.585381
_cell_angle_gamma 112.038909
_cell_volume 666.601265
_symmetry_space_group_name_H-M "P -1"
_symmetry_group_IT_number 2
_symmetry_cell_setting 'triclinic'
loop_
_space_group_symop_operation_xyz
x,y,z
-x,-y,-z
loop_
_atom_site_type_symbol
_atom_site_label
_atom_site_fract_x
_atom_site_fract_y
_atom_site_fract_z
Si Si1 0.870283 0.225455 0.109853
Si Si2 0.341593 0.760733 0.089861
Si Si3 0.031041 0.270312 0.673864
Si Si4 0.672252 0.336369 0.461542
Si Si5 0.291476 0.761858 0.288456
Si Si6 0.570413 0.264695 0.148812
Si Si7 0.425714 0.249797 0.313466
O O1 0.734987 0.256480 0.140680
O O2 0.940697 0.983425 0.254493
O O3 0.789726 0.160650 0.026560
O O4 0.000000 0.500000 0.000000
O O5 0.294924 0.678235 0.223215
O O6 0.359943 0.493599 0.169244
O O7 0.500000 0.000000 0.000000
O O8 0.196226 0.434910 0.668971
O O9 0.000000 0.500000 0.500000
O O10 0.876315 0.184832 0.747591
O O11 0.681133 0.398412 0.543144
O O12 0.506542 0.303366 0.401101
O O13 0.691572 0.040859 0.586101
O O14 0.439118 0.012853 0.206077
O O15 0.561384 0.254939 0.261017
O O16 0.500000 0.500000 0.000000
#
# Coordination Sequence:
#
# PCOD9008752 Si02
#       7
#     2   2   2   2   2   2   2
#     4  12  26  40  69 102 136 172 227 279 336 392
#     4  12  23  40  66 101 130 172 226 277 328 401
#     4  10  23  44  64  92 136 177 216 274 335 396
#     4   9  21  41  64  91 131 178 218 272 336 391
#     4  10  22  40  66  92 127 179 219 272 330 398
#     4  11  20  40  65  94 130 176 215 273 336 391
#     4  10  21  39  65  96 133 168 225 276 326 402
#
# _framework density 21.00206
#
# number of rings (size 3 to 8) (size 9 to 14) (size 15 to 20)
#    0.000    1.429    2.857    1.714    4.000    2.286 
#   12.857    0.714    0.000    0.000    0.000    0.000 
#    0.000    0.000    0.000    0.000    0.000    0.000 
#
# Total GULP energy -78020.135954 kJ/mol
# GULP energy per Si atom -5572.866854 kJ/mol
# Density = 2.095426 g / cm^3
# Si number density = 21.002060 Si / 1000 Ang^3
#
#
#
# Elastic Constant Matrix: (Units=GPa)
#
#
# Indices 1 2 3 4 5 6 
#
# 1 133.7568 39.4182 50.2930 -19.0507 -24.6558 -17.6016
# 2 39.4182 61.4824 27.3725 3.4552 -8.6010 -2.0186
# 3 50.2930 27.3725 76.6118 -13.0350 5.4623 -8.3230
# 4 -19.0507 3.4552 -13.0350 58.5691 -0.2524 -6.4737
# 5 -24.6558 -8.6010 5.4623 -0.2524 38.5421 -4.5730
# 6 -17.6016 -2.0186 -8.3230 -6.4737 -4.5730 38.8836
#
#
#
# Elastic Compliance Matrix: (Units=1/GPa)
#
#
# Indices 1 2 3 4 5 6 
#
# 1 0.015260 -0.004997 -0.007471 0.004418 0.010568 0.007028
# 2 -0.004997 0.022674 -0.006089 -0.004626 0.002354 -0.002881
# 3 -0.007471 -0.006089 0.021256 0.002645 -0.009107 0.000221
# 4 0.004418 -0.004626 0.002645 0.020037 0.002253 0.005927
# 5 0.010568 0.002354 -0.009107 0.002253 0.035427 0.007499
# 6 0.007028 -0.002881 0.000221 0.005927 0.007499 0.030666
#
#
# Mechanical properties :
#
#
# Convention : Reuss Voigt Hill
#
# Bulk Modulus (GPa) = 45.29583 56.22426 50.76005
# Shear Modulus (GPa) = 26.34471 37.51678 31.93074
#
# Velocity S-wave (km/s) = 3.54557 4.23109 3.90341
# Velocity P-wave (km/s) = 6.19481 7.12029 6.67361
#
# Compressibility (1/GPa) = 0.02207709
#
# Stress axis : x y z
#
# Youngs Moduli (GPa) = 65.53096 44.10349 47.04552
#
# Poissons Ratio (x) = 0.22037 0.35146
# Poissons Ratio (y) = 0.32744 0.28646
# Poissons Ratio (z) = 0.48956 0.26855
#
# Static dielectric constant tensor:
#      x y z
#    x 1.773290 0.005390 -0.050150 
#    y 0.005390 1.792290 0.044140 
#    z -0.050150 0.044140 1.731800 
# 
# From -- ./inp_files/290883.got.cif
#   From: 2010.05.17/outbox.cif.g08.bks.cpg/sg2_146_cif.got.tgz:290883.got - 2010.06.03 11:33:40.
