data_PCOD9008858
_publ_section_title
;
Structure prediction by ZEFSAII (Michael W. Deem and Ramdas Pophale) SiO2 
 PCOD9008858
Probable space group: P -1
;
_chemical_formula_sum "Si O2"
_cell_formula_units_Z 16
_cell_length_a 13.448228
_cell_length_b 9.576814
_cell_length_c 9.338396
_cell_angle_alpha 105.660091
_cell_angle_beta 70.879051
_cell_angle_gamma 143.835064
_cell_volume 670.540421
_symmetry_space_group_name_H-M "P -1"
_symmetry_group_IT_number 2
_symmetry_cell_setting 'triclinic'
loop_
_space_group_symop_operation_xyz
x,y,z
-x,-y,-z
loop_
_atom_site_type_symbol
_atom_site_label
_atom_site_fract_x
_atom_site_fract_y
_atom_site_fract_z
Si Si1 0.323641 0.686277 0.670770
Si Si2 0.040163 0.374929 0.936044
Si Si3 0.848972 0.230598 0.619208
Si Si4 0.297847 0.485887 0.051245
Si Si5 0.206108 0.067467 0.879558
Si Si6 0.932498 0.657708 0.668308
Si Si7 0.440201 0.091748 0.115727
Si Si8 0.418615 0.094286 0.614151
O O1 0.134437 0.459250 0.761822
O O2 0.443752 0.752763 0.756158
O O3 0.373978 0.910701 0.688842
O O4 0.395370 0.704358 0.492313
O O5 0.186144 0.480356 0.009390
O O6 0.000000 0.500000 0.000000
O O7 0.875280 0.108076 0.996760
O O8 0.923194 0.474984 0.658877
O O9 0.711755 0.074015 0.507047
O O10 0.989345 0.267956 0.506606
O O11 0.748175 0.101253 0.780176
O O12 0.494948 0.725747 0.983222
O O13 0.237182 0.263756 0.967606
O O14 0.246626 0.468816 0.231878
O O15 0.369797 0.180473 0.751967
O O16 0.063991 0.889148 0.771503
O O17 0.500000 0.000000 0.000000
#
# Coordination Sequence:
#
# PCOD9008858 Si02
#       8
#     2   2   2   2   2   2   2   2
#     4   9  18  30  49  76  98 132 171 214 248 288
#     4  10  17  29  48  75  99 128 171 204 248 288
#     4   9  17  28  48  74 100 133 166 210 248 290
#     4  10  20  32  50  77 106 134 163 213 261 304
#     4  10  19  32  50  77 109 132 163 210 264 304
#     4   9  16  29  46  72 105 129 164 202 255 297
#     4  10  18  32  50  74 101 127 175 212 250 295
#     4   9  17  32  49  73 106 131 170 207 255 299
#
# _framework density 23.861350000000002
#
# number of rings (size 3 to 8) (size 9 to 14) (size 15 to 20)
#    0.000    2.500    2.500    1.500    0.000    0.000 
#    0.000   11.250    0.000    0.750    0.000    7.875 
#    0.000    0.000    0.000    0.000    0.000    0.000 
#
# Total GULP energy -89272.899580 kJ/mol
# GULP energy per Si atom -5579.556224 kJ/mol
# Density = 2.380704 g / cm^3
# Si number density = 23.861350 Si / 1000 Ang^3
#
#
#
# Elastic Constant Matrix: (Units=GPa)
#
#
# Indices 1 2 3 4 5 6 
#
# 1 52.7852 23.0841 44.9400 -2.1743 -3.6802 7.0979
# 2 23.0841 127.7424 96.2409 -14.7113 -21.9230 8.2021
# 3 44.9400 96.2409 240.5388 -24.2106 -35.3494 16.8289
# 4 -2.1743 -14.7113 -24.2106 49.7238 16.9832 -14.9582
# 5 -3.6802 -21.9230 -35.3494 16.9832 49.9196 -2.0522
# 6 7.0979 8.2021 16.8289 -14.9582 -2.0522 22.1339
#
#
#
# Elastic Compliance Matrix: (Units=1/GPa)
#
#
# Indices 1 2 3 4 5 6 
#
# 1 0.023442 -0.001475 -0.003777 -0.002762 -0.000903 -0.006049
# 2 -0.001475 0.011497 -0.003968 0.000734 0.001877 -0.000101
# 3 -0.003777 -0.003968 0.007046 0.000554 0.002696 -0.002051
# 4 -0.002762 0.000734 0.000554 0.029172 -0.008628 0.019107
# 5 -0.000903 0.001877 0.002696 -0.008628 0.025390 -0.005932
# 6 -0.006049 -0.000101 -0.002051 0.019107 -0.005932 0.061079
#
#
# Mechanical properties :
#
#
# Convention : Reuss Voigt Hill
#
# Bulk Modulus (GPa) = 42.47126 83.28850 62.87988
# Shear Modulus (GPa) = 27.18639 41.47555 34.33097
#
# Velocity S-wave (km/s) = 3.37909 4.17368 3.79723
# Velocity P-wave (km/s) = 5.74997 7.62936 6.75534
#
# Compressibility (1/GPa) = 0.02354533
#
# Stress axis : x y z
#
# Youngs Moduli (GPa) = 42.65822 86.97747 141.92625
#
# Poissons Ratio (x) = 0.12832 0.53604
# Poissons Ratio (y) = 0.06293 0.56312
# Poissons Ratio (z) = 0.16112 0.34510
#
# Static dielectric constant tensor:
#      x y z
#    x 2.004130 0.084340 -0.023600 
#    y 0.084340 1.901780 -0.083030 
#    z -0.023600 -0.083030 1.934870 
# 
# From -- ./inp_files/266839.got.cif
#   From: 2010.05.17/outbox.cif.g08.bks.cpg/sg2_134_cif.got.tgz:266839.got - 2010.06.03 11:33:40.
