data_PCOD9008153
_publ_section_title
;
Structure prediction by ZEFSAII (Michael W. Deem and Ramdas Pophale) SiO2 
 PCOD9008153
Probable space group: P -1
;
_chemical_formula_sum "Si O2"
_cell_formula_units_Z 14
_cell_length_a 5.132939
_cell_length_b 8.857941
_cell_length_c 16.423857
_cell_angle_alpha 64.221726
_cell_angle_beta 95.968834
_cell_angle_gamma 106.854447
_cell_volume 643.337839
_symmetry_space_group_name_H-M "P -1"
_symmetry_group_IT_number 2
_symmetry_cell_setting 'triclinic'
loop_
_space_group_symop_operation_xyz
x,y,z
-x,-y,-z
loop_
_atom_site_type_symbol
_atom_site_label
_atom_site_fract_x
_atom_site_fract_y
_atom_site_fract_z
Si Si1 0.683466 0.212019 0.705824
Si Si2 0.890547 0.423988 0.350499
Si Si3 0.495507 0.367421 0.213586
Si Si4 0.319091 0.850000 0.469086
Si Si5 0.139630 0.016437 0.796269
Si Si6 0.040795 0.639352 0.897343
Si Si7 0.943097 0.893966 0.651034
O O1 0.605643 0.171875 0.617349
O O2 0.429447 0.157273 0.771994
O O3 0.854019 0.412755 0.666587
O O4 0.893387 0.103836 0.766993
O O5 0.690991 0.472253 0.265900
O O6 0.732646 0.337417 0.446306
O O7 0.990138 0.260445 0.359297
O O8 0.692164 0.359920 0.146686
O O9 0.355530 0.187755 0.299543
O O10 0.228872 0.411592 0.157566
O O11 0.500000 0.000000 0.500000
O O12 0.055159 0.926055 0.433673
O O13 0.080835 0.836871 0.886732
O O14 0.135225 0.935715 0.724685
O O15 0.000000 0.500000 0.000000
#
# Coordination Sequence:
#
# PCOD9008153 Si02
#       7
#     2   2   2   2   2   2   2
#     4  11  26  39  60  91 133 170 210 250 312 371
#     4  12  23  39  61  91 131 173 211 258 308 371
#     4  11  21  38  64  95 123 162 203 254 322 363
#     4  11  21  38  62  91 126 172 223 267 295 346
#     4  10  21  42  62  88 121 160 207 256 311 369
#     4  11  22  40  71 101 120 148 210 269 311 375
#     4  10  21  39  64  87 124 169 219 256 305 357
#
# _framework density 21.761507000000002
#
# number of rings (size 3 to 8) (size 9 to 14) (size 15 to 20)
#    0.000    1.143    4.286    4.714    2.000    1.143 
#    0.000    4.286    0.000    5.143    0.000    0.000 
#    0.000    0.000    0.000    0.000    0.000    0.000 
#
# Total GULP energy -78053.256558 kJ/mol
# GULP energy per Si atom -5575.232611 kJ/mol
# Density = 2.171198 g / cm^3
# Si number density = 21.761507 Si / 1000 Ang^3
#
#
#
# Elastic Constant Matrix: (Units=GPa)
#
#
# Indices 1 2 3 4 5 6 
#
# 1 101.2331 2.7216 30.1340 -2.4876 -8.4027 12.4253
# 2 2.7216 67.8383 11.6330 -17.7835 6.3325 16.6085
# 3 30.1340 11.6330 108.3116 -22.5587 10.3015 5.7953
# 4 -2.4876 -17.7835 -22.5587 24.2540 2.6676 -0.2651
# 5 -8.4027 6.3325 10.3015 2.6676 26.7998 -1.9641
# 6 12.4253 16.6085 5.7953 -0.2651 -1.9641 34.1730
#
#
#
# Elastic Compliance Matrix: (Units=1/GPa)
#
#
# Indices 1 2 3 4 5 6 
#
# 1 0.011989 -0.000578 -0.004511 -0.004062 0.005813 -0.003011
# 2 -0.000578 0.023923 0.003849 0.022071 -0.010426 -0.012497
# 3 -0.004511 0.003849 0.014760 0.017146 -0.009937 -0.003171
# 4 -0.004062 0.022071 0.017146 0.075169 -0.021500 -0.012810
# 5 0.005813 -0.010426 -0.009937 -0.021500 0.048090 0.007236
# 6 -0.003011 -0.012497 -0.003171 -0.012810 0.007236 0.037286
#
#
# Mechanical properties :
#
#
# Convention : Reuss Voigt Hill
#
# Bulk Modulus (GPa) = 20.75089 40.70668 30.72878
# Shear Modulus (GPa) = 21.76174 32.57165 27.16669
#
# Velocity S-wave (km/s) = 3.16572 3.87299 3.53708
# Velocity P-wave (km/s) = 4.78735 6.22467 5.55271
#
# Compressibility (1/GPa) = 0.04819071
#
# Stress axis : x y z
#
# Youngs Moduli (GPa) = 83.41100 41.80089 67.74981
#
# Poissons Ratio (x) = 0.02416 0.30564
# Poissons Ratio (y) = 0.04820 -0.26074
# Poissons Ratio (z) = 0.37629 -0.16087
#
# Static dielectric constant tensor:
#      x y z
#    x 1.864670 0.019340 -0.011390 
#    y 0.019340 1.850990 -0.023830 
#    z -0.011390 -0.023830 1.864210 
# 
# From -- ./inp_files/122172.got.cif
#   From: 2010.05.17/outbox.cif.g08.bks.cpg/sg2_62_cif.got.tgz:122172.got - 2010.06.03 11:33:40.
