data_PCOD9008904
_publ_section_title
;
Structure prediction by ZEFSAII (Michael W. Deem and Ramdas Pophale) SiO2 
 PCOD9008904
Probable space group: P -1
;
_chemical_formula_sum "Si O2"
_cell_formula_units_Z 16
_cell_length_a 9.767640
_cell_length_b 6.173577
_cell_length_c 16.496397
_cell_angle_alpha 119.581102
_cell_angle_beta 125.403245
_cell_angle_gamma 71.507094
_cell_volume 704.451604
_symmetry_space_group_name_H-M "P -1"
_symmetry_group_IT_number 2
_symmetry_cell_setting 'triclinic'
loop_
_space_group_symop_operation_xyz
x,y,z
-x,-y,-z
loop_
_atom_site_type_symbol
_atom_site_label
_atom_site_fract_x
_atom_site_fract_y
_atom_site_fract_z
Si Si1 0.306539 0.422944 0.091308
Si Si2 0.615370 0.242060 0.086052
Si Si3 0.355356 0.806007 0.417816
Si Si4 0.093984 0.956286 0.938459
Si Si5 0.223943 0.934158 0.224690
Si Si6 0.194681 0.669188 0.666961
Si Si7 0.885579 0.879796 0.504389
Si Si8 0.524960 0.713759 0.700382
O O1 0.466109 0.447178 0.090668
O O2 0.211766 0.684658 0.121873
O O3 0.385177 0.336258 0.190134
O O4 0.177168 0.212682 0.986218
O O5 0.735847 0.247183 0.207071
O O6 0.745331 0.235535 0.054246
O O7 0.500000 0.000000 0.000000
O O8 0.243664 0.852253 0.308011
O O9 0.435560 0.529286 0.386173
O O10 0.500000 0.000000 0.500000
O O11 0.242261 0.899660 0.470226
O O12 0.939979 0.891417 0.815784
O O13 0.000000 0.000000 0.000000
O O14 0.388895 0.063087 0.273583
O O15 0.197586 0.367892 0.604277
O O16 0.330734 0.754798 0.663520
O O17 0.010124 0.778134 0.600438
O O18 0.000000 0.000000 0.500000
#
# Coordination Sequence:
#
# PCOD9008904 Si02
#       8
#     2   2   2   2   2   2   2   2
#     4   9  20  40  61  91 128 165 206 250 311 375
#     4   9  20  39  67  90 127 167 202 259 316 373
#     4  11  24  42  61  94 124 160 211 258 311 376
#     4  11  20  38  65  94 127 163 209 258 309 371
#     4  11  23  38  67  91 127 168 206 260 316 365
#     4  10  22  42  65  92 131 166 209 261 317 380
#     4  11  25  42  64  94 127 168 212 261 317 372
#     4  10  21  39  66  92 123 163 210 257 311 375
#
# _framework density 22.712700999999999
#
# number of rings (size 3 to 8) (size 9 to 14) (size 15 to 20)
#    0.000    1.750    2.500    1.125    1.750    3.500 
#    0.000    0.625    5.500    0.000    0.000    0.000 
#    0.000    0.000    0.000    0.000    0.000    0.000 
#
# Total GULP energy -89347.996430 kJ/mol
# GULP energy per Si atom -5584.249777 kJ/mol
# Density = 2.266101 g / cm^3
# Si number density = 22.712701 Si / 1000 Ang^3
#
#
#
# Elastic Constant Matrix: (Units=GPa)
#
#
# Indices 1 2 3 4 5 6 
#
# 1 168.2722 -5.5456 12.2563 1.6972 -11.8231 -5.6779
# 2 -5.5456 18.0236 2.5315 -2.2164 -9.4985 -1.0409
# 3 12.2563 2.5315 97.9014 -0.2184 -0.9059 -3.6355
# 4 1.6972 -2.2164 -0.2184 31.3409 1.7825 4.7421
# 5 -11.8231 -9.4985 -0.9059 1.7825 32.1983 4.4361
# 6 -5.6779 -1.0409 -3.6355 4.7421 4.4361 29.0348
#
#
#
# Elastic Compliance Matrix: (Units=1/GPa)
#
#
# Indices 1 2 3 4 5 6 
#
# 1 0.006400 0.003865 -0.000840 -0.000397 0.003374 0.000834
# 2 0.003865 0.068710 -0.002087 0.003548 0.021560 -0.000916
# 3 -0.000840 -0.002087 0.010411 -0.000168 -0.000789 0.001212
# 4 -0.000397 0.003548 -0.000168 0.032996 -0.000196 -0.005331
# 5 0.003374 0.021560 -0.000789 -0.000196 0.039284 -0.004636
# 6 0.000834 -0.000916 0.001212 -0.005331 -0.004636 0.036303
#
#
# Mechanical properties :
#
#
# Convention : Reuss Voigt Hill
#
# Bulk Modulus (GPa) = 11.44208 33.63129 22.53668
# Shear Modulus (GPa) = 22.58755 36.84515 29.71635
#
# Velocity S-wave (km/s) = 3.15697 4.03206 3.62105
# Velocity P-wave (km/s) = 4.28221 6.04285 5.23705
#
# Compressibility (1/GPa) = 0.08739671
#
# Stress axis : x y z
#
# Youngs Moduli (GPa) = 156.23793 14.55389 96.05394
#
# Poissons Ratio (x) = -0.05624 0.08067
# Poissons Ratio (y) = -0.60379 0.20047
# Poissons Ratio (z) = 0.13122 0.03037
#
# Static dielectric constant tensor:
#      x y z
#    x 1.832930 -0.012960 -0.030060 
#    y -0.012960 1.857360 -0.035340 
#    z -0.030060 -0.035340 1.856890 
# 
# From -- ./inp_files/47856.got.cif
#   From: 2010.05.17/outbox.cif.g08.bks.cpg/sg2_24_cif.got.tgz:47856.got - 2010.06.03 11:33:40.
