data_PCOD9008168
_publ_section_title
;
Structure prediction by ZEFSAII (Michael W. Deem and Ramdas Pophale) SiO2 
 PCOD9008168
Probable space group: P -1
;
_chemical_formula_sum "Si O2"
_cell_formula_units_Z 16
_cell_length_a 5.265530
_cell_length_b 20.087843
_cell_length_c 20.415058
_cell_angle_alpha 152.414210
_cell_angle_beta 48.475711
_cell_angle_gamma 119.738027
_cell_volume 722.071195
_symmetry_space_group_name_H-M "P -1"
_symmetry_group_IT_number 2
_symmetry_cell_setting 'triclinic'
loop_
_space_group_symop_operation_xyz
x,y,z
-x,-y,-z
loop_
_atom_site_type_symbol
_atom_site_label
_atom_site_fract_x
_atom_site_fract_y
_atom_site_fract_z
Si Si1 0.627558 0.599797 0.010698
Si Si2 0.140082 0.917333 0.165016
Si Si3 0.493289 0.814592 0.500360
Si Si4 0.536560 0.668630 0.642658
Si Si5 0.756252 0.225245 0.357508
Si Si6 0.742444 0.086586 0.997160
Si Si7 0.589092 0.117221 0.767125
Si Si8 0.745809 0.521462 0.125220
O O1 0.592121 0.527635 0.883795
O O2 0.024115 0.582127 0.949479
O O3 0.500000 0.500000 0.000000
O O4 0.363579 0.764038 0.191162
O O5 0.387013 0.890673 0.036174
O O6 0.278465 0.867662 0.169651
O O7 0.834553 0.844550 0.128393
O O8 0.913202 0.091343 0.360833
O O9 0.497161 0.740319 0.506191
O O10 0.634565 0.689298 0.314403
O O11 0.698019 0.943766 0.577911
O O12 0.500000 0.500000 0.500000
O O13 0.078314 0.302963 0.382487
O O14 0.412834 0.732839 0.647749
O O15 0.290099 0.765510 0.826298
O O16 0.892813 0.043295 0.178895
O O17 0.500000 0.000000 0.000000
O O18 0.000000 0.500000 0.000000
#
# Coordination Sequence:
#
# PCOD9008168 Si02
#       8
#     2   2   2   2   2   2   2   2
#     4  10  22  42  63  89 125 160 195 248 313 379
#     4   9  21  36  62  92 119 155 212 254 304 346
#     4   9  23  38  66  88 126 156 215 254 302 364
#     4  11  23  40  58  88 126 160 207 253 305 362
#     4  10  22  39  61  86 116 169 207 249 305 356
#     4   9  20  37  64  83 121 163 208 249 301 360
#     4  10  21  39  64  88 124 152 212 251 303 365
#     4  10  22  41  64  89 124 160 197 246 314 371
#
# _framework density 22.158479
#
# number of rings (size 3 to 8) (size 9 to 14) (size 15 to 20)
#    0.750    1.500    0.000    1.500    7.000    2.000 
#    6.750    5.000    0.000    0.000    0.000    0.000 
#    0.000    0.000    0.000    0.000    0.000    0.000 
#
# Total GULP energy -89086.532941 kJ/mol
# GULP energy per Si atom -5567.908309 kJ/mol
# Density = 2.210805 g / cm^3
# Si number density = 22.158479 Si / 1000 Ang^3
#
#
#
# Elastic Constant Matrix: (Units=GPa)
#
#
# Indices 1 2 3 4 5 6 
#
# 1 131.7584 35.7967 38.3818 -0.6135 27.9116 -43.4434
# 2 35.7967 75.2148 63.0778 7.6173 0.7938 -26.9332
# 3 38.3818 63.0778 161.6451 1.5699 29.2711 -11.2753
# 4 -0.6135 7.6173 1.5699 28.3011 2.6842 -1.9449
# 5 27.9116 0.7938 29.2711 2.6842 25.3285 0.6137
# 6 -43.4434 -26.9332 -11.2753 -1.9449 0.6137 41.1220
#
#
#
# Elastic Compliance Matrix: (Units=1/GPa)
#
#
# Indices 1 2 3 4 5 6 
#
# 1 0.020554 -0.006708 0.004146 0.006025 -0.028335 0.019166
# 2 -0.006708 0.033467 -0.015151 -0.009976 0.024671 0.009839
# 3 0.004146 -0.015151 0.014977 0.005360 -0.021950 -0.000855
# 4 0.006025 -0.009976 0.005360 0.039683 -0.016810 0.003429
# 5 -0.028335 0.024671 -0.021950 -0.016810 0.097615 -0.022046
# 6 0.019166 0.009839 -0.000855 0.003429 -0.022046 0.051266
#
#
# Mechanical properties :
#
#
# Convention : Reuss Voigt Hill
#
# Bulk Modulus (GPa) = 29.78568 71.45900 50.62234
# Shear Modulus (GPa) = 16.43767 34.37446 25.40607
#
# Velocity S-wave (km/s) = 2.72660 3.94293 3.38977
# Velocity P-wave (km/s) = 4.83567 7.28340 6.18190
#
# Compressibility (1/GPa) = 0.03357318
#
# Stress axis : x y z
#
# Youngs Moduli (GPa) = 48.65246 29.87993 66.76707
#
# Poissons Ratio (x) = 0.20042 -0.27683
# Poissons Ratio (y) = 0.32634 1.01162
# Poissons Ratio (z) = -0.20173 0.45272
#
# Static dielectric constant tensor:
#      x y z
#    x 2.033250 0.164740 -0.035690 
#    y 0.164740 2.016160 0.004780 
#    z -0.035690 0.004780 1.868820 
# 
# From -- ./inp_files/550573.got.cif
#   From: 2010.05.17/outbox.cif.g08.bks.cpg/sg2_276_cif.got.tgz:550573.got - 2010.06.03 11:33:40.
