data_PCOD9008041
_publ_section_title
;
Structure prediction by ZEFSAII (Michael W. Deem and Ramdas Pophale) SiO2 
 PCOD9008041
Probable space group: P -1
;
_chemical_formula_sum "Si O2"
_cell_formula_units_Z 13
_cell_length_a 5.455461
_cell_length_b 18.308209
_cell_length_c 5.042744
_cell_angle_alpha 84.045529
_cell_angle_beta 86.744789
_cell_angle_gamma 87.609504
_cell_volume 499.816621
_symmetry_space_group_name_H-M "P -1"
_symmetry_group_IT_number 2
_symmetry_cell_setting 'triclinic'
loop_
_space_group_symop_operation_xyz
x,y,z
-x,-y,-z
loop_
_atom_site_type_symbol
_atom_site_label
_atom_site_fract_x
_atom_site_fract_y
_atom_site_fract_z
Si Si1 0.914274 0.420826 0.447037
Si Si2 0.600942 0.267209 0.164118
Si Si3 0.384135 0.579560 0.035608
Si Si4 0.094269 0.952858 0.755483
Si Si5 0.050829 0.734136 0.358459
Si Si6 0.736939 0.846542 0.051810
Si Si7 0.500000 0.000000 0.000000
O O1 0.856560 0.419179 0.140469
O O2 0.058894 0.345179 0.543266
O O3 0.000000 0.500000 0.500000
O O4 0.672507 0.413661 0.652163
O O5 0.479904 0.349358 0.105586
O O6 0.736883 0.254294 0.440324
O O7 0.817501 0.269544 0.932176
O O8 0.420831 0.206635 0.096461
O O9 0.500000 0.500000 0.000000
O O10 0.000000 0.000000 0.500000
O O11 0.958168 0.878643 0.846822
O O12 0.382138 0.955967 0.770708
O O13 0.000000 0.000000 0.000000
O O14 0.852512 0.799723 0.305555
O O15 0.586195 0.918249 0.142944
#
# Coordination Sequence:
#
# PCOD9008041 Si02
#       7
#     2   2   2   2   2   2   1
#     4  10  21  39  63  94 132 177 225 279 329 403
#     4  10  24  44  65  98 139 176 224 282 327 402
#     4  10  21  39  63  95 133 177 226 276 337 391
#     4  10  24  43  66  96 126 166 212 267 334 398
#     4  10  24  44  64  98 138 177 224 276 339 393
#     4  11  24  43  72  97 132 177 224 274 343 400
#     4  10  24  44  68  98 128 166 218 278 328 402
#
# _framework density 26.009537999999999
#
# number of rings (size 3 to 8) (size 9 to 14) (size 15 to 20)
#    0.000    1.846    0.000    1.846    2.154   12.308 
#    0.000    0.000    0.000    0.000    0.000    0.000 
#    0.000    0.000    0.000    0.000    0.000    0.000 
#
# Total GULP energy -72438.667753 kJ/mol
# GULP energy per Si atom -5572.205212 kJ/mol
# Density = 2.595034 g / cm^3
# Si number density = 26.009538 Si / 1000 Ang^3
#
#
#
# Elastic Constant Matrix: (Units=GPa)
#
#
# Indices 1 2 3 4 5 6 
#
# 1 40.6778 52.3389 33.2712 -11.2634 11.0071 16.8121
# 2 52.3389 238.9873 52.5278 -49.1692 27.9893 23.7355
# 3 33.2712 52.5278 144.7330 -7.6562 23.4221 -3.9760
# 4 -11.2634 -49.1692 -7.6562 60.2774 -13.4128 12.4905
# 5 11.0071 27.9893 23.4221 -13.4128 41.3154 3.7322
# 6 16.8121 23.7355 -3.9760 12.4905 3.7322 56.4562
#
#
#
# Elastic Compliance Matrix: (Units=1/GPa)
#
#
# Indices 1 2 3 4 5 6 
#
# 1 0.045886 -0.005718 -0.008441 0.005390 -0.000641 -0.013005
# 2 -0.005718 0.006936 -0.000861 0.004738 -0.000945 -0.002259
# 3 -0.008441 -0.000861 0.009789 -0.002863 -0.004050 0.004466
# 4 0.005390 0.004738 -0.002863 0.024360 0.005751 -0.009568
# 5 -0.000641 -0.000945 -0.004050 0.005751 0.029441 -0.002916
# 6 -0.013005 -0.002259 0.004466 -0.009568 -0.002916 0.025160
#
#
# Mechanical properties :
#
#
# Convention : Reuss Voigt Hill
#
# Bulk Modulus (GPa) = 30.70402 77.85265 54.27834
# Shear Modulus (GPa) = 27.40179 50.69382 39.04780
#
# Velocity S-wave (km/s) = 3.24933 4.41959 3.87885
# Velocity P-wave (km/s) = 5.09000 7.48606 6.40114
#
# Compressibility (1/GPa) = 0.03256902
#
# Stress axis : x y z
#
# Youngs Moduli (GPa) = 21.79314 144.18165 102.15542
#
# Poissons Ratio (x) = 0.82447 0.86233
# Poissons Ratio (y) = 0.12462 0.08798
# Poissons Ratio (z) = 0.18396 0.12417
#
# Static dielectric constant tensor:
#      x y z
#    x 2.306740 -0.036240 -0.032900 
#    y -0.036240 2.090450 -0.034630 
#    z -0.032900 -0.034630 1.973080 
# 
# From -- ./inp_files/6347.got.cif
#   From: 2010.05.17/outbox.cif.g08.bks.cpg/sg2_4_cif.got.tgz:6347.got - 2010.06.03 11:33:40.
