data_PCOD9008960
_publ_section_title
;
Structure prediction by ZEFSAII (Michael W. Deem and Ramdas Pophale) SiO2 
 PCOD9008960
Probable space group: P -1
;
_chemical_formula_sum "Si O2"
_cell_formula_units_Z 16
_cell_length_a 19.490441
_cell_length_b 6.939174
_cell_length_c 24.566955
_cell_angle_alpha 69.221739
_cell_angle_beta 159.341457
_cell_angle_gamma 124.198208
_cell_volume 785.214812
_symmetry_space_group_name_H-M "P -1"
_symmetry_group_IT_number 2
_symmetry_cell_setting 'triclinic'
loop_
_space_group_symop_operation_xyz
x,y,z
-x,-y,-z
loop_
_atom_site_type_symbol
_atom_site_label
_atom_site_fract_x
_atom_site_fract_y
_atom_site_fract_z
Si Si1 0.014714 0.447133 0.380145
Si Si2 0.287102 0.773538 0.657322
Si Si3 0.288464 0.265604 0.025409
Si Si4 0.725620 0.928895 0.294044
Si Si5 0.119719 0.908740 0.350042
Si Si6 0.131608 0.262188 0.030500
Si Si7 0.572170 0.994791 0.615530
Si Si8 0.646860 0.594003 0.443492
O O1 0.221104 0.699946 0.552202
O O2 0.941846 0.587484 0.274457
O O3 0.164863 0.382749 0.463142
O O4 0.786763 0.159109 0.274296
O O5 0.531385 0.799390 0.847836
O O6 0.000000 0.500000 0.500000
O O7 0.351009 0.033191 0.708287
O O8 0.490175 0.606779 0.131876
O O9 0.209229 0.215422 0.035223
O O10 0.033396 0.102350 0.813245
O O11 0.000000 0.000000 0.500000
O O12 0.394724 0.005071 0.522830
O O13 0.188482 0.128409 0.424417
O O14 0.401134 0.525100 0.236671
O O15 0.892540 0.246182 0.840981
O O16 0.000000 0.000000 0.000000
O O17 0.479359 0.689429 0.587226
O O18 0.500000 0.000000 0.500000
#
# Coordination Sequence:
#
# PCOD9008960 Si02
#       8
#     2   2   2   2   2   2   2   2
#     4  10  22  40  64  95 134 170 219 272 321 397
#     4  10  21  39  66  95 121 169 222 266 322 390
#     4  12  23  43  66  98 133 172 222 273 327 393
#     4  11  22  40  70  95 127 171 221 275 327 378
#     4  11  26  40  64  99 138 176 211 274 339 387
#     4  10  21  42  68  94 128 174 218 272 318 385
#     4  10  21  43  65  93 137 166 221 276 323 389
#     4  10  22  42  66  94 134 176 215 268 331 389
#
# _framework density 20.376591000000001
#
# number of rings (size 3 to 8) (size 9 to 14) (size 15 to 20)
#    0.000    1.500    5.000    0.000    3.500    3.500 
#    0.000    4.375    0.000    0.000    0.000    0.000 
#    0.000    0.000    0.000    0.000    0.000    0.000 
#
# Total GULP energy -89322.019832 kJ/mol
# GULP energy per Si atom -5582.626240 kJ/mol
# Density = 2.033021 g / cm^3
# Si number density = 20.376591 Si / 1000 Ang^3
#
#
#
# Elastic Constant Matrix: (Units=GPa)
#
#
# Indices 1 2 3 4 5 6 
#
# 1 118.0823 43.9246 42.2237 -4.7328 -6.6479 -4.2283
# 2 43.9246 59.4380 24.4357 -5.2181 2.0564 -11.6517
# 3 42.2237 24.4357 108.0027 -13.9142 -10.9553 -12.1711
# 4 -4.7328 -5.2181 -13.9142 28.3941 -2.5510 -1.4376
# 5 -6.6479 2.0564 -10.9553 -2.5510 31.4469 0.2098
# 6 -4.2283 -11.6517 -12.1711 -1.4376 0.2098 47.4809
#
#
#
# Elastic Compliance Matrix: (Units=1/GPa)
#
#
# Indices 1 2 3 4 5 6 
#
# 1 0.012860 -0.008717 -0.003165 -0.000912 0.002124 -0.001842
# 2 -0.008717 0.025362 -0.001888 0.002177 -0.004016 0.005047
# 3 -0.003165 -0.001888 0.012376 0.005699 0.004211 0.002581
# 4 -0.000912 0.002177 0.005699 0.038844 0.004781 0.003069
# 5 0.002124 -0.004016 0.004211 0.004781 0.034364 0.000276
# 6 -0.001842 0.005047 0.002581 0.003069 0.000276 0.022889
#
#
# Mechanical properties :
#
#
# Convention : Reuss Voigt Hill
#
# Bulk Modulus (GPa) = 43.37063 56.29901 49.83482
# Shear Modulus (GPa) = 27.48427 33.12698 30.30563
#
# Velocity S-wave (km/s) = 3.67661 4.03642 3.86071
# Velocity P-wave (km/s) = 6.27328 7.02942 6.66209
#
# Compressibility (1/GPa) = 0.02305708
#
# Stress axis : x y z
#
# Youngs Moduli (GPa) = 77.75978 39.42905 80.80248
#
# Poissons Ratio (x) = 0.34371 0.25574
# Poissons Ratio (y) = 0.67784 0.15258
# Poissons Ratio (z) = 0.24611 0.07445
#
# Static dielectric constant tensor:
#      x y z
#    x 1.738630 0.039460 0.024910 
#    y 0.039460 1.755080 0.043240 
#    z 0.024910 0.043240 1.853160 
# 
# From -- ./inp_files/612654.got.cif
#   From: 2010.05.17/outbox.cif.g08.bks.cpg/sg2_307_cif.got.tgz:612654.got - 2010.06.03 11:33:40.
