data_PCOD9008491
_publ_section_title
;
Structure prediction by ZEFSAII (Michael W. Deem and Ramdas Pophale) SiO2 
 PCOD9008491
Probable space group: P -1
;
_chemical_formula_sum "Si O2"
_cell_formula_units_Z 14
_cell_length_a 9.327143
_cell_length_b 12.391152
_cell_length_c 8.799949
_cell_angle_alpha 47.067776
_cell_angle_beta 65.935139
_cell_angle_gamma 74.770686
_cell_volume 679.746693
_symmetry_space_group_name_H-M "P -1"
_symmetry_group_IT_number 2
_symmetry_cell_setting 'triclinic'
loop_
_space_group_symop_operation_xyz
x,y,z
-x,-y,-z
loop_
_atom_site_type_symbol
_atom_site_label
_atom_site_fract_x
_atom_site_fract_y
_atom_site_fract_z
Si Si1 0.591921 0.647638 0.762664
Si Si2 0.585949 0.151997 0.862588
Si Si3 0.929343 0.591389 0.581742
Si Si4 0.682377 0.311578 0.363664
Si Si5 0.971161 0.318254 0.015777
Si Si6 0.317579 0.333290 0.962898
Si Si7 0.906342 0.149310 0.889821
O O1 0.742255 0.606712 0.636764
O O2 0.464666 0.732858 0.639412
O O3 0.500000 0.500000 0.000000
O O4 0.659911 0.714094 0.825655
O O5 0.663467 0.226453 0.609595
O O6 0.456848 0.261665 0.878076
O O7 0.724469 0.127889 0.946722
O O8 0.500000 0.000000 0.000000
O O9 0.000000 0.500000 0.500000
O O10 0.013065 0.748736 0.373953
O O11 0.961176 0.493226 0.810636
O O12 0.842756 0.284020 0.231833
O O13 0.672009 0.488445 0.223866
O O14 0.925837 0.232369 0.963128
O O15 0.147049 0.285565 0.020708
O O16 0.000000 0.000000 0.000000
#
# Coordination Sequence:
#
# PCOD9008491 Si02
#       7
#     2   2   2   2   2   2   2
#     4  10  21  39  65 101 135 163 212 271 328 378
#     4  12  28  46  64  97 132 177 222 268 326 394
#     4  10  22  37  71  97 132 167 222 265 329 381
#     4  11  24  42  70  99 135 167 218 274 329 384
#     4  11  22  44  68 104 129 169 217 275 327 388
#     4  11  23  41  71  99 135 164 220 271 330 388
#     4  11  26  46  68  92 136 179 219 264 329 392
#
# _framework density 20.595907
#
# number of rings (size 3 to 8) (size 9 to 14) (size 15 to 20)
#    0.000    1.143    2.857    3.429   14.000    0.000 
#    2.571    2.857    0.000    0.000    0.000    0.000 
#    0.000    0.000    0.000    0.000    0.000    0.000 
#
# Total GULP energy -78271.233411 kJ/mol
# GULP energy per Si atom -5590.802387 kJ/mol
# Density = 2.054903 g / cm^3
# Si number density = 20.595907 Si / 1000 Ang^3
#
#
#
# Elastic Constant Matrix: (Units=GPa)
#
#
# Indices 1 2 3 4 5 6 
#
# 1 208.3978 57.4217 57.7618 12.2374 -8.5467 0.1303
# 2 57.4217 93.3925 67.6107 6.4900 -9.0164 -2.9948
# 3 57.7618 67.6107 92.0603 23.5211 -9.2951 -13.3007
# 4 12.2374 6.4900 23.5211 33.0887 -4.8545 -4.7250
# 5 -8.5467 -9.0164 -9.2951 -4.8545 34.9820 10.6426
# 6 0.1303 -2.9948 -13.3007 -4.7250 10.6426 35.2144
#
#
#
# Elastic Compliance Matrix: (Units=1/GPa)
#
#
# Indices 1 2 3 4 5 6 
#
# 1 0.006048 -0.001871 -0.002498 -0.000183 0.000722 -0.001368
# 2 -0.001871 0.027245 -0.022014 0.010757 0.003956 -0.005743
# 3 -0.002498 -0.022014 0.034355 -0.018206 -0.002555 0.009443
# 4 -0.000183 0.010757 -0.018206 0.041495 0.004150 -0.001647
# 5 0.000722 0.003956 -0.002555 0.004150 0.032709 -0.009960
# 6 -0.001368 -0.005743 0.009443 -0.001647 -0.009960 0.034270
#
#
# Mechanical properties :
#
#
# Convention : Reuss Voigt Hill
#
# Bulk Modulus (GPa) = 67.19852 84.38213 75.79033
# Shear Modulus (GPa) = 21.38139 34.72745 28.05442
#
# Velocity S-wave (km/s) = 3.22551 4.11071 3.69472
# Velocity P-wave (km/s) = 6.82421 7.97433 7.42158
#
# Compressibility (1/GPa) = 0.01488128
#
# Stress axis : x y z
#
# Youngs Moduli (GPa) = 165.34965 36.70412 29.10788
#
# Poissons Ratio (x) = 0.06869 0.07272
# Poissons Ratio (y) = 0.30942 0.64077
# Poissons Ratio (z) = 0.41307 0.80799
#
# Static dielectric constant tensor:
#      x y z
#    x 1.756930 0.030890 0.015650 
#    y 0.030890 1.734870 -0.001580 
#    z 0.015650 -0.001580 1.727980 
# 
# From -- ./inp_files/156740.got.cif
#   From: 2010.05.17/outbox.cif.g08.bks.cpg/sg2_79_cif.got.tgz:156740.got - 2010.06.03 11:33:40.
