data_PCOD9008007
_publ_section_title
;
Structure prediction by ZEFSAII (Michael W. Deem and Ramdas Pophale) SiO2 
 PCOD9008007
Probable space group: P -1
;
_chemical_formula_sum "Si O2"
_cell_formula_units_Z 16
_cell_length_a 14.769697
_cell_length_b 19.761815
_cell_length_c 8.990096
_cell_angle_alpha 76.299606
_cell_angle_beta 88.588002
_cell_angle_gamma 19.888789
_cell_volume 694.275981
_symmetry_space_group_name_H-M "P -1"
_symmetry_group_IT_number 2
_symmetry_cell_setting 'triclinic'
loop_
_space_group_symop_operation_xyz
x,y,z
-x,-y,-z
loop_
_atom_site_type_symbol
_atom_site_label
_atom_site_fract_x
_atom_site_fract_y
_atom_site_fract_z
Si Si1 0.927747 0.966307 0.451515
Si Si2 0.246862 0.500162 0.082866
Si Si3 0.316291 0.695727 0.304683
Si Si4 0.415102 0.522265 0.139472
Si Si5 0.282898 0.466732 0.743586
Si Si6 0.977823 0.558116 0.122389
Si Si7 0.309070 0.004430 0.473398
Si Si8 0.334893 0.277399 0.690285
O O1 0.016382 0.931965 0.304667
O O2 0.230284 0.764073 0.651973
O O3 0.535812 0.269364 0.314075
O O4 0.927151 0.883188 0.517492
O O5 0.195349 0.618539 0.060638
O O6 0.975897 0.641808 0.050288
O O7 0.343479 0.418800 0.945775
O O8 0.500000 0.500000 0.500000
O O9 0.235842 0.710397 0.155251
O O10 0.498609 0.632018 0.284825
O O11 0.500000 0.500000 0.000000
O O12 0.332534 0.359021 0.705831
O O13 0.893471 0.776995 0.589998
O O14 0.331749 0.272808 0.326667
O O15 0.683408 0.752904 0.141311
O O16 0.000000 0.500000 0.000000
O O17 0.377749 0.947836 0.324386
O O18 0.000000 0.500000 0.500000
#
# Coordination Sequence:
#
# PCOD9008007 Si02
#       8
#     2   2   2   2   2   2   2   2
#     4  10  22  42  61  95 138 175 219 266 334 393
#     4  11  23  39  66  94 131 181 214 278 334 387
#     4  10  21  39  63  93 133 172 215 266 326 393
#     4  11  20  39  63  95 132 168 223 266 317 406
#     4  12  22  44  68  98 134 174 226 271 336 394
#     4  10  21  44  66  92 133 166 222 284 329 390
#     4  10  22  43  70  95 128 178 218 271 339 391
#     4  10  24  42  69  95 127 170 227 279 328 390
#
# _framework density 23.045590000000001
#
# number of rings (size 3 to 8) (size 9 to 14) (size 15 to 20)
#    0.000    1.500    5.000    0.375    0.000    9.500 
#    4.500    0.625    0.000    0.000    0.000    0.000 
#    0.000    0.000    0.000    0.000    0.000    0.000 
#
# Total GULP energy -89205.814291 kJ/mol
# GULP energy per Si atom -5575.363393 kJ/mol
# Density = 2.299314 g / cm^3
# Si number density = 23.045590 Si / 1000 Ang^3
#
#
#
# Elastic Constant Matrix: (Units=GPa)
#
#
# Indices 1 2 3 4 5 6 
#
# 1 180.2948 52.9459 27.5056 32.8745 10.1594 -17.5634
# 2 52.9459 92.6480 17.8316 37.6401 -0.4362 -15.6772
# 3 27.5056 17.8316 95.9137 15.4436 9.6330 -15.4552
# 4 32.8745 37.6401 15.4436 46.7873 -2.2404 -4.4712
# 5 10.1594 -0.4362 9.6330 -2.2404 32.1858 17.0002
# 6 -17.5634 -15.6772 -15.4552 -4.4712 17.0002 23.1143
#
#
#
# Elastic Compliance Matrix: (Units=1/GPa)
#
#
# Indices 1 2 3 4 5 6 
#
# 1 0.008471 -0.000655 0.002083 -0.005246 -0.011506 0.014833
# 2 -0.000655 0.020980 0.004309 -0.016222 -0.014792 0.024355
# 3 0.002083 0.004309 0.018031 -0.008935 -0.023633 0.032215
# 4 -0.005246 -0.016222 -0.008935 0.039272 0.022736 -0.030088
# 5 -0.011506 -0.014792 -0.023633 0.022736 0.096639 -0.101256
# 6 0.014833 0.024355 0.032215 -0.030088 -0.101256 0.161245
#
#
# Mechanical properties :
#
#
# Convention : Reuss Voigt Hill
#
# Bulk Modulus (GPa) = 16.96155 62.82476 39.89315
# Shear Modulus (GPa) = 14.17170 38.45571 26.31371
#
# Velocity S-wave (km/s) = 2.48249 4.08938 3.38274
# Velocity P-wave (km/s) = 3.94880 7.04398 5.71011
#
# Compressibility (1/GPa) = 0.05895688
#
# Stress axis : x y z
#
# Youngs Moduli (GPa) = 118.05273 47.66415 55.46038
#
# Poissons Ratio (x) = 0.03120 -0.11552
# Poissons Ratio (y) = 0.07728 -0.23900
# Poissons Ratio (z) = -0.24589 -0.20540
#
# Static dielectric constant tensor:
#      x y z
#    x 1.845090 0.034130 -0.027300 
#    y 0.034130 1.942880 0.022920 
#    z -0.027300 0.022920 1.814410 
# 
# From -- ./inp_files/318964.got.cif
#   From: 2010.05.17/outbox.cif.g08.bks.cpg/sg2_160_cif.got.tgz:318964.got - 2010.06.03 11:33:40.
