data_PCOD9008997
_publ_section_title
;
Structure prediction by ZEFSAII (Michael W. Deem and Ramdas Pophale) SiO2 
 PCOD9008997
Probable space group: P -1
;
_chemical_formula_sum "Si O2"
_cell_formula_units_Z 16
_cell_length_a 11.440823
_cell_length_b 14.671824
_cell_length_c 9.118558
_cell_angle_alpha 65.809045
_cell_angle_beta 114.183121
_cell_angle_gamma 150.013350
_cell_volume 692.776691
_symmetry_space_group_name_H-M "P -1"
_symmetry_group_IT_number 2
_symmetry_cell_setting 'triclinic'
loop_
_space_group_symop_operation_xyz
x,y,z
-x,-y,-z
loop_
_atom_site_type_symbol
_atom_site_label
_atom_site_fract_x
_atom_site_fract_y
_atom_site_fract_z
Si Si1 0.135003 0.218681 0.452619
Si Si2 0.439796 0.181697 0.019516
Si Si3 0.587933 0.091442 0.325994
Si Si4 0.941786 0.480520 0.652587
Si Si5 0.648579 0.468239 0.470476
Si Si6 0.525033 0.403303 0.128745
Si Si7 0.579584 0.145846 0.845920
Si Si8 0.010604 0.045037 0.225267
O O1 0.389565 0.335965 0.467446
O O2 0.178357 0.352117 0.461518
O O3 0.006018 0.130680 0.288411
O O4 0.027271 0.076957 0.613953
O O5 0.424729 0.073430 0.185806
O O6 0.584683 0.362281 0.061010
O O7 0.546891 0.215111 0.898065
O O8 0.190674 0.066471 0.921966
O O9 0.840589 0.312464 0.312212
O O10 0.500000 0.000000 0.500000
O O11 0.573847 0.982434 0.292214
O O12 0.704168 0.391386 0.585383
O O13 0.848839 0.327991 0.803253
O O14 0.000000 0.500000 0.500000
O O15 0.682042 0.503394 0.290044
O O16 0.264193 0.202654 0.179908
O O17 0.500000 0.500000 0.000000
O O18 0.500000 0.000000 0.000000
#
# Coordination Sequence:
#
# PCOD9008997 Si02
#       8
#     2   2   2   2   2   2   2   2
#     4   9  20  41  66 102 129 171 230 289 347 417
#     4  11  24  44  67  97 142 186 225 296 352 421
#     4  11  25  46  71 104 141 184 247 295 350 427
#     4  12  24  43  73 102 139 188 236 292 355 423
#     4  10  22  40  67  97 134 175 229 286 345 421
#     4  11  24  41  62  98 140 180 229 282 350 429
#     4  10  25  47  67 102 141 180 239 297 347 422
#     4  10  21  39  66  96 132 176 226 279 354 410
#
# _framework density 23.095466999999999
#
# number of rings (size 3 to 8) (size 9 to 14) (size 15 to 20)
#    0.000    1.500    1.250    2.625    1.750    6.000 
#    4.500    0.000    0.000    0.000    0.000    0.000 
#    0.000    0.000    0.000    0.000    0.000    0.000 
#
# Total GULP energy -89337.011488 kJ/mol
# GULP energy per Si atom -5583.563218 kJ/mol
# Density = 2.304290 g / cm^3
# Si number density = 23.095467 Si / 1000 Ang^3
#
#
#
# Elastic Constant Matrix: (Units=GPa)
#
#
# Indices 1 2 3 4 5 6 
#
# 1 89.7702 19.6617 27.7033 1.4710 -27.6787 -27.9144
# 2 19.6617 107.4909 24.9852 -8.3708 -27.5527 -20.5710
# 3 27.7033 24.9852 113.2836 -4.7432 -23.9273 -8.4182
# 4 1.4710 -8.3708 -4.7432 35.2500 -1.5874 -5.0953
# 5 -27.6787 -27.5527 -23.9273 -1.5874 39.4489 10.5288
# 6 -27.9144 -20.5710 -8.4182 -5.0953 10.5288 33.6300
#
#
#
# Elastic Compliance Matrix: (Units=1/GPa)
#
#
# Indices 1 2 3 4 5 6 
#
# 1 0.018394 0.002319 -0.001840 0.001921 0.009907 0.013416
# 2 0.002319 0.013039 -0.000937 0.004364 0.008276 0.007736
# 3 -0.001840 -0.000937 0.010470 0.001367 0.004655 -0.000730
# 4 0.001921 0.004364 0.001367 0.030849 0.004354 0.007917
# 5 0.009907 0.008276 0.004655 0.004354 0.040424 0.002454
# 6 0.013416 0.007736 -0.000730 0.007917 0.002454 0.045851
#
#
# Mechanical properties :
#
#
# Convention : Reuss Voigt Hill
#
# Bulk Modulus (GPa) = 24.39784 50.58279 37.49032
# Shear Modulus (GPa) = 28.80090 37.54542 33.17316
#
# Velocity S-wave (km/s) = 3.53517 4.03632 3.79403
# Velocity P-wave (km/s) = 5.22016 6.60846 5.95491
#
# Compressibility (1/GPa) = 0.04098724
#
# Stress axis : x y z
#
# Youngs Moduli (GPa) = 54.36557 76.69575 95.50855
#
# Poissons Ratio (x) = -0.17789 0.17574
# Poissons Ratio (y) = -0.12610 0.08951
# Poissons Ratio (z) = 0.10003 0.07188
#
# Static dielectric constant tensor:
#      x y z
#    x 3.174520 -0.599020 0.901620 
#    y -0.599020 2.184720 -0.436860 
#    z 0.901620 -0.436860 2.586370 
# 
# From -- ./inp_files/272639.got.cif
#   From: 2010.05.17/outbox.cif.g08.bks.cpg/sg2_137_cif.got.tgz:272639.got - 2010.06.03 11:33:40.
