data_PCOD9008671
_publ_section_title
;
Structure prediction by ZEFSAII (Michael W. Deem and Ramdas Pophale) SiO2 
 PCOD9008671
Probable space group: P -1
;
_chemical_formula_sum "Si O2"
_cell_formula_units_Z 14
_cell_length_a 9.674732
_cell_length_b 8.102088
_cell_length_c 11.701097
_cell_angle_alpha 118.075718
_cell_angle_beta 116.904614
_cell_angle_gamma 44.937198
_cell_volume 561.030594
_symmetry_space_group_name_H-M "P -1"
_symmetry_group_IT_number 2
_symmetry_cell_setting 'triclinic'
loop_
_space_group_symop_operation_xyz
x,y,z
-x,-y,-z
loop_
_atom_site_type_symbol
_atom_site_label
_atom_site_fract_x
_atom_site_fract_y
_atom_site_fract_z
Si Si1 0.418860 0.856842 0.658247
Si Si2 0.591801 0.055219 0.916004
Si Si3 0.480999 0.793443 0.420301
Si Si4 0.974150 0.643788 0.363758
Si Si5 0.123513 0.098274 0.233996
Si Si6 0.165481 0.291643 0.909753
Si Si7 0.801594 0.292150 0.332757
O O1 0.571091 0.864427 0.789039
O O2 0.511763 0.697148 0.528667
O O3 0.308663 0.794027 0.675635
O O4 0.258556 0.125555 0.633537
O O5 0.746307 0.031260 0.874519
O O6 0.352602 0.279206 0.924512
O O7 0.705118 0.947331 0.042442
O O8 0.639374 0.569909 0.328757
O O9 0.500000 0.000000 0.500000
O O10 0.268384 0.917778 0.328960
O O11 0.062361 0.365955 0.315675
O O12 0.074341 0.698674 0.515263
O O13 0.968968 0.682252 0.237200
O O14 0.920676 0.154616 0.216896
O O15 0.000000 0.500000 0.000000
#
# Coordination Sequence:
#
# PCOD9008671 Si02
#       7
#     2   2   2   2   2   2   2
#     4  11  23  41  60  95 135 167 201 255 325 382
#     4  10  22  40  65  94 121 161 219 261 302 372
#     4  12  22  37  60  91 133 170 203 251 307 378
#     4  11  21  38  66  91 125 164 210 259 304 374
#     4  12  23  38  62  96 128 162 209 258 312 376
#     4  10  21  39  65  94 116 163 221 269 295 348
#     4  12  25  39  61  98 136 165 197 256 330 384
#
# _framework density 24.954077000000002
#
# number of rings (size 3 to 8) (size 9 to 14) (size 15 to 20)
#    0.000    0.857    5.714    2.143    2.000    0.000 
#    0.000    0.000    0.000    8.571    0.000    0.000 
#    0.000    0.000    0.000    0.000    0.000    0.000 
#
# Total GULP energy -77963.802703 kJ/mol
# GULP energy per Si atom -5568.843050 kJ/mol
# Density = 2.489728 g / cm^3
# Si number density = 24.954077 Si / 1000 Ang^3
#
#
#
# Elastic Constant Matrix: (Units=GPa)
#
#
# Indices 1 2 3 4 5 6 
#
# 1 133.0563 41.6097 30.6460 11.8404 -44.7951 -11.1986
# 2 41.6097 87.4491 14.8850 6.8691 1.0261 -28.9524
# 3 30.6460 14.8850 108.5186 2.7817 -24.2110 -5.5884
# 4 11.8404 6.8691 2.7817 25.6360 -19.9601 -19.4807
# 5 -44.7951 1.0261 -24.2110 -19.9601 50.2398 12.9228
# 6 -11.1986 -28.9524 -5.5884 -19.4807 12.9228 40.5451
#
#
#
# Elastic Compliance Matrix: (Units=1/GPa)
#
#
# Indices 1 2 3 4 5 6 
#
# 1 0.015677 -0.010252 0.000517 0.004434 0.017866 -0.006483
# 2 -0.010252 0.023051 -0.002744 0.001148 -0.015281 0.018673
# 3 0.000517 -0.002744 0.011092 0.005354 0.008063 -0.000285
# 4 0.004434 0.001148 0.005354 0.087525 0.032408 0.034506
# 5 0.017866 -0.015281 0.008063 0.032408 0.054633 -0.006708
# 6 -0.006483 0.018673 -0.000285 0.034506 -0.006708 0.054885
#
#
# Mechanical properties :
#
#
# Convention : Reuss Voigt Hill
#
# Bulk Modulus (GPa) = 40.21816 55.92283 48.07049
# Shear Modulus (GPa) = 17.85027 39.40974 28.63000
#
# Velocity S-wave (km/s) = 2.67746 3.97834 3.39087
# Velocity P-wave (km/s) = 5.07053 6.60014 5.88524
#
# Compressibility (1/GPa) = 0.02486439
#
# Stress axis : x y z
#
# Youngs Moduli (GPa) = 63.78781 43.38119 90.15274
#
# Poissons Ratio (x) = 0.44474 -0.04665
# Poissons Ratio (y) = 0.65394 0.24736
# Poissons Ratio (z) = -0.03300 0.11903
#
# Static dielectric constant tensor:
#      x y z
#    x 2.123470 -0.049400 0.009600 
#    y -0.049400 2.026360 -0.026040 
#    z 0.009600 -0.026040 2.412240 
# 
# From -- ./inp_files/378825.got.cif
#   From: 2010.05.17/outbox.cif.g08.bks.cpg/sg2_190_cif.got.tgz:378825.got - 2010.06.03 11:33:40.
