data_PCOD9008929
_publ_section_title
;
Structure prediction by ZEFSAII (Michael W. Deem and Ramdas Pophale) SiO2 
 PCOD9008929
Probable space group: P -1
;
_chemical_formula_sum "Si O2"
_cell_formula_units_Z 16
_cell_length_a 7.475435
_cell_length_b 15.443447
_cell_length_c 5.699441
_cell_angle_alpha 95.107403
_cell_angle_beta 103.738028
_cell_angle_gamma 74.084589
_cell_volume 614.455096
_symmetry_space_group_name_H-M "P -1"
_symmetry_group_IT_number 2
_symmetry_cell_setting 'triclinic'
loop_
_space_group_symop_operation_xyz
x,y,z
-x,-y,-z
loop_
_atom_site_type_symbol
_atom_site_label
_atom_site_fract_x
_atom_site_fract_y
_atom_site_fract_z
Si Si1 0.327478 0.090035 0.410166
Si Si2 0.158366 0.055476 0.837855
Si Si3 0.236581 0.717590 0.658024
Si Si4 0.486780 0.758480 0.373250
Si Si5 0.969885 0.607277 0.997504
Si Si6 0.793843 0.129195 0.017724
Si Si7 0.937647 0.608670 0.485294
Si Si8 0.585835 0.396709 0.938498
O O1 0.196828 0.092795 0.605868
O O2 0.380116 0.185700 0.458507
O O3 0.500000 0.000000 0.500000
O O4 0.256235 0.078380 0.118208
O O5 0.935715 0.082982 0.845187
O O6 0.222919 0.947259 0.826412
O O7 0.303048 0.768568 0.482212
O O8 0.124283 0.645923 0.541977
O O9 0.124428 0.794150 0.818530
O O10 0.418272 0.658428 0.838918
O O11 0.408980 0.817526 0.133211
O O12 0.517388 0.651297 0.297829
O O13 0.860461 0.642910 0.211804
O O14 0.187215 0.618691 0.053305
O O15 0.861309 0.638814 0.728600
O O16 0.000000 0.500000 0.000000
O O17 0.000000 0.500000 0.500000
O O18 0.500000 0.500000 0.000000
#
# Coordination Sequence:
#
# PCOD9008929 Si02
#       8
#     2   2   2   2   2   2   2   2
#     4  12  25  44  71 104 145 184 223 278 348 412
#     4  11  26  45  69 106 141 180 229 281 340 411
#     4  10  21  39  66  93 129 177 232 279 345 406
#     4  11  23  41  70  96 135 187 230 278 347 419
#     4   9  17  34  57  82 111 152 204 260 320 378
#     4  10  24  42  71  99 135 180 228 286 338 409
#     4   9  17  33  56  84 112 153 205 260 314 376
#     4  10  22  40  60  93 128 175 227 283 335 407
#
# _framework density 26.039328999999999
#
# number of rings (size 3 to 8) (size 9 to 14) (size 15 to 20)
#    0.000    1.750    2.500    1.125    5.250    1.500 
#    0.000    8.750    0.000    0.000    0.000    0.000 
#    0.000    0.000    0.000    0.000    0.000    0.000 
#
# Total GULP energy -89240.409203 kJ/mol
# GULP energy per Si atom -5577.525575 kJ/mol
# Density = 2.598006 g / cm^3
# Si number density = 26.039329 Si / 1000 Ang^3
#
#
#
# Elastic Constant Matrix: (Units=GPa)
#
#
# Indices 1 2 3 4 5 6 
#
# 1 83.4717 23.1121 25.7626 7.8857 -9.1396 25.5186
# 2 23.1121 165.0972 38.9808 16.6297 14.1324 27.9106
# 3 25.7626 38.9808 169.3747 -0.0361 -6.3215 7.4710
# 4 7.8857 16.6297 -0.0361 45.4570 11.8136 5.2314
# 5 -9.1396 14.1324 -6.3215 11.8136 38.4478 2.7622
# 6 25.5186 27.9106 7.4710 5.2314 2.7622 46.5528
#
#
#
# Elastic Compliance Matrix: (Units=1/GPa)
#
#
# Indices 1 2 3 4 5 6 
#
# 1 0.016025 -0.000608 -0.001744 -0.002989 0.005247 -0.008115
# 2 -0.000608 0.007483 -0.001562 -0.001596 -0.002404 -0.003581
# 3 -0.001744 -0.001562 0.006535 0.000531 0.001019 0.000724
# 4 -0.002989 -0.001596 0.000531 0.025101 -0.007760 0.000150
# 5 0.005247 -0.002404 0.001019 -0.007760 0.030876 -0.002559
# 6 -0.008115 -0.003581 0.000724 0.000150 -0.002559 0.028095
#
#
# Mechanical properties :
#
#
# Convention : Reuss Voigt Hill
#
# Bulk Modulus (GPa) = 45.01517 65.96162 55.48840
# Shear Modulus (GPa) = 38.65571 48.09738 43.37654
#
# Velocity S-wave (km/s) = 3.85712 4.30246 4.08586
# Velocity P-wave (km/s) = 6.09601 7.07588 6.60414
#
# Compressibility (1/GPa) = 0.02221473
#
# Stress axis : x y z
#
# Youngs Moduli (GPa) = 62.40406 133.64082 153.02074
#
# Poissons Ratio (x) = 0.08120 0.26693
# Poissons Ratio (y) = 0.03792 0.23899
# Poissons Ratio (z) = 0.10886 0.20872
#
# Static dielectric constant tensor:
#      x y z
#    x 2.175010 -0.041640 0.001210 
#    y -0.041640 1.982870 0.041900 
#    z 0.001210 0.041900 2.169200 
# 
# From -- ./inp_files/39411.got.cif
#   From: 2010.05.17/outbox.cif.g08.bks.cpg/sg2_20_cif.got.tgz:39411.got - 2010.06.03 11:33:40.
