data_PCOD9008697
_publ_section_title
;
Structure prediction by ZEFSAII (Michael W. Deem and Ramdas Pophale) SiO2 
 PCOD9008697
Probable space group: P -1
;
_chemical_formula_sum "Si O2"
_cell_formula_units_Z 16
_cell_length_a 5.206661
_cell_length_b 9.585132
_cell_length_c 17.971997
_cell_angle_alpha 133.037637
_cell_angle_beta 85.339484
_cell_angle_gamma 97.717801
_cell_volume 649.558449
_symmetry_space_group_name_H-M "P -1"
_symmetry_group_IT_number 2
_symmetry_cell_setting 'triclinic'
loop_
_space_group_symop_operation_xyz
x,y,z
-x,-y,-z
loop_
_atom_site_type_symbol
_atom_site_label
_atom_site_fract_x
_atom_site_fract_y
_atom_site_fract_z
Si Si1 0.029642 0.152588 0.314149
Si Si2 0.417400 0.741889 0.729629
Si Si3 0.677300 0.537846 0.895955
Si Si4 0.875575 0.705996 0.186673
Si Si5 0.987203 0.752573 0.489882
Si Si6 0.710641 0.865359 0.394656
Si Si7 0.308036 0.554415 0.305312
Si Si8 0.268488 0.029426 0.959694
O O1 0.775837 0.251972 0.332410
O O2 0.122321 0.252418 0.426791
O O3 0.286675 0.174511 0.265246
O O4 0.934943 0.923590 0.235707
O O5 0.462970 0.541064 0.693205
O O6 0.284932 0.870446 0.838942
O O7 0.400965 0.412336 0.868273
O O8 0.739234 0.553628 0.810776
O O9 0.897884 0.423330 0.883999
O O10 0.687339 0.758122 0.999760
O O11 0.867034 0.741104 0.289191
O O12 0.093125 0.575725 0.380366
O O13 0.803303 0.841409 0.467353
O O14 0.231560 0.917071 0.552715
O O15 0.419887 0.769740 0.357828
O O16 0.500000 0.000000 0.000000
O O17 0.000000 0.000000 0.000000
#
# Coordination Sequence:
#
# PCOD9008697 Si02
#       8
#     2   2   2   2   2   2   2   2
#     4  11  27  46  64  95 144 188 214 262 332 408
#     4  12  28  46  66  96 140 180 219 267 337 415
#     4  11  22  40  71 105 123 166 224 297 333 373
#     4  10  21  42  68  98 135 172 225 276 331 381
#     4  10  21  39  65  94 132 178 224 272 327 379
#     4   9  20  36  63  98 128 167 227 289 315 371
#     4  11  23  37  68  95 138 162 232 271 340 380
#     4  12  25  45  73 102 134 166 222 282 343 391
#
# _framework density 24.632114999999999
#
# number of rings (size 3 to 8) (size 9 to 14) (size 15 to 20)
#    0.000    1.250    2.500    2.625    5.250    1.000 
#    0.000    3.750    0.000    0.000    0.000    0.000 
#    0.000    0.000    0.000    0.000    0.000    0.000 
#
# Total GULP energy -89498.100289 kJ/mol
# GULP energy per Si atom -5593.631268 kJ/mol
# Density = 2.457605 g / cm^3
# Si number density = 24.632115 Si / 1000 Ang^3
#
#
#
# Elastic Constant Matrix: (Units=GPa)
#
#
# Indices 1 2 3 4 5 6 
#
# 1 141.5997 32.8770 17.1097 10.4222 -16.1088 11.1490
# 2 32.8770 77.1641 9.2911 20.5724 -2.1757 11.6927
# 3 17.1097 9.2911 58.8284 4.3869 -18.6700 8.2560
# 4 10.4222 20.5724 4.3869 39.7431 -5.5565 4.3309
# 5 -16.1088 -2.1757 -18.6700 -5.5565 34.5655 6.3889
# 6 11.1490 11.6927 8.2560 4.3309 6.3889 43.2290
#
#
#
# Elastic Compliance Matrix: (Units=1/GPa)
#
#
# Indices 1 2 3 4 5 6 
#
# 1 0.008428 -0.003215 -0.000493 0.000240 0.003830 -0.001800
# 2 -0.003215 0.016876 -0.001464 -0.007756 -0.002034 -0.002378
# 3 -0.000493 -0.001464 0.022189 0.000856 0.012854 -0.005700
# 4 0.000240 -0.007756 0.000856 0.029961 0.005255 -0.001906
# 5 0.003830 -0.002034 0.012854 0.005255 0.040103 -0.009346
# 6 -0.001800 -0.002378 -0.005700 -0.001906 -0.009346 0.026901
#
#
# Mechanical properties :
#
#
# Convention : Reuss Voigt Hill
#
# Bulk Modulus (GPa) = 26.91791 44.01642 35.46716
# Shear Modulus (GPa) = 29.90709 38.06180 33.98445
#
# Velocity S-wave (km/s) = 3.48825 3.93518 3.71843
# Velocity P-wave (km/s) = 5.21301 6.20934 5.73286
#
# Compressibility (1/GPa) = 0.03714999
#
# Stress axis : x y z
#
# Youngs Moduli (GPa) = 118.65266 59.25492 45.06792
#
# Poissons Ratio (x) = 0.19049 0.02223
# Poissons Ratio (y) = 0.38143 0.06596
# Poissons Ratio (z) = 0.05851 0.08673
#
# Static dielectric constant tensor:
#      x y z
#    x 1.955530 0.014500 0.007960 
#    y 0.014500 2.001060 -0.029920 
#    z 0.007960 -0.029920 1.991530 
# 
# From -- ./inp_files/99602.got.cif
#   From: 2010.05.17/outbox.cif.g08.bks.cpg/sg2_50_cif.got.tgz:99602.got - 2010.06.03 11:33:40.
