data_PCOD9008219
_publ_section_title
;
Structure prediction by ZEFSAII (Michael W. Deem and Ramdas Pophale) SiO2 
 PCOD9008219
Probable space group: P -1
;
_chemical_formula_sum "Si O2"
_cell_formula_units_Z 16
_cell_length_a 9.120743
_cell_length_b 9.270208
_cell_length_c 14.559202
_cell_angle_alpha 118.591460
_cell_angle_beta 84.865420
_cell_angle_gamma 56.145123
_cell_volume 783.305396
_symmetry_space_group_name_H-M "P -1"
_symmetry_group_IT_number 2
_symmetry_cell_setting 'triclinic'
loop_
_space_group_symop_operation_xyz
x,y,z
-x,-y,-z
loop_
_atom_site_type_symbol
_atom_site_label
_atom_site_fract_x
_atom_site_fract_y
_atom_site_fract_z
Si Si1 0.673509 0.441601 0.907871
Si Si2 0.721112 0.754756 0.927769
Si Si3 0.162037 0.149568 0.397671
Si Si4 0.967360 0.070653 0.241942
Si Si5 0.968162 0.214200 0.094718
Si Si6 0.511856 0.431818 0.375044
Si Si7 0.503105 0.636729 0.262068
Si Si8 0.165162 0.443360 0.342964
O O1 0.696172 0.618984 0.955310
O O2 0.608217 0.424035 0.806051
O O3 0.500000 0.500000 0.000000
O O4 0.879034 0.197152 0.852476
O O5 0.808429 0.621999 0.784876
O O6 0.872574 0.783642 0.957795
O O7 0.500000 0.000000 0.000000
O O8 0.187325 0.271942 0.357944
O O9 0.013425 0.128767 0.352343
O O10 0.049137 0.309752 0.541614
O O11 0.374251 0.897450 0.327835
O O12 0.007763 0.170534 0.188858
O O13 0.738547 0.189661 0.277288
O O14 0.738880 0.450484 0.164021
O O15 0.000000 0.000000 0.000000
O O16 0.500000 0.500000 0.500000
O O17 0.494554 0.598172 0.357565
O O18 0.342327 0.432620 0.357841
#
# Coordination Sequence:
#
# PCOD9008219 Si02
#       8
#     2   2   2   2   2   2   2   2
#     4  11  23  42  64  96 130 175 221 271 327 392
#     4  12  25  41  66  98 130 176 223 270 330 399
#     4  10  22  41  67  94 129 173 212 273 326 395
#     4  10  21  39  64  90 128 168 213 264 332 385
#     4  11  23  43  65  94 133 173 217 273 332 388
#     4  11  22  39  64  95 128 164 212 267 326 392
#     4  10  23  40  66  95 130 171 217 270 334 386
#     4  11  23  42  64  96 131 171 222 264 332 398
#
# _framework density 20.426259000000002
#
# number of rings (size 3 to 8) (size 9 to 14) (size 15 to 20)
#    0.000    1.250    3.750    2.250    3.500    2.500 
#    0.000    3.750    0.000    0.000    0.000    0.000 
#    0.000    0.000    0.000    0.000    0.000    0.000 
#
# Total GULP energy -89390.555200 kJ/mol
# GULP energy per Si atom -5586.909700 kJ/mol
# Density = 2.037977 g / cm^3
# Si number density = 20.426259 Si / 1000 Ang^3
#
#
#
# Elastic Constant Matrix: (Units=GPa)
#
#
# Indices 1 2 3 4 5 6 
#
# 1 110.0711 48.2137 21.3809 21.9625 -17.2431 22.4520
# 2 48.2137 111.8446 38.4269 36.0683 -15.9076 0.3643
# 3 21.3809 38.4269 88.9815 10.5513 -4.5433 7.7590
# 4 21.9625 36.0683 10.5513 46.0972 -9.0690 0.0903
# 5 -17.2431 -15.9076 -4.5433 -9.0690 27.8351 -1.1457
# 6 22.4520 0.3643 7.7590 0.0903 -1.1457 31.9886
#
#
#
# Elastic Compliance Matrix: (Units=1/GPa)
#
#
# Indices 1 2 3 4 5 6 
#
# 1 0.014410 -0.004761 -0.000036 -0.002108 0.005107 -0.009862
# 2 -0.004761 0.015769 -0.004920 -0.008421 0.002700 0.004476
# 3 -0.000036 -0.004920 0.013546 0.000666 -0.000538 -0.003226
# 4 -0.002108 -0.008421 0.000666 0.029876 0.003784 0.001465
# 5 0.005107 0.002700 -0.000538 0.003784 0.041695 -0.002002
# 6 -0.009862 0.004476 -0.003226 0.001465 -0.002002 0.038839
#
#
# Mechanical properties :
#
#
# Convention : Reuss Voigt Hill
#
# Bulk Modulus (GPa) = 41.16622 58.54893 49.85757
# Shear Modulus (GPa) = 27.52317 34.70921 31.11619
#
# Velocity S-wave (km/s) = 3.67473 4.12666 3.90724
# Velocity P-wave (km/s) = 6.18079 7.17158 6.69454
#
# Compressibility (1/GPa) = 0.02429176
#
# Stress axis : x y z
#
# Youngs Moduli (GPa) = 69.39749 63.41592 73.82126
#
# Poissons Ratio (x) = 0.30194 0.00263
# Poissons Ratio (y) = 0.33042 0.36317
# Poissons Ratio (z) = 0.00247 0.31198
#
# Static dielectric constant tensor:
#      x y z
#    x 1.730190 0.002080 0.003770 
#    y 0.002080 1.707710 -0.029810 
#    z 0.003770 -0.029810 1.787790 
# 
# From -- ./inp_files/177424.got.cif
#   From: 2010.05.17/outbox.cif.g08.bks.cpg/sg2_89_cif.got.tgz:177424.got - 2010.06.03 11:33:40.
