data_PCOD9008546
_publ_section_title
;
Structure prediction by ZEFSAII (Michael W. Deem and Ramdas Pophale) SiO2 
 PCOD9008546
Probable space group: P -1
;
_chemical_formula_sum "Si O2"
_cell_formula_units_Z 16
_cell_length_a 13.521804
_cell_length_b 9.832615
_cell_length_c 7.966885
_cell_angle_alpha 120.353743
_cell_angle_beta 127.791433
_cell_angle_gamma 90.420485
_cell_volume 639.522600
_symmetry_space_group_name_H-M "P -1"
_symmetry_group_IT_number 2
_symmetry_cell_setting 'triclinic'
loop_
_space_group_symop_operation_xyz
x,y,z
-x,-y,-z
loop_
_atom_site_type_symbol
_atom_site_label
_atom_site_fract_x
_atom_site_fract_y
_atom_site_fract_z
Si Si1 0.667048 0.280428 0.184224
Si Si2 0.787152 0.786750 0.121599
Si Si3 0.778535 0.114877 0.422857
Si Si4 0.236043 0.197554 0.290002
Si Si5 0.961636 0.590013 0.253432
Si Si6 0.477642 0.560458 0.696209
Si Si7 0.052427 0.350610 0.349123
Si Si8 0.590533 0.946320 0.435020
O O1 0.695205 0.117530 0.167260
O O2 0.612750 0.333654 0.330512
O O3 0.806188 0.455071 0.379705
O O4 0.538853 0.228159 0.890722
O O5 0.844709 0.642857 0.102741
O O6 0.847303 0.980468 0.392521
O O7 0.781946 0.821706 0.940340
O O8 0.635516 0.688687 0.994776
O O9 0.907406 0.312662 0.675426
O O10 0.672451 0.065820 0.435461
O O11 0.378497 0.384785 0.585191
O O12 0.105219 0.217460 0.245049
O O13 0.282366 0.063503 0.338844
O O14 0.944990 0.395769 0.157838
O O15 0.996706 0.688208 0.534851
O O16 0.500000 0.500000 0.500000
O O17 0.500000 0.000000 0.500000
#
# Coordination Sequence:
#
# PCOD9008546 Si02
#       8
#     2   2   2   2   2   2   2   2
#     4  10  21  39  65  89 124 166 199 258 320 359
#     4  11  21  38  64  89 124 171 203 251 311 375
#     4  11  23  41  62  89 127 167 209 247 311 379
#     4  10  23  39  59  94 128 153 211 263 308 359
#     4  10  22  41  65  87 122 168 215 244 308 373
#     4   9  20  35  61  92 120 157 202 259 302 369
#     4   9  21  42  64  93 121 157 210 267 298 370
#     4  12  25  38  62  95 129 160 207 261 312 371
#
# _framework density 25.018661999999999
#
# number of rings (size 3 to 8) (size 9 to 14) (size 15 to 20)
#    0.000    1.750    1.250    2.250    5.250    1.500 
#    0.000    6.250    0.000    0.000    0.000    0.000 
#    0.000    0.000    0.000    0.000    0.000    0.000 
#
# Total GULP energy -89297.240217 kJ/mol
# GULP energy per Si atom -5581.077514 kJ/mol
# Density = 2.496172 g / cm^3
# Si number density = 25.018662 Si / 1000 Ang^3
#
#
#
# Elastic Constant Matrix: (Units=GPa)
#
#
# Indices 1 2 3 4 5 6 
#
# 1 154.8900 34.9262 16.3095 -8.4032 -5.2440 -16.6558
# 2 34.9262 103.1481 26.3746 -24.2840 1.9715 -14.5040
# 3 16.3095 26.3746 31.4982 -11.9121 -9.0041 0.4357
# 4 -8.4032 -24.2840 -11.9121 34.4309 -0.2686 8.9289
# 5 -5.2440 1.9715 -9.0041 -0.2686 28.9777 -2.5567
# 6 -16.6558 -14.5040 0.4357 8.9289 -2.5567 40.4917
#
#
#
# Elastic Compliance Matrix: (Units=1/GPa)
#
#
# Indices 1 2 3 4 5 6 
#
# 1 0.007380 -0.001716 -0.002540 -0.000987 0.000894 0.002722
# 2 -0.001716 0.014854 -0.010769 0.005454 -0.004330 0.003255
# 3 -0.002540 -0.010769 0.050916 0.011328 0.015585 -0.006964
# 4 -0.000987 0.005454 0.011328 0.038370 0.002720 -0.006863
# 5 0.000894 -0.004330 0.015585 0.002720 0.039884 0.000568
# 6 0.002722 0.003255 -0.006964 -0.006863 0.000568 0.028606
#
#
# Mechanical properties :
#
#
# Convention : Reuss Voigt Hill
#
# Bulk Modulus (GPa) = 23.20207 49.41744 36.30975
# Shear Modulus (GPa) = 22.27907 34.90845 28.59376
#
# Velocity S-wave (km/s) = 2.98736 3.73942 3.38434
# Velocity P-wave (km/s) = 4.60360 6.19996 5.46043
#
# Compressibility (1/GPa) = 0.04309960
#
# Stress axis : x y z
#
# Youngs Moduli (GPa) = 135.50009 67.32194 19.64031
#
# Poissons Ratio (x) = 0.11554 0.04988
# Poissons Ratio (y) = 0.23254 0.21151
# Poissons Ratio (z) = 0.34411 0.72501
#
# Static dielectric constant tensor:
#      x y z
#    x 1.963490 -0.055350 0.006180 
#    y -0.055350 2.086910 0.022300 
#    z 0.006180 0.022300 2.090560 
# 
# From -- ./inp_files/296252.got.cif
#   From: 2010.05.17/outbox.cif.g08.bks.cpg/sg2_149_cif.got.tgz:296252.got - 2010.06.03 11:33:40.
