data_PCOD9008478
_publ_section_title
;
Structure prediction by ZEFSAII (Michael W. Deem and Ramdas Pophale) SiO2 
 PCOD9008478
Probable space group: P -1
;
_chemical_formula_sum "Si O2"
_cell_formula_units_Z 16
_cell_length_a 16.096614
_cell_length_b 14.317521
_cell_length_c 8.081246
_cell_angle_alpha 34.722445
_cell_angle_beta 130.495257
_cell_angle_gamma 142.286270
_cell_volume 648.934605
_symmetry_space_group_name_H-M "P -1"
_symmetry_group_IT_number 2
_symmetry_cell_setting 'triclinic'
loop_
_space_group_symop_operation_xyz
x,y,z
-x,-y,-z
loop_
_atom_site_type_symbol
_atom_site_label
_atom_site_fract_x
_atom_site_fract_y
_atom_site_fract_z
Si Si1 0.289453 0.052005 0.199173
Si Si2 0.886220 0.466944 0.779657
Si Si3 0.485294 0.807333 0.473459
Si Si4 0.790392 0.370352 0.436297
Si Si5 0.088756 0.137070 0.670162
Si Si6 0.390124 0.756057 0.097638
Si Si7 0.553204 0.435817 0.807717
Si Si8 0.169570 0.258847 0.211230
O O1 0.367776 0.112201 0.387587
O O2 0.240179 0.826280 0.412033
O O3 0.172045 0.076111 0.970094
O O4 0.420792 0.232764 0.004222
O O5 0.876817 0.412261 0.654294
O O6 0.893243 0.670384 0.504009
O O7 0.745107 0.286399 0.943272
O O8 0.000000 0.500000 0.000000
O O9 0.356740 0.689756 0.601492
O O10 0.442996 0.691836 0.412153
O O11 0.500728 0.013128 0.150122
O O12 0.859025 0.579014 0.119170
O O13 0.142347 0.198334 0.459320
O O14 0.932776 0.945170 0.727451
O O15 0.361858 0.629470 0.082583
O O16 0.500000 0.500000 0.500000
O O17 0.671103 0.629901 0.779394
#
# Coordination Sequence:
#
# PCOD9008478 Si02
#       8
#     2   2   2   2   2   2   2   2
#     4  12  23  41  74 108 132 174 233 282 336 404
#     4  11  26  46  69  94 138 184 226 279 342 409
#     4  10  21  39  65 100 138 169 219 283 332 401
#     4  11  24  41  71 105 131 178 232 278 337 405
#     4  11  27  47  66 101 138 182 228 278 344 410
#     4  10  21  41  62  99 136 172 222 272 338 402
#     4  12  21  39  69 101 133 180 216 279 341 399
#     4  11  24  44  68  94 146 175 226 281 332 407
#
# _framework density 24.655798999999998
#
# number of rings (size 3 to 8) (size 9 to 14) (size 15 to 20)
#    0.000    1.000    5.000    1.125    3.500    2.000 
#    2.250    1.875    0.000    0.000    0.000    0.000 
#    0.000    0.000    0.000    0.000    0.000    0.000 
#
# Total GULP energy -89448.058646 kJ/mol
# GULP energy per Si atom -5590.503665 kJ/mol
# Density = 2.459968 g / cm^3
# Si number density = 24.655799 Si / 1000 Ang^3
#
#
#
# Elastic Constant Matrix: (Units=GPa)
#
#
# Indices 1 2 3 4 5 6 
#
# 1 37.1448 20.0118 13.3286 9.5583 8.5993 -11.5904
# 2 20.0118 152.7981 34.6244 17.8020 6.9306 4.8864
# 3 13.3286 34.6244 96.9191 5.9007 -0.0516 6.6301
# 4 9.5583 17.8020 5.9007 57.8897 4.7016 0.7820
# 5 8.5993 6.9306 -0.0516 4.7016 25.1588 6.5468
# 6 -11.5904 4.8864 6.6301 0.7820 6.5468 33.5737
#
#
#
# Elastic Compliance Matrix: (Units=1/GPa)
#
#
# Indices 1 2 3 4 5 6 
#
# 1 0.042252 -0.003601 -0.005638 -0.004113 -0.017845 0.019799
# 2 -0.003601 0.007724 -0.002040 -0.001537 -0.000118 -0.001906
# 3 -0.005638 -0.002040 0.012146 0.000081 0.003743 -0.004780
# 4 -0.004113 -0.001537 0.000081 0.018540 -0.001272 -0.001396
# 5 -0.017845 -0.000118 0.003743 -0.001272 0.050469 -0.016694
# 6 0.019799 -0.001906 -0.004780 -0.001396 -0.016694 0.041129
#
#
# Mechanical properties :
#
#
# Convention : Reuss Voigt Hill
#
# Bulk Modulus (GPa) = 25.27518 46.97683 36.12601
# Shear Modulus (GPa) = 24.03769 37.91760 30.97764
#
# Velocity S-wave (km/s) = 3.12578 3.92583 3.54842
# Velocity P-wave (km/s) = 4.82709 6.29635 5.61002
#
# Compressibility (1/GPa) = 0.03956450
#
# Stress axis : x y z
#
# Youngs Moduli (GPa) = 23.66738 129.46802 82.33069
#
# Poissons Ratio (x) = 0.46619 0.46416
# Poissons Ratio (y) = 0.08522 0.16798
# Poissons Ratio (z) = 0.13343 0.26415
#
# Static dielectric constant tensor:
#      x y z
#    x 1.997210 -0.034700 -0.021430 
#    y -0.034700 1.996690 0.058670 
#    z -0.021430 0.058670 2.007470 
# 
# From -- ./inp_files/348780.got.cif
#   From: 2010.05.17/outbox.cif.g08.bks.cpg/sg2_175_cif.got.tgz:348780.got - 2010.06.03 11:33:40.
