data_PCOD9008971
_publ_section_title
;
Structure prediction by ZEFSAII (Michael W. Deem and Ramdas Pophale) SiO2 
 PCOD9008971
Probable space group: P -1
;
_chemical_formula_sum "Si O2"
_cell_formula_units_Z 16
_cell_length_a 16.555965
_cell_length_b 19.977802
_cell_length_c 10.350831
_cell_angle_alpha 33.310178
_cell_angle_beta 146.399741
_cell_angle_gamma 158.754389
_cell_volume 655.722575
_symmetry_space_group_name_H-M "P -1"
_symmetry_group_IT_number 2
_symmetry_cell_setting 'triclinic'
loop_
_space_group_symop_operation_xyz
x,y,z
-x,-y,-z
loop_
_atom_site_type_symbol
_atom_site_label
_atom_site_fract_x
_atom_site_fract_y
_atom_site_fract_z
Si Si1 0.017979 0.157501 0.265432
Si Si2 0.806492 0.188837 0.738351
Si Si3 0.009669 0.821745 0.513287
Si Si4 0.441151 0.791793 0.772732
Si Si5 0.502683 0.546477 0.280404
Si Si6 0.058103 0.618843 0.757822
Si Si7 0.253241 0.489410 0.702899
Si Si8 0.206384 0.173156 0.095103
O O1 0.017283 0.221058 0.302164
O O2 0.270642 0.342542 0.240551
O O3 0.825892 0.110647 0.010217
O O4 0.000000 0.000000 0.500000
O O5 0.659417 0.216011 0.481006
O O6 0.063627 0.394379 0.712518
O O7 0.681164 0.019681 0.741379
O O8 0.747551 0.661650 0.368052
O O9 0.127677 0.794319 0.630043
O O10 0.134479 0.032728 0.338059
O O11 0.260289 0.705314 0.789391
O O12 0.492355 0.684011 0.031946
O O13 0.500000 0.500000 0.500000
O O14 0.833738 0.492339 0.569335
O O15 0.000000 0.500000 0.000000
O O16 0.518891 0.674553 0.801380
O O17 0.202224 0.313198 0.891428
O O18 0.000000 0.000000 0.000000
#
# Coordination Sequence:
#
# PCOD9008971 Si02
#       8
#     2   2   2   2   2   2   2   2
#     4  11  23  39  65  99 136 174 228 290 342 409
#     4  10  22  42  66  92 133 181 233 276 344 416
#     4  11  24  42  69 101 132 175 231 287 346 410
#     4  10  22  44  68  95 133 187 227 284 346 415
#     4  10  21  39  66  95 128 172 228 278 338 405
#     4  11  23  43  69  97 143 185 225 286 353 417
#     4  10  23  42  67 100 136 185 228 285 354 405
#     4  11  22  40  68 103 140 173 229 290 349 415
#
# _framework density 24.400562000000001
#
# number of rings (size 3 to 8) (size 9 to 14) (size 15 to 20)
#    0.000    1.500    1.250    4.500    1.750    2.500 
#    0.000    5.000    0.000    0.000    0.000    0.000 
#    0.000    0.000    0.000    0.000    0.000    0.000 
#
# Total GULP energy -89351.575839 kJ/mol
# GULP energy per Si atom -5584.473490 kJ/mol
# Density = 2.434503 g / cm^3
# Si number density = 24.400562 Si / 1000 Ang^3
#
#
#
# Elastic Constant Matrix: (Units=GPa)
#
#
# Indices 1 2 3 4 5 6 
#
# 1 71.1126 -5.4063 18.5736 12.3105 -0.4460 -2.7402
# 2 -5.4063 129.5697 20.6377 5.8375 -4.0927 1.7074
# 3 18.5736 20.6377 153.5080 5.8509 -14.4042 -15.1327
# 4 12.3105 5.8375 5.8509 50.7522 -3.7414 -3.3207
# 5 -0.4460 -4.0927 -14.4042 -3.7414 31.7735 0.8559
# 6 -2.7402 1.7074 -15.1327 -3.3207 0.8559 33.0750
#
#
#
# Elastic Compliance Matrix: (Units=1/GPa)
#
#
# Indices 1 2 3 4 5 6 
#
# 1 0.015283 0.001084 -0.001947 -0.003680 -0.000961 -0.000025
# 2 0.001084 0.008034 -0.001233 -0.001082 0.000391 -0.001008
# 3 -0.001947 -0.001233 0.007529 0.000194 0.003161 0.003285
# 4 -0.003680 -0.001082 0.000194 0.020993 0.002318 0.001887
# 5 -0.000961 0.000391 0.003161 0.002318 0.033196 0.000720
# 6 -0.000025 -0.001008 0.003285 0.001887 0.000720 0.031958
#
#
# Mechanical properties :
#
#
# Convention : Reuss Voigt Hill
#
# Bulk Modulus (GPa) = 37.51910 46.86670 42.19290
# Shear Modulus (GPa) = 38.44101 44.47915 41.46008
#
# Velocity S-wave (km/s) = 3.97346 4.27414 4.12654
# Velocity P-wave (km/s) = 6.03828 6.60353 6.32722
#
# Compressibility (1/GPa) = 0.02665309
#
# Stress axis : x y z
#
# Youngs Moduli (GPa) = 65.43125 124.47471 132.82557
#
# Poissons Ratio (x) = -0.13488 0.25865
# Poissons Ratio (y) = -0.07090 0.16372
# Poissons Ratio (z) = 0.12741 0.15343
#
# Static dielectric constant tensor:
#      x y z
#    x 2.032800 -0.046250 -0.052370 
#    y -0.046250 2.018130 0.047640 
#    z -0.052370 0.047640 2.013220 
# 
# From -- ./inp_files/467065.got.cif
#   From: 2010.05.17/outbox.cif.g08.bks.cpg/sg2_234_cif.got.tgz:467065.got - 2010.06.03 11:33:40.
