data_PCOD9008473
_publ_section_title
;
Structure prediction by ZEFSAII (Michael W. Deem and Ramdas Pophale) SiO2 
 PCOD9008473
Probable space group: P -1
;
_chemical_formula_sum "Si O2"
_cell_formula_units_Z 14
_cell_length_a 9.400067
_cell_length_b 16.016695
_cell_length_c 12.941240
_cell_angle_alpha 153.941524
_cell_angle_beta 128.868943
_cell_angle_gamma 47.688870
_cell_volume 631.384732
_symmetry_space_group_name_H-M "P -1"
_symmetry_group_IT_number 2
_symmetry_cell_setting 'triclinic'
loop_
_space_group_symop_operation_xyz
x,y,z
-x,-y,-z
loop_
_atom_site_type_symbol
_atom_site_label
_atom_site_fract_x
_atom_site_fract_y
_atom_site_fract_z
Si Si1 0.804323 0.342303 0.909136
Si Si2 0.354776 0.703170 0.439441
Si Si3 0.702761 0.032045 0.626747
Si Si4 0.790341 0.895541 0.077655
Si Si5 0.667105 0.524731 0.530382
Si Si6 0.031085 0.904960 0.796510
Si Si7 0.964016 0.651140 0.247737
O O1 0.706894 0.313915 0.725107
O O2 0.022212 0.196668 0.867376
O O3 0.689006 0.261424 0.852637
O O4 0.842531 0.555501 0.163089
O O5 0.562744 0.560453 0.410504
O O6 0.179185 0.658519 0.373867
O O7 0.348382 0.924341 0.718384
O O8 0.831520 0.880710 0.429405
O O9 0.827918 0.954584 0.699965
O O10 0.500000 0.000000 0.500000
O O11 0.850128 0.992272 0.109938
O O12 0.714596 0.718226 0.809232
O O13 0.500000 0.500000 0.500000
O O14 0.853021 0.329466 0.399423
O O15 0.000000 0.000000 0.000000
O O16 0.000000 0.500000 0.000000
#
# Coordination Sequence:
#
# PCOD9008473 Si02
#       7
#     2   2   2   2   2   2   2
#     4  10  22  39  66  97 132 164 209 274 326 376
#     4  11  21  39  68 104 128 165 215 268 331 380
#     4  11  24  45  64  94 130 170 219 266 320 383
#     4  11  22  41  67  95 132 170 213 270 325 379
#     4  12  24  43  66  97 134 169 217 268 320 388
#     4  11  26  46  64  92 133 179 216 262 324 387
#     4  10  21  39  65 100 130 163 210 264 329 380
#
# _framework density 22.173484999999999
#
# number of rings (size 3 to 8) (size 9 to 14) (size 15 to 20)
#    0.000    1.143    4.286    2.571    2.000    4.571 
#    0.000    1.429    0.000    0.000    0.000    0.000 
#    0.000    0.000    0.000    0.000    0.000    0.000 
#
# Total GULP energy -78148.800369 kJ/mol
# GULP energy per Si atom -5582.057169 kJ/mol
# Density = 2.212302 g / cm^3
# Si number density = 22.173485 Si / 1000 Ang^3
#
#
#
# Elastic Constant Matrix: (Units=GPa)
#
#
# Indices 1 2 3 4 5 6 
#
# 1 30.7398 37.4822 38.4761 -16.9903 13.5697 -5.2186
# 2 37.4822 154.5260 62.8276 -25.3292 16.4404 2.6872
# 3 38.4761 62.8276 162.6011 -7.1400 20.6727 2.1977
# 4 -16.9903 -25.3292 -7.1400 33.8147 6.7690 4.8578
# 5 13.5697 16.4404 20.6727 6.7690 42.8631 -11.1187
# 6 -5.2186 2.6872 2.1977 4.8578 -11.1187 25.3591
#
#
#
# Elastic Compliance Matrix: (Units=1/GPa)
#
#
# Indices 1 2 3 4 5 6 
#
# 1 0.097972 -0.007193 -0.014810 0.046200 -0.028147 0.001016
# 2 -0.007193 0.009988 -0.001541 0.004735 -0.002727 -0.004508
# 3 -0.014810 -0.001541 0.009870 -0.006413 0.000994 -0.002076
# 4 0.046200 0.004735 -0.006413 0.062396 -0.026881 -0.014177
# 5 -0.028147 -0.002727 0.000994 -0.026881 0.041679 0.017834
# 6 0.001016 -0.004508 -0.002076 -0.014177 0.017834 0.050835
#
#
# Mechanical properties :
#
#
# Convention : Reuss Voigt Hill
#
# Bulk Modulus (GPa) = 14.13617 69.49320 41.81468
# Shear Modulus (GPa) = 14.55984 34.34611 24.45297
#
# Velocity S-wave (km/s) = 2.56526 3.93997 3.32445
# Velocity P-wave (km/s) = 3.89400 7.21848 5.79956
#
# Compressibility (1/GPa) = 0.07074054
#
# Stress axis : x y z
#
# Youngs Moduli (GPa) = 10.20698 100.12397 101.31430
#
# Poissons Ratio (x) = 0.72020 1.50049
# Poissons Ratio (y) = 0.07342 0.15617
# Poissons Ratio (z) = 0.15117 0.15434
#
# Static dielectric constant tensor:
#      x y z
#    x 1.855010 0.046450 0.024940 
#    y 0.046450 1.858840 0.022860 
#    z 0.024940 0.022860 1.821040 
# 
# From -- ./inp_files/523382.got.cif
#   From: 2010.05.17/outbox.cif.g08.bks.cpg/sg2_262_cif.got.tgz:523382.got - 2010.06.03 11:33:40.
