data_PCOD9008766
_publ_section_title
;
Structure prediction by ZEFSAII (Michael W. Deem and Ramdas Pophale) SiO2 
 PCOD9008766
Probable space group: P -1
;
_chemical_formula_sum "Si O2"
_cell_formula_units_Z 12
_cell_length_a 13.739822
_cell_length_b 6.413027
_cell_length_c 12.891419
_cell_angle_alpha 126.410364
_cell_angle_beta 137.589090
_cell_angle_gamma 52.914869
_cell_volume 587.463693
_symmetry_space_group_name_H-M "P -1"
_symmetry_group_IT_number 2
_symmetry_cell_setting 'triclinic'
loop_
_space_group_symop_operation_xyz
x,y,z
-x,-y,-z
loop_
_atom_site_type_symbol
_atom_site_label
_atom_site_fract_x
_atom_site_fract_y
_atom_site_fract_z
Si Si1 0.429924 0.778667 0.254633
Si Si2 0.392533 0.797295 0.474232
Si Si3 0.209220 0.792588 0.902958
Si Si4 0.612649 0.179847 0.153300
Si Si5 0.900672 0.734468 0.339813
Si Si6 0.066289 0.914870 0.352443
O O1 0.379528 0.824205 0.347591
O O2 0.529432 0.465217 0.225628
O O3 0.530723 0.974443 0.363232
O O4 0.287143 0.836647 0.083102
O O5 0.500000 0.500000 0.500000
O O6 0.231658 0.834618 0.411470
O O7 0.331288 0.763255 0.898966
O O8 0.159546 0.521394 0.787759
O O9 0.060773 0.029038 0.819676
O O10 0.760246 0.998589 0.276773
O O11 0.500000 0.000000 0.000000
O O12 0.029609 0.713303 0.348575
O O13 0.955950 0.809117 0.516180
#
# Coordination Sequence:
#
# PCOD9008766 Si02
#       6
#     2   2   2   2   2   2
#     4  11  25  41  65  99 125 169 220 258 319 377
#     4  11  26  45  66  88 130 176 216 262 312 383
#     4  11  23  39  65  97 130 161 212 270 320 372
#     4  11  22  37  68 100 127 161 208 268 317 374
#     4  10  21  39  65  97 130 167 209 260 324 375
#     4  10  23  40  63  93 128 172 209 262 318 381
#
# _framework density 20.426793
#
# number of rings (size 3 to 8) (size 9 to 14) (size 15 to 20)
#    0.000    1.333    1.667    3.000    4.667    6.000 
#    0.000    1.667    0.000    0.000    0.000    0.000 
#    0.000    0.000    0.000    0.000    0.000    0.000 
#
# Total GULP energy -67124.978509 kJ/mol
# GULP energy per Si atom -5593.748209 kJ/mol
# Density = 2.038030 g / cm^3
# Si number density = 20.426793 Si / 1000 Ang^3
#
#
#
# Elastic Constant Matrix: (Units=GPa)
#
#
# Indices 1 2 3 4 5 6 
#
# 1 163.1521 43.9725 55.3022 7.1872 35.9017 2.9055
# 2 43.9725 58.4378 26.9909 7.8422 8.1534 4.4610
# 3 55.3022 26.9909 121.4807 -2.0513 14.7517 11.0074
# 4 7.1872 7.8422 -2.0513 44.4103 12.3564 6.0632
# 5 35.9017 8.1534 14.7517 12.3564 31.6778 1.6295
# 6 2.9055 4.4610 11.0074 6.0632 1.6295 22.5388
#
#
#
# Elastic Compliance Matrix: (Units=1/GPa)
#
#
# Indices 1 2 3 4 5 6 
#
# 1 0.010668 -0.005835 -0.002387 0.001892 -0.010275 0.001180
# 2 -0.005835 0.022954 -0.002814 -0.004044 0.003674 -0.001595
# 3 -0.002387 -0.002814 0.010724 0.002710 -0.002368 -0.004931
# 4 0.001892 -0.004044 0.002710 0.027591 -0.012754 -0.007267
# 5 -0.010275 0.003674 -0.002368 -0.012754 0.048257 0.001696
# 6 0.001180 -0.001595 -0.004931 -0.007267 0.001696 0.048772
#
#
# Mechanical properties :
#
#
# Convention : Reuss Voigt Hill
#
# Bulk Modulus (GPa) = 44.89525 66.17795 55.53660
# Shear Modulus (GPa) = 25.19376 34.17905 29.68641
#
# Velocity S-wave (km/s) = 3.51574 4.09497 3.81636
# Velocity P-wave (km/s) = 6.20540 7.40448 6.83130
#
# Compressibility (1/GPa) = 0.02227407
#
# Stress axis : x y z
#
# Youngs Moduli (GPa) = 93.74090 43.56536 93.25165
#
# Poissons Ratio (x) = 0.25420 0.22260
# Poissons Ratio (y) = 0.54696 0.26239
# Poissons Ratio (z) = 0.22377 0.12258
#
# Static dielectric constant tensor:
#      x y z
#    x 1.708040 0.016260 -0.006110 
#    y 0.016260 1.726150 -0.025360 
#    z -0.006110 -0.025360 1.721860 
# 
# From -- ./inp_files/21001.got.cif
#   From: 2010.05.17/outbox.cif.g08.bks.cpg/sg2_11_cif.got.tgz:21001.got - 2010.06.03 11:33:40.
