data_PCOD9008428
_publ_section_title
;
Structure prediction by ZEFSAII (Michael W. Deem and Ramdas Pophale) SiO2 
 PCOD9008428
Probable space group: P -1
;
_chemical_formula_sum "Si O2"
_cell_formula_units_Z 16
_cell_length_a 14.423188
_cell_length_b 9.156116
_cell_length_c 5.908078
_cell_angle_alpha 101.864608
_cell_angle_beta 82.708142
_cell_angle_gamma 117.499731
_cell_volume 676.822725
_symmetry_space_group_name_H-M "P -1"
_symmetry_group_IT_number 2
_symmetry_cell_setting 'triclinic'
loop_
_space_group_symop_operation_xyz
x,y,z
-x,-y,-z
loop_
_atom_site_type_symbol
_atom_site_label
_atom_site_fract_x
_atom_site_fract_y
_atom_site_fract_z
Si Si1 0.223719 0.760955 0.323753
Si Si2 0.487857 0.570498 0.276708
Si Si3 0.309906 0.086045 0.710137
Si Si4 0.814791 0.699068 0.156567
Si Si5 0.381398 0.886881 0.932175
Si Si6 0.935312 0.863557 0.789060
Si Si7 0.697083 0.412292 0.453827
Si Si8 0.957981 0.175650 0.652033
O O1 0.213911 0.624154 0.468245
O O2 0.115589 0.739214 0.243644
O O3 0.271532 0.941654 0.488804
O O4 0.308955 0.773960 0.118483
O O5 0.500000 0.500000 0.500000
O O6 0.576855 0.760640 0.316939
O O7 0.370843 0.548411 0.329355
O O8 0.500000 0.500000 0.000000
O O9 0.229179 0.164237 0.773534
O O10 0.325019 0.998235 0.902788
O O11 0.736938 0.544375 0.279862
O O12 0.927909 0.743700 0.244836
O O13 0.841568 0.707576 0.884133
O O14 0.378473 0.765840 0.692381
O O15 0.500000 0.000000 0.000000
O O16 0.014534 0.813594 0.617719
O O17 0.904025 0.978320 0.671694
O O18 0.000000 0.000000 0.000000
#
# Coordination Sequence:
#
# PCOD9008428 Si02
#       8
#     2   2   2   2   2   2   2   2
#     4  11  24  43  67  98 142 184 243 291 363 434
#     4  12  28  48  76 109 151 187 243 308 380 440
#     4  11  24  41  70 104 133 187 240 302 355 435
#     4  11  23  41  67 100 141 177 241 292 369 417
#     4  11  25  45  73  95 138 186 240 293 367 438
#     4   9  18  35  61  91 130 172 229 288 340 413
#     4  11  27  46  64 106 140 182 236 303 363 443
#     4  10  21  39  64  96 135 185 234 291 354 434
#
# _framework density 23.639868
#
# number of rings (size 3 to 8) (size 9 to 14) (size 15 to 20)
#    0.000    1.250    1.250    4.500    5.250    7.500 
#    0.000    1.250    0.000    0.000    0.000    0.000 
#    0.000    0.000    0.000    0.000    0.000    0.000 
#
# Total GULP energy -89352.555102 kJ/mol
# GULP energy per Si atom -5584.534694 kJ/mol
# Density = 2.358606 g / cm^3
# Si number density = 23.639868 Si / 1000 Ang^3
#
#
#
# Elastic Constant Matrix: (Units=GPa)
#
#
# Indices 1 2 3 4 5 6 
#
# 1 141.6121 36.1311 38.1719 -0.8914 -1.5362 -5.7227
# 2 36.1311 97.7466 43.3367 -18.4627 -2.9485 -8.1888
# 3 38.1719 43.3367 99.0790 -17.4680 -19.8694 -6.2364
# 4 -0.8914 -18.4627 -17.4680 40.7851 4.8078 3.0390
# 5 -1.5362 -2.9485 -19.8694 4.8078 38.8435 -5.5092
# 6 -5.7227 -8.1888 -6.2364 3.0390 -5.5092 31.9125
#
#
#
# Elastic Compliance Matrix: (Units=1/GPa)
#
#
# Indices 1 2 3 4 5 6 
#
# 1 0.008366 -0.002230 -0.002752 -0.001924 -0.000950 0.000410
# 2 -0.002230 0.014080 -0.004790 0.004369 -0.001791 0.001552
# 3 -0.002752 -0.004790 0.015452 0.003358 0.007334 0.002244
# 4 -0.001924 0.004369 0.003358 0.028213 -0.001739 -0.001555
# 5 -0.000950 -0.001791 0.007334 -0.001739 0.030420 0.006221
# 6 0.000410 0.001552 0.002244 -0.001555 0.006221 0.033468
#
#
# Mechanical properties :
#
#
# Convention : Reuss Voigt Hill
#
# Bulk Modulus (GPa) = 54.48383 63.74633 59.11508
# Shear Modulus (GPa) = 32.12068 37.02809 34.57439
#
# Velocity S-wave (km/s) = 3.69012 3.96200 3.82847
# Velocity P-wave (km/s) = 6.42289 6.92488 6.67860
#
# Compressibility (1/GPa) = 0.01835407
#
# Stress axis : x y z
#
# Youngs Moduli (GPa) = 119.52516 71.02278 64.71470
#
# Poissons Ratio (x) = 0.15840 0.17807
# Poissons Ratio (y) = 0.26658 0.31001
# Poissons Ratio (z) = 0.32889 0.34023
#
# Static dielectric constant tensor:
#      x y z
#    x 1.920340 -0.016740 0.050640 
#    y -0.016740 1.911300 -0.035540 
#    z 0.050640 -0.035540 2.000660 
# 
# From -- ./inp_files/90705.got.cif
#   From: 2010.05.17/outbox.cif.g08.bks.cpg/sg2_46_cif.got.tgz:90705.got - 2010.06.03 11:33:40.
