data_PCOD9008762
_publ_section_title
;
Structure prediction by ZEFSAII (Michael W. Deem and Ramdas Pophale) SiO2 
 PCOD9008762
Probable space group: P -1
;
_chemical_formula_sum "Si O2"
_cell_formula_units_Z 14
_cell_length_a 9.402561
_cell_length_b 10.667984
_cell_length_c 14.123590
_cell_angle_alpha 143.261223
_cell_angle_beta 61.739125
_cell_angle_gamma 101.076605
_cell_volume 697.637843
_symmetry_space_group_name_H-M "P -1"
_symmetry_group_IT_number 2
_symmetry_cell_setting 'triclinic'
loop_
_space_group_symop_operation_xyz
x,y,z
-x,-y,-z
loop_
_atom_site_type_symbol
_atom_site_label
_atom_site_fract_x
_atom_site_fract_y
_atom_site_fract_z
Si Si1 0.301701 0.848697 0.954684
Si Si2 0.866531 0.723911 0.131321
Si Si3 0.922458 0.663325 0.710221
Si Si4 0.516367 0.731845 0.169513
Si Si5 0.853349 0.938190 0.453485
Si Si6 0.438168 0.147440 0.978496
Si Si7 0.101277 0.555471 0.785962
O O1 0.131570 0.075294 0.144102
O O2 0.425888 0.916517 0.883349
O O3 0.396139 0.819990 0.007782
O O4 0.257784 0.636790 0.810407
O O5 0.677014 0.709217 0.173618
O O6 0.874301 0.910256 0.316148
O O7 0.000000 0.500000 0.000000
O O8 0.941947 0.715292 0.997056
O O9 0.737272 0.667015 0.812201
O O10 0.000000 0.500000 0.500000
O O11 0.051000 0.597551 0.718140
O O12 0.333792 0.880425 0.359278
O O13 0.500000 0.500000 0.000000
O O14 0.551687 0.846589 0.132440
O O15 0.862487 0.698767 0.348528
O O16 0.000000 0.000000 0.500000
#
# Coordination Sequence:
#
# PCOD9008762 Si02
#       7
#     2   2   2   2   2   2   2
#     4   9  21  41  65  91 130 176 209 264 331 395
#     4  10  22  43  63  95 129 170 219 272 329 393
#     4  10  21  39  65  97 127 167 219 265 326 396
#     4  12  24  43  69  93 138 173 221 279 336 395
#     4  11  27  41  65 101 130 176 231 271 331 398
#     4   9  22  41  64  92 130 168 217 256 341 382
#     4  11  22  41  67  95 133 170 218 274 335 390
#
# _framework density 20.067720000000001
#
# number of rings (size 3 to 8) (size 9 to 14) (size 15 to 20)
#    0.857    0.857    1.429    2.571    8.000    0.000 
#    0.000    2.857    0.000    0.000    0.000    0.000 
#    0.000    0.000    0.000    0.000    0.000    0.000 
#
# Total GULP energy -78075.152065 kJ/mol
# GULP energy per Si atom -5576.796576 kJ/mol
# Density = 2.002205 g / cm^3
# Si number density = 20.067720 Si / 1000 Ang^3
#
#
#
# Elastic Constant Matrix: (Units=GPa)
#
#
# Indices 1 2 3 4 5 6 
#
# 1 147.5586 29.2497 43.1666 6.4189 20.8594 -4.3185
# 2 29.2497 29.5045 26.8684 -3.4801 14.6755 1.0534
# 3 43.1666 26.8684 113.9853 -14.3022 11.5982 2.7887
# 4 6.4189 -3.4801 -14.3022 36.4395 4.6761 5.3077
# 5 20.8594 14.6755 11.5982 4.6761 36.3335 1.4767
# 6 -4.3185 1.0534 2.7887 5.3077 1.4767 24.1290
#
#
#
# Elastic Compliance Matrix: (Units=1/GPa)
#
#
# Indices 1 2 3 4 5 6 
#
# 1 0.009246 -0.006911 -0.002224 -0.003416 -0.001492 0.003056
# 2 -0.006911 0.057891 -0.008415 0.006123 -0.017392 -0.003074
# 3 -0.002224 -0.008415 0.012224 0.004715 0.000268 -0.002497
# 4 -0.003416 0.006123 0.004715 0.032426 -0.005857 -0.008198
# 5 -0.001492 -0.017392 0.000268 -0.005857 0.036091 -0.000459
# 6 0.003056 -0.003074 -0.002497 -0.008198 -0.000459 0.044245
#
#
# Mechanical properties :
#
#
# Convention : Reuss Voigt Hill
#
# Bulk Modulus (GPa) = 22.59378 54.40195 38.49787
# Shear Modulus (GPa) = 20.66300 32.16463 26.41382
#
# Velocity S-wave (km/s) = 3.21232 4.00785 3.63193
# Velocity P-wave (km/s) = 5.00418 6.97031 6.06741
#
# Compressibility (1/GPa) = 0.04425997
#
# Stress axis : x y z
#
# Youngs Moduli (GPa) = 108.14923 17.27390 81.80311
#
# Poissons Ratio (x) = 0.11938 0.18194
# Poissons Ratio (y) = 0.74745 0.68841
# Poissons Ratio (z) = 0.24054 0.14537
#
# Static dielectric constant tensor:
#      x y z
#    x 1.722030 0.011220 -0.001260 
#    y 0.011220 1.744330 0.001770 
#    z -0.001260 0.001770 1.717300 
# 
# From -- ./inp_files/501096.got.cif
#   From: 2010.05.17/outbox.cif.g08.bks.cpg/sg2_251_cif.got.tgz:501096.got - 2010.06.03 11:33:40.
