data_PCOD9008519
_publ_section_title
;
Structure prediction by ZEFSAII (Michael W. Deem and Ramdas Pophale) SiO2 
 PCOD9008519
Probable space group: P -1
;
_chemical_formula_sum "Si O2"
_cell_formula_units_Z 12
_cell_length_a 12.598511
_cell_length_b 7.521265
_cell_length_c 10.702101
_cell_angle_alpha 102.563714
_cell_angle_beta 46.474558
_cell_angle_gamma 131.930913
_cell_volume 488.537107
_symmetry_space_group_name_H-M "P -1"
_symmetry_group_IT_number 2
_symmetry_cell_setting 'triclinic'
loop_
_space_group_symop_operation_xyz
x,y,z
-x,-y,-z
loop_
_atom_site_type_symbol
_atom_site_label
_atom_site_fract_x
_atom_site_fract_y
_atom_site_fract_z
Si Si1 0.328764 0.720724 0.669608
Si Si2 0.065702 0.159903 0.312366
Si Si3 0.806661 0.835594 0.032319
Si Si4 0.421831 0.319759 0.393017
Si Si5 0.214619 0.938000 0.297377
Si Si6 0.849767 0.266402 0.933258
O O1 0.452947 0.645817 0.584567
O O2 0.105789 0.523437 0.745690
O O3 0.500000 0.000000 0.500000
O O4 0.241663 0.694121 0.875225
O O5 0.006226 0.267600 0.472269
O O6 0.829852 0.864090 0.417915
O O7 0.192501 0.119399 0.278109
O O8 0.171211 0.295627 0.114973
O O9 0.576624 0.602991 0.245246
O O10 0.821101 0.040243 0.982645
O O11 0.000000 0.000000 0.000000
O O12 0.391886 0.123217 0.287947
O O13 0.244774 0.827020 0.143894
#
# Coordination Sequence:
#
# PCOD9008519 Si02
#       6
#     2   2   2   2   2   2
#     4  11  25  42  58  85 122 167 200 242 291 362
#     4   8  19  36  57  91 127 141 194 250 294 355
#     4  11  21  36  64  95 116 155 194 255 300 344
#     4  10  21  39  65  87 120 156 202 240 302 360
#     4   8  18  42  58  90 124 152 191 256 297 347
#     4  10  23  41  59  86 129 149 202 251 292 350
#
# _framework density 24.563130000000001
#
# number of rings (size 3 to 8) (size 9 to 14) (size 15 to 20)
#    1.000    1.333    1.667    0.000    2.333    6.667 
#    3.000    0.833    0.000    0.000    0.000    0.000 
#    0.000    0.000    0.000    0.000    0.000    0.000 
#
# Total GULP energy -66908.536122 kJ/mol
# GULP energy per Si atom -5575.711343 kJ/mol
# Density = 2.450722 g / cm^3
# Si number density = 24.563130 Si / 1000 Ang^3
#
#
#
# Elastic Constant Matrix: (Units=GPa)
#
#
# Indices 1 2 3 4 5 6 
#
# 1 59.3230 -14.4706 4.9958 -1.5833 -14.4815 12.9869
# 2 -14.4706 28.5946 22.0936 14.2682 -1.8973 6.6380
# 3 4.9958 22.0936 140.7137 -2.6018 7.2094 2.8959
# 4 -1.5833 14.2682 -2.6018 57.1727 14.0253 9.2915
# 5 -14.4815 -1.8973 7.2094 14.0253 32.4976 4.2465
# 6 12.9869 6.6380 2.8959 9.2915 4.2465 32.8390
#
#
#
# Elastic Compliance Matrix: (Units=1/GPa)
#
#
# Indices 1 2 3 4 5 6 
#
# 1 0.040722 0.042570 -0.009522 -0.013832 0.031860 -0.024076
# 2 0.042570 0.096488 -0.018899 -0.029780 0.045853 -0.032176
# 3 -0.009522 -0.018899 0.011000 0.006773 -0.011519 0.006189
# 4 -0.013832 -0.029780 0.006773 0.029570 -0.022884 0.005485
# 5 0.031860 0.045853 -0.011519 -0.022884 0.063021 -0.022527
# 6 -0.024076 -0.032176 0.006189 0.005485 -0.022527 0.047292
#
#
# Mechanical properties :
#
#
# Convention : Reuss Voigt Hill
#
# Bulk Modulus (GPa) = 5.66548 28.20765 16.93657
# Shear Modulus (GPa) = 15.69215 38.90270 27.29742
#
# Velocity S-wave (km/s) = 2.53029 3.98400 3.33726
# Velocity P-wave (km/s) = 3.29363 5.71591 4.66474
#
# Compressibility (1/GPa) = 0.17650762
#
# Stress axis : x y z
#
# Youngs Moduli (GPa) = 24.55700 10.36398 90.90904
#
# Poissons Ratio (x) = -0.44119 0.86566
# Poissons Ratio (y) = -1.04539 1.71806
# Poissons Ratio (z) = 0.23384 0.19587
#
# Static dielectric constant tensor:
#      x y z
#    x 1.915720 -0.036050 -0.040860 
#    y -0.036050 2.151610 0.211590 
#    z -0.040860 0.211590 2.068110 
# 
# From -- ./inp_files/354076.got.cif
#   From: 2010.05.17/outbox.cif.g08.bks.cpg/sg2_178_cif.got.tgz:354076.got - 2010.06.03 11:33:40.
