data_PCOD9008490
_publ_section_title
;
Structure prediction by ZEFSAII (Michael W. Deem and Ramdas Pophale) SiO2 
 PCOD9008490
Probable space group: P -1
;
_chemical_formula_sum "Si O2"
_cell_formula_units_Z 16
_cell_length_a 19.352110
_cell_length_b 8.445680
_cell_length_c 11.207696
_cell_angle_alpha 55.254383
_cell_angle_beta 32.685389
_cell_angle_gamma 45.398934
_cell_volume 703.283235
_symmetry_space_group_name_H-M "P -1"
_symmetry_group_IT_number 2
_symmetry_cell_setting 'triclinic'
loop_
_space_group_symop_operation_xyz
x,y,z
-x,-y,-z
loop_
_atom_site_type_symbol
_atom_site_label
_atom_site_fract_x
_atom_site_fract_y
_atom_site_fract_z
Si Si1 0.356827 0.854230 0.305433
Si Si2 0.392535 0.767555 0.562431
Si Si3 0.940460 0.257847 0.631941
Si Si4 0.686727 0.684104 0.925688
Si Si5 0.917239 0.835815 0.764707
Si Si6 0.074815 0.956441 0.035706
Si Si7 0.680894 0.721799 0.201365
Si Si8 0.843247 0.359594 0.326690
O O1 0.330589 0.879116 0.475947
O O2 0.255429 0.754741 0.450339
O O3 0.334087 0.075292 0.179342
O O4 0.533682 0.689468 0.113069
O O5 0.500000 0.500000 0.500000
O O6 0.250938 0.832382 0.821872
O O7 0.504124 0.845221 0.415640
O O8 0.810845 0.504889 0.735730
O O9 0.065560 0.226983 0.372782
O O10 0.901338 0.075751 0.712307
O O11 0.981643 0.174511 0.743051
O O12 0.709115 0.637459 0.056832
O O13 0.075287 0.636175 0.672435
O O14 0.771273 0.849320 0.022054
O O15 0.000000 0.000000 0.000000
O O16 0.996864 0.198220 0.103793
O O17 0.747641 0.545884 0.288388
#
# Coordination Sequence:
#
# PCOD9008490 Si02
#       8
#     2   2   2   2   2   2   2   2
#     4  10  21  39  65 101 135 161 211 279 332 380
#     4  11  20  38  64  98 130 164 207 270 336 375
#     4  10  23  43  64  94 132 175 221 262 326 389
#     4  10  23  39  68 101 126 166 222 275 327 382
#     4  10  25  43  62  91 136 179 217 262 325 389
#     4  11  20  35  65  97 123 163 214 267 319 379
#     4  11  23  41  71  96 129 171 216 275 325 388
#     4  11  22  41  67  91 134 175 214 266 331 385
#
# _framework density 22.750436000000001
#
# number of rings (size 3 to 8) (size 9 to 14) (size 15 to 20)
#    0.000    1.500    2.500    2.625    5.250    1.500 
#    2.250    3.125    2.750    0.000    0.000    0.000 
#    0.000    0.000    0.000    0.000    0.000    0.000 
#
# Total GULP energy -89202.015125 kJ/mol
# GULP energy per Si atom -5575.125945 kJ/mol
# Density = 2.269866 g / cm^3
# Si number density = 22.750436 Si / 1000 Ang^3
#
#
#
# Elastic Constant Matrix: (Units=GPa)
#
#
# Indices 1 2 3 4 5 6 
#
# 1 90.4775 9.5230 34.1214 -1.6640 -12.4803 -23.6734
# 2 9.5230 34.4228 17.8693 -1.7881 1.9387 -11.5846
# 3 34.1214 17.8693 105.1911 -18.3903 -15.0885 -9.9681
# 4 -1.6640 -1.7881 -18.3903 31.0737 -1.5559 0.5494
# 5 -12.4803 1.9387 -15.0885 -1.5559 48.1193 -2.8188
# 6 -23.6734 -11.5846 -9.9681 0.5494 -2.8188 24.0415
#
#
#
# Elastic Compliance Matrix: (Units=1/GPa)
#
#
# Indices 1 2 3 4 5 6 
#
# 1 0.017369 0.002860 -0.004160 -0.001470 0.004049 0.017265
# 2 0.002860 0.037578 -0.006125 -0.001716 -0.001681 0.018227
# 3 -0.004160 -0.006125 0.013658 0.007710 0.003633 -0.001135
# 4 -0.001470 -0.001716 0.007710 0.036725 0.003321 0.000473
# 5 0.004049 -0.001681 0.003633 0.003321 0.023578 0.007372
# 6 0.017265 0.018227 -0.001135 0.000473 0.007372 0.067761
#
#
# Mechanical properties :
#
#
# Convention : Reuss Voigt Hill
#
# Bulk Modulus (GPa) = 18.60275 39.23540 28.91907
# Shear Modulus (GPa) = 21.79236 31.88542 26.83889
#
# Velocity S-wave (km/s) = 3.09833 3.74776 3.43842
# Velocity P-wave (km/s) = 4.58194 6.00092 5.33879
#
# Compressibility (1/GPa) = 0.05375550
#
# Stress axis : x y z
#
# Youngs Moduli (GPa) = 57.57323 26.61099 73.21732
#
# Poissons Ratio (x) = -0.07612 0.30460
# Poissons Ratio (y) = -0.16468 0.44848
# Poissons Ratio (z) = 0.23951 0.16300
#
# Static dielectric constant tensor:
#      x y z
#    x 2.377830 -0.078190 0.155490 
#    y -0.078190 1.909510 -0.057560 
#    z 0.155490 -0.057560 1.921880 
# 
# From -- ./inp_files/469810.got.cif
#   From: 2010.05.17/outbox.cif.g08.bks.cpg/sg2_235_cif.got.tgz:469810.got - 2010.06.03 11:33:40.
