data_PCOD9008095
_publ_section_title
;
Structure prediction by ZEFSAII (Michael W. Deem and Ramdas Pophale) SiO2 
 PCOD9008095
Probable space group: P -1
;
_chemical_formula_sum "Si O2"
_cell_formula_units_Z 14
_cell_length_a 8.626315
_cell_length_b 9.665728
_cell_length_c 12.895941
_cell_angle_alpha 37.083239
_cell_angle_beta 110.098378
_cell_angle_gamma 114.221986
_cell_volume 591.013494
_symmetry_space_group_name_H-M "P -1"
_symmetry_group_IT_number 2
_symmetry_cell_setting 'triclinic'
loop_
_space_group_symop_operation_xyz
x,y,z
-x,-y,-z
loop_
_atom_site_type_symbol
_atom_site_label
_atom_site_fract_x
_atom_site_fract_y
_atom_site_fract_z
Si Si1 0.330531 0.393865 0.144006
Si Si2 0.479467 0.957941 0.692247
Si Si3 0.597684 0.067874 0.089114
Si Si4 0.217600 0.660981 0.546904
Si Si5 0.148464 0.235068 0.392666
Si Si6 0.854993 0.765191 0.374904
Si Si7 0.154730 0.579949 0.814335
O O1 0.461919 0.278877 0.182475
O O2 0.270622 0.233789 0.326105
O O3 0.383651 0.655420 0.048257
O O4 0.194946 0.412109 0.012970
O O5 0.509675 0.042099 0.767723
O O6 0.276760 0.844775 0.705128
O O7 0.599836 0.158611 0.531580
O O8 0.772058 0.975191 0.189448
O O9 0.500000 0.000000 0.000000
O O10 0.202860 0.457218 0.580695
O O11 0.194504 0.542077 0.726171
O O12 0.060533 0.790454 0.416666
O O13 0.215033 0.291207 0.490232
O O14 0.042900 0.426896 0.222265
O O15 0.000000 0.000000 0.500000
#
# Coordination Sequence:
#
# PCOD9008095 Si02
#       7
#     2   2   2   2   2   2   2
#     4  11  24  41  67  99 135 178 227 273 343 396
#     4  11  24  41  65 101 133 180 231 272 341 397
#     4  11  26  45  66  99 141 177 226 282 339 402
#     4  10  23  43  69  98 139 180 225 280 334 403
#     4  11  22  41  68  94 132 176 228 275 326 407
#     4  10  24  44  66  98 138 180 227 274 341 403
#     4  10  21  39  63  98 130 173 222 279 327 393
#
# _framework density 23.688120000000001
#
# number of rings (size 3 to 8) (size 9 to 14) (size 15 to 20)
#    0.000    1.429    0.000    6.000    6.000    2.857 
#    0.000    0.714    0.000    0.000    0.000    0.000 
#    0.000    0.000    0.000    0.000    0.000    0.000 
#
# Total GULP energy -78187.927263 kJ/mol
# GULP energy per Si atom -5584.851947 kJ/mol
# Density = 2.363420 g / cm^3
# Si number density = 23.688120 Si / 1000 Ang^3
#
#
#
# Elastic Constant Matrix: (Units=GPa)
#
#
# Indices 1 2 3 4 5 6 
#
# 1 99.0650 44.2539 52.4189 14.3895 13.7621 -15.7468
# 2 44.2539 159.5380 46.0022 29.2191 17.0970 -26.0793
# 3 52.4189 46.0022 86.0954 22.7262 14.8438 -5.7686
# 4 14.3895 29.2191 22.7262 48.5850 -1.1527 -2.6129
# 5 13.7621 17.0970 14.8438 -1.1527 47.8614 5.0584
# 6 -15.7468 -26.0793 -5.7686 -2.6129 5.0584 33.6131
#
#
#
# Elastic Compliance Matrix: (Units=1/GPa)
#
#
# Indices 1 2 3 4 5 6 
#
# 1 0.016321 -0.000803 -0.008709 -0.000016 -0.002327 0.005877
# 2 -0.000803 0.009344 -0.002481 -0.003940 -0.003131 0.006613
# 3 -0.008709 -0.002481 0.019972 -0.005474 -0.002661 -0.002602
# 4 -0.000016 -0.003940 -0.005474 0.025471 0.004001 -0.002626
# 5 -0.002327 -0.003131 -0.002661 0.004001 0.024378 -0.007334
# 6 0.005877 0.006613 -0.002602 -0.002626 -0.007334 0.038087
#
#
# Mechanical properties :
#
#
# Convention : Reuss Voigt Hill
#
# Bulk Modulus (GPa) = 46.18416 70.00536 58.09476
# Shear Modulus (GPa) = 30.34408 39.48012 34.91210
#
# Velocity S-wave (km/s) = 3.58297 4.08691 3.84321
# Velocity P-wave (km/s) = 6.05441 7.20330 6.65370
#
# Compressibility (1/GPa) = 0.02165245
#
# Stress axis : x y z
#
# Youngs Moduli (GPa) = 61.27088 107.01536 50.06973
#
# Poissons Ratio (x) = 0.08594 0.43604
# Poissons Ratio (y) = 0.04920 0.12422
# Poissons Ratio (z) = 0.53358 0.26549
#
# Static dielectric constant tensor:
#      x y z
#    x 1.950760 -0.011250 0.056290 
#    y -0.011250 1.856600 -0.008880 
#    z 0.056290 -0.008880 1.983660 
# 
# From -- ./inp_files/377730.got.cif
#   From: 2010.05.17/outbox.cif.g08.bks.cpg/sg2_189_cif.got.tgz:377730.got - 2010.06.03 11:33:40.
