data_PCOD9008272
_publ_section_title
;
Structure prediction by ZEFSAII (Michael W. Deem and Ramdas Pophale) SiO2 
 PCOD9008272
Probable space group: P -1
;
_chemical_formula_sum "Si O2"
_cell_formula_units_Z 16
_cell_length_a 10.595727
_cell_length_b 8.733956
_cell_length_c 9.384625
_cell_angle_alpha 70.918656
_cell_angle_beta 62.661014
_cell_angle_gamma 72.599826
_cell_volume 717.523464
_symmetry_space_group_name_H-M "P -1"
_symmetry_group_IT_number 2
_symmetry_cell_setting 'triclinic'
loop_
_space_group_symop_operation_xyz
x,y,z
-x,-y,-z
loop_
_atom_site_type_symbol
_atom_site_label
_atom_site_fract_x
_atom_site_fract_y
_atom_site_fract_z
Si Si1 0.811663 0.757429 0.736673
Si Si2 0.361663 0.626684 0.297178
Si Si3 0.999947 0.904103 0.796202
Si Si4 0.278269 0.917487 0.460538
Si Si5 0.320452 0.554325 0.043052
Si Si6 0.128889 0.528893 0.619839
Si Si7 0.372764 0.622569 0.674396
Si Si8 0.986100 0.242265 0.865519
O O1 0.710898 0.631806 0.879984
O O2 0.855621 0.875516 0.801844
O O3 0.971526 0.647754 0.652867
O O4 0.732967 0.888641 0.621786
O O5 0.316570 0.809149 0.329324
O O6 0.412695 0.598512 0.116533
O O7 0.223057 0.541416 0.426909
O O8 0.489714 0.524056 0.355970
O O9 0.121086 0.903494 0.611615
O O10 0.003578 0.070558 0.828665
O O11 0.019005 0.773199 0.955675
O O12 0.384057 0.804004 0.552662
O O13 0.165973 0.659943 0.133180
O O14 0.345755 0.629143 0.854829
O O15 0.235022 0.575357 0.675740
O O16 0.103256 0.348051 0.723700
#
# Coordination Sequence:
#
# PCOD9008272 Si02
#       8
#     2   2   2   2   2   2   2   2
#     4  11  22  36  65  93 126 148 194 256 319 347
#     4  11  24  40  63  87 119 167 210 242 287 360
#     4  11  20  36  58  96 126 159 184 244 319 369
#     4  11  22  39  62  91 120 159 199 244 304 360
#     4  11  23  40  62  93 121 157 204 253 296 357
#     4  10  21  39  64  92 122 154 200 253 302 361
#     4  11  22  43  66  82 120 171 208 237 293 362
#     4  10  22  35  63  95 127 149 198 252 314 357
#
# _framework density 22.298922999999998
#
# number of rings (size 3 to 8) (size 9 to 14) (size 15 to 20)
#    0.000    1.250    3.750    3.750    3.500    3.000 
#    0.000    1.250    2.750    0.000    0.000    0.000 
#    0.000    0.000    0.000    0.000    0.000    0.000 
#
# Total GULP energy -89160.036061 kJ/mol
# GULP energy per Si atom -5572.502254 kJ/mol
# Density = 2.224817 g / cm^3
# Si number density = 22.298923 Si / 1000 Ang^3
#
#
#
# Elastic Constant Matrix: (Units=GPa)
#
#
# Indices 1 2 3 4 5 6 
#
# 1 55.0331 23.2059 6.6790 -7.4935 15.4714 -15.7649
# 2 23.2059 93.6960 43.1870 -20.1799 6.7430 -16.8641
# 3 6.6790 43.1870 98.1961 -1.8513 29.2923 5.8927
# 4 -7.4935 -20.1799 -1.8513 40.7990 -0.0524 11.8628
# 5 15.4714 6.7430 29.2923 -0.0524 34.6004 -5.4985
# 6 -15.7649 -16.8641 5.8927 11.8628 -5.4985 15.7689
#
#
#
# Elastic Compliance Matrix: (Units=1/GPa)
#
#
# Indices 1 2 3 4 5 6 
#
# 1 0.028343 -0.002765 0.000220 -0.003418 -0.008361 0.024952
# 2 -0.002765 0.025445 -0.018594 0.000394 0.017957 0.037362
# 3 0.000220 -0.018594 0.029675 0.005124 -0.028679 -0.044609
# 4 -0.003418 0.000394 0.005124 0.033985 -0.008128 -0.033311
# 5 -0.008361 0.017957 -0.028679 -0.008128 0.061196 0.049016
# 6 0.024952 0.037362 -0.044609 -0.033311 0.049016 0.187140
#
#
# Mechanical properties :
#
#
# Convention : Reuss Voigt Hill
#
# Bulk Modulus (GPa) = 24.27971 43.67432 33.97701
# Shear Modulus (GPa) = 11.85422 29.82391 20.83906
#
# Velocity S-wave (km/s) = 2.30816 3.66110 3.06033
# Velocity P-wave (km/s) = 4.24445 6.12371 5.26855
#
# Compressibility (1/GPa) = 0.04118665
#
# Stress axis : x y z
#
# Youngs Moduli (GPa) = 35.28202 39.29989 33.69842
#
# Poissons Ratio (x) = 0.10865 -0.00743
# Poissons Ratio (y) = 0.09754 0.62660
# Poissons Ratio (z) = -0.00778 0.73075
#
# Static dielectric constant tensor:
#      x y z
#    x 1.893390 -0.026420 0.012260 
#    y -0.026420 1.876760 0.037230 
#    z 0.012260 0.037230 1.881480 
# 
# From -- ./inp_files/237550.got.cif
#   From: 2010.05.17/outbox.cif.g08.bks.cpg/sg2_119_cif.got.tgz:237550.got - 2010.06.03 11:33:40.
