data_PCOD9008443
_publ_section_title
;
Structure prediction by ZEFSAII (Michael W. Deem and Ramdas Pophale) SiO2 
 PCOD9008443
Probable space group: P -1
;
_chemical_formula_sum "Si O2"
_cell_formula_units_Z 10
_cell_length_a 18.127561
_cell_length_b 4.975645
_cell_length_c 5.752903
_cell_angle_alpha 82.172752
_cell_angle_beta 60.473175
_cell_angle_gamma 62.865114
_cell_volume 399.167533
_symmetry_space_group_name_H-M "P -1"
_symmetry_group_IT_number 2
_symmetry_cell_setting 'triclinic'
loop_
_space_group_symop_operation_xyz
x,y,z
-x,-y,-z
loop_
_atom_site_type_symbol
_atom_site_label
_atom_site_fract_x
_atom_site_fract_y
_atom_site_fract_z
Si Si1 0.200091 0.695337 0.461601
Si Si2 0.618970 0.447566 0.567427
Si Si3 0.735762 0.961514 0.056218
Si Si4 0.437452 0.917855 0.927111
Si Si5 0.890535 0.680153 0.209825
O O1 0.299349 0.478628 0.462207
O O2 0.224741 0.856990 0.191826
O O3 0.142633 0.502740 0.533877
O O4 0.139298 0.981176 0.691149
O O5 0.517310 0.721814 0.636931
O O6 0.666764 0.207978 0.319402
O O7 0.595924 0.286054 0.840086
O O8 0.663437 0.854227 0.055115
O O9 0.825889 0.714947 0.080014
O O10 0.500000 0.000000 0.000000
O O11 0.000000 0.500000 0.000000
#
# Coordination Sequence:
#
# PCOD9008443 Si02
#       5
#     2   2   2   2   2
#     4  10  24  43  70 101 138 170 232 279 334 414
#     4   9  21  40  60  96 136 175 223 275 328 402
#     4  10  23  43  68  99 135 186 217 279 347 391
#     4  10  21  39  64  97 134 176 229 272 323 410
#     4  11  25  47  70 101 136 174 228 287 340 406
#
# _framework density 25.052135
#
# number of rings (size 3 to 8) (size 9 to 14) (size 15 to 20)
#    0.000    2.000    0.000    1.200    8.400    5.600 
#   14.400    0.000    0.000    0.000    0.000    0.000 
#    0.000    0.000    0.000    0.000    0.000    0.000 
#
# Total GULP energy -55943.187581 kJ/mol
# GULP energy per Si atom -5594.318758 kJ/mol
# Density = 2.499512 g / cm^3
# Si number density = 25.052135 Si / 1000 Ang^3
#
#
#
# Elastic Constant Matrix: (Units=GPa)
#
#
# Indices 1 2 3 4 5 6 
#
# 1 146.6006 48.6212 55.7363 14.2185 -34.2976 -22.9936
# 2 48.6212 89.8315 29.1545 -0.6311 -19.4639 -11.3702
# 3 55.7363 29.1545 95.8937 9.4672 -27.1015 -24.6033
# 4 14.2185 -0.6311 9.4672 35.3470 4.8157 -6.1934
# 5 -34.2976 -19.4639 -27.1015 4.8157 45.1931 6.0996
# 6 -22.9936 -11.3702 -24.6033 -6.1934 6.0996 47.7512
#
#
#
# Elastic Compliance Matrix: (Units=1/GPa)
#
#
# Indices 1 2 3 4 5 6 
#
# 1 0.011079 -0.003706 -0.002988 -0.004136 0.005230 0.001708
# 2 -0.003706 0.014208 -0.001591 0.002031 0.002030 0.000783
# 3 -0.002988 -0.001591 0.016087 -0.003072 0.006311 0.005266
# 4 -0.004136 0.002031 -0.003072 0.032246 -0.007824 0.002091
# 5 0.005230 0.002030 0.006311 -0.007824 0.031423 0.001224
# 6 0.001708 0.000783 0.005266 0.002091 0.001224 0.024779
#
#
# Mechanical properties :
#
#
# Convention : Reuss Voigt Hill
#
# Bulk Modulus (GPa) = 40.31944 66.59444 53.45694
# Shear Modulus (GPa) = 32.32879 38.91252 35.62066
#
# Velocity S-wave (km/s) = 3.59620 3.94542 3.77485
# Velocity P-wave (km/s) = 5.77691 6.88441 6.35483
#
# Compressibility (1/GPa) = 0.02480193
#
# Stress axis : x y z
#
# Youngs Moduli (GPa) = 90.25916 70.38461 62.16348
#
# Poissons Ratio (x) = 0.26088 0.18574
# Poissons Ratio (y) = 0.33454 0.09893
# Poissons Ratio (z) = 0.26969 0.11201
#
# Static dielectric constant tensor:
#      x y z
#    x 2.018830 0.008650 0.078170 
#    y 0.008650 2.015950 -0.001830 
#    z 0.078170 -0.001830 2.010190 
# 
# From -- ./inp_files/85673.got.cif
#   From: 2010.05.17/outbox.cif.g08.bks.cpg/sg2_43_cif.got.tgz:85673.got - 2010.06.03 11:33:40.
