data_PCOD9008213
_publ_section_title
;
Structure prediction by ZEFSAII (Michael W. Deem and Ramdas Pophale) SiO2 
 PCOD9008213
Probable space group: P -1
;
_chemical_formula_sum "Si O2"
_cell_formula_units_Z 12
_cell_length_a 10.253835
_cell_length_b 7.243366
_cell_length_c 10.991286
_cell_angle_alpha 89.899721
_cell_angle_beta 137.144411
_cell_angle_gamma 99.128473
_cell_volume 540.174690
_symmetry_space_group_name_H-M "P -1"
_symmetry_group_IT_number 2
_symmetry_cell_setting 'triclinic'
loop_
_space_group_symop_operation_xyz
x,y,z
-x,-y,-z
loop_
_atom_site_type_symbol
_atom_site_label
_atom_site_fract_x
_atom_site_fract_y
_atom_site_fract_z
Si Si1 0.381668 0.027518 0.298407
Si Si2 0.473702 0.087379 0.109640
Si Si3 0.556374 0.526236 0.711228
Si Si4 0.136568 0.650924 0.183165
Si Si5 0.796612 0.658235 0.107722
Si Si6 0.769519 0.491031 0.346585
O O1 0.478965 0.976887 0.238882
O O2 0.386878 0.250653 0.287633
O O3 0.500000 0.000000 0.500000
O O4 0.178906 0.868807 0.168424
O O5 0.644491 0.277732 0.238761
O O6 0.261889 0.143983 0.960124
O O7 0.500000 0.000000 0.000000
O O8 0.344054 0.588772 0.316774
O O9 0.328419 0.455568 0.595382
O O10 0.665366 0.520908 0.917462
O O11 0.019217 0.649474 0.228655
O O12 0.000000 0.500000 0.000000
O O13 0.737130 0.607986 0.204829
O O14 0.000000 0.500000 0.500000
#
# Coordination Sequence:
#
# PCOD9008213 Si02
#       6
#     2   2   2   2   2   2
#     4  10  23  41  61  93 136 160 207 273 319 366
#     4  10  23  41  66  91 124 174 212 252 320 384
#     4   9  21  41  63  90 124 174 210 252 326 383
#     4  10  22  38  67  91 120 169 218 253 315 383
#     4   9  20  38  62  90 125 159 215 260 308 379
#     4  10  21  39  64  90 125 159 211 270 314 368
#
# _framework density 22.215036000000001
#
# number of rings (size 3 to 8) (size 9 to 14) (size 15 to 20)
#    0.000    2.667    0.000    2.000   11.667    6.667 
#    0.000    0.833    0.000    0.000    0.000    0.000 
#    0.000    0.000    0.000    0.000    0.000    0.000 
#
# Total GULP energy -66853.836173 kJ/mol
# GULP energy per Si atom -5571.153014 kJ/mol
# Density = 2.216447 g / cm^3
# Si number density = 22.215036 Si / 1000 Ang^3
#
#
#
# Elastic Constant Matrix: (Units=GPa)
#
#
# Indices 1 2 3 4 5 6 
#
# 1 197.4991 44.7302 36.4870 -6.3742 11.5371 3.3754
# 2 44.7302 78.5689 27.7626 -2.5558 0.2982 21.6291
# 3 36.4870 27.7626 71.6522 -11.2591 -3.8861 5.8848
# 4 -6.3742 -2.5558 -11.2591 29.4367 3.4929 -4.4627
# 5 11.5371 0.2982 -3.8861 3.4929 44.2760 -5.7101
# 6 3.3754 21.6291 5.8848 -4.4627 -5.7101 40.3032
#
#
#
# Elastic Compliance Matrix: (Units=1/GPa)
#
#
# Indices 1 2 3 4 5 6 
#
# 1 0.006258 -0.003173 -0.002047 0.000695 -0.001674 0.001317
# 2 -0.003173 0.018981 -0.005385 -0.002446 -0.000808 -0.009520
# 3 -0.002047 -0.005385 0.018012 0.005964 0.001855 0.001355
# 4 0.000695 -0.002446 0.005964 0.037067 -0.002024 0.004201
# 5 -0.001674 -0.000808 0.001855 -0.002024 0.023795 0.003450
# 6 0.001317 -0.009520 0.001355 0.004201 0.003450 0.030567
#
#
# Mechanical properties :
#
#
# Convention : Reuss Voigt Hill
#
# Bulk Modulus (GPa) = 45.37116 62.85332 54.11224
# Shear Modulus (GPa) = 30.63046 38.71923 34.67484
#
# Velocity S-wave (km/s) = 3.71727 4.17937 3.95507
# Velocity P-wave (km/s) = 6.23635 7.18638 6.72816
#
# Compressibility (1/GPa) = 0.02204043
#
# Stress axis : x y z
#
# Youngs Moduli (GPa) = 159.80016 52.68379 55.51973
#
# Poissons Ratio (x) = 0.16717 0.11365
# Poissons Ratio (y) = 0.50706 0.29898
# Poissons Ratio (z) = 0.32710 0.28371
#
# Static dielectric constant tensor:
#      x y z
#    x 1.901000 -0.030640 0.042450 
#    y -0.030640 1.866810 -0.036000 
#    z 0.042450 -0.036000 1.911130 
# 
# From -- ./inp_files/412518.got.cif
#   From: 2010.05.17/outbox.cif.g08.bks.cpg/sg2_207_cif.got.tgz:412518.got - 2010.06.03 11:33:40.
