data_PCOD9008009
_publ_section_title
;
Structure prediction by ZEFSAII (Michael W. Deem and Ramdas Pophale) SiO2 
 PCOD9008009
Probable space group: P -1
;
_chemical_formula_sum "Si O2"
_cell_formula_units_Z 16
_cell_length_a 14.066175
_cell_length_b 8.845819
_cell_length_c 13.752267
_cell_angle_alpha 51.993358
_cell_angle_beta 149.980185
_cell_angle_gamma 131.804842
_cell_volume 634.721036
_symmetry_space_group_name_H-M "P -1"
_symmetry_group_IT_number 2
_symmetry_cell_setting 'triclinic'
loop_
_space_group_symop_operation_xyz
x,y,z
-x,-y,-z
loop_
_atom_site_type_symbol
_atom_site_label
_atom_site_fract_x
_atom_site_fract_y
_atom_site_fract_z
Si Si1 0.880237 0.258176 0.494728
Si Si2 0.431407 0.706264 0.433775
Si Si3 0.851216 0.130498 0.309622
Si Si4 0.839536 0.662667 0.785976
Si Si5 0.143347 0.605114 0.937309
Si Si6 0.513162 0.512309 0.241182
Si Si7 0.551748 0.866713 0.768748
Si Si8 0.270513 0.153758 0.856308
O O1 0.781723 0.160473 0.342465
O O2 0.693360 0.215793 0.418179
O O3 0.000000 0.500000 0.500000
O O4 0.052287 0.155361 0.698797
O O5 0.673925 0.772367 0.600889
O O6 0.305137 0.558421 0.296069
O O7 0.393766 0.565161 0.552480
O O8 0.379807 0.911766 0.306578
O O9 0.939799 0.358698 0.254987
O O10 0.719685 0.014033 0.148114
O O11 0.000000 0.000000 0.500000
O O12 0.032968 0.721947 0.864240
O O13 0.914204 0.615449 0.975246
O O14 0.379572 0.640422 0.114494
O O15 0.377271 0.298960 0.158109
O O16 0.641489 0.642745 0.213938
O O17 0.615967 0.863033 0.938664
#
# Coordination Sequence:
#
# PCOD9008009 Si02
#       8
#     2   2   2   2   2   2   2   2
#     4  11  25  43  69 101 137 186 220 280 348 408
#     4  10  23  41  68  94 133 176 225 283 342 403
#     4  10  24  39  66 104 132 172 232 286 336 399
#     4   9  21  40  65  94 128 179 219 282 346 403
#     4  10  21  39  63  93 134 169 229 276 341 409
#     4  11  24  43  65  98 137 182 226 277 349 411
#     4  12  25  45  71  98 143 179 233 282 342 415
#     4  11  25  45  70 102 139 178 233 286 343 405
#
# _framework density 25.207923999999998
#
# number of rings (size 3 to 8) (size 9 to 14) (size 15 to 20)
#    0.000    1.500    1.250    2.250    8.750    4.000 
#    2.250    0.625    0.000    0.000    0.000    0.000 
#    0.000    0.000    0.000    0.000    0.000    0.000 
#
# Total GULP energy -89210.656699 kJ/mol
# GULP energy per Si atom -5575.666044 kJ/mol
# Density = 2.515055 g / cm^3
# Si number density = 25.207924 Si / 1000 Ang^3
#
#
#
# Elastic Constant Matrix: (Units=GPa)
#
#
# Indices 1 2 3 4 5 6 
#
# 1 77.6169 0.9516 50.8657 -9.3366 5.8659 4.9466
# 2 0.9516 101.3433 46.9706 -21.8876 -0.6457 -16.1819
# 3 50.8657 46.9706 128.7973 -24.5600 -2.0836 8.1809
# 4 -9.3366 -21.8876 -24.5600 34.6675 9.0881 -1.2212
# 5 5.8659 -0.6457 -2.0836 9.0881 29.3748 -0.3816
# 6 4.9466 -16.1819 8.1809 -1.2212 -0.3816 44.7834
#
#
#
# Elastic Compliance Matrix: (Units=1/GPa)
#
#
# Indices 1 2 3 4 5 6 
#
# 1 0.019456 0.004901 -0.008985 0.003447 -0.005464 0.001311
# 2 0.004901 0.015530 -0.006626 0.007538 -0.003355 0.006458
# 3 -0.008985 -0.006626 0.014614 0.003177 0.001651 -0.003971
# 4 0.003447 0.007538 0.003177 0.040210 -0.012702 0.002751
# 5 -0.005464 -0.003355 0.001651 -0.012702 0.039095 -0.000924
# 6 0.001311 0.006458 -0.003971 0.002751 -0.000924 0.025311
#
#
# Mechanical properties :
#
#
# Convention : Reuss Voigt Hill
#
# Bulk Modulus (GPa) = 35.48753 56.14814 45.81783
# Shear Modulus (GPa) = 27.02235 35.69644 31.35940
#
# Velocity S-wave (km/s) = 3.27766 3.76717 3.53091
# Velocity P-wave (km/s) = 5.33222 6.42218 5.90241
#
# Compressibility (1/GPa) = 0.02817891
#
# Stress axis : x y z
#
# Youngs Moduli (GPa) = 51.39704 64.39016 68.42743
#
# Poissons Ratio (x) = -0.31557 0.61485
# Poissons Ratio (y) = -0.25189 0.45342
# Poissons Ratio (z) = 0.46183 0.42667
#
# Static dielectric constant tensor:
#      x y z
#    x 2.004800 0.055950 -0.001570 
#    y 0.055950 2.080680 0.013750 
#    z -0.001570 0.013750 2.016460 
# 
# From -- ./inp_files/521943.got.cif
#   From: 2010.05.17/outbox.cif.g08.bks.cpg/sg2_261_cif.got.tgz:521943.got - 2010.06.03 11:33:40.
