data_PCOD9008180
_publ_section_title
;
Structure prediction by ZEFSAII (Michael W. Deem and Ramdas Pophale) SiO2 
 PCOD9008180
Probable space group: P -1
;
_chemical_formula_sum "Si O2"
_cell_formula_units_Z 16
_cell_length_a 15.791992
_cell_length_b 17.564145
_cell_length_c 12.744126
_cell_angle_alpha 144.301802
_cell_angle_beta 129.943049
_cell_angle_gamma 24.357677
_cell_volume 777.307278
_symmetry_space_group_name_H-M "P -1"
_symmetry_group_IT_number 2
_symmetry_cell_setting 'triclinic'
loop_
_space_group_symop_operation_xyz
x,y,z
-x,-y,-z
loop_
_atom_site_type_symbol
_atom_site_label
_atom_site_fract_x
_atom_site_fract_y
_atom_site_fract_z
Si Si1 0.339904 0.034160 0.287408
Si Si2 0.359436 0.696887 0.435183
Si Si3 0.627445 0.665110 0.697372
Si Si4 0.177640 0.435808 0.748361
Si Si5 0.069723 0.859310 0.560612
Si Si6 0.813044 0.289993 0.002509
Si Si7 0.362824 0.719184 0.984647
Si Si8 0.299774 0.137761 0.126909
O O1 0.213148 0.271082 0.522058
O O2 0.317523 0.090945 0.211583
O O3 0.602935 0.772802 0.238108
O O4 0.260518 0.968374 0.173345
O O5 0.469518 0.719664 0.579561
O O6 0.264303 0.719434 0.485876
O O7 0.541698 0.425003 0.212322
O O8 0.148098 0.934654 0.455451
O O9 0.845403 0.362702 0.571408
O O10 0.681172 0.729209 0.735244
O O11 0.493622 0.863910 0.911547
O O12 0.945937 0.659564 0.877059
O O13 0.157662 0.585478 0.828407
O O14 0.001788 0.029500 0.788639
O O15 0.581519 0.509732 0.998985
O O16 0.784991 0.239203 0.030376
#
# Coordination Sequence:
#
# PCOD9008180 Si02
#       8
#     2   2   2   2   2   2   2   2
#     4  10  22  41  66  89 122 167 202 248 314 368
#     4  10  21  39  64  89 121 162 206 255 310 365
#     4  11  25  40  60  89 124 165 206 254 304 363
#     4  10  22  41  66  89 122 167 202 248 314 368
#     4  10  21  39  64  89 121 162 206 255 310 365
#     4   9  19  36  61  94 123 151 202 260 304 361
#     4   9  19  36  61  94 123 151 202 260 304 361
#     4  11  25  42  58  88 128 160 208 258 295 368
#
# _framework density 20.583880000000001
#
# number of rings (size 3 to 8) (size 9 to 14) (size 15 to 20)
#    0.000    2.000    0.000    2.250    3.500    5.000 
#    0.000    3.750    0.000    0.000    0.000    0.000 
#    0.000    0.000    0.000    0.000    0.000    0.000 
#
# Total GULP energy -89454.539515 kJ/mol
# GULP energy per Si atom -5590.908720 kJ/mol
# Density = 2.053703 g / cm^3
# Si number density = 20.583880 Si / 1000 Ang^3
#
#
#
# Elastic Constant Matrix: (Units=GPa)
#
#
# Indices 1 2 3 4 5 6 
#
# 1 92.9562 8.1313 41.7717 -4.9968 20.2936 26.3254
# 2 8.1313 68.7927 14.5545 14.7992 6.1684 3.9880
# 3 41.7717 14.5545 103.2351 14.5609 24.4763 22.2643
# 4 -4.9968 14.7992 14.5609 6.2936 4.8610 22.0098
# 5 20.2936 6.1684 24.4763 4.8610 39.2329 -3.5079
# 6 26.3254 3.9880 22.2643 22.0098 -3.5079 9.2800
#
#
#
# Elastic Compliance Matrix: (Units=1/GPa)
#
#
# Indices 1 2 3 4 5 6 
#
# 1 0.009963 0.001774 -0.004019 -0.011333 -0.000881 0.007163
# 2 0.001774 0.015606 0.000222 -0.002132 -0.004027 -0.008738
# 3 -0.004019 0.000222 0.015931 -0.009459 -0.007373 -0.007268
# 4 -0.011333 -0.002132 -0.009459 0.006886 0.015288 0.045208
# 5 -0.000881 -0.004027 -0.007373 0.015288 0.028980 -0.003386
# 6 0.007163 -0.008738 -0.007268 0.045208 -0.003386 0.000131
#
#
# Mechanical properties :
#
#
# Convention : Reuss Voigt Hill
#
# Bulk Modulus (GPa) = 26.69863 43.76655 35.23259
# Shear Modulus (GPa) = 53.17565 24.32974 38.75269
#
# Velocity S-wave (km/s) = 5.08819 3.44172 4.34368
# Velocity P-wave (km/s) = 6.89336 6.09119 6.50466
#
# Compressibility (1/GPa) = 0.03745511
#
# Stress axis : x y z
#
# Youngs Moduli (GPa) = 100.37040 64.07761 62.76958
#
# Poissons Ratio (x) = -0.11370 0.25227
# Poissons Ratio (y) = -0.17810 -0.01393
# Poissons Ratio (z) = 0.40339 -0.01422
#
# Static dielectric constant tensor:
#      x y z
#    x 1.702130 -0.016580 -0.001570 
#    y -0.016580 1.744300 0.012510 
#    z -0.001570 0.012510 1.703090 
# 
# From -- ./inp_files/455950.got.cif
#   From: 2010.05.17/outbox.cif.g08.bks.cpg/sg2_228_cif.got.tgz:455950.got - 2010.06.03 11:33:40.
