data_PCOD9008933
_publ_section_title
;
Structure prediction by ZEFSAII (Michael W. Deem and Ramdas Pophale) SiO2 
 PCOD9008933
Probable space group: P -1
;
_chemical_formula_sum "Si O2"
_cell_formula_units_Z 16
_cell_length_a 15.779093
_cell_length_b 12.797268
_cell_length_c 5.627214
_cell_angle_alpha 102.744815
_cell_angle_beta 100.517354
_cell_angle_gamma 38.305776
_cell_volume 686.907566
_symmetry_space_group_name_H-M "P -1"
_symmetry_group_IT_number 2
_symmetry_cell_setting 'triclinic'
loop_
_space_group_symop_operation_xyz
x,y,z
-x,-y,-z
loop_
_atom_site_type_symbol
_atom_site_label
_atom_site_fract_x
_atom_site_fract_y
_atom_site_fract_z
Si Si1 0.542008 0.580969 0.307033
Si Si2 0.138549 0.428251 0.603496
Si Si3 0.232177 0.160892 0.882966
Si Si4 0.939715 0.104448 0.770911
Si Si5 0.630910 0.458164 0.790677
Si Si6 0.369709 0.102570 0.327385
Si Si7 0.020853 0.239766 0.101682
Si Si8 0.267951 0.976415 0.418484
O O1 0.617604 0.532225 0.569837
O O2 0.500887 0.494418 0.248232
O O3 0.396709 0.779957 0.333256
O O4 0.619911 0.528323 0.073960
O O5 0.194685 0.300699 0.781327
O O6 0.256404 0.304310 0.403205
O O7 0.000000 0.500000 0.500000
O O8 0.100563 0.585067 0.732065
O O9 0.251479 0.024194 0.707948
O O10 0.370241 0.063320 0.037693
O O11 0.101724 0.259663 0.029172
O O12 0.774906 0.256542 0.757580
O O13 0.000000 0.000000 0.500000
O O14 0.972795 0.198927 0.867565
O O15 0.000000 0.000000 0.000000
O O16 0.500000 0.000000 0.500000
O O17 0.305692 0.057718 0.385898
O O18 0.127856 0.084177 0.266689
#
# Coordination Sequence:
#
# PCOD9008933 Si02
#       8
#     2   2   2   2   2   2   2   2
#     4  10  22  41  68  90 129 173 222 275 329 408
#     4  11  20  40  62  96 131 167 229 280 325 422
#     4  10  21  39  66  93 132 172 229 270 344 402
#     4  12  28  47  69 101 143 173 230 292 345 406
#     4  10  23  43  64  95 128 172 222 277 341 390
#     4  10  23  40  60  95 133 171 215 280 342 401
#     4  11  24  39  67  95 126 184 219 276 345 405
#     4  10  22  38  64  95 126 171 229 264 334 413
#
# _framework density 23.292797
#
# number of rings (size 3 to 8) (size 9 to 14) (size 15 to 20)
#    0.000    1.500    3.750    1.875    7.000    4.000 
#    2.250    0.000    0.000    0.000    0.000    0.000 
#    0.000    0.000    0.000    0.000    0.000    0.000 
#
# Total GULP energy -89196.963683 kJ/mol
# GULP energy per Si atom -5574.810230 kJ/mol
# Density = 2.323978 g / cm^3
# Si number density = 23.292797 Si / 1000 Ang^3
#
#
#
# Elastic Constant Matrix: (Units=GPa)
#
#
# Indices 1 2 3 4 5 6 
#
# 1 43.1015 -0.1437 17.3620 -0.5894 16.8714 -9.8986
# 2 -0.1437 104.3948 54.4249 14.9229 2.3508 -3.0831
# 3 17.3620 54.4249 160.7704 11.6608 6.6661 -7.1504
# 4 -0.5894 14.9229 11.6608 37.6695 1.1380 6.4053
# 5 16.8714 2.3508 6.6661 1.1380 34.1385 -4.8443
# 6 -9.8986 -3.0831 -7.1504 6.4053 -4.8443 29.2749
#
#
#
# Elastic Compliance Matrix: (Units=1/GPa)
#
#
# Indices 1 2 3 4 5 6 
#
# 1 0.031888 0.002355 -0.003275 -0.000347 -0.014140 0.007966
# 2 0.002355 0.012307 -0.004024 -0.003877 -0.000838 0.001819
# 3 -0.003275 -0.004024 0.008028 -0.001083 0.000470 0.000744
# 4 -0.000347 -0.003877 -0.001083 0.029735 -0.001409 -0.007530
# 5 -0.014140 -0.000838 0.000470 -0.001409 0.036520 0.001597
# 6 0.007966 0.001819 0.000744 -0.007530 0.001597 0.039138
#
#
# Mechanical properties :
#
#
# Convention : Reuss Voigt Hill
#
# Bulk Modulus (GPa) = 23.62143 50.17258 36.89701
# Shear Modulus (GPa) = 27.53085 35.99148 31.76116
#
# Velocity S-wave (km/s) = 3.44168 3.93514 3.69665
# Velocity P-wave (km/s) = 5.09476 6.49875 5.83911
#
# Compressibility (1/GPa) = 0.04233443
#
# Stress axis : x y z
#
# Youngs Moduli (GPa) = 31.36020 81.25667 124.56413
#
# Poissons Ratio (x) = -0.19132 0.40794
# Poissons Ratio (y) = -0.07384 0.50119
# Poissons Ratio (z) = 0.10270 0.32694
#
# Static dielectric constant tensor:
#      x y z
#    x 1.870030 0.032160 0.035040 
#    y 0.032160 1.815250 -0.125530 
#    z 0.035040 -0.125530 1.944530 
# 
# From -- ./inp_files/110994.got.cif
#   From: 2010.05.17/outbox.cif.g08.bks.cpg/sg2_56_cif.got.tgz:110994.got - 2010.06.03 11:33:40.
