data_PCOD9008758
_publ_section_title
;
Structure prediction by ZEFSAII (Michael W. Deem and Ramdas Pophale) SiO2 
 PCOD9008758
Probable space group: P -1
;
_chemical_formula_sum "Si O2"
_cell_formula_units_Z 14
_cell_length_a 17.283205
_cell_length_b 6.048780
_cell_length_c 6.096939
_cell_angle_alpha 103.960880
_cell_angle_beta 89.275063
_cell_angle_gamma 72.331546
_cell_volume 586.834548
_symmetry_space_group_name_H-M "P -1"
_symmetry_group_IT_number 2
_symmetry_cell_setting 'triclinic'
loop_
_space_group_symop_operation_xyz
x,y,z
-x,-y,-z
loop_
_atom_site_type_symbol
_atom_site_label
_atom_site_fract_x
_atom_site_fract_y
_atom_site_fract_z
Si Si1 0.384997 0.778895 0.117510
Si Si2 0.314391 0.227776 0.486640
Si Si3 0.547552 0.573308 0.320192
Si Si4 0.041515 0.615731 0.839866
Si Si5 0.803173 0.752732 0.152526
Si Si6 0.111879 0.008472 0.151859
Si Si7 0.243537 0.612014 0.264035
O O1 0.476408 0.716670 0.191619
O O2 0.330954 0.641144 0.213021
O O3 0.338208 0.053959 0.234789
O O4 0.395552 0.671477 0.850386
O O5 0.395882 0.270734 0.579057
O O6 0.271783 0.125068 0.655678
O O7 0.253258 0.479234 0.463198
O O8 0.500000 0.500000 0.500000
O O9 0.121207 0.395030 0.730238
O O10 0.074993 0.817101 0.994630
O O11 0.966180 0.763694 0.724924
O O12 0.000000 0.500000 0.000000
O O13 0.777411 0.558065 0.959829
O O14 0.834882 0.910318 0.016041
O O15 0.172261 0.865185 0.304616
#
# Coordination Sequence:
#
# PCOD9008758 Si02
#       7
#     2   2   2   2   2   2   2
#     4  11  25  43  67  97 133 175 227 280 338 403
#     4  12  25  42  69 101 134 180 225 279 343 401
#     4  11  24  47  68  95 134 177 227 280 337 407
#     4   8  16  34  63  97 132 180 223 272 336 391
#     4  10  21  39  65  96 138 179 225 278 337 398
#     4   9  18  35  65  96 134 182 222 276 336 392
#     4  11  22  41  62  99 137 172 228 280 331 407
#
# _framework density 23.856812000000001
#
# number of rings (size 3 to 8) (size 9 to 14) (size 15 to 20)
#    0.000    1.714    2.857    1.286    0.000    5.143 
#    0.000    0.714    0.000   35.143    0.000    0.000 
#    0.000    0.000    0.000    0.000    0.000    0.000 
#
# Total GULP energy -78251.751638 kJ/mol
# GULP energy per Si atom -5589.410831 kJ/mol
# Density = 2.380251 g / cm^3
# Si number density = 23.856812 Si / 1000 Ang^3
#
#
#
# Elastic Constant Matrix: (Units=GPa)
#
#
# Indices 1 2 3 4 5 6 
#
# 1 136.8116 49.5039 27.4888 -2.1937 -0.0947 17.0837
# 2 49.5039 103.2388 15.6051 -3.1781 3.6147 -1.4632
# 3 27.4888 15.6051 24.7741 9.4708 -1.3942 13.9981
# 4 -2.1937 -3.1781 9.4708 29.0225 -1.7595 10.6025
# 5 -0.0947 3.6147 -1.3942 -1.7595 38.8720 -4.9009
# 6 17.0837 -1.4632 13.9981 10.6025 -4.9009 42.7999
#
#
#
# Elastic Compliance Matrix: (Units=1/GPa)
#
#
# Indices 1 2 3 4 5 6 
#
# 1 0.011097 -0.003609 -0.010561 0.004717 -0.000090 -0.002277
# 2 -0.003609 0.012565 -0.006666 0.001959 -0.000891 0.003463
# 3 -0.010561 -0.006666 0.072121 -0.019675 0.000440 -0.014676
# 4 0.004717 0.001959 -0.019675 0.043723 0.000324 -0.006175
# 5 -0.000090 -0.000891 0.000440 0.000324 0.026189 0.002780
# 6 -0.002277 0.003463 -0.014676 -0.006175 0.002780 0.031040
#
#
# Mechanical properties :
#
#
# Convention : Reuss Voigt Hill
#
# Bulk Modulus (GPa) = 18.48072 50.00225 34.24148
# Shear Modulus (GPa) = 19.49738 33.62064 26.55901
#
# Velocity S-wave (km/s) = 2.86189 3.75809 3.34019
# Velocity P-wave (km/s) = 4.32249 6.31156 5.40924
#
# Compressibility (1/GPa) = 0.05411045
#
# Stress axis : x y z
#
# Youngs Moduli (GPa) = 90.11393 79.58671 13.86554
#
# Poissons Ratio (x) = 0.28720 0.14644
# Poissons Ratio (y) = 0.32519 0.09243
# Poissons Ratio (z) = 0.95173 0.53055
#
# Static dielectric constant tensor:
#      x y z
#    x 1.917020 -0.047640 0.011700 
#    y -0.047640 1.943080 0.005680 
#    z 0.011700 0.005680 1.873500 
# 
# From -- ./inp_files/6561.got.cif
#   From: 2010.05.17/outbox.cif.g08.bks.cpg/sg2_4_cif.got.tgz:6561.got - 2010.06.03 11:33:40.
