data_PCOD9008343
_publ_section_title
;
Structure prediction by ZEFSAII (Michael W. Deem and Ramdas Pophale) SiO2 
 PCOD9008343
Probable space group: P -1
;
_chemical_formula_sum "Si O2"
_cell_formula_units_Z 16
_cell_length_a 14.783407
_cell_length_b 27.405109
_cell_length_c 8.054689
_cell_angle_alpha 136.042940
_cell_angle_beta 124.508172
_cell_angle_gamma 21.625975
_cell_volume 764.619497
_symmetry_space_group_name_H-M "P -1"
_symmetry_group_IT_number 2
_symmetry_cell_setting 'triclinic'
loop_
_space_group_symop_operation_xyz
x,y,z
-x,-y,-z
loop_
_atom_site_type_symbol
_atom_site_label
_atom_site_fract_x
_atom_site_fract_y
_atom_site_fract_z
Si Si1 0.953246 0.519860 0.302133
Si Si2 0.767367 0.099143 0.894166
Si Si3 0.547226 0.855009 0.228254
Si Si4 0.046795 0.232261 0.069937
Si Si5 0.301185 0.439527 0.403194
Si Si6 0.990449 0.101465 0.686565
Si Si7 0.500907 0.990013 0.218769
Si Si8 0.572281 0.235892 0.535929
O O1 0.656039 0.663621 0.338139
O O2 0.000000 0.500000 0.500000
O O3 0.034127 0.547463 0.376368
O O4 0.165530 0.343455 0.009604
O O5 0.654578 0.091866 0.833468
O O6 0.883502 0.009492 0.617293
O O7 0.509436 0.301166 0.134680
O O8 0.000000 0.000000 0.000000
O O9 0.463957 0.956915 0.246915
O O10 0.556369 0.897339 0.504900
O O11 0.797913 0.423543 0.342013
O O12 0.289862 0.091366 0.108794
O O13 0.974895 0.193426 0.869604
O O14 0.189905 0.188245 0.956552
O O15 0.451004 0.325105 0.447560
O O16 0.706687 0.228785 0.724968
O O17 0.191711 0.960411 0.697517
#
# Coordination Sequence:
#
# PCOD9008343 Si02
#       8
#     2   2   2   2   2   2   2   2
#     4   9  19  34  62  90 119 158 210 252 304 362
#     4  11  22  42  63  90 126 166 209 257 308 383
#     4  10  21  39  64  94 120 174 208 257 317 371
#     4  11  24  39  62  97 129 163 207 267 311 370
#     4  10  22  39  65  93 125 162 208 257 321 362
#     4  11  24  40  65  93 123 168 214 251 316 375
#     4  10  22  38  62  89 135 161 208 259 320 370
#     4  10  22  40  62  90 124 166 210 254 304 388
#
# _framework density 20.925439000000001
#
# number of rings (size 3 to 8) (size 9 to 14) (size 15 to 20)
#    0.000    1.750    2.500    1.500    8.750    1.500 
#    0.000    2.500    0.000    4.500    0.000    0.000 
#    0.000    0.000    0.000    0.000    0.000    0.000 
#
# Total GULP energy -89341.575849 kJ/mol
# GULP energy per Si atom -5583.848491 kJ/mol
# Density = 2.087781 g / cm^3
# Si number density = 20.925439 Si / 1000 Ang^3
#
#
#
# Elastic Constant Matrix: (Units=GPa)
#
#
# Indices 1 2 3 4 5 6 
#
# 1 71.1879 39.5821 31.1107 2.9534 13.2202 -25.5820
# 2 39.5821 81.2253 19.6886 -2.3864 5.3400 -30.6741
# 3 31.1107 19.6886 125.0809 3.3942 18.5153 -20.2633
# 4 2.9534 -2.3864 3.3942 20.7398 -0.3931 0.0906
# 5 13.2202 5.3400 18.5153 -0.3931 24.0509 1.1413
# 6 -25.5820 -30.6741 -20.2633 0.0906 1.1413 39.9610
#
#
#
# Elastic Compliance Matrix: (Units=1/GPa)
#
#
# Indices 1 2 3 4 5 6 
#
# 1 0.024522 -0.007338 -0.001631 -0.004322 -0.011119 0.009566
# 2 -0.007338 0.020106 0.000562 0.003193 -0.001335 0.011052
# 3 -0.001631 0.000562 0.010215 -0.001535 -0.007344 0.004780
# 4 -0.004322 0.003193 -0.001535 0.049527 0.003720 -0.001313
# 5 -0.011119 -0.001335 -0.007344 0.003720 0.054338 -0.013427
# 6 0.009566 0.011052 0.004780 -0.001313 -0.013427 0.042442
#
#
# Mechanical properties :
#
#
# Convention : Reuss Voigt Hill
#
# Bulk Modulus (GPa) = 26.29618 50.91744 38.60681
# Shear Modulus (GPa) = 21.67862 29.42454 25.55158
#
# Velocity S-wave (km/s) = 3.22218 3.75395 3.49818
# Velocity P-wave (km/s) = 5.14170 6.57078 5.89967
#
# Compressibility (1/GPa) = 0.03802834
#
# Stress axis : x y z
#
# Youngs Moduli (GPa) = 40.77955 49.73538 97.89249
#
# Poissons Ratio (x) = 0.36496 0.15970
# Poissons Ratio (y) = 0.29924 -0.05498
# Poissons Ratio (z) = 0.06653 -0.02793
#
# Static dielectric constant tensor:
#      x y z
#    x 1.768150 0.004030 -0.038060 
#    y 0.004030 1.795650 -0.012150 
#    z -0.038060 -0.012150 1.776910 
# 
# From -- ./inp_files/321004.got.cif
#   From: 2010.05.17/outbox.cif.g08.bks.cpg/sg2_161_cif.got.tgz:321004.got - 2010.06.03 11:33:40.
