data_PCOD9008892
_publ_section_title
;
Structure prediction by ZEFSAII (Michael W. Deem and Ramdas Pophale) SiO2 
 PCOD9008892
Probable space group: P -1
;
_chemical_formula_sum "Si O2"
_cell_formula_units_Z 16
_cell_length_a 8.980232
_cell_length_b 8.540988
_cell_length_c 11.533986
_cell_angle_alpha 105.890518
_cell_angle_beta 103.988300
_cell_angle_gamma 112.143651
_cell_volume 726.622805
_symmetry_space_group_name_H-M "P -1"
_symmetry_group_IT_number 2
_symmetry_cell_setting 'triclinic'
loop_
_space_group_symop_operation_xyz
x,y,z
-x,-y,-z
loop_
_atom_site_type_symbol
_atom_site_label
_atom_site_fract_x
_atom_site_fract_y
_atom_site_fract_z
Si Si1 0.559966 0.154010 0.792480
Si Si2 0.502337 0.498757 0.137619
Si Si3 0.997879 0.014356 0.360464
Si Si4 0.779411 0.140707 0.618042
Si Si5 0.778761 0.200899 0.366800
Si Si6 0.157142 0.166624 0.944243
Si Si7 0.143706 0.508527 0.736006
Si Si8 0.128724 0.792899 0.971711
O O1 0.513601 0.320076 0.796597
O O2 0.653904 0.150004 0.690848
O O3 0.388337 0.966683 0.759035
O O4 0.701063 0.183826 0.923716
O O5 0.676301 0.495232 0.207742
O O6 0.500000 0.500000 0.000000
O O7 0.325615 0.306663 0.080119
O O8 0.948948 0.177030 0.371696
O O9 0.185076 0.029159 0.373710
O O10 0.000000 0.000000 0.500000
O O11 0.866993 0.868176 0.207809
O O12 0.720848 0.149157 0.478577
O O13 0.975626 0.311736 0.681043
O O14 0.824341 0.398487 0.365807
O O15 0.131489 0.969194 0.944156
O O16 0.019783 0.240331 0.967493
O O17 0.104716 0.639700 0.841606
#
# Coordination Sequence:
#
# PCOD9008892 Si02
#       8
#     2   2   2   2   2   2   2   2
#     4  12  24  42  64  96 125 165 211 256 315 367
#     4  12  25  37  64  93 129 158 206 263 306 369
#     4  10  21  39  66  91 122 166 213 256 304 375
#     4  11  24  43  66  91 127 167 210 257 308 372
#     4  11  24  43  66  91 127 167 210 257 308 372
#     4  11  22  42  58  98 128 161 203 255 323 367
#     4  12  24  42  64  96 125 165 211 256 315 367
#     4  11  24  37  68  90 130 163 200 261 316 380
#
# _framework density 22.019677999999999
#
# number of rings (size 3 to 8) (size 9 to 14) (size 15 to 20)
#    0.000    0.750    3.750    4.500    0.000    2.000 
#    0.000    0.625    0.000    0.000    0.000    0.000 
#    0.000    0.000    0.000    0.000    0.000    0.000 
#
# Total GULP energy -89095.274807 kJ/mol
# GULP energy per Si atom -5568.454675 kJ/mol
# Density = 2.196956 g / cm^3
# Si number density = 22.019678 Si / 1000 Ang^3
#
#
#
# Elastic Constant Matrix: (Units=GPa)
#
#
# Indices 1 2 3 4 5 6 
#
# 1 123.9608 18.4081 35.2123 3.1327 -0.2707 -23.1105
# 2 18.4081 50.5396 13.8781 -3.3927 16.4492 -10.2718
# 3 35.2123 13.8781 68.2952 -3.1414 11.8427 0.2540
# 4 3.1327 -3.3927 -3.1414 29.7532 -2.4576 4.8667
# 5 -0.2707 16.4492 11.8427 -2.4576 40.6478 -3.2515
# 6 -23.1105 -10.2718 0.2540 4.8667 -3.2515 29.1900
#
#
#
# Elastic Compliance Matrix: (Units=1/GPa)
#
#
# Indices 1 2 3 4 5 6 
#
# 1 0.012225 -0.001918 -0.006704 -0.003575 0.003398 0.010037
# 2 -0.001918 0.025478 -0.002603 0.001060 -0.008997 0.006291
# 3 -0.006704 -0.002603 0.019697 0.003294 -0.005132 -0.007516
# 4 -0.003575 0.001060 0.003294 0.035844 0.000078 -0.008453
# 5 0.003398 -0.008997 -0.005132 0.000078 0.029997 0.002897
# 6 0.010037 0.006291 -0.007516 -0.008453 0.002897 0.046216
#
#
# Mechanical properties :
#
#
# Convention : Reuss Voigt Hill
#
# Bulk Modulus (GPa) = 28.61206 41.97696 35.29451
# Shear Modulus (GPa) = 24.56300 31.60467 28.08384
#
# Velocity S-wave (km/s) = 3.34354 3.79263 3.57514
# Velocity P-wave (km/s) = 5.28467 6.18737 5.75375
#
# Compressibility (1/GPa) = 0.03495030
#
# Stress axis : x y z
#
# Youngs Moduli (GPa) = 81.79746 39.24984 50.76797
#
# Poissons Ratio (x) = 0.07527 0.34037
# Poissons Ratio (y) = 0.15685 0.13215
# Poissons Ratio (z) = 0.54841 0.10217
#
# Static dielectric constant tensor:
#      x y z
#    x 1.771970 -0.035520 -0.033640 
#    y -0.035520 1.763190 -0.052280 
#    z -0.033640 -0.052280 1.835680 
# 
# From -- ./inp_files/382991.got.cif
#   From: 2010.05.17/outbox.cif.g08.bks.cpg/sg2_192_cif.got.tgz:382991.got - 2010.06.03 11:33:40.
