data_PCOD9008839
_publ_section_title
;
Structure prediction by ZEFSAII (Michael W. Deem and Ramdas Pophale) SiO2 
 PCOD9008839
Probable space group: P -1
;
_chemical_formula_sum "Si O2"
_cell_formula_units_Z 14
_cell_length_a 11.522339
_cell_length_b 12.086385
_cell_length_c 8.078717
_cell_angle_alpha 40.186898
_cell_angle_beta 53.294433
_cell_angle_gamma 64.465645
_cell_volume 581.326898
_symmetry_space_group_name_H-M "P -1"
_symmetry_group_IT_number 2
_symmetry_cell_setting 'triclinic'
loop_
_space_group_symop_operation_xyz
x,y,z
-x,-y,-z
loop_
_atom_site_type_symbol
_atom_site_label
_atom_site_fract_x
_atom_site_fract_y
_atom_site_fract_z
Si Si1 0.596661 0.880968 0.440491
Si Si2 0.906159 0.449865 0.380747
Si Si3 0.207527 0.390156 0.043063
Si Si4 0.172520 0.049319 0.275997
Si Si5 0.170777 0.831936 0.015221
Si Si6 0.331016 0.743355 0.639797
Si Si7 0.156785 0.229186 0.726447
O O1 0.491125 0.826057 0.444185
O O2 0.692717 0.715238 0.570594
O O3 0.500000 0.000000 0.500000
O O4 0.751291 0.990129 0.197261
O O5 0.852115 0.534264 0.164265
O O6 0.808123 0.288965 0.708400
O O7 0.893878 0.586287 0.377646
O O8 0.068834 0.393856 0.276633
O O9 0.322454 0.543886 0.822367
O O10 0.231074 0.190302 0.204127
O O11 0.252195 0.872282 0.436171
O O12 0.194269 0.138193 0.977804
O O13 0.000000 0.000000 0.500000
O O14 0.001774 0.841688 0.116201
O O15 0.245866 0.765398 0.861489
#
# Coordination Sequence:
#
# PCOD9008839 Si02
#       7
#     2   2   2   2   2   2   2
#     4  10  26  44  60  94 138 179 221 270 337 395
#     4  10  21  39  66 102 129 163 228 277 332 389
#     4  10  22  41  67 100 139 170 210 284 336 389
#     4  11  22  40  72 105 129 170 226 278 332 392
#     4  11  22  42  69  98 129 174 226 279 328 390
#     4  11  23  47  64  97 143 174 219 275 333 398
#     4  11  22  41  67  99 127 176 228 274 329 395
#
# _framework density 24.082837000000001
#
# number of rings (size 3 to 8) (size 9 to 14) (size 15 to 20)
#    0.000    1.429    2.857    2.571    4.000    2.857 
#    2.571    2.857    0.000    0.000    0.000    0.000 
#    0.000    0.000    0.000    0.000    0.000    0.000 
#
# Total GULP energy -77958.569543 kJ/mol
# GULP energy per Si atom -5568.469253 kJ/mol
# Density = 2.402802 g / cm^3
# Si number density = 24.082837 Si / 1000 Ang^3
#
#
#
# Elastic Constant Matrix: (Units=GPa)
#
#
# Indices 1 2 3 4 5 6 
#
# 1 99.9192 41.4774 40.8138 -2.8877 -36.7581 -0.1505
# 2 41.4774 105.2087 -2.0334 7.0077 -9.3380 10.6254
# 3 40.8138 -2.0334 56.4229 -9.3026 3.3815 -10.2352
# 4 -2.8877 7.0077 -9.3026 37.5322 5.1283 -16.0989
# 5 -36.7581 -9.3380 3.3815 5.1283 41.9630 -3.4307
# 6 -0.1505 10.6254 -10.2352 -16.0989 -3.4307 41.1199
#
#
#
# Elastic Compliance Matrix: (Units=1/GPa)
#
#
# Indices 1 2 3 4 5 6 
#
# 1 0.049672 -0.014681 -0.042929 -0.013778 0.044702 -0.008375
# 2 -0.014681 0.014833 0.011293 -0.000595 -0.010576 -0.002191
# 3 -0.042929 0.011293 0.058214 0.021702 -0.041087 0.016483
# 4 -0.013778 -0.000595 0.021702 0.042296 -0.017434 0.020610
# 5 0.044702 -0.010576 -0.041087 -0.017434 0.065365 -0.008703
# 6 -0.008375 -0.002191 0.016483 0.020610 -0.008703 0.036301
#
#
# Mechanical properties :
#
#
# Convention : Reuss Voigt Hill
#
# Bulk Modulus (GPa) = 33.24110 46.89626 40.06868
# Shear Modulus (GPa) = 13.53750 36.20923 24.87336
#
# Velocity S-wave (km/s) = 2.37348 3.88174 3.21725
# Velocity P-wave (km/s) = 4.61996 6.29331 5.52041
#
# Compressibility (1/GPa) = 0.03008324
#
# Stress axis : x y z
#
# Youngs Moduli (GPa) = 20.13210 67.41568 17.17801
#
# Poissons Ratio (x) = 0.98975 0.73744
# Poissons Ratio (y) = 0.29556 -0.19398
# Poissons Ratio (z) = 0.86426 -0.76130
#
# Static dielectric constant tensor:
#      x y z
#    x 1.930610 0.018200 0.008540 
#    y 0.018200 1.720860 0.309070 
#    z 0.008540 0.309070 1.760190 
# 
# From -- ./inp_files/261253.got.cif
#   From: 2010.05.17/outbox.cif.g08.bks.cpg/sg2_131_cif.got.tgz:261253.got - 2010.06.03 11:33:40.
