data_PCOD9008356
_publ_section_title
;
Structure prediction by ZEFSAII (Michael W. Deem and Ramdas Pophale) SiO2 
 PCOD9008356
Probable space group: P -1
;
_chemical_formula_sum "Si O2"
_cell_formula_units_Z 14
_cell_length_a 11.188517
_cell_length_b 14.727056
_cell_length_c 12.006301
_cell_angle_alpha 29.774093
_cell_angle_beta 131.526735
_cell_angle_gamma 136.753756
_cell_volume 670.328851
_symmetry_space_group_name_H-M "P -1"
_symmetry_group_IT_number 2
_symmetry_cell_setting 'triclinic'
loop_
_space_group_symop_operation_xyz
x,y,z
-x,-y,-z
loop_
_atom_site_type_symbol
_atom_site_label
_atom_site_fract_x
_atom_site_fract_y
_atom_site_fract_z
Si Si1 0.781553 0.757363 0.899865
Si Si2 0.352235 0.499409 0.320688
Si Si3 0.008819 0.220999 0.788945
Si Si4 0.054490 0.051903 0.606561
Si Si5 0.728954 0.359247 0.519268
Si Si6 0.478466 0.530160 0.114580
Si Si7 0.695995 0.162565 0.944837
O O1 0.696590 0.578250 0.949844
O O2 0.882502 0.964338 0.674237
O O3 0.622503 0.715800 0.935779
O O4 0.928744 0.732116 0.094210
O O5 0.500000 0.500000 0.500000
O O6 0.435773 0.556895 0.187291
O O7 0.284714 0.663263 0.143232
O O8 0.187814 0.284060 0.449478
O O9 0.839330 0.264859 0.616625
O O10 0.163109 0.406511 0.628380
O O11 0.000000 0.000000 0.000000
O O12 0.169522 0.932914 0.842348
O O13 0.000000 0.000000 0.500000
O O14 0.562331 0.364743 0.349446
O O15 0.701531 0.242309 0.739686
O O16 0.500000 0.000000 0.000000
#
# Coordination Sequence:
#
# PCOD9008356 Si02
#       7
#     2   2   2   2   2   2   2
#     4  10  22  40  68  94 136 180 218 284 349 400
#     4  12  24  43  72 102 136 184 236 283 347 422
#     4  10  22  39  66  96 129 169 224 280 337 406
#     4  12  25  45  69 101 138 181 235 294 349 407
#     4  10  21  39  64  94 126 172 222 275 337 404
#     4  10  21  43  66  96 139 181 220 280 351 410
#     4  12  25  41  70  99 137 184 231 288 349 410
#
# _framework density 20.885270999999999
#
# number of rings (size 3 to 8) (size 9 to 14) (size 15 to 20)
#    0.000    1.143    5.714    0.000    2.000    2.857 
#    0.000    0.714    3.143    0.000    0.000    0.000 
#    0.000    0.000    0.000    0.000    0.000    0.000 
#
# Total GULP energy -78041.594787 kJ/mol
# GULP energy per Si atom -5574.399628 kJ/mol
# Density = 2.083774 g / cm^3
# Si number density = 20.885271 Si / 1000 Ang^3
#
#
#
# Elastic Constant Matrix: (Units=GPa)
#
#
# Indices 1 2 3 4 5 6 
#
# 1 65.4447 27.6279 31.2690 -17.5148 -21.7128 8.0582
# 2 27.6279 106.5241 42.7518 -9.5345 -10.0640 5.4248
# 3 31.2690 42.7518 106.5089 -20.0316 -17.1206 5.5335
# 4 -17.5148 -9.5345 -20.0316 46.1528 0.2000 -6.0761
# 5 -21.7128 -10.0640 -17.1206 0.2000 59.8810 -4.2084
# 6 8.0582 5.4248 5.5335 -6.0761 -4.2084 20.7483
#
#
#
# Elastic Compliance Matrix: (Units=1/GPa)
#
#
# Indices 1 2 3 4 5 6 
#
# 1 0.022239 -0.003281 -0.002854 0.005972 0.006397 -0.003971
# 2 -0.003281 0.011756 -0.003885 -0.000637 -0.000395 -0.001030
# 3 -0.002854 -0.003885 0.012785 0.003680 0.001969 0.000192
# 4 0.005972 -0.000637 0.003680 0.026067 0.003388 0.005186
# 5 0.006397 -0.000395 0.001969 0.003388 0.019650 0.002072
# 6 -0.003971 -0.001030 0.000192 0.005186 0.002072 0.051896
#
#
# Mechanical properties :
#
#
# Convention : Reuss Voigt Hill
#
# Bulk Modulus (GPa) = 37.39878 53.53057 45.46467
# Shear Modulus (GPa) = 28.84390 37.14503 32.99446
#
# Velocity S-wave (km/s) = 3.72030 4.22183 3.97898
# Velocity P-wave (km/s) = 6.03323 7.03218 6.55177
#
# Compressibility (1/GPa) = 0.02673884
#
# Stress axis : x y z
#
# Youngs Moduli (GPa) = 44.96676 85.06339 78.21767
#
# Poissons Ratio (x) = 0.27911 0.22322
# Poissons Ratio (y) = 0.14755 0.30389
# Poissons Ratio (z) = 0.12833 0.33049
#
# Static dielectric constant tensor:
#      x y z
#    x 1.835490 0.020570 -0.053800 
#    y 0.020570 1.751940 -0.013830 
#    z -0.053800 -0.013830 1.734550 
# 
# From -- ./inp_files/432375.got.cif
#   From: 2010.05.17/outbox.cif.g08.bks.cpg/sg2_217_cif.got.tgz:432375.got - 2010.06.03 11:33:40.
