data_PCOD9008853
_publ_section_title
;
Structure prediction by ZEFSAII (Michael W. Deem and Ramdas Pophale) SiO2 
 PCOD9008853
Probable space group: P -1
;
_chemical_formula_sum "Si O2"
_cell_formula_units_Z 14
_cell_length_a 12.667044
_cell_length_b 10.540691
_cell_length_c 9.127530
_cell_angle_alpha 121.902162
_cell_angle_beta 32.508558
_cell_angle_gamma 116.817779
_cell_volume 555.990703
_symmetry_space_group_name_H-M "P -1"
_symmetry_group_IT_number 2
_symmetry_cell_setting 'triclinic'
loop_
_space_group_symop_operation_xyz
x,y,z
-x,-y,-z
loop_
_atom_site_type_symbol
_atom_site_label
_atom_site_fract_x
_atom_site_fract_y
_atom_site_fract_z
Si Si1 0.114397 0.352868 0.031859
Si Si2 0.033075 0.037586 0.811127
Si Si3 0.479718 0.247180 0.138900
Si Si4 0.712781 0.496512 0.328581
Si Si5 0.235760 0.740150 0.411735
Si Si6 0.472725 0.753522 0.431025
Si Si7 0.359525 0.958290 0.918406
O O1 0.130498 0.485900 0.975032
O O2 0.320894 0.328115 0.856555
O O3 0.103021 0.207209 0.849493
O O4 0.944040 0.344561 0.348214
O O5 0.167120 0.899466 0.524123
O O6 0.850377 0.034671 0.912388
O O7 0.000000 0.000000 0.000000
O O8 0.644123 0.335155 0.904603
O O9 0.396135 0.112486 0.054651
O O10 0.309668 0.359396 0.453270
O O11 0.588463 0.169447 0.101110
O O12 0.500000 0.500000 0.500000
O O13 0.695440 0.347634 0.353133
O O14 0.390215 0.772739 0.379355
O O15 0.493262 0.904686 0.592577
#
# Coordination Sequence:
#
# PCOD9008853 Si02
#       7
#     2   2   2   2   2   2   2
#     4  10  21  41  67 100 130 180 229 271 333 409
#     4  10  21  39  66 105 137 171 231 277 335 410
#     4  11  25  42  69 106 139 175 225 292 344 389
#     4  10  22  45  72  93 134 189 233 265 339 424
#     4  11  25  40  66 107 139 170 230 282 347 390
#     4  11  22  44  75  93 138 190 224 273 338 420
#     4  11  22  43  71 102 137 183 225 281 342 404
#
# _framework density 25.180275000000002
#
# number of rings (size 3 to 8) (size 9 to 14) (size 15 to 20)
#    0.000    1.429    5.714    0.857    6.000    2.857 
#    0.000    2.857    0.000    0.000    0.000    0.000 
#    0.000    0.000    0.000    0.000    0.000    0.000 
#
# Total GULP energy -78251.146686 kJ/mol
# GULP energy per Si atom -5589.367620 kJ/mol
# Density = 2.512296 g / cm^3
# Si number density = 25.180275 Si / 1000 Ang^3
#
#
#
# Elastic Constant Matrix: (Units=GPa)
#
#
# Indices 1 2 3 4 5 6 
#
# 1 166.4833 32.4494 33.6248 5.8252 -12.9336 -3.4915
# 2 32.4494 101.7258 35.7474 -2.2327 10.3680 -3.2780
# 3 33.6248 35.7474 121.4950 -16.3619 9.5918 -2.3506
# 4 5.8252 -2.2327 -16.3619 46.8973 -4.7660 11.0419
# 5 -12.9336 10.3680 9.5918 -4.7660 37.5932 -0.2646
# 6 -3.4915 -3.2780 -2.3506 11.0419 -0.2646 31.0868
#
#
#
# Elastic Compliance Matrix: (Units=1/GPa)
#
#
# Indices 1 2 3 4 5 6 
#
# 1 0.007083 -0.001949 -0.001829 -0.001520 0.003256 0.001019
# 2 -0.001949 0.011770 -0.002742 -0.000737 -0.003303 0.001048
# 3 -0.001829 -0.002742 0.010179 0.003692 -0.002010 -0.001053
# 4 -0.001520 -0.000737 0.003692 0.025036 0.001850 -0.008846
# 5 0.003256 -0.003303 -0.002010 0.001850 0.029375 -0.000542
# 6 0.001019 0.001048 -0.001053 -0.008846 -0.000542 0.035451
#
#
# Mechanical properties :
#
#
# Convention : Reuss Voigt Hill
#
# Bulk Modulus (GPa) = 62.52819 65.92748 64.22784
# Shear Modulus (GPa) = 36.42603 42.30761 39.36682
#
# Velocity S-wave (km/s) = 3.80756 4.10346 3.95827
# Velocity P-wave (km/s) = 6.64952 6.97784 6.81565
#
# Compressibility (1/GPa) = 0.01599279
#
# Stress axis : x y z
#
# Youngs Moduli (GPa) = 141.17557 84.96278 98.24054
#
# Poissons Ratio (x) = 0.16561 0.17967
# Poissons Ratio (y) = 0.27518 0.26935
# Poissons Ratio (z) = 0.25819 0.23295
#
# Static dielectric constant tensor:
#      x y z
#    x 1.986690 0.019810 -0.050280 
#    y 0.019810 2.095460 -0.014160 
#    z -0.050280 -0.014160 2.087560 
# 
# From -- ./inp_files/259790.got.cif
#   From: 2010.05.17/outbox.cif.g08.bks.cpg/sg2_130_cif.got.tgz:259790.got - 2010.06.03 11:33:40.
