data_PCOD9008099
_publ_section_title
;
Structure prediction by ZEFSAII (Michael W. Deem and Ramdas Pophale) SiO2 
 PCOD9008099
Probable space group: P -1
;
_chemical_formula_sum "Si O2"
_cell_formula_units_Z 14
_cell_length_a 6.110322
_cell_length_b 14.096373
_cell_length_c 12.929798
_cell_angle_alpha 135.171062
_cell_angle_beta 45.798621
_cell_angle_gamma 114.171742
_cell_volume 554.849382
_symmetry_space_group_name_H-M "P -1"
_symmetry_group_IT_number 2
_symmetry_cell_setting 'triclinic'
loop_
_space_group_symop_operation_xyz
x,y,z
-x,-y,-z
loop_
_atom_site_type_symbol
_atom_site_label
_atom_site_fract_x
_atom_site_fract_y
_atom_site_fract_z
Si Si1 0.670085 0.664105 0.543847
Si Si2 0.075163 0.073963 0.137829
Si Si3 0.394684 0.570756 0.198650
Si Si4 0.399713 0.091264 0.368447
Si Si5 0.335924 0.862783 0.064969
Si Si6 0.696330 0.842630 0.335099
Si Si7 0.630088 0.517508 0.641436
O O1 0.666199 0.821514 0.646324
O O2 0.520247 0.628942 0.673987
O O3 0.471228 0.613622 0.479357
O O4 0.023028 0.594968 0.354562
O O5 0.729116 0.117378 0.324642
O O6 0.230087 0.964227 0.083352
O O7 0.295640 0.182383 0.118198
O O8 0.000000 0.000000 0.000000
O O9 0.509592 0.717580 0.281637
O O10 0.496049 0.477317 0.195947
O O11 0.500000 0.500000 0.000000
O O12 0.190529 0.148295 0.576446
O O13 0.374506 0.941959 0.222012
O O14 0.021143 0.802179 0.135155
O O15 0.500000 0.000000 0.500000
O O16 0.000000 0.500000 0.500000
#
# Coordination Sequence:
#
# PCOD9008099 Si02
#       7
#     2   2   2   2   2   2   2
#     4  10  21  41  74  98 127 185 243 290 343 411
#     4   9  20  39  60  91 145 178 226 281 353 414
#     4  11  25  46  70 101 147 183 228 294 356 422
#     4  11  21  39  71  99 134 180 233 296 346 415
#     4  10  21  39  63  98 140 180 226 284 355 411
#     4  12  23  42  72 103 139 184 233 284 350 426
#     4   9  20  43  70  98 127 176 247 287 336 415
#
# _framework density 25.232071999999999
#
# number of rings (size 3 to 8) (size 9 to 14) (size 15 to 20)
#    0.000    1.714    2.857    1.286    0.000    0.571 
#    0.000   15.714    3.143    0.000    0.000    0.000 
#    0.000    0.000    0.000    0.000    0.000    0.000 
#
# Total GULP energy -78007.099197 kJ/mol
# GULP energy per Si atom -5571.935657 kJ/mol
# Density = 2.517464 g / cm^3
# Si number density = 25.232072 Si / 1000 Ang^3
#
#
#
# Elastic Constant Matrix: (Units=GPa)
#
#
# Indices 1 2 3 4 5 6 
#
# 1 89.5226 32.7700 37.0393 -12.7338 5.7390 12.6230
# 2 32.7700 103.0237 57.0887 -31.7718 3.1199 8.7129
# 3 37.0393 57.0887 104.6831 -21.4398 28.3801 5.1363
# 4 -12.7338 -31.7718 -21.4398 46.9558 5.1125 3.5762
# 5 5.7390 3.1199 28.3801 5.1125 56.8375 -7.7872
# 6 12.6230 8.7129 5.1363 3.5762 -7.7872 53.2471
#
#
#
# Elastic Compliance Matrix: (Units=1/GPa)
#
#
# Indices 1 2 3 4 5 6 
#
# 1 0.013854 -0.001901 -0.003509 0.001076 -0.000010 -0.002708
# 2 -0.001901 0.016801 -0.007465 0.007350 0.002094 -0.001766
# 3 -0.003509 -0.007465 0.017918 0.003206 -0.008629 -0.001152
# 4 0.001076 0.007350 0.003206 0.028948 -0.005332 -0.004491
# 5 -0.000010 0.002094 -0.008629 -0.005332 0.022842 0.004191
# 6 -0.002708 -0.001766 -0.001152 -0.004491 0.004191 0.020737
#
#
# Mechanical properties :
#
#
# Convention : Reuss Voigt Hill
#
# Bulk Modulus (GPa) = 43.81878 61.22505 52.52191
# Shear Modulus (GPa) = 32.37144 42.76351 37.56747
#
# Velocity S-wave (km/s) = 3.58571 4.12127 3.86278
# Velocity P-wave (km/s) = 5.87768 6.85302 6.38401
#
# Compressibility (1/GPa) = 0.02282127
#
# Stress axis : x y z
#
# Youngs Moduli (GPa) = 72.18316 59.52178 55.81040
#
# Poissons Ratio (x) = 0.11315 0.19584
# Poissons Ratio (y) = 0.13722 0.41664
# Poissons Ratio (z) = 0.25330 0.44435
#
# Static dielectric constant tensor:
#      x y z
#    x 2.034740 -0.044640 -0.068300 
#    y -0.044640 2.123150 -0.021920 
#    z -0.068300 -0.021920 2.065690 
# 
# From -- ./inp_files/368012.got.cif
#   From: 2010.05.17/outbox.cif.g08.bks.cpg/sg2_185_cif.got.tgz:368012.got - 2010.06.03 11:33:40.
