data_PCOD9008618
_publ_section_title
;
Structure prediction by ZEFSAII (Michael W. Deem and Ramdas Pophale) SiO2 
 PCOD9008618
Probable space group: P -1
;
_chemical_formula_sum "Si O2"
_cell_formula_units_Z 16
_cell_length_a 9.060300
_cell_length_b 13.094394
_cell_length_c 13.815512
_cell_angle_alpha 119.053863
_cell_angle_beta 45.558551
_cell_angle_gamma 83.536625
_cell_volume 704.386762
_symmetry_space_group_name_H-M "P -1"
_symmetry_group_IT_number 2
_symmetry_cell_setting 'triclinic'
loop_
_space_group_symop_operation_xyz
x,y,z
-x,-y,-z
loop_
_atom_site_type_symbol
_atom_site_label
_atom_site_fract_x
_atom_site_fract_y
_atom_site_fract_z
Si Si1 0.258716 0.941697 0.148028
Si Si2 0.512433 0.153851 0.449923
Si Si3 0.158733 0.454157 0.302575
Si Si4 0.399391 0.409748 0.485333
Si Si5 0.713467 0.952543 0.626345
Si Si6 0.434980 0.809014 0.352999
Si Si7 0.138958 0.905947 0.995155
Si Si8 0.661919 0.374456 0.778624
O O1 0.353823 0.001998 0.208632
O O2 0.509996 0.737994 0.945806
O O3 0.232023 0.968837 0.056799
O O4 0.918620 0.051826 0.388789
O O5 0.495737 0.291961 0.479270
O O6 0.349713 0.144582 0.439457
O O7 0.404687 0.202112 0.631731
O O8 0.852592 0.964740 0.204439
O O9 0.192560 0.578916 0.326455
O O10 0.000000 0.500000 0.500000
O O11 0.943759 0.479103 0.333588
O O12 0.500000 0.500000 0.500000
O O13 0.587481 0.286692 0.249402
O O14 0.072265 0.815401 0.388664
O O15 0.545067 0.117190 0.715275
O O16 0.525804 0.639562 0.206122
O O17 0.000000 0.000000 0.000000
O O18 0.500000 0.500000 0.000000
#
# Coordination Sequence:
#
# PCOD9008618 Si02
#       8
#     2   2   2   2   2   2   2   2
#     4  10  21  39  65  92 125 171 213 267 331 381
#     4  10  22  41  63  91 128 170 222 268 328 392
#     4  12  24  41  66 100 134 170 225 272 327 396
#     4  11  24  42  60  90 135 176 212 266 337 393
#     4  11  21  41  66  95 126 170 231 269 320 401
#     4  10  22  41  66  94 127 175 219 274 331 390
#     4   9  20  41  60  87 125 170 210 264 326 390
#     4  11  23  43  68  96 134 170 217 276 333 393
#
# _framework density 22.714794000000001
#
# number of rings (size 3 to 8) (size 9 to 14) (size 15 to 20)
#    0.000    1.500    2.500    3.375    3.500    0.000 
#    0.000    5.625    0.000    0.000    0.000    0.000 
#    0.000    0.000    0.000    0.000    0.000    0.000 
#
# Total GULP energy -89204.807940 kJ/mol
# GULP energy per Si atom -5575.300496 kJ/mol
# Density = 2.266309 g / cm^3
# Si number density = 22.714794 Si / 1000 Ang^3
#
#
#
# Elastic Constant Matrix: (Units=GPa)
#
#
# Indices 1 2 3 4 5 6 
#
# 1 148.2052 40.7474 28.0050 2.2748 53.4061 -8.4106
# 2 40.7474 88.7628 3.4017 -1.7679 23.2728 7.3842
# 3 28.0050 3.4017 69.2134 6.2387 33.8599 -13.5971
# 4 2.2748 -1.7679 6.2387 22.7943 -5.7644 3.1968
# 5 53.4061 23.2728 33.8599 -5.7644 46.1561 1.4506
# 6 -8.4106 7.3842 -13.5971 3.1968 1.4506 28.9804
#
#
#
# Elastic Compliance Matrix: (Units=1/GPa)
#
#
# Indices 1 2 3 4 5 6 
#
# 1 0.016348 -0.001890 0.011273 -0.013934 -0.028396 0.013473
# 2 -0.001890 0.014141 0.003555 -0.001350 -0.007658 -0.001952
# 3 0.011273 0.003555 0.042687 -0.029303 -0.050696 0.028164
# 4 -0.013934 -0.001350 -0.029303 0.069115 0.047795 -0.027465
# 5 -0.028396 -0.007658 -0.050696 0.047795 0.102816 -0.040494
# 6 0.013473 -0.001952 0.028164 -0.027465 -0.040494 0.057184
#
#
# Mechanical properties :
#
#
# Convention : Reuss Voigt Hill
#
# Bulk Modulus (GPa) = 10.09581 50.05439 30.07510
# Shear Modulus (GPa) = 16.15860 35.18798 25.67329
#
# Velocity S-wave (km/s) = 2.67004 3.94016 3.36556
# Velocity P-wave (km/s) = 3.73628 6.54092 5.32651
#
# Compressibility (1/GPa) = 0.09905101
#
# Stress axis : x y z
#
# Youngs Moduli (GPa) = 61.16935 70.71790 23.42623
#
# Poissons Ratio (x) = 0.13365 -0.26408
# Poissons Ratio (y) = 0.11560 -0.08327
# Poissons Ratio (z) = -0.68955 -0.25137
#
# Static dielectric constant tensor:
#      x y z
#    x 1.979250 0.006390 -0.021530 
#    y 0.006390 1.868440 -0.028990 
#    z -0.021530 -0.028990 1.876430 
# 
# From -- ./inp_files/505473.got.cif
#   From: 2010.05.17/outbox.cif.g08.bks.cpg/sg2_253_cif.got.tgz:505473.got - 2010.06.03 11:33:40.
