data_PCOD9008558
_publ_section_title
;
Structure prediction by ZEFSAII (Michael W. Deem and Ramdas Pophale) SiO2 
 PCOD9008558
Probable space group: P -1
;
_chemical_formula_sum "Si O2"
_cell_formula_units_Z 14
_cell_length_a 11.386395
_cell_length_b 6.886928
_cell_length_c 14.878928
_cell_angle_alpha 127.819028
_cell_angle_beta 39.019094
_cell_angle_gamma 124.118473
_cell_volume 571.836133
_symmetry_space_group_name_H-M "P -1"
_symmetry_group_IT_number 2
_symmetry_cell_setting 'triclinic'
loop_
_space_group_symop_operation_xyz
x,y,z
-x,-y,-z
loop_
_atom_site_type_symbol
_atom_site_label
_atom_site_fract_x
_atom_site_fract_y
_atom_site_fract_z
Si Si1 0.186416 0.198949 0.023643
Si Si2 0.344870 0.597386 0.553586
Si Si3 0.797441 0.938316 0.221140
Si Si4 0.203026 0.662390 0.452279
Si Si5 0.515565 0.583731 0.891396
Si Si6 0.293253 0.877414 0.996052
Si Si7 0.887034 0.791483 0.303347
O O1 0.341387 0.444479 0.015178
O O2 0.158510 0.196549 0.933258
O O3 0.261561 0.940689 0.929690
O O4 0.990265 0.145063 0.179181
O O5 0.500000 0.500000 0.500000
O O6 0.361597 0.893291 0.647207
O O7 0.296707 0.593540 0.472875
O O8 0.162942 0.421085 0.654936
O O9 0.769018 0.755093 0.269707
O O10 0.348920 0.605468 0.272663
O O11 0.161716 0.944746 0.559581
O O12 0.000000 0.500000 0.500000
O O13 0.619460 0.844632 0.942992
O O14 0.425752 0.681798 0.882472
O O15 0.101142 0.803419 0.145470
#
# Coordination Sequence:
#
# PCOD9008558 Si02
#       7
#     2   2   2   2   2   2   2
#     4  10  21  39  65  90 123 167 204 263 319 373
#     4  11  26  41  67  95 127 168 218 258 310 380
#     4   9  22  40  62  93 126 164 211 255 323 376
#     4  11  25  45  64  96 131 167 211 259 321 382
#     4  11  23  38  64  92 124 160 215 266 306 373
#     4  10  22  41  61  93 122 161 214 261 313 377
#     4  10  22  44  64  87 134 167 203 265 323 369
#
# _framework density 24.482537000000001
#
# number of rings (size 3 to 8) (size 9 to 14) (size 15 to 20)
#    0.000    1.714    1.429    1.286    6.000    1.714 
#    5.143    4.286    0.000    0.000    0.000    0.000 
#    0.000    0.000    0.000    0.000    0.000    0.000 
#
# Total GULP energy -78073.771581 kJ/mol
# GULP energy per Si atom -5576.697970 kJ/mol
# Density = 2.442681 g / cm^3
# Si number density = 24.482537 Si / 1000 Ang^3
#
#
#
# Elastic Constant Matrix: (Units=GPa)
#
#
# Indices 1 2 3 4 5 6 
#
# 1 78.8288 16.5409 5.2845 0.4804 -9.1567 0.5393
# 2 16.5409 81.7438 10.6096 -15.5969 2.6580 -16.5157
# 3 5.2845 10.6096 70.5340 4.1908 1.6333 -0.3339
# 4 0.4804 -15.5969 4.1908 33.6156 -7.9277 -6.4736
# 5 -9.1567 2.6580 1.6333 -7.9277 31.2376 0.4353
# 6 0.5393 -16.5157 -0.3339 -6.4736 0.4353 43.8407
#
#
#
# Elastic Compliance Matrix: (Units=1/GPa)
#
#
# Indices 1 2 3 4 5 6 
#
# 1 0.013943 -0.003419 -0.000572 -0.001052 0.004164 -0.001660
# 2 -0.003419 0.016687 -0.002792 0.009643 0.000064 0.007730
# 3 -0.000572 -0.002792 0.014899 -0.003820 -0.001658 -0.001479
# 4 -0.001052 0.009643 -0.003820 0.038547 0.008725 0.009222
# 5 0.004164 0.000064 -0.001658 0.008725 0.035516 0.000896
# 6 -0.001660 0.007730 -0.001479 0.009222 0.000896 0.027084
#
#
# Mechanical properties :
#
#
# Convention : Reuss Voigt Hill
#
# Bulk Modulus (GPa) = 31.28554 32.88631 32.08592
# Shear Modulus (GPa) = 29.25751 34.98355 32.12053
#
# Velocity S-wave (km/s) = 3.46068 3.78421 3.62605
# Velocity P-wave (km/s) = 5.36422 5.70573 5.53761
#
# Compressibility (1/GPa) = 0.03196365
#
# Stress axis : x y z
#
# Youngs Moduli (GPa) = 71.72114 59.92627 67.11976
#
# Poissons Ratio (x) = 0.20487 0.03841
# Poissons Ratio (y) = 0.24519 0.18738
# Poissons Ratio (z) = 0.04104 0.16730
#
# Static dielectric constant tensor:
#      x y z
#    x 2.200870 0.021410 -0.080840 
#    y 0.021410 1.903100 -0.005880 
#    z -0.080840 -0.005880 1.956980 
# 
# From -- ./inp_files/68812.got.cif
#   From: 2010.05.17/outbox.cif.g08.bks.cpg/sg2_35_cif.got.tgz:68812.got - 2010.06.03 11:33:40.
