data_PCOD9008601
_publ_section_title
;
Structure prediction by ZEFSAII (Michael W. Deem and Ramdas Pophale) SiO2 
 PCOD9008601
Probable space group: P -1
;
_chemical_formula_sum "Si O2"
_cell_formula_units_Z 16
_cell_length_a 19.790701
_cell_length_b 8.985232
_cell_length_c 23.591111
_cell_angle_alpha 43.327832
_cell_angle_beta 160.343723
_cell_angle_gamma 146.462595
_cell_volume 741.344412
_symmetry_space_group_name_H-M "P -1"
_symmetry_group_IT_number 2
_symmetry_cell_setting 'triclinic'
loop_
_space_group_symop_operation_xyz
x,y,z
-x,-y,-z
loop_
_atom_site_type_symbol
_atom_site_label
_atom_site_fract_x
_atom_site_fract_y
_atom_site_fract_z
Si Si1 0.326836 0.363930 0.050422
Si Si2 0.033714 0.866682 0.281270
Si Si3 0.337804 0.906853 0.151092
Si Si4 0.833468 0.418942 0.335037
Si Si5 0.112067 0.658583 0.240262
Si Si6 0.823324 0.539655 0.772328
Si Si7 0.619173 0.268986 0.460108
Si Si8 0.823445 0.701958 0.413554
O O1 0.636635 0.622576 0.234110
O O2 0.289646 0.077603 0.108281
O O3 0.192413 0.297783 0.900553
O O4 0.164344 0.416291 0.946878
O O5 0.890640 0.687098 0.275437
O O6 0.252214 0.846400 0.439113
O O7 0.176378 0.199334 0.305153
O O8 0.388413 0.732427 0.279329
O O9 0.551612 0.147341 0.209242
O O10 0.092235 0.687966 0.978026
O O11 0.000000 0.500000 0.500000
O O12 0.966095 0.339297 0.420276
O O13 0.149398 0.557642 0.239496
O O14 0.196663 0.565920 0.385604
O O15 0.327534 0.000110 0.320815
O O16 0.621373 0.472179 0.364122
O O17 0.000000 0.000000 0.500000
#
# Coordination Sequence:
#
# PCOD9008601 Si02
#       8
#     2   2   2   2   2   2   2   2
#     4  10  21  42  64  90 127 170 202 257 320 372
#     4   9  22  43  66  92 126 168 207 256 317 377
#     4  10  22  42  61  95 130 159 210 256 315 371
#     4  11  23  44  65  89 127 176 202 252 323 377
#     4  10  21  39  65  92 120 165 207 258 312 370
#     4  10  22  38  66  99 121 158 215 268 295 367
#     4   9  21  43  60  89 129 162 204 251 324 374
#     4  11  24  41  61  93 125 162 211 261 304 370
#
# _framework density 21.582408999999998
#
# number of rings (size 3 to 8) (size 9 to 14) (size 15 to 20)
#    0.000    2.000    1.250    0.750    3.500    5.500 
#   11.250    1.875    0.000    0.000    0.000    0.000 
#    0.000    0.000    0.000    0.000    0.000    0.000 
#
# Total GULP energy -89181.245701 kJ/mol
# GULP energy per Si atom -5573.827856 kJ/mol
# Density = 2.153329 g / cm^3
# Si number density = 21.582409 Si / 1000 Ang^3
#
#
#
# Elastic Constant Matrix: (Units=GPa)
#
#
# Indices 1 2 3 4 5 6 
#
# 1 58.6529 30.9121 -1.8567 -3.8471 -6.8219 3.8405
# 2 30.9121 84.1379 17.7744 -8.5930 -17.7236 9.2147
# 3 -1.8567 17.7744 63.8851 5.7906 -2.2825 -1.6987
# 4 -3.8471 -8.5930 5.7906 23.2173 0.4574 -7.1421
# 5 -6.8219 -17.7236 -2.2825 0.4574 31.0819 6.9575
# 6 3.8405 9.2147 -1.6987 -7.1421 6.9575 40.5049
#
#
#
# Elastic Compliance Matrix: (Units=1/GPa)
#
#
# Indices 1 2 3 4 5 6 
#
# 1 0.021683 -0.008632 0.003068 -0.000382 0.000077 -0.000044
# 2 -0.008632 0.019421 -0.005942 0.005661 0.009670 -0.004512
# 3 0.003068 -0.005942 0.017894 -0.005798 -0.001552 0.001055
# 4 -0.000382 0.005661 -0.005798 0.048700 0.000431 0.007018
# 5 0.000077 0.009670 -0.001552 0.000431 0.039598 -0.008998
# 6 -0.000044 -0.004512 0.001055 0.007018 -0.008998 0.028546
#
#
# Mechanical properties :
#
#
# Convention : Reuss Voigt Hill
#
# Bulk Modulus (GPa) = 27.78891 33.37063 30.57977
# Shear Modulus (GPa) = 23.71357 29.61722 26.66540
#
# Velocity S-wave (km/s) = 3.31833 3.70846 3.51880
# Velocity P-wave (km/s) = 5.25218 5.81656 5.54156
#
# Compressibility (1/GPa) = 0.03598558
#
# Stress axis : x y z
#
# Youngs Moduli (GPa) = 46.11924 51.48981 55.88574
#
# Poissons Ratio (x) = 0.44448 -0.17146
# Poissons Ratio (y) = 0.39812 0.33207
# Poissons Ratio (z) = -0.14150 0.30595
#
# Static dielectric constant tensor:
#      x y z
#    x 1.733430 0.032580 -0.082670 
#    y 0.032580 2.020290 0.036970 
#    z -0.082670 0.036970 1.788030 
# 
# From -- ./inp_files/613596.got.cif
#   From: 2010.05.17/outbox.cif.g08.bks.cpg/sg2_307_cif.got.tgz:613596.got - 2010.06.03 11:33:40.
