data_PCOD9008959
_publ_section_title
;
Structure prediction by ZEFSAII (Michael W. Deem and Ramdas Pophale) SiO2 
 PCOD9008959
Probable space group: P -1
;
_chemical_formula_sum "Si O2"
_cell_formula_units_Z 14
_cell_length_a 11.097737
_cell_length_b 11.505113
_cell_length_c 9.952978
_cell_angle_alpha 56.103170
_cell_angle_beta 122.797373
_cell_angle_gamma 77.920364
_cell_volume 603.242727
_symmetry_space_group_name_H-M "P -1"
_symmetry_group_IT_number 2
_symmetry_cell_setting 'triclinic'
loop_
_space_group_symop_operation_xyz
x,y,z
-x,-y,-z
loop_
_atom_site_type_symbol
_atom_site_label
_atom_site_fract_x
_atom_site_fract_y
_atom_site_fract_z
Si Si1 0.390890 0.523882 0.558136
Si Si2 0.694215 0.124017 0.169326
Si Si3 0.085700 0.219977 0.941413
Si Si4 0.856609 0.282757 0.305829
Si Si5 0.537522 0.229580 0.490544
Si Si6 0.087111 0.590503 0.018347
Si Si7 0.629757 0.720085 0.934802
O O1 0.500000 0.500000 0.500000
O O2 0.397351 0.657531 0.570403
O O3 0.148358 0.647207 0.334515
O O4 0.545535 0.297681 0.856606
O O5 0.758009 0.203139 0.261740
O O6 0.556681 0.115407 0.179741
O O7 0.908774 0.911062 0.373367
O O8 0.054486 0.229702 0.076910
O O9 0.178617 0.308199 0.915748
O O10 0.275292 0.978515 0.183034
O O11 0.893673 0.331429 0.152639
O O12 0.716858 0.499738 0.155114
O O13 0.322678 0.392782 0.340411
O O14 0.464352 0.209948 0.318915
O O15 0.000000 0.500000 0.000000
#
# Coordination Sequence:
#
# PCOD9008959 Si02
#       7
#     2   2   2   2   2   2   2
#     4  12  25  46  64  91 131 172 213 260 316 393
#     4  11  23  42  64  93 128 166 214 258 322 372
#     4  12  24  39  65  98 131 167 208 262 324 375
#     4  10  21  39  66  95 121 167 208 267 307 365
#     4  11  23  41  67  97 123 171 212 260 317 372
#     4  11  20  39  68  98 130 156 215 268 308 370
#     4  11  23  40  68  97 125 158 214 269 310 373
#
# _framework density 23.207906000000001
#
# number of rings (size 3 to 8) (size 9 to 14) (size 15 to 20)
#    0.000    0.857    7.143    2.143    2.000    1.714 
#    2.571    0.714    0.000    0.000    0.000    0.000 
#    0.000    0.000    0.000    0.000    0.000    0.000 
#
# Total GULP energy -78222.013271 kJ/mol
# GULP energy per Si atom -5587.286662 kJ/mol
# Density = 2.315508 g / cm^3
# Si number density = 23.207906 Si / 1000 Ang^3
#
#
#
# Elastic Constant Matrix: (Units=GPa)
#
#
# Indices 1 2 3 4 5 6 
#
# 1 89.8312 11.0110 25.8797 17.4149 30.4132 13.7399
# 2 11.0110 32.0920 20.0075 5.6540 16.2413 19.0138
# 3 25.8797 20.0075 158.2749 -8.4154 43.4812 16.1541
# 4 17.4149 5.6540 -8.4154 32.7950 5.6138 10.1581
# 5 30.4132 16.2413 43.4812 5.6138 40.6169 13.5537
# 6 13.7399 19.0138 16.1541 10.1581 13.5537 26.8866
#
#
#
# Elastic Compliance Matrix: (Units=1/GPa)
#
#
# Indices 1 2 3 4 5 6 
#
# 1 0.016343 0.002522 0.000103 -0.006512 -0.011871 -0.001752
# 2 0.002522 0.058404 -0.000418 0.002030 -0.012852 -0.036628
# 3 0.000103 -0.000418 0.009638 0.004939 -0.010142 -0.002301
# 4 -0.006512 0.002030 0.004939 0.039894 -0.001622 -0.015331
# 5 -0.011871 -0.012852 -0.010142 -0.001622 0.051016 -0.003856
# 6 -0.001752 -0.036628 -0.002301 -0.015331 -0.003856 0.073110
#
#
# Mechanical properties :
#
#
# Convention : Reuss Voigt Hill
#
# Bulk Modulus (GPa) = 11.26163 43.77716 27.51939
# Shear Modulus (GPa) = 18.27546 34.94636 26.61091
#
# Velocity S-wave (km/s) = 2.80923 3.88467 3.38987
# Velocity P-wave (km/s) = 3.92242 6.24699 5.21585
#
# Compressibility (1/GPa) = 0.08879707
#
# Stress axis : x y z
#
# Youngs Moduli (GPa) = 61.18967 17.12217 103.75694
#
# Poissons Ratio (x) = -0.04318 -0.01066
# Poissons Ratio (y) = -0.15430 0.04337
# Poissons Ratio (z) = -0.00629 0.00716
#
# Static dielectric constant tensor:
#      x y z
#    x 1.856060 -0.025820 0.013450 
#    y -0.025820 1.971920 0.010860 
#    z 0.013450 0.010860 1.892240 
# 
# From -- ./inp_files/389618.got.cif
#   From: 2010.05.17/outbox.cif.g08.bks.cpg/sg2_195_cif.got.tgz:389618.got - 2010.06.03 11:33:40.
