data_PCOD9008823
_publ_section_title
;
Structure prediction by ZEFSAII (Michael W. Deem and Ramdas Pophale) SiO2 
 PCOD9008823
Probable space group: P -1
;
_chemical_formula_sum "Si O2"
_cell_formula_units_Z 16
_cell_length_a 20.575563
_cell_length_b 9.352590
_cell_length_c 21.434380
_cell_angle_alpha 50.666617
_cell_angle_beta 161.256507
_cell_angle_gamma 138.576041
_cell_volume 818.602068
_symmetry_space_group_name_H-M "P -1"
_symmetry_group_IT_number 2
_symmetry_cell_setting 'triclinic'
loop_
_space_group_symop_operation_xyz
x,y,z
-x,-y,-z
loop_
_atom_site_type_symbol
_atom_site_label
_atom_site_fract_x
_atom_site_fract_y
_atom_site_fract_z
Si Si1 0.679028 0.028658 0.288982
Si Si2 0.234592 0.003647 0.187795
Si Si3 0.565745 0.722902 0.828839
Si Si4 0.981034 0.665673 0.589005
Si Si5 0.766104 0.364402 0.641234
Si Si6 0.265069 0.594569 0.952455
Si Si7 0.420216 0.254288 0.019691
Si Si8 0.089366 0.168033 0.388173
O O1 0.923890 0.161692 0.429898
O O2 0.631346 0.210973 0.216232
O O3 0.724296 0.903837 0.418559
O O4 0.440663 0.824259 0.089284
O O5 0.283713 0.072720 0.140820
O O6 0.491210 0.200756 0.404131
O O7 0.208295 0.771191 0.243083
O O8 0.000000 0.000000 0.000000
O O9 0.643049 0.780513 0.954755
O O10 0.265446 0.584670 0.584880
O O11 0.608390 0.533124 0.901365
O O12 0.212804 0.659404 0.820548
O O13 0.927173 0.753561 0.578526
O O14 0.821584 0.611186 0.634530
O O15 0.988743 0.424778 0.779360
O O16 0.500000 0.500000 0.000000
O O17 0.178515 0.054204 0.816357
#
# Coordination Sequence:
#
# PCOD9008823 Si02
#       8
#     2   2   2   2   2   2   2   2
#     4  12  23  39  68  92 125 185 216 262 321 392
#     4  11  21  39  69 101 129 161 220 280 332 373
#     4  12  24  41  64 100 132 171 214 278 328 381
#     4  11  22  37  66  95 126 166 235 260 307 390
#     4  10  21  39  66 101 123 158 220 281 315 377
#     4  11  20  37  67  94 125 167 220 262 314 383
#     4  12  28  43  60  96 144 172 213 268 334 387
#     4  11  23  42  62  91 131 172 218 269 315 392
#
# _framework density 19.545515999999999
#
# number of rings (size 3 to 8) (size 9 to 14) (size 15 to 20)
#    0.000    0.750    7.500    2.250    1.750    3.000 
#    0.000    0.625    0.000    1.500    0.000    0.000 
#    0.000    0.000    0.000    0.000    0.000    0.000 
#
# Total GULP energy -89327.424747 kJ/mol
# GULP energy per Si atom -5582.964047 kJ/mol
# Density = 1.950103 g / cm^3
# Si number density = 19.545516 Si / 1000 Ang^3
#
#
#
# Elastic Constant Matrix: (Units=GPa)
#
#
# Indices 1 2 3 4 5 6 
#
# 1 72.6746 30.3033 13.0468 -5.8247 -3.8108 13.7098
# 2 30.3033 137.3090 13.6936 -29.3131 1.2401 13.7967
# 3 13.0468 13.6936 61.0592 -6.4509 6.4461 2.5013
# 4 -5.8247 -29.3131 -6.4509 40.9009 5.4205 -2.1843
# 5 -3.8108 1.2401 6.4461 5.4205 21.8712 -2.7398
# 6 13.7098 13.7967 2.5013 -2.1843 -2.7398 28.5296
#
#
#
# Elastic Compliance Matrix: (Units=1/GPa)
#
#
# Indices 1 2 3 4 5 6 
#
# 1 0.016847 -0.003055 -0.003154 -0.001083 0.003544 -0.006084
# 2 -0.003055 0.009762 -0.000383 0.006741 -0.003019 -0.002993
# 3 -0.003154 -0.000383 0.018172 0.003010 -0.006667 -0.000302
# 4 -0.001083 0.006741 0.003010 0.030748 -0.009271 -0.001540
# 5 0.003544 -0.003019 -0.006667 -0.009271 0.051345 0.004562
# 6 -0.006084 -0.002993 -0.000302 -0.001540 0.004562 0.039769
#
#
# Mechanical properties :
#
#
# Convention : Reuss Voigt Hill
#
# Bulk Modulus (GPa) = 31.64898 42.79225 37.22062
# Shear Modulus (GPa) = 26.26603 32.52695 29.39649
#
# Velocity S-wave (km/s) = 3.66982 4.08384 3.88235
# Velocity P-wave (km/s) = 5.84674 6.64667 6.25950
#
# Compressibility (1/GPa) = 0.03159659
#
# Stress axis : x y z
#
# Youngs Moduli (GPa) = 59.35779 102.43298 55.03092
#
# Poissons Ratio (x) = 0.31296 0.17356
# Poissons Ratio (y) = 0.18135 0.02108
# Poissons Ratio (z) = 0.18721 0.03924
#
# Static dielectric constant tensor:
#      x y z
#    x 1.691200 0.025350 0.008620 
#    y 0.025350 1.729130 -0.045890 
#    z 0.008620 -0.045890 1.702920 
# 
# From -- ./inp_files/213389.got.cif
#   From: 2010.05.17/outbox.cif.g08.bks.cpg/sg2_107_cif.got.tgz:213389.got - 2010.06.03 11:33:40.
