data_PCOD9008013
_publ_section_title
;
Structure prediction by ZEFSAII (Michael W. Deem and Ramdas Pophale) SiO2 
 PCOD9008013
Probable space group: P -1
;
_chemical_formula_sum "Si O2"
_cell_formula_units_Z 14
_cell_length_a 8.310291
_cell_length_b 11.211465
_cell_length_c 6.741507
_cell_angle_alpha 76.444810
_cell_angle_beta 95.567498
_cell_angle_gamma 98.757411
_cell_volume 602.264089
_symmetry_space_group_name_H-M "P -1"
_symmetry_group_IT_number 2
_symmetry_cell_setting 'triclinic'
loop_
_space_group_symop_operation_xyz
x,y,z
-x,-y,-z
loop_
_atom_site_type_symbol
_atom_site_label
_atom_site_fract_x
_atom_site_fract_y
_atom_site_fract_z
Si Si1 0.932384 0.688645 0.789638
Si Si2 0.802561 0.419009 0.884799
Si Si3 0.577863 0.192352 0.416908
Si Si4 0.154451 0.174166 0.931448
Si Si5 0.615773 0.974259 0.207606
Si Si6 0.462703 0.355594 0.997055
Si Si7 0.920275 0.291945 0.607802
O O1 0.809461 0.564387 0.872634
O O2 0.950402 0.699212 0.555425
O O3 0.886468 0.810449 0.846027
O O4 0.100225 0.648241 0.911994
O O5 0.905316 0.408382 0.701068
O O6 0.622116 0.346564 0.881899
O O7 0.465244 0.129994 0.605975
O O8 0.485836 0.280386 0.231846
O O9 0.743256 0.256419 0.509495
O O10 0.633984 0.092416 0.307687
O O11 0.227635 0.064801 0.872273
O O12 0.986058 0.194178 0.800294
O O13 0.301854 0.291022 0.889462
O O14 0.500000 0.000000 0.000000
O O15 0.500000 0.500000 0.000000
#
# Coordination Sequence:
#
# PCOD9008013 Si02
#       7
#     2   2   2   2   2   2   2
#     4  10  21  40  62  95 140 180 225 276 334 412
#     4  10  21  39  63  93 138 188 218 272 343 403
#     4  11  26  46  73 101 136 187 234 276 354 409
#     4  11  25  41  68 103 135 177 233 285 343 393
#     4  11  25  48  77  98 136 181 234 296 340 406
#     4  12  23  43  70 104 143 180 223 288 339 413
#     4  11  24  41  68  98 138 182 231 280 341 416
#
# _framework density 23.245616999999999
#
# number of rings (size 3 to 8) (size 9 to 14) (size 15 to 20)
#    0.000    1.143    4.286    1.286    2.000    1.714 
#    0.000    3.571    0.000    0.000    0.000    0.000 
#    0.000    0.000    0.000    0.000    0.000    0.000 
#
# Total GULP energy -78107.464194 kJ/mol
# GULP energy per Si atom -5579.104585 kJ/mol
# Density = 2.319271 g / cm^3
# Si number density = 23.245617 Si / 1000 Ang^3
#
#
#
# Elastic Constant Matrix: (Units=GPa)
#
#
# Indices 1 2 3 4 5 6 
#
# 1 27.3373 1.4895 13.3243 3.5618 -2.1827 -5.6446
# 2 1.4895 76.4379 33.6045 6.5981 -0.6803 -24.8556
# 3 13.3243 33.6045 118.4133 11.4012 -18.7488 -17.5106
# 4 3.5618 6.5981 11.4012 33.6661 1.6294 -7.4344
# 5 -2.1827 -0.6803 -18.7488 1.6294 38.9835 9.0251
# 6 -5.6446 -24.8556 -17.5106 -7.4344 9.0251 37.3235
#
#
#
# Elastic Compliance Matrix: (Units=1/GPa)
#
#
# Indices 1 2 3 4 5 6 
#
# 1 0.040029 0.003352 -0.004565 -0.001951 -0.001215 0.006049
# 2 0.003352 0.018955 -0.004733 0.000427 -0.004577 0.012102
# 3 -0.004565 -0.004733 0.011359 -0.002772 0.005322 -0.000352
# 4 -0.001951 0.000427 -0.002772 0.032326 -0.004209 0.006146
# 5 -0.001215 -0.004577 0.005322 -0.004209 0.030300 -0.008900
# 6 0.006049 0.012102 -0.000352 0.006146 -0.008900 0.038978
#
#
# Mechanical properties :
#
#
# Convention : Reuss Voigt Hill
#
# Bulk Modulus (GPa) = 17.10844 35.44722 26.27783
# Shear Modulus (GPa) = 24.59131 33.57930 29.08531
#
# Velocity S-wave (km/s) = 3.25605 3.80484 3.54109
# Velocity P-wave (km/s) = 4.63807 5.88086 5.29604
#
# Compressibility (1/GPa) = 0.05845069
#
# Stress axis : x y z
#
# Youngs Moduli (GPa) = 24.98196 52.75530 88.03327
#
# Poissons Ratio (x) = -0.17682 0.40190
# Poissons Ratio (y) = -0.08373 0.41664
# Poissons Ratio (z) = 0.11405 0.24968
#
# Static dielectric constant tensor:
#      x y z
#    x 1.934310 -0.044160 -0.071690 
#    y -0.044160 1.923570 -0.000860 
#    z -0.071690 -0.000860 1.874230 
# 
# From -- ./inp_files/26974.got.cif
#   From: 2010.05.17/outbox.cif.g08.bks.cpg/sg2_14_cif.got.tgz:26974.got - 2010.06.03 11:33:40.
