data_PCOD9008772
_publ_section_title
;
Structure prediction by ZEFSAII (Michael W. Deem and Ramdas Pophale) SiO2 
 PCOD9008772
Probable space group: P -1
;
_chemical_formula_sum "Si O2"
_cell_formula_units_Z 16
_cell_length_a 5.699862
_cell_length_b 12.721253
_cell_length_c 13.724714
_cell_angle_alpha 116.233466
_cell_angle_beta 71.823787
_cell_angle_gamma 131.112362
_cell_volume 672.221788
_symmetry_space_group_name_H-M "P -1"
_symmetry_group_IT_number 2
_symmetry_cell_setting 'triclinic'
loop_
_space_group_symop_operation_xyz
x,y,z
-x,-y,-z
loop_
_atom_site_type_symbol
_atom_site_label
_atom_site_fract_x
_atom_site_fract_y
_atom_site_fract_z
Si Si1 0.365091 0.079906 0.257772
Si Si2 0.325258 0.652842 0.805160
Si Si3 0.197201 0.175689 0.032206
Si Si4 0.324477 0.085243 0.665085
Si Si5 0.565290 0.156892 0.472408
Si Si6 0.864536 0.624408 0.999386
Si Si7 0.694617 0.214403 0.840994
Si Si8 0.168511 0.468165 0.551802
O O1 0.568529 0.191521 0.191254
O O2 0.482557 0.173192 0.381352
O O3 0.384280 0.945937 0.205745
O O4 0.998234 0.002182 0.271363
O O5 0.647757 0.717225 0.848928
O O6 0.225991 0.548895 0.681276
O O7 0.045411 0.584858 0.890895
O O8 0.042018 0.226199 0.003302
O O9 0.492301 0.219752 0.950050
O O10 0.000000 0.000000 0.000000
O O11 0.319366 0.130489 0.574159
O O12 0.585167 0.221860 0.752708
O O13 0.425404 0.980272 0.596011
O O14 0.902137 0.292415 0.521907
O O15 0.500000 0.500000 0.000000
O O16 0.963685 0.662825 0.114973
O O17 0.500000 0.500000 0.500000
O O18 0.000000 0.500000 0.500000
#
# Coordination Sequence:
#
# PCOD9008772 Si02
#       8
#     2   2   2   2   2   2   2   2
#     4  11  20  40  66  97 136 171 232 293 361 424
#     4  11  25  41  70 101 134 188 234 292 359 432
#     4  11  23  42  69  98 130 172 228 290 356 424
#     4  10  21  39  65  97 132 180 227 303 357 432
#     4  10  23  40  63  98 136 178 241 285 365 425
#     4  11  26  45  66  98 141 182 234 297 363 436
#     4  10  22  38  63  95 127 171 227 283 356 429
#     4  12  27  47  70 103 146 194 243 296 355 440
#
# _framework density 23.801669
#
# number of rings (size 3 to 8) (size 9 to 14) (size 15 to 20)
#    0.000    1.250    1.250    4.125    1.750    9.000 
#    0.000    0.000    0.000    0.000    0.000    0.000 
#    0.000    0.000    0.000    0.000    0.000    0.000 
#
# Total GULP energy -89312.314627 kJ/mol
# GULP energy per Si atom -5582.019664 kJ/mol
# Density = 2.374750 g / cm^3
# Si number density = 23.801669 Si / 1000 Ang^3
#
#
#
# Elastic Constant Matrix: (Units=GPa)
#
#
# Indices 1 2 3 4 5 6 
#
# 1 65.2111 13.2380 43.0308 7.3331 16.2538 9.2947
# 2 13.2380 76.2702 38.2065 5.1025 9.4491 17.5449
# 3 43.0308 38.2065 154.9125 21.5300 25.9456 19.2289
# 4 7.3331 5.1025 21.5300 38.5943 8.8461 5.9979
# 5 16.2538 9.4491 25.9456 8.8461 36.6994 4.5790
# 6 9.2947 17.5449 19.2289 5.9979 4.5790 37.0869
#
#
#
# Elastic Compliance Matrix: (Units=1/GPa)
#
#
# Indices 1 2 3 4 5 6 
#
# 1 0.019860 -0.000142 -0.004345 0.000242 -0.005494 -0.002018
# 2 -0.000142 0.016176 -0.003097 0.000860 -0.001373 -0.005981
# 3 -0.004345 -0.003097 0.009571 -0.003160 -0.003094 -0.001516
# 4 0.000242 0.000860 -0.003160 0.029055 -0.004731 -0.002944
# 5 -0.005494 -0.001373 -0.003094 -0.004731 0.033328 0.000281
# 6 -0.002018 -0.005981 -0.001516 -0.002944 0.000281 0.031526
#
#
# Mechanical properties :
#
#
# Convention : Reuss Voigt Hill
#
# Bulk Modulus (GPa) = 32.85132 53.92717 43.38925
# Shear Modulus (GPa) = 30.33394 35.93735 33.13564
#
# Velocity S-wave (km/s) = 3.57381 3.88992 3.73521
# Velocity P-wave (km/s) = 5.55532 6.54838 6.07219
#
# Compressibility (1/GPa) = 0.03044018
#
# Stress axis : x y z
#
# Youngs Moduli (GPa) = 50.35135 61.82085 104.47695
#
# Poissons Ratio (x) = 0.00878 0.45391
# Poissons Ratio (y) = 0.00715 0.32359
# Poissons Ratio (z) = 0.21875 0.19147
#
# Static dielectric constant tensor:
#      x y z
#    x 1.992260 -0.034620 0.057230 
#    y -0.034620 1.917150 -0.000450 
#    z 0.057230 -0.000450 1.947750 
# 
# From -- ./inp_files/81095.got.cif
#   From: 2010.05.17/outbox.cif.g08.bks.cpg/sg2_41_cif.got.tgz:81095.got - 2010.06.03 11:33:40.
