data_PCOD9008626
_publ_section_title
;
Structure prediction by ZEFSAII (Michael W. Deem and Ramdas Pophale) SiO2 
 PCOD9008626
Probable space group: P -1
;
_chemical_formula_sum "Si O2"
_cell_formula_units_Z 16
_cell_length_a 20.388905
_cell_length_b 6.910439
_cell_length_c 15.043401
_cell_angle_alpha 69.364234
_cell_angle_beta 162.384234
_cell_angle_gamma 106.456410
_cell_volume 589.841879
_symmetry_space_group_name_H-M "P -1"
_symmetry_group_IT_number 2
_symmetry_cell_setting 'triclinic'
loop_
_space_group_symop_operation_xyz
x,y,z
-x,-y,-z
loop_
_atom_site_type_symbol
_atom_site_label
_atom_site_fract_x
_atom_site_fract_y
_atom_site_fract_z
Si Si1 0.822561 0.484678 0.062575
Si Si2 0.336651 0.789304 0.811120
Si Si3 0.909376 0.964577 0.136533
Si Si4 0.982392 0.548175 0.075401
Si Si5 0.715650 0.002832 0.713133
Si Si6 0.246914 0.327283 0.736427
Si Si7 0.459416 0.336037 0.723259
Si Si8 0.539264 0.940790 0.786278
O O1 0.866987 0.723809 0.098506
O O2 0.858209 0.441062 0.010805
O O3 0.005508 0.338678 0.383605
O O4 0.585772 0.456535 0.796144
O O5 0.286027 0.564765 0.748932
O O6 0.137483 0.948943 0.484471
O O7 0.571910 0.806949 0.071488
O O8 0.369634 0.752100 0.963791
O O9 0.881380 0.073496 0.986589
O O10 0.713723 0.044641 0.938925
O O11 0.236785 0.480130 0.447332
O O12 0.000000 0.500000 0.000000
O O13 0.850728 0.786366 0.881103
O O14 0.500000 0.000000 0.500000
O O15 0.620976 0.127249 0.483095
O O16 0.312336 0.235546 0.933474
O O17 0.407722 0.124795 0.646416
#
# Coordination Sequence:
#
# PCOD9008626 Si02
#       8
#     2   2   2   2   2   2   2   2
#     4  10  22  42  68  95 125 178 223 269 325 391
#     4  10  21  40  66  95 121 175 224 267 329 393
#     4   9  20  41  65  87 126 172 223 270 315 392
#     4  11  22  44  67  94 137 175 221 270 324 401
#     4   9  20  41  68  88 132 177 214 269 327 380
#     4  10  21  39  65  92 130 168 222 275 326 387
#     4  12  24  39  67 101 131 171 218 268 341 394
#     4  11  22  39  60  96 133 169 210 279 334 383
#
# _framework density 27.125912
#
# number of rings (size 3 to 8) (size 9 to 14) (size 15 to 20)
#    0.000    1.750    2.500    1.500    1.750    5.000 
#    2.250    0.625    5.500    0.000    0.000    0.000 
#    0.000    0.000    0.000    0.000    0.000    0.000 
#
# Total GULP energy -89507.324209 kJ/mol
# GULP energy per Si atom -5594.207763 kJ/mol
# Density = 2.706417 g / cm^3
# Si number density = 27.125912 Si / 1000 Ang^3
#
#
#
# Elastic Constant Matrix: (Units=GPa)
#
#
# Indices 1 2 3 4 5 6 
#
# 1 167.1994 26.8977 51.8980 -3.8684 -1.9322 -10.8023
# 2 26.8977 76.3333 31.6214 -17.9677 8.2492 -16.4021
# 3 51.8980 31.6214 144.9135 -19.1387 -17.9611 -14.7812
# 4 -3.8684 -17.9677 -19.1387 27.7496 -3.8636 5.3452
# 5 -1.9322 8.2492 -17.9611 -3.8636 58.5112 3.8310
# 6 -10.8023 -16.4021 -14.7812 5.3452 3.8310 45.4037
#
#
#
# Elastic Compliance Matrix: (Units=1/GPa)
#
#
# Indices 1 2 3 4 5 6 
#
# 1 0.006988 -0.001791 -0.002371 -0.001976 -0.000409 0.000511
# 2 -0.001791 0.017915 -0.002016 0.008661 -0.002934 0.004617
# 3 -0.002371 -0.002016 0.009373 0.005129 0.003365 0.000871
# 4 -0.001976 0.008661 0.005129 0.045635 0.003389 -0.001330
# 5 -0.000409 -0.002934 0.003365 0.003389 0.018882 -0.002054
# 6 0.000511 0.004617 0.000871 -0.001330 -0.002054 0.024427
#
#
# Mechanical properties :
#
#
# Convention : Reuss Voigt Hill
#
# Bulk Modulus (GPa) = 45.62506 67.69782 56.66144
# Shear Modulus (GPa) = 34.99343 44.86817 39.93080
#
# Velocity S-wave (km/s) = 3.59560 4.07144 3.84090
# Velocity P-wave (km/s) = 5.83901 6.86391 6.37210
#
# Compressibility (1/GPa) = 0.02191778
#
# Stress axis : x y z
#
# Youngs Moduli (GPa) = 143.11073 55.81923 106.68723
#
# Poissons Ratio (x) = 0.09999 0.25297
# Poissons Ratio (y) = 0.25636 0.21513
# Poissons Ratio (z) = 0.33934 0.11256
#
# Static dielectric constant tensor:
#      x y z
#    x 2.105170 0.029350 -0.039230 
#    y 0.029350 2.214250 -0.019280 
#    z -0.039230 -0.019280 2.089600 
# 
# From -- ./inp_files/540478.got.cif
#   From: 2010.05.17/outbox.cif.g08.bks.cpg/sg2_271_cif.got.tgz:540478.got - 2010.06.03 11:33:40.
