data_PCOD9008125
_publ_section_title
;
Structure prediction by ZEFSAII (Michael W. Deem and Ramdas Pophale) SiO2 
 PCOD9008125
Probable space group: P -1
;
_chemical_formula_sum "Si O2"
_cell_formula_units_Z 16
_cell_length_a 16.769781
_cell_length_b 5.558980
_cell_length_c 7.114831
_cell_angle_alpha 74.444888
_cell_angle_beta 68.967401
_cell_angle_gamma 98.031372
_cell_volume 575.500409
_symmetry_space_group_name_H-M "P -1"
_symmetry_group_IT_number 2
_symmetry_cell_setting 'triclinic'
loop_
_space_group_symop_operation_xyz
x,y,z
-x,-y,-z
loop_
_atom_site_type_symbol
_atom_site_label
_atom_site_fract_x
_atom_site_fract_y
_atom_site_fract_z
Si Si1 0.209345 0.861606 0.649627
Si Si2 0.967935 0.192018 0.630086
Si Si3 0.747926 0.610380 0.648820
Si Si4 0.693837 0.390028 0.115700
Si Si5 0.097331 0.381658 0.781412
Si Si6 0.801732 0.883905 0.995746
Si Si7 0.513655 0.995232 0.216906
Si Si8 0.451448 0.454706 0.256279
O O1 0.109651 0.687172 0.734941
O O2 0.241951 0.079832 0.422598
O O3 0.276233 0.692742 0.690646
O O4 0.208688 0.989438 0.825789
O O5 0.011729 0.201778 0.798710
O O6 0.000000 0.500000 0.500000
O O7 0.000000 0.000000 0.500000
O O8 0.863231 0.084427 0.763673
O O9 0.755694 0.450610 0.863182
O O10 0.826269 0.598891 0.445589
O O11 0.647176 0.513380 0.687322
O O12 0.704548 0.699860 0.068641
O O13 0.608121 0.178329 0.163823
O O14 0.131739 0.293554 0.965674
O O15 0.451458 0.152249 0.344627
O O16 0.497337 0.684850 0.313646
O O17 0.500000 0.000000 0.000000
O O18 0.500000 0.500000 0.000000
#
# Coordination Sequence:
#
# PCOD9008125 Si02
#       8
#     2   2   2   2   2   2   2   2
#     4  10  26  43  70 106 140 196 246 292 362 433
#     4  12  29  47  74 114 144 183 248 292 362 441
#     4  11  23  42  73 100 143 188 245 301 365 431
#     4  11  23  42  73 100 143 188 245 301 365 431
#     4  10  25  46  70 101 146 192 238 299 361 429
#     4  10  25  46  70 101 146 192 238 299 361 429
#     4  10  21  39  64 104 137 185 239 297 366 424
#     4  10  21  39  64 104 137 185 239 297 366 424
#
# _framework density 27.801888999999999
#
# number of rings (size 3 to 8) (size 9 to 14) (size 15 to 20)
#    0.000    1.500    2.500    1.125   14.000    0.500 
#    0.000    1.250    0.000    0.000    0.000    0.000 
#    0.000    0.000    0.000    0.000    0.000    0.000 
#
# Total GULP energy -89199.950037 kJ/mol
# GULP energy per Si atom -5574.996877 kJ/mol
# Density = 2.773861 g / cm^3
# Si number density = 27.801889 Si / 1000 Ang^3
#
#
#
# Elastic Constant Matrix: (Units=GPa)
#
#
# Indices 1 2 3 4 5 6 
#
# 1 99.0677 59.2311 43.5691 -8.9488 1.7486 28.3254
# 2 59.2311 200.9879 37.6648 -20.1740 -5.3210 35.0177
# 3 43.5691 37.6648 110.0679 -23.3900 13.9129 3.9488
# 4 -8.9488 -20.1740 -23.3900 46.2548 -3.1656 -7.5131
# 5 1.7486 -5.3210 13.9129 -3.1656 30.4406 -7.5924
# 6 28.3254 35.0177 3.9488 -7.5131 -7.5924 65.0669
#
#
#
# Elastic Compliance Matrix: (Units=1/GPa)
#
#
# Indices 1 2 3 4 5 6 
#
# 1 0.015431 -0.002859 -0.005270 -0.001788 -0.000439 -0.005116
# 2 -0.002859 0.006503 -0.000854 0.001646 0.001401 -0.001849
# 3 -0.005270 -0.000854 0.013110 0.005235 -0.004795 0.002003
# 4 -0.001788 0.001646 0.005235 0.025152 0.001269 0.002627
# 5 -0.000439 0.001401 -0.004795 0.001269 0.036475 0.004131
# 6 -0.005116 -0.001849 0.002003 0.002627 0.004131 0.019255
#
#
# Mechanical properties :
#
#
# Convention : Reuss Voigt Hill
#
# Bulk Modulus (GPa) = 58.56282 76.78371 67.67326
# Shear Modulus (GPa) = 35.82020 46.32970 41.07495
#
# Velocity S-wave (km/s) = 3.59334 4.08661 3.84789
# Velocity P-wave (km/s) = 6.19081 7.06720 6.64347
#
# Compressibility (1/GPa) = 0.01707568
#
# Stress axis : x y z
#
# Youngs Moduli (GPa) = 64.80565 153.78073 76.27510
#
# Poissons Ratio (x) = 0.43973 0.40200
# Poissons Ratio (y) = 0.18531 0.06516
# Poissons Ratio (z) = 0.34156 0.13136
#
# Static dielectric constant tensor:
#      x y z
#    x 2.455020 -0.224930 0.181290 
#    y -0.224930 2.516150 -0.162510 
#    z 0.181290 -0.162510 2.238790 
# 
# From -- ./inp_files/323433.got.cif
#   From: 2010.05.17/outbox.cif.g08.bks.cpg/sg2_162_cif.got.tgz:323433.got - 2010.06.03 11:33:40.
