data_PCOD9008614
_publ_section_title
;
Structure prediction by ZEFSAII (Michael W. Deem and Ramdas Pophale) SiO2 
 PCOD9008614
Probable space group: P -1
;
_chemical_formula_sum "Si O2"
_cell_formula_units_Z 16
_cell_length_a 9.333221
_cell_length_b 7.444222
_cell_length_c 17.057563
_cell_angle_alpha 61.097632
_cell_angle_beta 145.179043
_cell_angle_gamma 115.536384
_cell_volume 591.041408
_symmetry_space_group_name_H-M "P -1"
_symmetry_group_IT_number 2
_symmetry_cell_setting 'triclinic'
loop_
_space_group_symop_operation_xyz
x,y,z
-x,-y,-z
loop_
_atom_site_type_symbol
_atom_site_label
_atom_site_fract_x
_atom_site_fract_y
_atom_site_fract_z
Si Si1 0.251247 0.612571 0.289687
Si Si2 0.706263 0.256549 0.458415
Si Si3 0.530639 0.030498 0.121674
Si Si4 0.712506 0.614830 0.125093
Si Si5 0.659940 0.932190 0.788345
Si Si6 0.117937 0.156837 0.370252
Si Si7 0.021379 0.374961 0.431453
Si Si8 0.157538 0.701750 0.054898
O O1 0.370712 0.843765 0.312841
O O2 0.967441 0.625368 0.188616
O O3 0.270972 0.371443 0.369941
O O4 0.258704 0.632688 0.196995
O O5 0.946574 0.289298 0.500280
O O6 0.750161 0.450883 0.493855
O O7 0.480423 0.227194 0.301687
O O8 0.748789 0.037415 0.561164
O O9 0.455139 0.073772 0.172461
O O10 0.822562 0.107293 0.225287
O O11 0.406849 0.799023 0.104128
O O12 0.374337 0.157790 0.963157
O O13 0.794788 0.492635 0.264510
O O14 0.500000 0.500000 0.000000
O O15 0.948959 0.871698 0.932900
O O16 0.091935 0.194759 0.443900
O O17 0.000000 0.500000 0.000000
#
# Coordination Sequence:
#
# PCOD9008614 Si02
#       8
#     2   2   2   2   2   2   2   2
#     4  10  21  39  65  92 125 163 212 263 319 376
#     4  11  24  42  61  93 134 171 216 251 313 387
#     4  11  20  39  69  90 122 164 210 260 321 377
#     4  11  17  36  67  93 118 159 213 261 325 363
#     4  11  21  41  66  88 128 175 202 255 322 386
#     4  11  23  42  67  96 124 170 214 262 314 372
#     4  10  23  38  63  92 125 167 212 267 305 371
#     4  11  24  39  61  99 131 159 209 266 324 380
#
# _framework density 27.070862000000002
#
# number of rings (size 3 to 8) (size 9 to 14) (size 15 to 20)
#    0.000    1.250    6.250    1.125    0.000    3.500 
#    2.250    3.750    0.000    0.000    0.000    0.000 
#    0.000    0.000    0.000    0.000    0.000    0.000 
#
# Total GULP energy -89372.937384 kJ/mol
# GULP energy per Si atom -5585.808587 kJ/mol
# Density = 2.700925 g / cm^3
# Si number density = 27.070862 Si / 1000 Ang^3
#
#
#
# Elastic Constant Matrix: (Units=GPa)
#
#
# Indices 1 2 3 4 5 6 
#
# 1 55.6262 27.5314 27.2333 -3.8244 10.1234 33.6729
# 2 27.5314 180.9250 34.7325 9.4800 -6.8965 2.9319
# 3 27.2333 34.7325 104.5454 -2.9671 11.2658 -3.5691
# 4 -3.8244 9.4800 -2.9671 59.6723 1.2278 -13.9444
# 5 10.1234 -6.8965 11.2658 1.2278 31.2841 1.4987
# 6 33.6729 2.9319 -3.5691 -13.9444 1.4987 39.0282
#
#
#
# Elastic Compliance Matrix: (Units=1/GPa)
#
#
# Indices 1 2 3 4 5 6 
#
# 1 0.071891 -0.006520 -0.017524 -0.010415 -0.014806 -0.066292
# 2 -0.006520 0.006763 -0.000798 -0.000504 0.003682 0.004723
# 3 -0.017524 -0.000798 0.015234 0.003998 -0.001012 0.018040
# 4 -0.010415 -0.000504 0.003998 0.020247 0.000229 0.016614
# 5 -0.014806 0.003682 -0.001012 0.000229 0.037394 0.011051
# 6 -0.066292 0.004723 0.018040 0.016614 0.011051 0.089625
#
#
# Mechanical properties :
#
#
# Convention : Reuss Voigt Hill
#
# Bulk Modulus (GPa) = 22.62297 57.78791 40.20544
# Shear Modulus (GPa) = 16.36272 42.77022 29.56647
#
# Velocity S-wave (km/s) = 2.46120 3.97915 3.30841
# Velocity P-wave (km/s) = 4.05608 6.51957 5.42939
#
# Compressibility (1/GPa) = 0.04420286
#
# Stress axis : x y z
#
# Youngs Moduli (GPa) = 13.90991 147.86933 65.64376
#
# Poissons Ratio (x) = 0.96410 1.15036
# Poissons Ratio (y) = 0.09069 0.05239
# Poissons Ratio (z) = 0.24376 0.11802
#
# Static dielectric constant tensor:
#      x y z
#    x 2.154570 -0.373040 -0.018370 
#    y -0.373040 1.796430 -0.023430 
#    z -0.018370 -0.023430 2.095910 
# 
# From -- ./inp_files/594057.got.cif
#   From: 2010.05.17/outbox.cif.g08.bks.cpg/sg2_298_cif.got.tgz:594057.got - 2010.06.03 11:33:40.
