data_PCOD9008266
_publ_section_title
;
Structure prediction by ZEFSAII (Michael W. Deem and Ramdas Pophale) SiO2 
 PCOD9008266
Probable space group: P -1
;
_chemical_formula_sum "Si O2"
_cell_formula_units_Z 14
_cell_length_a 4.932834
_cell_length_b 5.859509
_cell_length_c 21.728227
_cell_angle_alpha 99.801199
_cell_angle_beta 102.404455
_cell_angle_gamma 98.892316
_cell_volume 592.377511
_symmetry_space_group_name_H-M "P -1"
_symmetry_group_IT_number 2
_symmetry_cell_setting 'triclinic'
loop_
_space_group_symop_operation_xyz
x,y,z
-x,-y,-z
loop_
_atom_site_type_symbol
_atom_site_label
_atom_site_fract_x
_atom_site_fract_y
_atom_site_fract_z
Si Si1 0.760075 0.267249 0.482373
Si Si2 0.876101 0.189579 0.042993
Si Si3 0.463586 0.790844 0.080287
Si Si4 0.526886 0.894560 0.798823
Si Si5 0.831182 0.964768 0.584825
Si Si6 0.968986 0.049281 0.736227
Si Si7 0.136206 0.493678 0.840803
O O1 0.752911 0.168296 0.546875
O O2 0.437083 0.254186 0.445416
O O3 0.000000 0.500000 0.500000
O O4 0.886141 0.092064 0.434672
O O5 0.026955 0.370548 0.110886
O O6 0.649151 0.018305 0.065962
O O7 0.736573 0.326358 0.989570
O O8 0.000000 0.000000 0.000000
O O9 0.664568 0.634983 0.112850
O O10 0.323615 0.915672 0.134144
O O11 0.286923 0.008298 0.758379
O O12 0.347103 0.671533 0.815043
O O13 0.759232 0.858851 0.759114
O O14 0.880463 0.032850 0.660779
O O15 0.956308 0.299646 0.778646
#
# Coordination Sequence:
#
# PCOD9008266 Si02
#       7
#     2   2   2   2   2   2   2
#     4  10  21  41  67  99 131 171 214 262 315 377
#     4  10  21  39  64  92 120 160 220 281 331 392
#     4   9  21  40  59  89 122 160 217 276 334 389
#     4  10  24  42  64  90 133 166 224 273 320 390
#     4  10  22  39  66  97 136 167 215 267 312 377
#     4  11  24  44  62  97 132 175 215 268 323 390
#     4  10  23  43  65  91 125 177 215 270 339 397
#
# _framework density 23.633579999999998
#
# number of rings (size 3 to 8) (size 9 to 14) (size 15 to 20)
#    0.000    2.000    0.000    1.714    6.000    5.143 
#   10.286    0.000    0.000    0.000    0.000    0.000 
#    0.000    0.000    0.000    0.000    0.000    0.000 
#
# Total GULP energy -78252.078083 kJ/mol
# GULP energy per Si atom -5589.434149 kJ/mol
# Density = 2.357979 g / cm^3
# Si number density = 23.633580 Si / 1000 Ang^3
#
#
#
# Elastic Constant Matrix: (Units=GPa)
#
#
# Indices 1 2 3 4 5 6 
#
# 1 93.3585 8.3742 39.9998 -2.6487 -2.6017 9.0595
# 2 8.3742 68.9738 51.4002 -0.3533 10.5433 15.9213
# 3 39.9998 51.4002 217.1941 -8.2657 3.8444 8.4097
# 4 -2.6487 -0.3533 -8.2657 19.6553 5.4786 -3.9264
# 5 -2.6017 10.5433 3.8444 5.4786 30.2255 1.7369
# 6 9.0595 15.9213 8.4097 -3.9264 1.7369 38.2368
#
#
#
# Elastic Compliance Matrix: (Units=1/GPa)
#
#
# Indices 1 2 3 4 5 6 
#
# 1 0.011918 0.000678 -0.002283 -0.000234 0.001277 -0.002686
# 2 0.000678 0.020493 -0.004632 -0.001375 -0.005818 -0.007552
# 3 -0.002283 -0.004632 0.006159 0.002439 0.000116 0.001360
# 4 -0.000234 -0.001375 0.002439 0.055996 -0.010363 0.006312
# 5 0.001277 -0.005818 0.000116 -0.010363 0.037125 -0.000656
# 6 -0.002686 -0.007552 0.001360 0.006312 -0.000656 0.030313
#
#
# Mechanical properties :
#
#
# Convention : Reuss Voigt Hill
#
# Bulk Modulus (GPa) = 38.31869 64.34163 51.33016
# Shear Modulus (GPa) = 27.29620 36.27364 31.78492
#
# Velocity S-wave (km/s) = 3.40218 3.92195 3.67127
# Velocity P-wave (km/s) = 5.62867 6.91322 6.30375
#
# Compressibility (1/GPa) = 0.02609692
#
# Stress axis : x y z
#
# Youngs Moduli (GPa) = 83.90469 48.79739 162.36971
#
# Poissons Ratio (x) = -0.03308 0.37067
# Poissons Ratio (y) = -0.05688 0.75202
# Poissons Ratio (z) = 0.19154 0.22601
#
# Static dielectric constant tensor:
#      x y z
#    x 1.944160 -0.022490 -0.000460 
#    y -0.022490 1.977330 0.037160 
#    z -0.000460 0.037160 1.856270 
# 
# From -- ./inp_files/580812.got.cif
#   From: 2010.05.17/outbox.cif.g08.bks.cpg/sg2_291_cif.got.tgz:580812.got - 2010.06.03 11:33:40.
