data_PCOD9008964
_publ_section_title
;
Structure prediction by ZEFSAII (Michael W. Deem and Ramdas Pophale) SiO2 
 PCOD9008964
Probable space group: P -1
;
_chemical_formula_sum "Si O2"
_cell_formula_units_Z 14
_cell_length_a 8.396486
_cell_length_b 17.979129
_cell_length_c 5.334496
_cell_angle_alpha 102.432402
_cell_angle_beta 123.804772
_cell_angle_gamma 91.829886
_cell_volume 641.943722
_symmetry_space_group_name_H-M "P -1"
_symmetry_group_IT_number 2
_symmetry_cell_setting 'triclinic'
loop_
_space_group_symop_operation_xyz
x,y,z
-x,-y,-z
loop_
_atom_site_type_symbol
_atom_site_label
_atom_site_fract_x
_atom_site_fract_y
_atom_site_fract_z
Si Si1 0.772060 0.533713 0.076663
Si Si2 0.761852 0.442261 0.503079
Si Si3 0.688437 0.123099 0.755012
Si Si4 0.655773 0.981962 0.319395
Si Si5 0.417966 0.315946 0.025929
Si Si6 0.388865 0.217907 0.426727
Si Si7 0.056860 0.086051 0.236128
O O1 0.715393 0.496326 0.272049
O O2 0.007021 0.553417 0.291937
O O3 0.708427 0.473731 0.749365
O O4 0.692082 0.611604 0.014062
O O5 0.643813 0.356896 0.283219
O O6 0.493845 0.071287 0.662771
O O7 0.603631 0.194570 0.622970
O O8 0.746928 0.068170 0.551836
O O9 0.866831 0.126190 0.107247
O O10 0.829500 0.932955 0.424883
O O11 0.500000 0.000000 0.000000
O O12 0.367119 0.259649 0.176705
O O13 0.375979 0.271782 0.695411
O O14 0.215639 0.143659 0.253415
O O15 0.000000 0.000000 0.000000
#
# Coordination Sequence:
#
# PCOD9008964 Si02
#       7
#     2   2   2   2   2   2   2
#     4  10  21  39  66  97 124 158 214 250 294 372
#     4  10  21  39  66  95 124 164 205 256 302 358
#     4   9  20  38  55  81 120 152 202 255 318 372
#     4   9  18  34  62  87 108 144 203 269 315 372
#     4  12  24  41  62  91 131 169 200 253 319 372
#     4  11  26  40  60  90 128 168 210 257 317 384
#     4   9  20  43  61  87 115 163 218 266 322 368
#
# _framework density 21.808765000000001
#
# number of rings (size 3 to 8) (size 9 to 14) (size 15 to 20)
#    0.000    2.000    0.000    3.429    4.000    2.857 
#    5.143    0.000    0.000    0.000    0.000    0.000 
#    0.000    0.000    0.000    0.000    0.000    0.000 
#
# Total GULP energy -78031.502153 kJ/mol
# GULP energy per Si atom -5573.678725 kJ/mol
# Density = 2.175913 g / cm^3
# Si number density = 21.808765 Si / 1000 Ang^3
#
#
#
# Elastic Constant Matrix: (Units=GPa)
#
#
# Indices 1 2 3 4 5 6 
#
# 1 49.0222 21.2887 22.9394 -9.6999 8.4927 3.3155
# 2 21.2887 76.7960 14.5398 -10.2312 2.1837 11.3180
# 3 22.9394 14.5398 78.0806 -0.0782 0.4366 -2.3527
# 4 -9.6999 -10.2312 -0.0782 30.4244 6.0384 10.9353
# 5 8.4927 2.1837 0.4366 6.0384 36.8641 -7.3581
# 6 3.3155 11.3180 -2.3527 10.9353 -7.3581 32.1943
#
#
#
# Elastic Compliance Matrix: (Units=1/GPa)
#
#
# Indices 1 2 3 4 5 6 
#
# 1 0.031687 -0.003187 -0.008955 0.015111 -0.011592 -0.010579
# 2 -0.003187 0.017119 -0.002516 0.008970 -0.003667 -0.009759
# 3 -0.008955 -0.002516 0.016065 -0.006792 0.004390 0.006291
# 4 0.015111 0.008970 -0.006792 0.054355 -0.018399 -0.027874
# 5 -0.011592 -0.003667 0.004390 -0.018399 0.036446 0.017383
# 6 -0.010579 -0.009759 0.006291 -0.027874 0.017383 0.049482
#
#
# Mechanical properties :
#
#
# Convention : Reuss Voigt Hill
#
# Bulk Modulus (GPa) = 28.12505 35.71495 31.92000
# Shear Modulus (GPa) = 20.29877 29.57195 24.93536
#
# Velocity S-wave (km/s) = 3.05415 3.68634 3.38504
# Velocity P-wave (km/s) = 5.03600 5.87629 5.47230
#
# Compressibility (1/GPa) = 0.03555549
#
# Stress axis : x y z
#
# Youngs Moduli (GPa) = 31.55891 58.41562 62.24770
#
# Poissons Ratio (x) = 0.18614 0.55741
# Poissons Ratio (y) = 0.10056 0.15662
# Poissons Ratio (z) = 0.28260 0.14698
#
# Static dielectric constant tensor:
#      x y z
#    x 1.856180 -0.028070 0.023510 
#    y -0.028070 1.797860 -0.077200 
#    z 0.023510 -0.077200 2.007830 
# 
# From -- ./inp_files/44796.got.cif
#   From: 2010.05.17/outbox.cif.g08.bks.cpg/sg2_23_cif.got.tgz:44796.got - 2010.06.03 11:33:40.
