data_PCOD9008169
_publ_section_title
;
Structure prediction by ZEFSAII (Michael W. Deem and Ramdas Pophale) SiO2 
 PCOD9008169
Probable space group: P -1
;
_chemical_formula_sum "Si O2"
_cell_formula_units_Z 14
_cell_length_a 14.813974
_cell_length_b 8.949079
_cell_length_c 13.907699
_cell_angle_alpha 59.281854
_cell_angle_beta 151.795108
_cell_angle_gamma 101.129751
_cell_volume 580.047854
_symmetry_space_group_name_H-M "P -1"
_symmetry_group_IT_number 2
_symmetry_cell_setting 'triclinic'
loop_
_space_group_symop_operation_xyz
x,y,z
-x,-y,-z
loop_
_atom_site_type_symbol
_atom_site_label
_atom_site_fract_x
_atom_site_fract_y
_atom_site_fract_z
Si Si1 0.273997 0.658980 0.165323
Si Si2 0.412167 0.292222 0.298779
Si Si3 0.551194 0.194809 0.176484
Si Si4 0.929881 0.537170 0.251258
Si Si5 0.200380 0.037030 0.694408
Si Si6 0.734707 0.878585 0.622280
Si Si7 0.025569 0.139144 0.704909
O O1 0.500000 0.500000 0.500000
O O2 0.366400 0.521590 0.196920
O O3 0.026999 0.696041 0.949499
O O4 0.175526 0.909925 0.981595
O O5 0.385918 0.207713 0.402822
O O6 0.662275 0.090597 0.548281
O O7 0.201506 0.345525 0.011481
O O8 0.767949 0.202826 0.407754
O O9 0.571705 0.150267 0.096917
O O10 0.621064 0.984242 0.376165
O O11 0.287674 0.404511 0.900042
O O12 0.021289 0.659044 0.347017
O O13 0.110503 0.273709 0.491836
O O14 0.196610 0.065852 0.795375
O O15 0.000000 0.000000 0.500000
#
# Coordination Sequence:
#
# PCOD9008169 Si02
#       7
#     2   2   2   2   2   2   2
#     4  11  24  40  62  90 129 164 206 260 310 367
#     4  10  21  39  64  88 124 166 205 255 318 363
#     4   9  21  41  65  90 126 164 203 255 311 365
#     4  11  22  41  67  91 126 163 205 254 313 368
#     4  10  21  41  67  90 126 162 204 258 309 366
#     4   9  20  39  63  89 123 162 211 251 308 372
#     4  10  23  42  60  95 126 157 215 255 300 376
#
# _framework density 24.135937999999999
#
# number of rings (size 3 to 8) (size 9 to 14) (size 15 to 20)
#    0.000    2.000    0.000    3.429    6.000    3.429 
#    5.143    4.286    0.000    0.000    0.000    0.000 
#    0.000    0.000    0.000    0.000    0.000    0.000 
#
# Total GULP energy -78286.351044 kJ/mol
# GULP energy per Si atom -5591.882217 kJ/mol
# Density = 2.408100 g / cm^3
# Si number density = 24.135938 Si / 1000 Ang^3
#
#
#
# Elastic Constant Matrix: (Units=GPa)
#
#
# Indices 1 2 3 4 5 6 
#
# 1 72.5978 8.0544 -13.6334 -4.4933 -0.7023 -4.9123
# 2 8.0544 131.3034 24.2605 -15.3340 -3.9730 -8.9358
# 3 -13.6334 24.2605 64.5860 -11.6060 5.7780 -3.8521
# 4 -4.4933 -15.3340 -11.6060 26.8070 -3.3329 2.8604
# 5 -0.7023 -3.9730 5.7780 -3.3329 30.9795 -7.2133
# 6 -4.9123 -8.9358 -3.8521 2.8604 -7.2133 34.4854
#
#
#
# Elastic Compliance Matrix: (Units=1/GPa)
#
#
# Indices 1 2 3 4 5 6 
#
# 1 0.015088 -0.001167 0.004365 0.003559 0.000248 0.002091
# 2 -0.001167 0.008892 -0.003032 0.003679 0.002547 0.002027
# 3 0.004365 -0.003032 0.019076 0.006807 -0.002932 0.000789
# 4 0.003559 0.003679 0.006807 0.043490 0.003825 -0.000587
# 5 0.000248 0.002547 -0.002932 0.003825 0.035301 0.007435
# 6 0.002091 0.002027 0.000789 -0.000587 0.007435 0.031513
#
#
# Mechanical properties :
#
#
# Convention : Reuss Voigt Hill
#
# Bulk Modulus (GPa) = 23.04727 33.98336 28.51531
# Shear Modulus (GPa) = 29.85229 35.10809 32.48019
#
# Velocity S-wave (km/s) = 3.52069 3.81806 3.67238
# Velocity P-wave (km/s) = 5.10849 5.79200 5.46095
#
# Compressibility (1/GPa) = 0.04338909
#
# Stress axis : x y z
#
# Youngs Moduli (GPa) = 66.27827 112.45517 52.42073
#
# Poissons Ratio (x) = 0.13119 -0.22883
# Poissons Ratio (y) = 0.07732 0.15896
# Poissons Ratio (z) = -0.28932 0.34102
#
# Static dielectric constant tensor:
#      x y z
#    x 1.923090 0.022050 -0.016940 
#    y 0.022050 1.943730 0.010250 
#    z -0.016940 0.010250 1.904440 
# 
# From -- ./inp_files/212077.got.cif
#   From: 2010.05.17/outbox.cif.g08.bks.cpg/sg2_107_cif.got.tgz:212077.got - 2010.06.03 11:33:40.
