data_PCOD9008159
_publ_section_title
;
Structure prediction by ZEFSAII (Michael W. Deem and Ramdas Pophale) SiO2 
 PCOD9008159
Probable space group: P -1
;
_chemical_formula_sum "Si O2"
_cell_formula_units_Z 14
_cell_length_a 6.949898
_cell_length_b 14.884688
_cell_length_c 8.350781
_cell_angle_alpha 64.774470
_cell_angle_beta 57.154198
_cell_angle_gamma 86.634476
_cell_volume 639.426171
_symmetry_space_group_name_H-M "P -1"
_symmetry_group_IT_number 2
_symmetry_cell_setting 'triclinic'
loop_
_space_group_symop_operation_xyz
x,y,z
-x,-y,-z
loop_
_atom_site_type_symbol
_atom_site_label
_atom_site_fract_x
_atom_site_fract_y
_atom_site_fract_z
Si Si1 0.954316 0.349995 0.959621
Si Si2 0.519163 0.611483 0.831198
Si Si3 0.627810 0.992916 0.114046
Si Si4 0.835860 0.072955 0.463270
Si Si5 0.685148 0.442753 0.386054
Si Si6 0.026486 0.149705 0.967533
Si Si7 0.037967 0.709639 0.623321
O O1 0.078521 0.467896 0.794609
O O2 0.680541 0.335248 0.047472
O O3 0.065116 0.271264 0.867253
O O4 0.986637 0.327593 0.150431
O O5 0.431182 0.593803 0.703246
O O6 0.783211 0.675393 0.684467
O O7 0.500000 0.500000 0.000000
O O8 0.435457 0.981270 0.349733
O O9 0.833292 0.093179 0.972027
O O10 0.746837 0.895872 0.130518
O O11 0.500000 0.000000 0.000000
O O12 0.916244 0.110598 0.220602
O O13 0.877357 0.170123 0.488870
O O14 0.000000 0.000000 0.500000
O O15 0.500000 0.500000 0.500000
O O16 0.771002 0.347102 0.495050
#
# Coordination Sequence:
#
# PCOD9008159 Si02
#       7
#     2   2   2   2   2   2   2
#     4  10  21  39  64  88 118 161 201 245 307 360
#     4  11  19  40  65  82 116 162 204 242 291 373
#     4  11  23  44  63  91 128 159 211 260 304 370
#     4  11  23  42  66  91 124 165 208 254 309 367
#     4  11  23  39  58  91 128 152 194 256 306 354
#     4  10  24  42  65  91 125 167 203 256 314 363
#     4  10  22  41  62  89 117 162 207 243 299 369
#
# _framework density 21.894632000000001
#
# number of rings (size 3 to 8) (size 9 to 14) (size 15 to 20)
#    0.000    1.429    4.286    1.286    4.000    0.571 
#    5.143    0.000    0.000    0.000    0.000    0.000 
#    0.000    0.000    0.000    0.000    0.000    0.000 
#
# Total GULP energy -78229.794556 kJ/mol
# GULP energy per Si atom -5587.842468 kJ/mol
# Density = 2.184480 g / cm^3
# Si number density = 21.894632 Si / 1000 Ang^3
#
#
#
# Elastic Constant Matrix: (Units=GPa)
#
#
# Indices 1 2 3 4 5 6 
#
# 1 142.8904 48.2103 10.6855 4.4098 -22.9689 -1.9019
# 2 48.2103 130.7629 -7.0320 2.5594 -7.6701 -19.8221
# 3 10.6855 -7.0320 29.8269 9.7258 -8.4189 -9.7156
# 4 4.4098 2.5594 9.7258 31.1451 -6.8340 -10.0553
# 5 -22.9689 -7.6701 -8.4189 -6.8340 27.8774 8.1471
# 6 -1.9019 -19.8221 -9.7156 -10.0553 8.1471 30.9430
#
#
#
# Elastic Compliance Matrix: (Units=1/GPa)
#
#
# Indices 1 2 3 4 5 6 
#
# 1 0.009834 -0.004237 -0.004258 0.000163 0.007240 -0.005300
# 2 -0.004237 0.010894 0.006663 0.000360 -0.001085 0.009213
# 3 -0.004258 0.006663 0.045597 -0.008344 0.005945 0.014047
# 4 0.000163 0.000360 -0.008344 0.038548 0.004548 0.008950
# 5 0.007240 -0.001085 0.005945 0.004548 0.047174 -0.009326
# 6 -0.005300 0.009213 0.014047 0.008950 -0.009326 0.047668
#
#
# Mechanical properties :
#
#
# Convention : Reuss Voigt Hill
#
# Bulk Modulus (GPa) = 15.95840 45.24531 30.60185
# Shear Modulus (GPa) = 22.29495 34.76753 28.53124
#
# Velocity S-wave (km/s) = 3.19452 3.98923 3.61379
# Velocity P-wave (km/s) = 4.57287 6.47522 5.60534
#
# Compressibility (1/GPa) = 0.06266293
#
# Stress axis : x y z
#
# Youngs Moduli (GPa) = 101.68337 91.79670 21.93105
#
# Poissons Ratio (x) = 0.38891 0.09338
# Poissons Ratio (y) = 0.43080 -0.14613
# Poissons Ratio (z) = 0.43296 -0.61167
#
# Static dielectric constant tensor:
#      x y z
#    x 1.784360 -0.029520 -0.015000 
#    y -0.029520 1.825910 0.042500 
#    z -0.015000 0.042500 1.870370 
# 
# From -- ./inp_files/36332.got.cif
#   From: 2010.05.17/outbox.cif.g08.bks.cpg/sg2_19_cif.got.tgz:36332.got - 2010.06.03 11:33:40.
