data_PCOD9008012
_publ_section_title
;
Structure prediction by ZEFSAII (Michael W. Deem and Ramdas Pophale) SiO2 
 PCOD9008012
Probable space group: P -1
;
_chemical_formula_sum "Si O2"
_cell_formula_units_Z 16
_cell_length_a 8.437259
_cell_length_b 9.206724
_cell_length_c 18.310200
_cell_angle_alpha 36.272896
_cell_angle_beta 121.383725
_cell_angle_gamma 105.335051
_cell_volume 683.542003
_symmetry_space_group_name_H-M "P -1"
_symmetry_group_IT_number 2
_symmetry_cell_setting 'triclinic'
loop_
_space_group_symop_operation_xyz
x,y,z
-x,-y,-z
loop_
_atom_site_type_symbol
_atom_site_label
_atom_site_fract_x
_atom_site_fract_y
_atom_site_fract_z
Si Si1 0.331570 0.457422 0.231510
Si Si2 0.629805 0.692513 0.859405
Si Si3 0.155159 0.205915 0.412794
Si Si4 0.921510 0.897169 0.924587
Si Si5 0.011753 0.777462 0.487905
Si Si6 0.856540 0.733990 0.127687
Si Si7 0.352322 0.269529 0.780588
Si Si8 0.713146 0.146555 0.170128
O O1 0.411621 0.308631 0.236030
O O2 0.300694 0.284028 0.361563
O O3 0.470218 0.616648 0.227695
O O4 0.123281 0.661696 0.075154
O O5 0.778956 0.854327 0.846047
O O6 0.437376 0.779595 0.828260
O O7 0.730909 0.400552 0.031662
O O8 0.157515 0.229387 0.491652
O O9 0.949856 0.431883 0.256050
O O10 0.139048 0.930327 0.498818
O O11 0.815419 0.879243 0.982794
O O12 0.984872 0.155107 0.838416
O O13 0.154414 0.496747 0.618191
O O14 0.915708 0.958231 0.324841
O O15 0.682229 0.776033 0.124218
O O16 0.364657 0.020955 0.837535
#
# Coordination Sequence:
#
# PCOD9008012 Si02
#       8
#     2   2   2   2   2   2   2   2
#     4  11  24  41  66 102 130 170 218 267 326 388
#     4  11  26  40  67  99 136 168 212 272 328 386
#     4   9  21  40  70  94 124 169 221 266 321 377
#     4  10  21  39  63  93 136 172 212 264 326 389
#     4  10  22  46  70  90 130 176 219 266 319 384
#     4   9  20  36  65  93 128 170 214 263 325 381
#     4  11  25  41  68  96 130 172 221 265 322 386
#     4  11  25  43  65  99 133 172 217 266 327 385
#
# _framework density 23.407485999999999
#
# number of rings (size 3 to 8) (size 9 to 14) (size 15 to 20)
#    0.000    1.750    0.000    3.000   14.000    2.500 
#    0.000    0.625    0.000    0.000    0.000    0.000 
#    0.000    0.000    0.000    0.000    0.000    0.000 
#
# Total GULP energy -89532.783200 kJ/mol
# GULP energy per Si atom -5595.798950 kJ/mol
# Density = 2.335421 g / cm^3
# Si number density = 23.407486 Si / 1000 Ang^3
#
#
#
# Elastic Constant Matrix: (Units=GPa)
#
#
# Indices 1 2 3 4 5 6 
#
# 1 92.2092 12.8505 17.6254 -0.1732 -19.6707 -15.6704
# 2 12.8505 84.8326 10.5957 -6.8885 3.5251 -2.8679
# 3 17.6254 10.5957 77.9985 -0.8315 -1.2167 -0.3778
# 4 -0.1732 -6.8885 -0.8315 31.1018 2.7966 3.7959
# 5 -19.6707 3.5251 -1.2167 2.7966 32.8195 1.0493
# 6 -15.6704 -2.8679 -0.3778 3.7959 1.0493 34.2718
#
#
#
# Elastic Compliance Matrix: (Units=1/GPa)
#
#
# Indices 1 2 3 4 5 6 
#
# 1 0.014693 -0.002186 -0.002875 -0.002068 0.008904 0.006460
# 2 -0.002186 0.012637 -0.001238 0.003045 -0.002967 -0.000202
# 3 -0.002875 -0.001238 0.013619 0.000326 -0.001072 -0.001271
# 4 -0.002068 0.003045 0.000326 0.033734 -0.004292 -0.004292
# 5 0.008904 -0.002967 -0.001072 -0.004292 0.036350 0.003174
# 6 0.006460 -0.000202 -0.001271 -0.004292 0.003174 0.032479
#
#
# Mechanical properties :
#
#
# Convention : Reuss Voigt Hill
#
# Bulk Modulus (GPa) = 35.27113 37.46481 36.36797
# Shear Modulus (GPa) = 30.20059 33.90321 32.05190
#
# Velocity S-wave (km/s) = 3.59585 3.80990 3.70442
# Velocity P-wave (km/s) = 5.68693 5.94929 5.81959
#
# Compressibility (1/GPa) = 0.02835180
#
# Stress axis : x y z
#
# Youngs Moduli (GPa) = 68.06185 79.13058 73.42618
#
# Poissons Ratio (x) = 0.17299 0.21110
# Poissons Ratio (y) = 0.14879 0.09087
# Poissons Ratio (z) = 0.19568 0.09793
#
# Static dielectric constant tensor:
#      x y z
#    x 1.899110 -0.038300 0.036550 
#    y -0.038300 1.869020 -0.003860 
#    z 0.036550 -0.003860 1.903130 
# 
# From -- ./inp_files/556815.got.cif
#   From: 2010.05.17/outbox.cif.g08.bks.cpg/sg2_279_cif.got.tgz:556815.got - 2010.06.03 11:33:40.
