data_PCOD9008021
_publ_section_title
;
Structure prediction by ZEFSAII (Michael W. Deem and Ramdas Pophale) SiO2 
 PCOD9008021
Probable space group: P -1
;
_chemical_formula_sum "Si O2"
_cell_formula_units_Z 14
_cell_length_a 14.467889
_cell_length_b 5.564366
_cell_length_c 14.665752
_cell_angle_alpha 129.385570
_cell_angle_beta 53.267688
_cell_angle_gamma 92.171798
_cell_volume 610.065792
_symmetry_space_group_name_H-M "P -1"
_symmetry_group_IT_number 2
_symmetry_cell_setting 'triclinic'
loop_
_space_group_symop_operation_xyz
x,y,z
-x,-y,-z
loop_
_atom_site_type_symbol
_atom_site_label
_atom_site_fract_x
_atom_site_fract_y
_atom_site_fract_z
Si Si1 0.128254 0.157103 0.288703
Si Si2 0.569778 0.217879 0.976148
Si Si3 0.115086 0.586603 0.938022
Si Si4 0.384450 0.439023 0.585857
Si Si5 0.873575 0.432788 0.279818
Si Si6 0.965448 0.288426 0.670583
Si Si7 0.391645 0.405003 0.778407
O O1 0.128688 0.309506 0.224761
O O2 0.000000 0.500000 0.500000
O O3 0.101167 0.828283 0.239730
O O4 0.273114 0.054229 0.217691
O O5 0.583665 0.415715 0.105710
O O6 0.500000 0.500000 0.000000
O O7 0.500000 0.000000 0.000000
O O8 0.164435 0.445371 0.772667
O O9 0.251951 0.405676 0.875218
O O10 0.000000 0.500000 0.000000
O O11 0.019587 0.037574 0.102263
O O12 0.500000 0.500000 0.500000
O O13 0.254001 0.605802 0.633890
O O14 0.354087 0.594944 0.745559
O O15 0.466898 0.989809 0.420364
O O16 0.898860 0.721493 0.383036
O O17 0.000000 0.000000 0.500000
#
# Coordination Sequence:
#
# PCOD9008021 Si02
#       7
#     2   2   2   2   2   2   2
#     4  10  23  45  70  96 142 184 235 281 343 416
#     4  12  28  47  71 108 147 192 233 292 361 435
#     4  10  21  39  63  94 124 166 218 283 337 398
#     4  10  22  44  66  93 133 184 231 290 342 414
#     4  10  22  36  63  96 124 167 226 271 343 405
#     4  10  22  41  65 103 134 175 222 286 340 408
#     4  10  24  42  65  98 134 178 233 284 351 411
#
# _framework density 22.948342
#
# number of rings (size 3 to 8) (size 9 to 14) (size 15 to 20)
#    0.000    1.714    0.000    2.571    6.000    4.571 
#    0.000    0.000    0.000    0.000    0.000    0.000 
#    0.000    0.000    0.000    0.000    0.000    0.000 
#
# Total GULP energy -77969.499214 kJ/mol
# GULP energy per Si atom -5569.249944 kJ/mol
# Density = 2.289611 g / cm^3
# Si number density = 22.948342 Si / 1000 Ang^3
#
#
#
# Elastic Constant Matrix: (Units=GPa)
#
#
# Indices 1 2 3 4 5 6 
#
# 1 203.4266 51.9377 59.5582 7.8414 -1.9950 13.7888
# 2 51.9377 132.2383 12.9246 -2.5564 -5.1389 6.5625
# 3 59.5582 12.9246 97.9205 -2.6803 -11.1660 -2.1922
# 4 7.8414 -2.5564 -2.6803 18.4253 -0.2169 -12.1907
# 5 -1.9950 -5.1389 -11.1660 -0.2169 53.0644 0.7788
# 6 13.7888 6.5625 -2.1922 -12.1907 0.7788 32.5177
#
#
#
# Elastic Compliance Matrix: (Units=1/GPa)
#
#
# Indices 1 2 3 4 5 6 
#
# 1 0.007694 -0.002438 -0.004832 -0.008458 -0.000907 -0.006245
# 2 -0.002438 0.008537 0.000527 0.002477 0.000852 0.000255
# 3 -0.004832 0.000527 0.013740 0.008000 0.002708 0.005803
# 4 -0.008458 0.002477 0.008000 0.082150 0.001436 0.034389
# 5 -0.000907 0.000852 0.002708 0.001436 0.019462 0.000467
# 6 -0.006245 0.000255 0.005803 0.034389 0.000467 0.046622
#
#
# Mechanical properties :
#
#
# Convention : Reuss Voigt Hill
#
# Bulk Modulus (GPa) = 60.67000 75.82515 68.24757
# Shear Modulus (GPa) = 25.35686 41.41246 33.38466
#
# Velocity S-wave (km/s) = 3.32769 4.25266 3.81829
# Velocity P-wave (km/s) = 6.42337 7.56485 7.01736
#
# Compressibility (1/GPa) = 0.01648261
#
# Stress axis : x y z
#
# Youngs Moduli (GPa) = 129.97915 117.14271 72.78192
#
# Poissons Ratio (x) = 0.28562 0.35171
# Poissons Ratio (y) = 0.31692 -0.03835
# Poissons Ratio (z) = 0.62810 -0.06173
#
# Static dielectric constant tensor:
#      x y z
#    x 1.591080 -0.449950 -0.146430 
#    y -0.449950 1.411470 -0.017790 
#    z -0.146430 -0.017790 2.529500 
# 
# From -- ./inp_files/511298.got.cif
#   From: 2010.05.17/outbox.cif.g08.bks.cpg/sg2_256_cif.got.tgz:511298.got - 2010.06.03 11:33:40.
