data_PCOD9008439
_publ_section_title
;
Structure prediction by ZEFSAII (Michael W. Deem and Ramdas Pophale) SiO2 
 PCOD9008439
Probable space group: P -1
;
_chemical_formula_sum "Si O2"
_cell_formula_units_Z 16
_cell_length_a 13.622412
_cell_length_b 5.856167
_cell_length_c 8.485253
_cell_angle_alpha 109.013621
_cell_angle_beta 79.095216
_cell_angle_gamma 78.170525
_cell_volume 601.948298
_symmetry_space_group_name_H-M "P -1"
_symmetry_group_IT_number 2
_symmetry_cell_setting 'triclinic'
loop_
_space_group_symop_operation_xyz
x,y,z
-x,-y,-z
loop_
_atom_site_type_symbol
_atom_site_label
_atom_site_fract_x
_atom_site_fract_y
_atom_site_fract_z
Si Si1 0.991418 0.039615 0.320609
Si Si2 0.818114 0.809557 0.175749
Si Si3 0.591108 0.744345 0.929926
Si Si4 0.796634 0.333357 0.946727
Si Si5 0.153132 0.449941 0.569961
Si Si6 0.490956 0.334495 0.732674
Si Si7 0.303121 0.993886 0.282202
Si Si8 0.311343 0.677771 0.686191
O O1 0.952728 0.341637 0.388543
O O2 0.904507 0.954070 0.221374
O O3 0.000000 0.000000 0.500000
O O4 0.096112 0.879505 0.168662
O O5 0.847130 0.606553 0.259635
O O6 0.707319 0.026260 0.278926
O O7 0.815448 0.610455 0.993241
O O8 0.543209 0.551463 0.809724
O O9 0.677818 0.835352 0.829969
O O10 0.586570 0.686998 0.105439
O O11 0.500000 0.000000 0.000000
O O12 0.720368 0.262771 0.825562
O O13 0.746825 0.287918 0.117974
O O14 0.247705 0.576023 0.550181
O O15 0.196693 0.171355 0.426460
O O16 0.592517 0.087729 0.657679
O O17 0.417914 0.457458 0.635229
#
# Coordination Sequence:
#
# PCOD9008439 Si02
#       8
#     2   2   2   2   2   2   2   2
#     4  11  25  45  71  98 128 168 214 272 335 389
#     4  10  24  45  66  94 134 172 217 270 322 385
#     4   9  19  36  60  91 129 166 216 272 316 373
#     4  11  24  41  68  99 129 170 220 268 326 390
#     4  10  25  45  63  95 134 169 216 267 326 397
#     4  10  21  39  64  97 131 172 224 266 315 385
#     4  11  24  40  64  98 135 174 217 267 323 386
#     4  10  23  42  66  93 130 174 215 271 324 376
#
# _framework density 26.580359000000001
#
# number of rings (size 3 to 8) (size 9 to 14) (size 15 to 20)
#    0.000    1.750    0.000    3.375    0.000   21.000 
#    0.000    1.250    0.000    0.000    0.000    0.000 
#    0.000    0.000    0.000    0.000    0.000    0.000 
#
# Total GULP energy -89192.145098 kJ/mol
# GULP energy per Si atom -5574.509069 kJ/mol
# Density = 2.651986 g / cm^3
# Si number density = 26.580359 Si / 1000 Ang^3
#
#
#
# Elastic Constant Matrix: (Units=GPa)
#
#
# Indices 1 2 3 4 5 6 
#
# 1 96.3077 47.0565 39.7413 10.8160 1.7620 -1.6564
# 2 47.0565 140.0018 25.4816 20.8143 11.4275 -38.4276
# 3 39.7413 25.4816 72.2175 24.5019 -7.0631 -14.0923
# 4 10.8160 20.8143 24.5019 47.3619 11.5549 15.0589
# 5 1.7620 11.4275 -7.0631 11.5549 34.0060 16.2414
# 6 -1.6564 -38.4276 -14.0923 15.0589 16.2414 52.8936
#
#
#
# Elastic Compliance Matrix: (Units=1/GPa)
#
#
# Indices 1 2 3 4 5 6 
#
# 1 0.018806 -0.009275 -0.012803 0.010006 0.002355 -0.013133
# 2 -0.009275 0.017580 0.006593 -0.013360 -0.009533 0.020969
# 3 -0.012803 0.006593 0.029702 -0.021767 0.003724 0.017356
# 4 0.010006 -0.013360 -0.021767 0.045329 -0.002968 -0.027186
# 5 0.002355 -0.009533 0.003724 -0.002968 0.042966 -0.018208
# 6 -0.013133 0.020969 0.017356 -0.027186 -0.018208 0.051684
#
#
# Mechanical properties :
#
#
# Convention : Reuss Voigt Hill
#
# Bulk Modulus (GPa) = 28.47508 59.23175 43.85342
# Shear Modulus (GPa) = 20.10105 39.93549 30.01827
#
# Velocity S-wave (km/s) = 2.75296 3.88034 3.36421
# Velocity P-wave (km/s) = 4.56521 6.51218 5.62359
#
# Compressibility (1/GPa) = 0.03511842
#
# Stress axis : x y z
#
# Youngs Moduli (GPa) = 53.17524 56.88208 33.66757
#
# Poissons Ratio (x) = 0.52758 0.43105
# Poissons Ratio (y) = 0.49320 -0.22198
# Poissons Ratio (z) = 0.68081 -0.37504
#
# Static dielectric constant tensor:
#      x y z
#    x 2.189330 0.141030 -0.038570 
#    y 0.141030 1.978030 0.319130 
#    z -0.038570 0.319130 1.721610 
# 
# From -- ./inp_files/289148.got.cif
#   From: 2010.05.17/outbox.cif.g08.bks.cpg/sg2_145_cif.got.tgz:289148.got - 2010.06.03 11:33:40.
