data_PCOD9008405
_publ_section_title
;
Structure prediction by ZEFSAII (Michael W. Deem and Ramdas Pophale) SiO2 
 PCOD9008405
Probable space group: P -1
;
_chemical_formula_sum "Si O2"
_cell_formula_units_Z 14
_cell_length_a 7.579682
_cell_length_b 13.796392
_cell_length_c 8.197483
_cell_angle_alpha 98.563413
_cell_angle_beta 55.175606
_cell_angle_gamma 118.891861
_cell_volume 606.420633
_symmetry_space_group_name_H-M "P -1"
_symmetry_group_IT_number 2
_symmetry_cell_setting 'triclinic'
loop_
_space_group_symop_operation_xyz
x,y,z
-x,-y,-z
loop_
_atom_site_type_symbol
_atom_site_label
_atom_site_fract_x
_atom_site_fract_y
_atom_site_fract_z
Si Si1 0.408120 0.024343 0.727276
Si Si2 0.008004 0.593414 0.250054
Si Si3 0.900508 0.086624 0.597522
Si Si4 0.303904 0.297734 0.569009
Si Si5 0.201640 0.661556 0.803182
Si Si6 0.490079 0.272189 0.796598
Si Si7 0.992633 0.807654 0.788095
O O1 0.437414 0.147219 0.747034
O O2 0.605344 0.025773 0.752795
O O3 0.500000 0.000000 0.500000
O O4 0.131114 0.922452 0.851223
O O5 0.232127 0.653462 0.271623
O O6 0.783389 0.615036 0.418164
O O7 0.920583 0.463173 0.239239
O O8 0.106506 0.650599 0.034921
O O9 0.057428 0.176376 0.673874
O O10 0.965266 0.159743 0.415204
O O11 0.000000 0.000000 0.500000
O O12 0.505592 0.290993 0.346645
O O13 0.427064 0.324480 0.687777
O O14 0.121453 0.736343 0.758015
O O15 0.294493 0.257022 0.034784
#
# Coordination Sequence:
#
# PCOD9008405 Si02
#       7
#     2   2   2   2   2   2   2
#     4  10  21  39  64  95 136 173 222 276 338 402
#     4  11  26  48  69 104 136 182 237 280 343 405
#     4  11  22  41  67  99 139 179 225 282 345 409
#     4  12  23  45  70 102 139 179 234 280 343 407
#     4  11  25  48  71  98 142 182 227 290 342 404
#     4  12  24  44  70 103 139 178 235 283 336 418
#     4  11  23  43  68 102 137 185 227 282 347 404
#
# _framework density 23.086286999999999
#
# number of rings (size 3 to 8) (size 9 to 14) (size 15 to 20)
#    0.000    0.857    2.857    6.000    0.000    1.143 
#    2.571    2.143    0.000    0.000    0.000    0.000 
#    0.000    0.000    0.000    0.000    0.000    0.000 
#
# Total GULP energy -78387.568730 kJ/mol
# GULP energy per Si atom -5599.112052 kJ/mol
# Density = 2.303374 g / cm^3
# Si number density = 23.086287 Si / 1000 Ang^3
#
#
#
# Elastic Constant Matrix: (Units=GPa)
#
#
# Indices 1 2 3 4 5 6 
#
# 1 158.1771 48.1492 17.5121 0.2695 -10.0848 5.9567
# 2 48.1492 90.7305 -18.9225 15.2005 1.1969 3.2623
# 3 17.5121 -18.9225 48.2666 5.8739 -4.6766 -8.9160
# 4 0.2695 15.2005 5.8739 24.1400 -6.4206 -2.4549
# 5 -10.0848 1.1969 -4.6766 -6.4206 36.1908 0.8986
# 6 5.9567 3.2623 -8.9160 -2.4549 0.8986 26.1898
#
#
#
# Elastic Compliance Matrix: (Units=1/GPa)
#
#
# Indices 1 2 3 4 5 6 
#
# 1 0.010059 -0.008224 -0.008097 0.007609 0.003464 -0.003425
# 2 -0.008224 0.021051 0.013350 -0.017346 -0.004398 0.002318
# 3 -0.008097 0.013350 0.032457 -0.015619 -0.001518 0.009816
# 4 0.007609 -0.017346 -0.015619 0.059054 0.011146 0.000266
# 5 0.003464 -0.004398 -0.001518 0.011146 0.030542 -0.000760
# 6 -0.003425 0.002318 0.009816 0.000266 -0.000760 0.042066
#
#
# Mechanical properties :
#
#
# Convention : Reuss Voigt Hill
#
# Bulk Modulus (GPa) = 17.35393 43.40574 30.37984
# Shear Modulus (GPa) = 22.68824 33.99983 28.34404
#
# Velocity S-wave (km/s) = 3.13830 3.84178 3.50772
# Velocity P-wave (km/s) = 4.54590 6.20656 5.43997
#
# Compressibility (1/GPa) = 0.05762382
#
# Stress axis : x y z
#
# Youngs Moduli (GPa) = 99.41654 47.50402 30.81043
#
# Poissons Ratio (x) = 0.39067 0.24947
# Poissons Ratio (y) = 0.81760 -0.41131
# Poissons Ratio (z) = 0.80496 -0.63416
#
# Static dielectric constant tensor:
#      x y z
#    x 1.856460 0.026390 -0.013600 
#    y 0.026390 1.847730 -0.009950 
#    z -0.013600 -0.009950 1.905660 
# 
# From -- ./inp_files/53417.got.cif
#   From: 2010.05.17/outbox.cif.g08.bks.cpg/sg2_27_cif.got.tgz:53417.got - 2010.06.03 11:33:40.
