data_PCOD9008488
_publ_section_title
;
Structure prediction by ZEFSAII (Michael W. Deem and Ramdas Pophale) SiO2 
 PCOD9008488
Probable space group: P -1
;
_chemical_formula_sum "Si O2"
_cell_formula_units_Z 14
_cell_length_a 17.945161
_cell_length_b 11.502113
_cell_length_c 5.481830
_cell_angle_alpha 58.624325
_cell_angle_beta 123.792700
_cell_angle_gamma 139.484081
_cell_volume 600.784497
_symmetry_space_group_name_H-M "P -1"
_symmetry_group_IT_number 2
_symmetry_cell_setting 'triclinic'
loop_
_space_group_symop_operation_xyz
x,y,z
-x,-y,-z
loop_
_atom_site_type_symbol
_atom_site_label
_atom_site_fract_x
_atom_site_fract_y
_atom_site_fract_z
Si Si1 0.447125 0.346677 0.766014
Si Si2 0.870473 0.305935 0.541683
Si Si3 0.313605 0.711060 0.476128
Si Si4 0.445596 0.046010 0.047585
Si Si5 0.931022 0.285124 0.175120
Si Si6 0.048279 0.118596 0.709378
Si Si7 0.688877 0.588945 0.259561
O O1 0.500000 0.500000 0.500000
O O2 0.332510 0.308768 0.706716
O O3 0.417918 0.171879 0.786973
O O4 0.559705 0.449743 0.044785
O O5 0.780796 0.333689 0.443445
O O6 0.845277 0.216717 0.329354
O O7 0.000000 0.500000 0.500000
O O8 0.877456 0.207855 0.889568
O O9 0.443297 0.825234 0.707192
O O10 0.286366 0.542937 0.469993
O O11 0.336942 0.859780 0.179502
O O12 0.500000 0.000000 0.000000
O O13 0.011977 0.240531 0.461747
O O14 0.000000 0.500000 0.000000
O O15 0.192522 0.257281 0.842004
O O16 0.000000 0.000000 0.500000
O O17 0.000000 0.000000 0.000000
#
# Coordination Sequence:
#
# PCOD9008488 Si02
#       7
#     2   2   2   2   2   2   2
#     4  10  22  42  69  98 133 179 228 287 352 426
#     4  10  21  39  65 101 132 174 227 283 339 408
#     4  10  22  41  67  95 131 177 225 292 344 417
#     4  10  22  40  63 101 132 167 226 287 353 410
#     4  10  22  43  67  96 135 178 233 281 341 414
#     4  12  28  48  70 105 148 191 240 297 358 432
#     4  10  23  45  68  94 134 185 233 283 357 425
#
# _framework density 23.302862999999999
#
# number of rings (size 3 to 8) (size 9 to 14) (size 15 to 20)
#    0.000    1.714    0.000    3.429    4.000    4.571 
#    5.143    0.000    0.000    0.000    0.000    0.000 
#    0.000    0.000    0.000    0.000    0.000    0.000 
#
# Total GULP energy -77974.325673 kJ/mol
# GULP energy per Si atom -5569.594691 kJ/mol
# Density = 2.324982 g / cm^3
# Si number density = 23.302863 Si / 1000 Ang^3
#
#
#
# Elastic Constant Matrix: (Units=GPa)
#
#
# Indices 1 2 3 4 5 6 
#
# 1 192.6577 53.8961 83.3967 -34.4415 6.1714 -4.0585
# 2 53.8961 67.3402 29.3311 -24.5964 3.7110 -2.0528
# 3 83.3967 29.3311 143.8377 -21.2988 -4.5935 -9.8872
# 4 -34.4415 -24.5964 -21.2988 46.4522 -5.7329 7.0967
# 5 6.1714 3.7110 -4.5935 -5.7329 41.0625 -3.4801
# 6 -4.0585 -2.0528 -9.8872 7.0967 -3.4801 44.0359
#
#
#
# Elastic Compliance Matrix: (Units=1/GPa)
#
#
# Indices 1 2 3 4 5 6 
#
# 1 0.008433 -0.004247 -0.003772 0.002253 -0.001052 -0.000714
# 2 -0.004247 0.021503 -0.000817 0.007952 -0.000361 -0.000883
# 3 -0.003772 -0.000817 0.009667 0.001186 0.002037 0.001755
# 4 0.002253 0.007952 0.001186 0.028846 0.002799 -0.003583
# 5 -0.001052 -0.000361 0.002037 0.002799 0.025323 0.001894
# 6 -0.000714 -0.000883 0.001755 -0.003583 0.001894 0.023723
#
#
# Mechanical properties :
#
#
# Convention : Reuss Voigt Hill
#
# Bulk Modulus (GPa) = 45.59922 81.89816 63.74869
# Shear Modulus (GPa) = 35.09318 42.12423 38.60871
#
# Velocity S-wave (km/s) = 3.88488 4.25630 4.07482
# Velocity P-wave (km/s) = 6.30346 7.70559 7.03952
#
# Compressibility (1/GPa) = 0.02193020
#
# Stress axis : x y z
#
# Youngs Moduli (GPa) = 118.57926 46.50590 103.44009
#
# Poissons Ratio (x) = 0.19752 0.39022
# Poissons Ratio (y) = 0.50362 0.08451
# Poissons Ratio (z) = 0.44733 0.03799
#
# Static dielectric constant tensor:
#      x y z
#    x 1.926320 -0.129800 -0.039220 
#    y -0.129800 2.261940 0.202350 
#    z -0.039220 0.202350 2.006760 
# 
# From -- ./inp_files/109539.got.cif
#   From: 2010.05.17/outbox.cif.g08.bks.cpg/sg2_55_cif.got.tgz:109539.got - 2010.06.03 11:33:40.
