data_PCOD9008277
_publ_section_title
;
Structure prediction by ZEFSAII (Michael W. Deem and Ramdas Pophale) SiO2 
 PCOD9008277
Probable space group: P -1
;
_chemical_formula_sum "Si O2"
_cell_formula_units_Z 16
_cell_length_a 7.888017
_cell_length_b 18.393206
_cell_length_c 6.722182
_cell_angle_alpha 132.651056
_cell_angle_beta 88.334888
_cell_angle_gamma 93.241069
_cell_volume 716.118346
_symmetry_space_group_name_H-M "P -1"
_symmetry_group_IT_number 2
_symmetry_cell_setting 'triclinic'
loop_
_space_group_symop_operation_xyz
x,y,z
-x,-y,-z
loop_
_atom_site_type_symbol
_atom_site_label
_atom_site_fract_x
_atom_site_fract_y
_atom_site_fract_z
Si Si1 0.334326 0.493769 0.640541
Si Si2 0.156755 0.336809 0.106103
Si Si3 0.860893 0.172937 0.819320
Si Si4 0.860382 0.015820 0.203143
Si Si5 0.660077 0.295435 0.785141
Si Si6 0.684658 0.811350 0.900480
Si Si7 0.697398 0.662304 0.305222
Si Si8 0.690446 0.155635 0.193883
O O1 0.500000 0.500000 0.500000
O O2 0.185256 0.436019 0.416063
O O3 0.361571 0.425100 0.704865
O O4 0.289593 0.599348 0.923738
O O5 0.298351 0.263751 0.055349
O O6 0.179442 0.363556 0.924110
O O7 0.988709 0.268049 0.008380
O O8 0.924015 0.091507 0.513727
O O9 0.693414 0.213787 0.797665
O O10 0.813351 0.136361 0.970946
O O11 0.707158 0.066697 0.184145
O O12 0.787345 0.914646 0.115981
O O13 0.000000 0.000000 0.000000
O O14 0.468308 0.303686 0.738279
O O15 0.745759 0.254009 0.503936
O O16 0.768633 0.751965 0.605671
O O17 0.494886 0.829909 0.866182
#
# Coordination Sequence:
#
# PCOD9008277 Si02
#       8
#     2   2   2   2   2   2   2   2
#     4  11  23  38  68  97 118 159 215 253 307 370
#     4  11  23  39  61  93 126 164 207 253 310 370
#     4  11  25  41  61  91 129 169 201 254 316 369
#     4  11  23  41  64  92 126 166 212 254 311 372
#     4  10  22  39  63  90 124 160 201 258 307 361
#     4  10  22  39  64  93 123 164 211 258 304 363
#     4  10  21  39  64  92 123 158 205 262 304 360
#     4  10  23  41  63  91 128 164 208 260 308 360
#
# _framework density 22.342676000000001
#
# number of rings (size 3 to 8) (size 9 to 14) (size 15 to 20)
#    0.000    1.500    1.250    3.000    3.500    7.000 
#    0.000    1.250    0.000    0.000    0.000    0.000 
#    0.000    0.000    0.000    0.000    0.000    0.000 
#
# Total GULP energy -89332.445420 kJ/mol
# GULP energy per Si atom -5583.277839 kJ/mol
# Density = 2.229182 g / cm^3
# Si number density = 22.342676 Si / 1000 Ang^3
#
#
#
# Elastic Constant Matrix: (Units=GPa)
#
#
# Indices 1 2 3 4 5 6 
#
# 1 35.8186 7.4833 19.6925 -1.7748 4.3595 -6.8945
# 2 7.4833 80.4469 31.3223 -11.9790 6.8833 -3.9535
# 3 19.6925 31.3223 147.8298 4.2192 8.8646 18.8560
# 4 -1.7748 -11.9790 4.2192 41.8572 2.3649 2.9509
# 5 4.3595 6.8833 8.8646 2.3649 23.4573 4.4645
# 6 -6.8945 -3.9535 18.8560 2.9509 4.4645 30.6908
#
#
#
# Elastic Compliance Matrix: (Units=1/GPa)
#
#
# Indices 1 2 3 4 5 6 
#
# 1 0.034306 0.000539 -0.005883 0.001726 -0.006810 0.012215
# 2 0.000539 0.015131 -0.003725 0.004660 -0.004471 0.004561
# 3 -0.005883 -0.003725 0.009315 -0.001747 0.000249 -0.007393
# 4 0.001726 0.004660 -0.001747 0.025671 -0.003639 0.000123
# 5 -0.006810 -0.004471 0.000249 -0.003639 0.047149 -0.008768
# 6 0.012215 0.004561 -0.007393 0.000123 -0.008768 0.041720
#
#
# Mechanical properties :
#
#
# Convention : Reuss Voigt Hill
#
# Bulk Modulus (GPa) = 24.62110 42.34348 33.48229
# Shear Modulus (GPa) = 24.39409 32.90754 28.65081
#
# Velocity S-wave (km/s) = 3.30785 3.84194 3.58486
# Velocity P-wave (km/s) = 5.06289 6.21882 5.67038
#
# Compressibility (1/GPa) = 0.04061558
#
# Stress axis : x y z
#
# Youngs Moduli (GPa) = 29.14955 66.08927 107.35041
#
# Poissons Ratio (x) = -0.03565 0.63156
# Poissons Ratio (y) = -0.01572 0.39983
# Poissons Ratio (z) = 0.17149 0.24615
#
# Static dielectric constant tensor:
#      x y z
#    x 1.852420 -0.036870 -0.010220 
#    y -0.036870 1.793090 0.003730 
#    z -0.010220 0.003730 1.843600 
# 
# From -- ./inp_files/39826.got.cif
#   From: 2010.05.17/outbox.cif.g08.bks.cpg/sg2_20_cif.got.tgz:39826.got - 2010.06.03 11:33:40.
