data_PCOD9008381
_publ_section_title
;
Structure prediction by ZEFSAII (Michael W. Deem and Ramdas Pophale) SiO2 
 PCOD9008381
Probable space group: P -1
;
_chemical_formula_sum "Si O2"
_cell_formula_units_Z 16
_cell_length_a 19.135003
_cell_length_b 17.423843
_cell_length_c 7.996355
_cell_angle_alpha 138.499832
_cell_angle_beta 136.042817
_cell_angle_gamma 21.651001
_cell_volume 648.697651
_symmetry_space_group_name_H-M "P -1"
_symmetry_group_IT_number 2
_symmetry_cell_setting 'triclinic'
loop_
_space_group_symop_operation_xyz
x,y,z
-x,-y,-z
loop_
_atom_site_type_symbol
_atom_site_label
_atom_site_fract_x
_atom_site_fract_y
_atom_site_fract_z
Si Si1 0.362153 0.670353 0.305297
Si Si2 0.420540 0.185937 0.977197
Si Si3 0.967471 0.597092 0.840614
Si Si4 0.682999 0.469141 0.704404
Si Si5 0.956381 0.829324 0.366325
Si Si6 0.951072 0.718051 0.642739
Si Si7 0.469787 0.886263 0.565636
Si Si8 0.775062 0.398030 0.224859
O O1 0.569976 0.523080 0.439837
O O2 0.346660 0.589233 0.291433
O O3 0.213953 0.916203 0.490154
O O4 0.297982 0.661126 0.018238
O O5 0.420610 0.306295 0.073533
O O6 0.492276 0.140260 0.213643
O O7 0.194195 0.380469 0.913425
O O8 0.507001 0.982384 0.722563
O O9 0.931624 0.495707 0.606215
O O10 0.924008 0.691470 0.736827
O O11 0.883518 0.769677 0.109423
O O12 0.900465 0.277098 0.711895
O O13 0.093127 0.705634 0.558468
O O14 0.079800 0.705803 0.842447
O O15 0.747144 0.933468 0.558325
O O16 0.599821 0.657320 0.346901
#
# Coordination Sequence:
#
# PCOD9008381 Si02
#       8
#     2   2   2   2   2   2   2   2
#     4  11  26  40  61  91 121 164 223 250 301 362
#     4   9  18  40  66  88 124 160 200 248 316 374
#     4   9  19  43  62  92 127 167 202 251 316 373
#     4  10  22  44  64  85 119 169 206 262 303 368
#     4  11  23  41  64  85 124 168 204 258 312 358
#     4  10  23  38  66  94 129 158 203 260 311 374
#     4  10  21  39  64  95 125 162 193 252 325 371
#     4  12  24  39  60  98 126 159 211 261 302 370
#
# _framework density 24.664802999999999
#
# number of rings (size 3 to 8) (size 9 to 14) (size 15 to 20)
#    0.000    1.750    2.500    2.250    1.750    5.000 
#    0.000    8.750    0.000    0.000    0.000    0.000 
#    0.000    0.000    0.000    0.000    0.000    0.000 
#
# Total GULP energy -89535.726265 kJ/mol
# GULP energy per Si atom -5595.982892 kJ/mol
# Density = 2.460866 g / cm^3
# Si number density = 24.664803 Si / 1000 Ang^3
#
#
#
# Elastic Constant Matrix: (Units=GPa)
#
#
# Indices 1 2 3 4 5 6 
#
# 1 45.2149 12.1264 -3.7421 -1.4080 3.4696 5.6029
# 2 12.1264 128.0442 34.1312 7.1061 0.5016 4.3339
# 3 -3.7421 34.1312 115.0061 0.0254 20.4287 -4.5941
# 4 -1.4080 7.1061 0.0254 36.4639 3.2333 6.7093
# 5 3.4696 0.5016 20.4287 3.2333 32.8498 -5.4398
# 6 5.6029 4.3339 -4.5941 6.7093 -5.4398 27.9817
#
#
#
# Elastic Compliance Matrix: (Units=1/GPa)
#
#
# Indices 1 2 3 4 5 6 
#
# 1 0.024294 -0.002877 0.002342 0.003024 -0.005233 -0.005777
# 2 -0.002877 0.009052 -0.003202 -0.001996 0.002282 -0.000429
# 3 0.002342 -0.003202 0.010996 0.001317 -0.007145 0.000127
# 4 0.003024 -0.001996 0.001317 0.029941 -0.005432 -0.008315
# 5 -0.005233 0.002282 -0.007145 -0.005432 0.037274 0.008070
# 6 -0.005777 -0.000429 0.000127 -0.008315 0.008070 0.040544
#
#
# Mechanical properties :
#
#
# Convention : Reuss Voigt Hill
#
# Bulk Modulus (GPa) = 27.12381 41.47735 34.30058
# Shear Modulus (GPa) = 29.09289 35.84240 32.46765
#
# Velocity S-wave (km/s) = 3.43816 3.81620 3.63210
# Velocity P-wave (km/s) = 5.17514 6.02252 5.61484
#
# Compressibility (1/GPa) = 0.03686797
#
# Stress axis : x y z
#
# Youngs Moduli (GPa) = 41.16318 110.47010 90.94421
#
# Poissons Ratio (x) = 0.31781 -0.21302
# Poissons Ratio (y) = 0.11842 0.29123
# Poissons Ratio (z) = -0.09642 0.35375
#
# Static dielectric constant tensor:
#      x y z
#    x 1.987810 0.005800 -0.023960 
#    y 0.005800 1.912270 -0.006460 
#    z -0.023960 -0.006460 2.003060 
# 
# From -- ./inp_files/239560.got.cif
#   From: 2010.05.17/outbox.cif.g08.bks.cpg/sg2_120_cif.got.tgz:239560.got - 2010.06.03 11:33:40.
