data_PCOD9008338
_publ_section_title
;
Structure prediction by ZEFSAII (Michael W. Deem and Ramdas Pophale) SiO2 
 PCOD9008338
Probable space group: P -1
;
_chemical_formula_sum "Si O2"
_cell_formula_units_Z 16
_cell_length_a 20.773331
_cell_length_b 10.178868
_cell_length_c 12.682665
_cell_angle_alpha 141.195518
_cell_angle_beta 154.452113
_cell_angle_gamma 41.454691
_cell_volume 714.008088
_symmetry_space_group_name_H-M "P -1"
_symmetry_group_IT_number 2
_symmetry_cell_setting 'triclinic'
loop_
_space_group_symop_operation_xyz
x,y,z
-x,-y,-z
loop_
_atom_site_type_symbol
_atom_site_label
_atom_site_fract_x
_atom_site_fract_y
_atom_site_fract_z
Si Si1 0.466197 0.326809 0.753721
Si Si2 0.935627 0.636794 0.890334
Si Si3 0.772837 0.189582 0.640899
Si Si4 0.761227 0.421026 0.977758
Si Si5 0.460813 0.667786 0.794967
Si Si6 0.214167 0.908892 0.004322
Si Si7 0.682283 0.792305 0.350808
Si Si8 0.932967 0.410957 0.524408
O O1 0.405565 0.477183 0.659775
O O2 0.365008 0.191626 0.587008
O O3 0.500000 0.500000 0.000000
O O4 0.618827 0.179625 0.849363
O O5 0.064439 0.762580 0.116684
O O6 0.812251 0.837177 0.869699
O O7 0.912661 0.480482 0.660937
O O8 0.000000 0.500000 0.000000
O O9 0.665598 0.221844 0.401290
O O10 0.777650 0.960279 0.554460
O O11 0.714305 0.349687 0.748791
O O12 0.799769 0.215846 0.983703
O O13 0.909229 0.532416 0.249852
O O14 0.614008 0.570774 0.899234
O O15 0.526310 0.815488 0.069402
O O16 0.094828 0.822461 0.694568
O O17 0.791026 0.565304 0.356571
#
# Coordination Sequence:
#
# PCOD9008338 Si02
#       8
#     2   2   2   2   2   2   2   2
#     4   9  19  39  66  99 127 169 228 266 319 395
#     4  11  28  45  63 100 134 175 223 271 336 394
#     4  11  24  41  61  92 141 169 205 284 329 382
#     4  10  21  40  63 100 122 167 227 261 333 392
#     4  10  21  39  64  93 131 174 214 267 332 392
#     4  11  21  43  72  92 130 179 221 270 331 388
#     4  11  21  39  67  99 125 171 223 270 324 389
#     4  11  22  41  71  94 132 167 223 284 313 393
#
# _framework density 22.408711
#
# number of rings (size 3 to 8) (size 9 to 14) (size 15 to 20)
#    0.000    1.500    3.750    2.625    3.500    2.500 
#    6.750    1.875    0.000    0.000    0.000    0.000 
#    0.000    0.000    0.000    0.000    0.000    0.000 
#
# Total GULP energy -89418.641401 kJ/mol
# GULP energy per Si atom -5588.665088 kJ/mol
# Density = 2.235771 g / cm^3
# Si number density = 22.408711 Si / 1000 Ang^3
#
#
#
# Elastic Constant Matrix: (Units=GPa)
#
#
# Indices 1 2 3 4 5 6 
#
# 1 96.7869 28.1576 2.3165 6.5643 -5.9872 9.2554
# 2 28.1576 60.7960 4.4211 11.8323 -6.4540 5.3892
# 3 2.3165 4.4211 75.6457 10.2803 -23.9978 5.9854
# 4 6.5643 11.8323 10.2803 27.4974 3.9040 6.7413
# 5 -5.9872 -6.4540 -23.9978 3.9040 31.2841 2.5402
# 6 9.2554 5.3892 5.9854 6.7413 2.5402 28.1286
#
#
#
# Elastic Compliance Matrix: (Units=1/GPa)
#
#
# Indices 1 2 3 4 5 6 
#
# 1 0.012307 -0.005084 0.001065 -0.000676 0.002481 -0.003364
# 2 -0.005084 0.021268 0.002354 -0.009440 0.006498 -0.001227
# 3 0.001065 0.002354 0.020560 -0.010471 0.018117 -0.004303
# 4 -0.000676 -0.009440 -0.010471 0.048166 -0.015643 -0.005872
# 5 0.002481 0.006498 0.018117 -0.015643 0.050174 -0.006699
# 6 -0.003364 -0.001227 -0.004303 -0.005872 -0.006699 0.039821
#
#
# Mechanical properties :
#
#
# Convention : Reuss Voigt Hill
#
# Bulk Modulus (GPa) = 19.68281 33.66877 26.67579
# Shear Modulus (GPa) = 23.52277 30.60424 27.06351
#
# Velocity S-wave (km/s) = 3.24345 3.69959 3.47900
# Velocity P-wave (km/s) = 4.77799 5.77120 5.29792
#
# Compressibility (1/GPa) = 0.05080575
#
# Stress axis : x y z
#
# Youngs Moduli (GPa) = 81.25735 47.01954 48.63713
#
# Poissons Ratio (x) = 0.23905 -0.05182
# Poissons Ratio (y) = 0.41312 -0.11450
# Poissons Ratio (z) = -0.08658 -0.11069
#
# Static dielectric constant tensor:
#      x y z
#    x 1.851400 -0.008950 -0.011350 
#    y -0.008950 1.804960 0.037400 
#    z -0.011350 0.037400 1.927940 
# 
# From -- ./inp_files/470169.got.cif
#   From: 2010.05.17/outbox.cif.g08.bks.cpg/sg2_236_cif.got.tgz:470169.got - 2010.06.03 11:33:40.
