data_PCOD9008859
_publ_section_title
;
Structure prediction by ZEFSAII (Michael W. Deem and Ramdas Pophale) SiO2 
 PCOD9008859
Probable space group: P -1
;
_chemical_formula_sum "Si O2"
_cell_formula_units_Z 14
_cell_length_a 11.529532
_cell_length_b 9.402540
_cell_length_c 6.889310
_cell_angle_alpha 90.125799
_cell_angle_beta 74.533569
_cell_angle_gamma 121.443741
_cell_volume 605.528401
_symmetry_space_group_name_H-M "P -1"
_symmetry_group_IT_number 2
_symmetry_cell_setting 'triclinic'
loop_
_space_group_symop_operation_xyz
x,y,z
-x,-y,-z
loop_
_atom_site_type_symbol
_atom_site_label
_atom_site_fract_x
_atom_site_fract_y
_atom_site_fract_z
Si Si1 0.463184 0.329252 0.916432
Si Si2 0.193551 0.852623 0.777377
Si Si3 0.602841 0.769145 0.466172
Si Si4 0.975584 0.231443 0.508288
Si Si5 0.943846 0.614535 0.114428
Si Si6 0.349537 0.682713 0.867549
Si Si7 0.196524 0.159572 0.289181
O O1 0.464894 0.349798 0.687540
O O2 0.500000 0.500000 0.000000
O O3 0.579285 0.294317 0.953402
O O4 0.304205 0.196312 0.066484
O O5 0.281677 0.792691 0.858209
O O6 0.129937 0.759367 0.596952
O O7 0.300236 0.045470 0.671995
O O8 0.053348 0.796710 0.968731
O O9 0.478414 0.747170 0.659127
O O10 0.709263 0.754472 0.559057
O O11 0.033483 0.357460 0.664550
O O12 0.099805 0.237565 0.324259
O O13 0.893999 0.040820 0.630709
O O14 0.778054 0.510267 0.125177
O O15 0.000000 0.500000 0.000000
#
# Coordination Sequence:
#
# PCOD9008859 Si02
#       7
#     2   2   2   2   2   2   2
#     4  11  25  38  60  87 123 161 199 243 303 354
#     4  10  22  41  64  89 117 159 203 245 301 352
#     4  10  22  41  64  86 120 160 199 250 296 352
#     4  10  21  39  66  86 124 155 198 253 297 357
#     4  10  23  38  59  91 125 155 198 245 298 360
#     4  10  24  39  58  93 120 155 203 243 299 359
#     4   9  22  40  60  95 114 158 206 243 298 356
#
# _framework density 23.120301000000001
#
# number of rings (size 3 to 8) (size 9 to 14) (size 15 to 20)
#    0.000    2.000    0.000    1.286    6.000    6.286 
#    0.000    4.286    0.000    0.000    0.000    0.000 
#    0.000    0.000    0.000    0.000    0.000    0.000 
#
# Total GULP energy -78207.906748 kJ/mol
# GULP energy per Si atom -5586.279053 kJ/mol
# Density = 2.306768 g / cm^3
# Si number density = 23.120301 Si / 1000 Ang^3
#
#
#
# Elastic Constant Matrix: (Units=GPa)
#
#
# Indices 1 2 3 4 5 6 
#
# 1 93.1961 5.9229 19.7451 5.5174 13.3660 11.3362
# 2 5.9229 75.9785 11.2188 -7.5132 -5.3649 16.7971
# 3 19.7451 11.2188 82.0269 20.9743 16.5741 10.5852
# 4 5.5174 -7.5132 20.9743 51.1231 15.7603 -1.3260
# 5 13.3660 -5.3649 16.5741 15.7603 15.5916 -7.0182
# 6 11.3362 16.7971 10.5852 -1.3260 -7.0182 26.8044
#
#
#
# Elastic Compliance Matrix: (Units=1/GPa)
#
#
# Indices 1 2 3 4 5 6 
#
# 1 0.015782 0.000285 0.002389 0.005771 -0.028550 -0.014986
# 2 0.000285 0.015688 -0.001789 0.002693 0.000263 -0.009043
# 3 0.002389 -0.001789 0.020325 0.000677 -0.032310 -0.016342
# 4 0.005771 0.002693 0.000677 0.032137 -0.043631 -0.014230
# 5 -0.028550 0.000263 -0.032310 -0.043631 0.200969 0.075130
# 6 -0.014986 -0.009043 -0.016342 -0.014230 0.075130 0.074733
#
#
# Mechanical properties :
#
#
# Convention : Reuss Voigt Hill
#
# Bulk Modulus (GPa) = 18.66940 36.10835 27.38888
# Shear Modulus (GPa) = 13.30787 32.99145 23.14966
#
# Velocity S-wave (km/s) = 2.40175 3.78159 3.16772
# Velocity P-wave (km/s) = 3.97286 5.89226 5.02506
#
# Compressibility (1/GPa) = 0.05356358
#
# Stress axis : x y z
#
# Youngs Moduli (GPa) = 63.36522 63.74479 49.20099
#
# Poissons Ratio (x) = -0.01816 -0.11754
# Poissons Ratio (y) = -0.01805 0.08802
# Poissons Ratio (z) = -0.15138 0.11404
#
# Static dielectric constant tensor:
#      x y z
#    x 1.940090 0.034890 0.006890 
#    y 0.034890 1.952050 -0.042510 
#    z 0.006890 -0.042510 1.863170 
# 
# From -- ./inp_files/63595.got.cif
#   From: 2010.05.17/outbox.cif.g08.bks.cpg/sg2_32_cif.got.tgz:63595.got - 2010.06.03 11:33:40.
