data_PCOD9008479
_publ_section_title
;
Structure prediction by ZEFSAII (Michael W. Deem and Ramdas Pophale) SiO2 
 PCOD9008479
Probable space group: P -1
;
_chemical_formula_sum "Si O2"
_cell_formula_units_Z 14
_cell_length_a 5.653446
_cell_length_b 13.057189
_cell_length_c 10.068086
_cell_angle_alpha 129.817720
_cell_angle_beta 100.682512
_cell_angle_gamma 62.779750
_cell_volume 501.297132
_symmetry_space_group_name_H-M "P -1"
_symmetry_group_IT_number 2
_symmetry_cell_setting 'triclinic'
loop_
_space_group_symop_operation_xyz
x,y,z
-x,-y,-z
loop_
_atom_site_type_symbol
_atom_site_label
_atom_site_fract_x
_atom_site_fract_y
_atom_site_fract_z
Si Si1 0.568395 0.603068 0.266669
Si Si2 0.959649 0.894108 0.227245
Si Si3 0.164417 0.399607 0.260258
Si Si4 0.189656 0.698353 0.548287
Si Si5 0.200556 0.113687 0.527851
Si Si6 0.528847 0.122004 0.197442
Si Si7 0.487781 0.326580 0.973795
O O1 0.386224 0.697669 0.446768
O O2 0.576648 0.685661 0.199324
O O3 0.858251 0.492409 0.262492
O O4 0.433657 0.496579 0.124009
O O5 0.936222 0.809260 0.284170
O O6 0.194378 0.781078 0.063646
O O7 0.669293 0.008339 0.238686
O O8 0.079627 0.003092 0.378681
O O9 0.250023 0.525591 0.428657
O O10 0.244493 0.270292 0.270948
O O11 0.319338 0.313872 0.070225
O O12 0.262743 0.801674 0.742887
O O13 0.892740 0.775000 0.513257
O O14 0.500000 0.000000 0.500000
O O15 0.500000 0.000000 0.000000
#
# Coordination Sequence:
#
# PCOD9008479 Si02
#       7
#     2   2   2   2   2   2   2
#     4  10  21  40  66 100 138 175 221 289 351 388
#     4  10  22  41  64  93 136 173 222 275 338 398
#     4  11  24  41  69 103 134 185 233 271 339 412
#     4  10  23  44  71 102 135 175 234 292 334 402
#     4  10  22  39  67 100 128 170 223 283 344 397
#     4  11  25  46  67  96 143 191 226 273 341 414
#     4  10  21  39  65 100 138 175 223 289 336 404
#
# _framework density 27.927547000000001
#
# number of rings (size 3 to 8) (size 9 to 14) (size 15 to 20)
#    0.000    1.714    1.429    1.714    2.000    3.429 
#    0.000   10.000    0.000    0.000    0.000    0.000 
#    0.000    0.000    0.000    0.000    0.000    0.000 
#
# Total GULP energy -78229.890788 kJ/mol
# GULP energy per Si atom -5587.849342 kJ/mol
# Density = 2.786398 g / cm^3
# Si number density = 27.927547 Si / 1000 Ang^3
#
#
#
# Elastic Constant Matrix: (Units=GPa)
#
#
# Indices 1 2 3 4 5 6 
#
# 1 65.6581 49.1432 36.5697 -3.2271 -12.5925 -7.6249
# 2 49.1432 208.3883 58.2308 2.4485 -3.3656 -13.2022
# 3 36.5697 58.2308 122.1901 9.9903 6.3351 1.6842
# 4 -3.2271 2.4485 9.9903 61.8294 1.3879 7.1095
# 5 -12.5925 -3.3656 6.3351 1.3879 56.4614 7.6009
# 6 -7.6249 -13.2022 1.6842 7.1095 7.6009 58.4227
#
#
#
# Elastic Compliance Matrix: (Units=1/GPa)
#
#
# Indices 1 2 3 4 5 6 
#
# 1 0.022111 -0.003574 -0.005351 0.001892 0.005092 0.001340
# 2 -0.003574 0.006231 -0.001876 -0.000245 -0.000353 0.001072
# 3 -0.005351 -0.001876 0.010964 -0.001819 -0.002368 -0.000909
# 4 0.001892 -0.000245 -0.001819 0.016779 0.000449 -0.001856
# 5 0.005092 -0.000353 -0.002368 0.000449 0.019339 -0.001918
# 6 0.001340 0.001072 -0.000909 -0.001856 -0.001918 0.018035
#
#
# Mechanical properties :
#
#
# Convention : Reuss Voigt Hill
#
# Bulk Modulus (GPa) = 56.48907 76.01377 66.25142
# Shear Modulus (GPa) = 41.33488 52.16224 46.74856
#
# Velocity S-wave (km/s) = 3.85135 4.32646 4.09580
# Velocity P-wave (km/s) = 6.32836 7.22738 6.79276
#
# Compressibility (1/GPa) = 0.01770254
#
# Stress axis : x y z
#
# Youngs Moduli (GPa) = 45.22572 160.49030 91.21030
#
# Poissons Ratio (x) = 0.57361 0.48811
# Poissons Ratio (y) = 0.16164 0.17112
# Poissons Ratio (z) = 0.24202 0.30109
#
# Static dielectric constant tensor:
#      x y z
#    x 2.243780 0.011280 -0.005260 
#    y 0.011280 2.149030 -0.073640 
#    z -0.005260 -0.073640 2.235220 
# 
# From -- ./inp_files/368093.got.cif
#   From: 2010.05.17/outbox.cif.g08.bks.cpg/sg2_185_cif.got.tgz:368093.got - 2010.06.03 11:33:40.
