data_PCOD9008025
_publ_section_title
;
Structure prediction by ZEFSAII (Michael W. Deem and Ramdas Pophale) SiO2 
 PCOD9008025
Probable space group: P -1
;
_chemical_formula_sum "Si O2"
_cell_formula_units_Z 16
_cell_length_a 9.876459
_cell_length_b 14.703670
_cell_length_c 16.071538
_cell_angle_alpha 40.266809
_cell_angle_beta 51.325929
_cell_angle_gamma 83.746468
_cell_volume 806.099246
_symmetry_space_group_name_H-M "P -1"
_symmetry_group_IT_number 2
_symmetry_cell_setting 'triclinic'
loop_
_space_group_symop_operation_xyz
x,y,z
-x,-y,-z
loop_
_atom_site_type_symbol
_atom_site_label
_atom_site_fract_x
_atom_site_fract_y
_atom_site_fract_z
Si Si1 0.028287 0.976451 0.711457
Si Si2 0.310222 0.968344 0.202724
Si Si3 0.821854 0.989027 0.186729
Si Si4 0.249335 0.344242 0.649200
Si Si5 0.456429 0.262054 0.228462
Si Si6 0.425316 0.989930 0.332249
Si Si7 0.142208 0.263486 0.219813
Si Si8 0.257710 0.651827 0.345870
O O1 0.861270 0.796773 0.831334
O O2 0.032395 0.931975 0.836205
O O3 0.308345 0.127285 0.461299
O O4 0.942913 0.088349 0.660951
O O5 0.423382 0.023732 0.212194
O O6 0.260935 0.782065 0.319274
O O7 0.504666 0.168396 0.929587
O O8 0.761763 0.796757 0.309990
O O9 0.563180 0.924327 0.339436
O O10 0.003516 0.174821 0.920604
O O11 0.500000 0.500000 0.500000
O O12 0.260093 0.499079 0.490520
O O13 0.247937 0.208554 0.282660
O O14 0.571914 0.197895 0.181200
O O15 0.660399 0.495655 0.011953
O O16 0.135047 0.839224 0.579362
O O17 0.000000 0.500000 0.500000
#
# Coordination Sequence:
#
# PCOD9008025 Si02
#       8
#     2   2   2   2   2   2   2   2
#     4  11  21  41  62  91 126 166 203 258 312 369
#     4  11  22  39  64  92 122 159 210 261 310 370
#     4  11  26  41  66  92 128 171 214 255 312 376
#     4  11  24  47  62  88 132 172 209 259 315 373
#     4  10  21  39  63  94 126 160 205 260 315 372
#     4  11  21  41  62  91 126 166 203 258 312 369
#     4  10  21  39  63  94 128 157 205 262 314 374
#     4  11  24  39  62  94 122 155 210 268 311 364
#
# _framework density 19.848673000000002
#
# number of rings (size 3 to 8) (size 9 to 14) (size 15 to 20)
#    0.000    1.250    2.500    3.750    0.000   12.000 
#    0.000    1.250    0.000    0.000    0.000    0.000 
#    0.000    0.000    0.000    0.000    0.000    0.000 
#
# Total GULP energy -89338.260498 kJ/mol
# GULP energy per Si atom -5583.641281 kJ/mol
# Density = 1.980350 g / cm^3
# Si number density = 19.848673 Si / 1000 Ang^3
#
#
#
# Elastic Constant Matrix: (Units=GPa)
#
#
# Indices 1 2 3 4 5 6 
#
# 1 111.9967 44.9220 23.2478 -1.8053 10.3732 -10.6019
# 2 44.9220 138.5078 53.9705 -0.7016 10.2114 -9.4709
# 3 23.2478 53.9705 63.7893 -26.0052 7.4604 -3.8027
# 4 -1.8053 -0.7016 -26.0052 27.6965 -0.2924 2.9829
# 5 10.3732 10.2114 7.4604 -0.2924 29.1298 -2.7014
# 6 -10.6019 -9.4709 -3.8027 2.9829 -2.7014 27.8969
#
#
#
# Elastic Compliance Matrix: (Units=1/GPa)
#
#
# Indices 1 2 3 4 5 6 
#
# 1 0.010769 -0.002167 -0.002487 -0.002037 -0.002178 0.003025
# 2 -0.002167 0.016072 -0.020581 -0.019479 0.000581 0.003967
# 3 -0.002487 -0.020581 0.055597 0.052156 -0.006221 -0.006533
# 4 -0.002037 -0.019479 0.052156 0.085464 -0.005872 -0.009985
# 5 -0.002178 0.000581 -0.006221 -0.005872 0.036686 0.002702
# 6 0.003025 0.003967 -0.006533 -0.009985 0.002702 0.038781
#
#
# Mechanical properties :
#
#
# Convention : Reuss Voigt Hill
#
# Bulk Modulus (GPa) = 31.28041 62.06384 46.67212
# Shear Modulus (GPa) = 16.42062 29.75486 23.08774
#
# Velocity S-wave (km/s) = 2.87939 3.87600 3.41425
# Velocity P-wave (km/s) = 5.18152 7.16712 6.25363
#
# Compressibility (1/GPa) = 0.03196889
#
# Stress axis : x y z
#
# Youngs Moduli (GPa) = 92.85567 62.22096 17.98659
#
# Poissons Ratio (x) = 0.13481 0.04473
# Poissons Ratio (y) = 0.20118 0.37018
# Poissons Ratio (z) = 0.23093 1.28057
#
# Static dielectric constant tensor:
#      x y z
#    x 1.664350 -0.019970 -0.022370 
#    y -0.019970 1.756940 0.044910 
#    z -0.022370 0.044910 1.706350 
# 
# From -- ./inp_files/503809.got.cif
#   From: 2010.05.17/outbox.cif.g08.bks.cpg/sg2_252_cif.got.tgz:503809.got - 2010.06.03 11:33:40.
