data_PCOD9008505
_publ_section_title
;
Structure prediction by ZEFSAII (Michael W. Deem and Ramdas Pophale) SiO2 
 PCOD9008505
Probable space group: P -1
;
_chemical_formula_sum "Si O2"
_cell_formula_units_Z 12
_cell_length_a 22.457635
_cell_length_b 11.167681
_cell_length_c 19.988736
_cell_angle_alpha 148.935951
_cell_angle_beta 11.179643
_cell_angle_gamma 149.200314
_cell_volume 492.769854
_symmetry_space_group_name_H-M "P -1"
_symmetry_group_IT_number 2
_symmetry_cell_setting 'triclinic'
loop_
_space_group_symop_operation_xyz
x,y,z
-x,-y,-z
loop_
_atom_site_type_symbol
_atom_site_label
_atom_site_fract_x
_atom_site_fract_y
_atom_site_fract_z
Si Si1 0.880764 0.126916 0.772539
Si Si2 0.706221 0.300019 0.181574
Si Si3 0.061084 0.011605 0.738295
Si Si4 0.086457 0.193626 0.055610
Si Si5 0.614569 0.511644 0.686254
Si Si6 0.221248 0.830381 0.339140
O O1 0.133736 0.264464 0.509507
O O2 0.886107 0.296090 0.911974
O O3 0.986173 0.893283 0.573028
O O4 0.521246 0.048487 0.109788
O O5 0.500000 0.500000 0.500000
O O6 0.427691 0.071641 0.379901
O O7 0.927873 0.241408 0.968541
O O8 0.900374 0.922994 0.941948
O O9 0.056625 0.840726 0.597190
O O10 0.813084 0.344836 0.425047
O O11 0.420326 0.372778 0.771583
O O12 0.000000 0.000000 0.000000
O O13 0.359692 0.603810 0.057500
#
# Coordination Sequence:
#
# PCOD9008505 Si02
#       6
#     2   2   2   2   2   2
#     4  10  21  39  65 104 132 158 212 280 332 392
#     4  10  21  39  67  95 126 172 212 269 334 382
#     4  10  23  43  64  93 135 165 219 278 313 382
#     4  12  28  46  61  92 136 187 223 263 308 390
#     4  12  24  42  70  95 131 181 215 263 337 389
#     4  10  21  41  70 101 129 161 216 283 335 379
#
# _framework density 24.352139000000001
#
# number of rings (size 3 to 8) (size 9 to 14) (size 15 to 20)
#    0.000    1.333    0.000    5.000    2.333    1.333 
#    0.000    0.000    0.000    0.000    0.000    0.000 
#    0.000    0.000    0.000    0.000    0.000    0.000 
#
# Total GULP energy -67090.137033 kJ/mol
# GULP energy per Si atom -5590.844753 kJ/mol
# Density = 2.429671 g / cm^3
# Si number density = 24.352139 Si / 1000 Ang^3
#
#
#
# Elastic Constant Matrix: (Units=GPa)
#
#
# Indices 1 2 3 4 5 6 
#
# 1 116.7873 39.8897 43.7980 10.1043 -2.3095 6.5829
# 2 39.8897 56.3719 23.1754 18.8430 7.4129 9.6436
# 3 43.7980 23.1754 106.7929 26.8444 -14.9433 -4.6758
# 4 10.1043 18.8430 26.8444 59.4283 1.9012 -15.8204
# 5 -2.3095 7.4129 -14.9433 1.9012 52.8122 -6.5040
# 6 6.5829 9.6436 -4.6758 -15.8204 -6.5040 26.1384
#
#
#
# Elastic Compliance Matrix: (Units=1/GPa)
#
#
# Indices 1 2 3 4 5 6 
#
# 1 0.012630 -0.008433 -0.003840 0.002483 0.000673 0.000914
# 2 -0.008433 0.033894 -0.002533 -0.013500 -0.007941 -0.020981
# 3 -0.003840 -0.002533 0.013208 -0.003842 0.004438 0.003043
# 4 0.002483 -0.013500 -0.003842 0.027995 0.002524 0.021240
# 5 0.000673 -0.007941 0.004438 0.002524 0.022561 0.010696
# 6 0.000914 -0.020981 0.003043 0.021240 0.010696 0.061830
#
#
# Mechanical properties :
#
#
# Convention : Reuss Voigt Hill
#
# Bulk Modulus (GPa) = 33.19972 54.85315 44.02644
# Shear Modulus (GPa) = 23.61041 39.21505 31.41273
#
# Velocity S-wave (km/s) = 3.11712 4.01725 3.59547
# Velocity P-wave (km/s) = 5.15927 6.64015 5.94599
#
# Compressibility (1/GPa) = 0.03012074
#
# Stress axis : x y z
#
# Youngs Moduli (GPa) = 79.17663 29.50340 75.70937
#
# Poissons Ratio (x) = 0.24881 0.29069
# Poissons Ratio (y) = 0.66772 0.19178
# Poissons Ratio (z) = 0.30401 0.07473
#
# Static dielectric constant tensor:
#      x y z
#    x 1.934260 0.059470 0.039600 
#    y 0.059470 2.070160 0.015680 
#    z 0.039600 0.015680 1.910430 
# 
# From -- ./inp_files/61521.got.cif
#   From: 2010.05.17/outbox.cif.g08.bks.cpg/sg2_31_cif.got.tgz:61521.got - 2010.06.03 11:33:40.
