data_PCOD9008234
_publ_section_title
;
Structure prediction by ZEFSAII (Michael W. Deem and Ramdas Pophale) SiO2 
 PCOD9008234
Probable space group: P -1
;
_chemical_formula_sum "Si O2"
_cell_formula_units_Z 14
_cell_length_a 11.496382
_cell_length_b 11.026185
_cell_length_c 9.103151
_cell_angle_alpha 137.336087
_cell_angle_beta 126.947100
_cell_angle_gamma 78.853871
_cell_volume 555.200501
_symmetry_space_group_name_H-M "P -1"
_symmetry_group_IT_number 2
_symmetry_cell_setting 'triclinic'
loop_
_space_group_symop_operation_xyz
x,y,z
-x,-y,-z
loop_
_atom_site_type_symbol
_atom_site_label
_atom_site_fract_x
_atom_site_fract_y
_atom_site_fract_z
Si Si1 0.560569 0.001147 0.849035
Si Si2 0.011485 0.484355 0.674118
Si Si3 0.807738 0.100045 0.855300
Si Si4 0.698844 0.847573 0.270353
Si Si5 0.523588 0.436916 0.627735
Si Si6 0.163943 0.285604 0.228496
Si Si7 0.146901 0.938473 0.694091
O O1 0.693497 0.057351 0.868918
O O2 0.451952 0.760829 0.542343
O O3 0.462402 0.125697 0.861851
O O4 0.676639 0.051488 0.123453
O O5 0.865603 0.524583 0.668460
O O6 0.987271 0.273959 0.533007
O O7 0.000000 0.500000 0.500000
O O8 0.173283 0.691522 0.018730
O O9 0.742924 0.915718 0.530699
O O10 0.998759 0.167399 0.092373
O O11 0.843409 0.011320 0.424948
O O12 0.655529 0.625624 0.984579
O O13 0.500000 0.500000 0.500000
O O14 0.343928 0.366382 0.501789
O O15 0.151088 0.128197 0.953640
#
# Coordination Sequence:
#
# PCOD9008234 Si02
#       7
#     2   2   2   2   2   2   2
#     4  11  23  42  65  92 127 166 217 252 310 382
#     4  10  21  39  64  91 123 167 205 252 309 374
#     4  10  25  44  60  97 130 163 207 266 318 364
#     4  12  25  42  64  94 134 161 207 268 313 371
#     4  11  23  40  66  97 118 168 213 252 313 371
#     4   9  22  41  63  94 125 154 221 257 297 389
#     4  11  21  39  69  93 117 172 209 257 314 361
#
# _framework density 25.216117000000001
#
# number of rings (size 3 to 8) (size 9 to 14) (size 15 to 20)
#    0.857    0.571    4.286    1.714    2.000    6.857 
#    2.571    0.000    0.000    0.000    0.000    0.000 
#    0.000    0.000    0.000    0.000    0.000    0.000 
#
# Total GULP energy -78180.511400 kJ/mol
# GULP energy per Si atom -5584.322243 kJ/mol
# Density = 2.515872 g / cm^3
# Si number density = 25.216117 Si / 1000 Ang^3
#
#
#
# Elastic Constant Matrix: (Units=GPa)
#
#
# Indices 1 2 3 4 5 6 
#
# 1 78.1274 22.3887 -1.0687 -0.7286 3.3000 6.6594
# 2 22.3887 55.1109 41.0433 19.5385 7.8997 20.6385
# 3 -1.0687 41.0433 126.5315 24.6351 2.9193 5.7410
# 4 -0.7286 19.5385 24.6351 37.1427 -7.6957 1.3131
# 5 3.3000 7.8997 2.9193 -7.6957 31.8520 0.9322
# 6 6.6594 20.6385 5.7410 1.3131 0.9322 39.5808
#
#
#
# Elastic Compliance Matrix: (Units=1/GPa)
#
#
# Indices 1 2 3 4 5 6 
#
# 1 0.015877 -0.011570 0.002761 0.004899 0.002075 0.002750
# 2 -0.011570 0.047292 -0.010204 -0.020514 -0.013960 -0.020224
# 3 0.002761 -0.010204 0.011506 -0.002208 0.000562 0.003248
# 4 0.004899 -0.020514 -0.002208 0.042019 0.014687 0.008452
# 5 0.002075 -0.013960 0.000562 0.014687 0.037979 0.005467
# 6 0.002750 -0.020224 0.003248 0.008452 0.005467 0.034467
#
#
# Mechanical properties :
#
#
# Convention : Reuss Voigt Hill
#
# Bulk Modulus (GPa) = 27.28709 42.72182 35.00446
# Shear Modulus (GPa) = 20.88695 34.87555 27.88125
#
# Velocity S-wave (km/s) = 2.88117 3.72299 3.32880
# Velocity P-wave (km/s) = 4.68113 5.95483 5.35598
#
# Compressibility (1/GPa) = 0.03664736
#
# Stress axis : x y z
#
# Youngs Moduli (GPa) = 62.98577 21.14502 86.91067
#
# Poissons Ratio (x) = 0.24465 -0.23992
# Poissons Ratio (y) = 0.72874 0.88688
# Poissons Ratio (z) = -0.17387 0.21577
#
# Static dielectric constant tensor:
#      x y z
#    x 2.047700 -0.013320 0.010960 
#    y -0.013320 2.034010 0.053450 
#    z 0.010960 0.053450 1.998440 
# 
# From -- ./inp_files/261142.got.cif
#   From: 2010.05.17/outbox.cif.g08.bks.cpg/sg2_131_cif.got.tgz:261142.got - 2010.06.03 11:33:40.
