data_PCOD9008623
_publ_section_title
;
Structure prediction by ZEFSAII (Michael W. Deem and Ramdas Pophale) SiO2 
 PCOD9008623
Probable space group: P -1
;
_chemical_formula_sum "Si O2"
_cell_formula_units_Z 16
_cell_length_a 9.946071
_cell_length_b 8.867885
_cell_length_c 10.862361
_cell_angle_alpha 82.177656
_cell_angle_beta 57.426362
_cell_angle_gamma 65.373912
_cell_volume 729.045468
_symmetry_space_group_name_H-M "P -1"
_symmetry_group_IT_number 2
_symmetry_cell_setting 'triclinic'
loop_
_space_group_symop_operation_xyz
x,y,z
-x,-y,-z
loop_
_atom_site_type_symbol
_atom_site_label
_atom_site_fract_x
_atom_site_fract_y
_atom_site_fract_z
Si Si1 0.733288 0.564857 0.147596
Si Si2 0.938815 0.725486 0.550326
Si Si3 0.068038 0.309327 0.152701
Si Si4 0.419446 0.636854 0.918440
Si Si5 0.223611 0.056785 0.598077
Si Si6 0.452402 0.257733 0.554646
Si Si7 0.082810 0.956959 0.099270
Si Si8 0.278350 0.464136 0.404289
O O1 0.685473 0.430313 0.115874
O O2 0.578564 0.688847 0.294963
O O3 0.892810 0.463383 0.173399
O O4 0.786396 0.664042 0.005022
O O5 0.913096 0.693154 0.709034
O O6 0.829299 0.904182 0.523842
O O7 0.857793 0.622006 0.518814
O O8 0.147331 0.656362 0.432004
O O9 0.070020 0.130714 0.140338
O O10 0.585439 0.627248 0.759582
O O11 0.500000 0.500000 0.000000
O O12 0.280738 0.815892 0.012452
O O13 0.334911 0.153467 0.590782
O O14 0.044359 0.104296 0.754750
O O15 0.351420 0.862348 0.565425
O O16 0.381984 0.419972 0.484938
O O17 0.000000 0.000000 0.000000
#
# Coordination Sequence:
#
# PCOD9008623 Si02
#       8
#     2   2   2   2   2   2   2   2
#     4  11  24  42  66  95 128 170 219 270 314 383
#     4  10  21  41  65  94 127 169 207 261 323 383
#     4  11  24  41  67  95 127 172 220 263 321 383
#     4  12  26  42  65  98 131 169 215 269 322 380
#     4  10  23  39  64  95 133 165 208 264 327 381
#     4  10  21  40  64  95 126 167 212 263 316 384
#     4  12  24  43  65  94 131 174 214 264 322 383
#     4  10  21  39  65  92 127 167 211 256 317 383
#
# _framework density 21.946504999999998
#
# number of rings (size 3 to 8) (size 9 to 14) (size 15 to 20)
#    0.000    1.250    2.500    3.000    1.750    5.000 
#    0.000    1.875    0.000    0.000    0.000    0.000 
#    0.000    0.000    0.000    0.000    0.000    0.000 
#
# Total GULP energy -89338.193563 kJ/mol
# GULP energy per Si atom -5583.637098 kJ/mol
# Density = 2.189655 g / cm^3
# Si number density = 21.946505 Si / 1000 Ang^3
#
#
#
# Elastic Constant Matrix: (Units=GPa)
#
#
# Indices 1 2 3 4 5 6 
#
# 1 44.6599 10.7764 10.2868 -7.2015 13.1256 -9.9035
# 2 10.7764 44.3697 10.8655 -4.6214 2.9180 -13.5071
# 3 10.2868 10.8655 100.6541 6.1454 3.5534 -17.8662
# 4 -7.2015 -4.6214 6.1454 23.0691 -4.8682 9.5339
# 5 13.1256 2.9180 3.5534 -4.8682 42.5240 -0.6477
# 6 -9.9035 -13.5071 -17.8662 9.5339 -0.6477 32.2130
#
#
#
# Elastic Compliance Matrix: (Units=1/GPa)
#
#
# Indices 1 2 3 4 5 6 
#
# 1 0.027696 -0.004001 -0.001671 0.004929 -0.007505 0.004301
# 2 -0.004001 0.026620 -0.000811 0.000356 -0.000340 0.009370
# 3 -0.001671 -0.000811 0.012124 -0.007495 -0.001177 0.008065
# 4 0.004929 0.000356 -0.007495 0.055870 0.005188 -0.018924
# 5 -0.007505 -0.000340 -0.001177 0.005188 0.026486 -0.004106
# 6 0.004301 0.009370 0.008065 -0.018924 -0.004106 0.046286
#
#
# Mechanical properties :
#
#
# Convention : Reuss Voigt Hill
#
# Bulk Modulus (GPa) = 18.70112 28.17121 23.43617
# Shear Modulus (GPa) = 22.13621 30.07822 26.10722
#
# Velocity S-wave (km/s) = 3.17936 3.70608 3.45278
# Velocity P-wave (km/s) = 4.69228 5.58368 5.15728
#
# Compressibility (1/GPa) = 0.05347273
#
# Stress axis : x y z
#
# Youngs Moduli (GPa) = 36.10627 37.56545 82.48017
#
# Poissons Ratio (x) = 0.15031 0.13784
# Poissons Ratio (y) = 0.14448 0.06691
# Poissons Ratio (z) = 0.06034 0.03047
#
# Static dielectric constant tensor:
#      x y z
#    x 1.804840 -0.020180 -0.024170 
#    y -0.020180 1.851050 -0.008030 
#    z -0.024170 -0.008030 1.839700 
# 
# From -- ./inp_files/381917.got.cif
#   From: 2010.05.17/outbox.cif.g08.bks.cpg/sg2_191_cif.got.tgz:381917.got - 2010.06.03 11:33:40.
