data_PCOD9008434
_publ_section_title
;
Structure prediction by ZEFSAII (Michael W. Deem and Ramdas Pophale) SiO2 
 PCOD9008434
Probable space group: P -1
;
_chemical_formula_sum "Si O2"
_cell_formula_units_Z 16
_cell_length_a 21.699954
_cell_length_b 9.035178
_cell_length_c 24.154834
_cell_angle_alpha 28.781558
_cell_angle_beta 18.147736
_cell_angle_gamma 30.741332
_cell_volume 698.926437
_symmetry_space_group_name_H-M "P -1"
_symmetry_group_IT_number 2
_symmetry_cell_setting 'triclinic'
loop_
_space_group_symop_operation_xyz
x,y,z
-x,-y,-z
loop_
_atom_site_type_symbol
_atom_site_label
_atom_site_fract_x
_atom_site_fract_y
_atom_site_fract_z
Si Si1 0.795390 0.165302 0.590766
Si Si2 0.437013 0.509051 0.861614
Si Si3 0.475163 0.282926 0.023493
Si Si4 0.538114 0.170580 0.543679
Si Si5 0.025458 0.731037 0.852560
Si Si6 0.457887 0.446975 0.406462
Si Si7 0.380843 0.949251 0.922707
Si Si8 0.133724 0.668784 0.976098
O O1 0.633074 0.343262 0.714788
O O2 0.743589 0.423060 0.500249
O O3 0.709153 0.856286 0.747269
O O4 0.000000 0.000000 0.500000
O O5 0.234871 0.515927 0.996471
O O6 0.457528 0.872162 0.734298
O O7 0.441919 0.313994 0.977216
O O8 0.646436 0.056478 0.985192
O O9 0.500450 0.625266 0.906996
O O10 0.500000 0.500000 0.500000
O O11 0.778757 0.117710 0.356533
O O12 0.452013 0.230301 0.535386
O O13 0.000000 0.500000 0.000000
O O14 0.993812 0.532805 0.888336
O O15 0.839278 0.009605 0.926473
O O16 0.660834 0.314963 0.240723
O O17 0.518779 0.763920 0.274400
O O18 0.000000 0.000000 0.000000
#
# Coordination Sequence:
#
# PCOD9008434 Si02
#       8
#     2   2   2   2   2   2   2   2
#     4  10  23  43  62  90 125 171 222 265 324 374
#     4  11  25  41  64  97 135 167 215 270 330 386
#     4  10  21  41  68  86 126 170 213 271 316 384
#     4  12  24  41  65  98 135 170 210 270 335 392
#     4  11  22  41  66  91 129 169 218 267 316 393
#     4   9  20  42  63  91 136 162 209 277 321 389
#     4   9  19  38  69  91 115 170 220 254 330 374
#     4  10  21  39  64  97 126 168 220 260 331 390
#
# _framework density 22.892251999999999
#
# number of rings (size 3 to 8) (size 9 to 14) (size 15 to 20)
#    0.000    1.750    2.500    2.625    3.500    2.000 
#    6.750    0.625    0.000    0.000    0.000    0.000 
#    0.000    0.000    0.000    0.000    0.000    0.000 
#
# Total GULP energy -89087.434562 kJ/mol
# GULP energy per Si atom -5567.964660 kJ/mol
# Density = 2.284015 g / cm^3
# Si number density = 22.892252 Si / 1000 Ang^3
#
#
#
# Elastic Constant Matrix: (Units=GPa)
#
#
# Indices 1 2 3 4 5 6 
#
# 1 129.3855 13.8915 21.3498 -2.9376 -8.4327 -32.8591
# 2 13.8915 74.9054 16.2285 -8.0196 -16.1466 -5.4608
# 3 21.3498 16.2285 42.1745 -10.6727 -15.6193 -12.9957
# 4 -2.9376 -8.0196 -10.6727 41.4331 -5.5439 -16.6445
# 5 -8.4327 -16.1466 -15.6193 -5.5439 34.1300 -6.2274
# 6 -32.8591 -5.4608 -12.9957 -16.6445 -6.2274 52.6312
#
#
#
# Elastic Compliance Matrix: (Units=1/GPa)
#
#
# Indices 1 2 3 4 5 6 
#
# 1 0.010355 0.000363 0.000948 0.005491 0.005726 0.009151
# 2 0.000363 0.016533 0.000906 0.007145 0.010521 0.005671
# 3 0.000948 0.000906 0.049957 0.027810 0.032730 0.025689
# 4 0.005491 0.007145 0.027810 0.049407 0.031024 0.030332
# 5 0.005726 0.010521 0.032730 0.031024 0.061146 0.029794
# 6 0.009151 0.005671 0.025689 0.030332 0.029794 0.044763
#
#
# Mechanical properties :
#
#
# Convention : Reuss Voigt Hill
#
# Bulk Modulus (GPa) = 12.30303 38.82277 25.56290
# Shear Modulus (GPa) = 19.62172 38.63858 29.13015
#
# Velocity S-wave (km/s) = 2.93086 4.11280 3.57107
# Velocity P-wave (km/s) = 4.10357 6.28881 5.30982
#
# Compressibility (1/GPa) = 0.08128079
#
# Stress axis : x y z
#
# Youngs Moduli (GPa) = 96.56959 60.48609 20.01703
#
# Poissons Ratio (x) = -0.02199 -0.01897
# Poissons Ratio (y) = -0.03510 -0.01814
# Poissons Ratio (z) = -0.09154 -0.05482
#
# Static dielectric constant tensor:
#      x y z
#    x 2.043490 -0.060190 -0.115540 
#    y -0.060190 1.872080 0.057130 
#    z -0.115540 0.057130 1.902250 
# 
# From -- ./inp_files/613565.got.cif
#   From: 2010.05.17/outbox.cif.g08.bks.cpg/sg2_307_cif.got.tgz:613565.got - 2010.06.03 11:33:40.
