data_PCOD9008092
_publ_section_title
;
Structure prediction by ZEFSAII (Michael W. Deem and Ramdas Pophale) SiO2 
 PCOD9008092
Probable space group: P -1
;
_chemical_formula_sum "Si O2"
_cell_formula_units_Z 16
_cell_length_a 16.741951
_cell_length_b 13.348063
_cell_length_c 8.480366
_cell_angle_alpha 145.934744
_cell_angle_beta 42.150853
_cell_angle_gamma 137.276701
_cell_volume 674.796806
_symmetry_space_group_name_H-M "P -1"
_symmetry_group_IT_number 2
_symmetry_cell_setting 'triclinic'
loop_
_space_group_symop_operation_xyz
x,y,z
-x,-y,-z
loop_
_atom_site_type_symbol
_atom_site_label
_atom_site_fract_x
_atom_site_fract_y
_atom_site_fract_z
Si Si1 0.305834 0.487654 0.178565
Si Si2 0.562695 0.797442 0.228149
Si Si3 0.004239 0.084001 0.277682
Si Si4 0.770795 0.906459 0.834987
Si Si5 0.774950 0.785798 0.343251
Si Si6 0.103868 0.674381 0.750989
Si Si7 0.379897 0.953802 0.230841
Si Si8 0.137772 0.654591 0.298995
O O1 0.421023 0.678383 0.243509
O O2 0.188873 0.540271 0.490141
O O3 0.365360 0.346948 0.999778
O O4 0.261236 0.393508 0.951060
O O5 0.573113 0.950595 0.546117
O O6 0.640235 0.892288 0.087115
O O7 0.938209 0.240826 0.560610
O O8 0.139453 0.145146 0.236680
O O9 0.918905 0.910842 0.278201
O O10 0.000000 0.000000 0.000000
O O11 0.746295 0.764462 0.540484
O O12 0.841194 0.127156 0.980866
O O13 0.701192 0.922319 0.561048
O O14 0.129071 0.711051 0.571356
O O15 0.957236 0.560133 0.846931
O O16 0.280680 0.744395 0.141040
O O17 0.500000 0.000000 0.000000
#
# Coordination Sequence:
#
# PCOD9008092 Si02
#       8
#     2   2   2   2   2   2   2   2
#     4  10  23  42  66  91 134 173 215 268 317 396
#     4  10  22  43  68  92 125 182 224 245 337 402
#     4  11  19  41  68  86 129 178 215 251 327 405
#     4  12  23  39  69 100 128 169 218 273 324 386
#     4  10  24  40  64  96 128 169 217 268 325 385
#     4  11  22  37  68 101 129 162 217 275 321 375
#     4  10  21  42  68  93 130 174 217 268 319 390
#     4  10  21  39  63  98 127 173 212 262 327 386
#
# _framework density 23.710840000000001
#
# number of rings (size 3 to 8) (size 9 to 14) (size 15 to 20)
#    0.000    1.500    2.500    3.375    3.500    2.000 
#    0.000    5.000    2.750    0.000    0.000    0.000 
#    0.000    0.000    0.000    0.000    0.000    0.000 
#
# Total GULP energy -89462.727997 kJ/mol
# GULP energy per Si atom -5591.420500 kJ/mol
# Density = 2.365687 g / cm^3
# Si number density = 23.710840 Si / 1000 Ang^3
#
#
#
# Elastic Constant Matrix: (Units=GPa)
#
#
# Indices 1 2 3 4 5 6 
#
# 1 69.7105 25.0942 12.0350 6.8430 -7.5464 12.3692
# 2 25.0942 179.1630 44.2426 -15.4420 -2.3305 35.4321
# 3 12.0350 44.2426 67.4189 -0.4563 -2.3820 6.2511
# 4 6.8430 -15.4420 -0.4563 39.5686 -4.8691 -5.5132
# 5 -7.5464 -2.3305 -2.3820 -4.8691 34.8670 5.2047
# 6 12.3692 35.4321 6.2511 -5.5132 5.2047 40.7309
#
#
#
# Elastic Compliance Matrix: (Units=1/GPa)
#
#
# Indices 1 2 3 4 5 6 
#
# 1 0.016650 -0.001283 -0.001597 -0.003603 0.003599 -0.004642
# 2 -0.001283 0.008329 -0.004625 0.002744 0.001232 -0.005932
# 3 -0.001597 -0.004625 0.018006 -0.001078 0.000190 0.001574
# 4 -0.003603 0.002744 -0.001078 0.027618 0.002852 0.002246
# 5 0.003599 0.001232 0.000190 0.002852 0.030810 -0.005744
# 6 -0.004642 -0.005932 0.001574 0.002246 -0.005744 0.031918
#
#
# Mechanical properties :
#
#
# Convention : Reuss Voigt Hill
#
# Bulk Modulus (GPa) = 35.74608 53.22621 44.48614
# Shear Modulus (GPa) = 31.71287 38.69467 35.20377
#
# Velocity S-wave (km/s) = 3.66113 4.04411 3.85738
# Velocity P-wave (km/s) = 5.74286 6.65607 6.21625
#
# Compressibility (1/GPa) = 0.02797510
#
# Stress axis : x y z
#
# Youngs Moduli (GPa) = 60.06160 120.06411 55.53733
#
# Poissons Ratio (x) = 0.15408 0.08868
# Poissons Ratio (y) = 0.07708 0.25683
# Poissons Ratio (z) = 0.09591 0.55524
#
# Static dielectric constant tensor:
#      x y z
#    x 1.886350 -0.038970 -0.078800 
#    y -0.038970 1.917560 0.011110 
#    z -0.078800 0.011110 1.843460 
# 
# From -- ./inp_files/329431.got.cif
#   From: 2010.05.17/outbox.cif.g08.bks.cpg/sg2_165_cif.got.tgz:329431.got - 2010.06.03 11:33:40.
