data_PCOD9008710
_publ_section_title
;
Structure prediction by ZEFSAII (Michael W. Deem and Ramdas Pophale) SiO2 
 PCOD9008710
Probable space group: P -1
;
_chemical_formula_sum "Si O2"
_cell_formula_units_Z 14
_cell_length_a 12.885575
_cell_length_b 10.976520
_cell_length_c 12.865767
_cell_angle_alpha 126.969398
_cell_angle_beta 138.288159
_cell_angle_gamma 33.939395
_cell_volume 675.227820
_symmetry_space_group_name_H-M "P -1"
_symmetry_group_IT_number 2
_symmetry_cell_setting 'triclinic'
loop_
_space_group_symop_operation_xyz
x,y,z
-x,-y,-z
loop_
_atom_site_type_symbol
_atom_site_label
_atom_site_fract_x
_atom_site_fract_y
_atom_site_fract_z
Si Si1 0.341848 0.441767 0.589812
Si Si2 0.747155 0.870554 0.879351
Si Si3 0.566549 0.678308 0.626638
Si Si4 0.091306 0.255376 0.836700
Si Si5 0.952042 0.492086 0.244429
Si Si6 0.239693 0.840004 0.650067
Si Si7 0.537391 0.649524 0.134447
O O1 0.491488 0.318783 0.534440
O O2 0.270849 0.668445 0.654089
O O3 0.459030 0.326959 0.726828
O O4 0.128149 0.480834 0.428874
O O5 0.564888 0.863258 0.728340
O O6 0.907482 0.731248 0.829342
O O7 0.646049 0.108355 0.925923
O O8 0.869933 0.742283 0.012311
O O9 0.417751 0.717931 0.627362
O O10 0.822537 0.439832 0.710971
O O11 0.165156 0.327634 0.843074
O O12 0.228230 0.006448 0.787464
O O13 0.774307 0.540947 0.211408
O O14 0.000000 0.000000 0.500000
O O15 0.500000 0.500000 0.000000
#
# Coordination Sequence:
#
# PCOD9008710 Si02
#       7
#     2   2   2   2   2   2   2
#     4  10  23  42  62  92 127 166 203 254 307 368
#     4  10  23  41  64  93 121 167 204 247 319 364
#     4  10  22  39  65  94 125 154 208 259 303 366
#     4  10  21  39  65  95 125 160 201 259 309 361
#     4  10  22  43  64  89 125 162 212 257 301 369
#     4  12  21  38  63  98 123 156 205 252 314 359
#     4  12  26  43  60  91 127 164 212 253 307 373
#
# _framework density 20.733741999999999
#
# number of rings (size 3 to 8) (size 9 to 14) (size 15 to 20)
#    0.000    1.714    2.857    4.286    0.000    8.571 
#    2.571    0.000    0.000    0.000    0.000    0.000 
#    0.000    0.000    0.000    0.000    0.000    0.000 
#
# Total GULP energy -78177.518840 kJ/mol
# GULP energy per Si atom -5584.108489 kJ/mol
# Density = 2.068655 g / cm^3
# Si number density = 20.733742 Si / 1000 Ang^3
#
#
#
# Elastic Constant Matrix: (Units=GPa)
#
#
# Indices 1 2 3 4 5 6 
#
# 1 94.4933 25.0870 32.5842 5.4599 -6.6857 -6.1118
# 2 25.0870 85.3311 34.7047 17.8150 4.0791 19.3680
# 3 32.5842 34.7047 78.2093 5.7435 -25.8194 6.5916
# 4 5.4599 17.8150 5.7435 33.9222 11.0029 -5.1573
# 5 -6.6857 4.0791 -25.8194 11.0029 24.8668 -0.0767
# 6 -6.1118 19.3680 6.5916 -5.1573 -0.0767 22.8898
#
#
#
# Elastic Compliance Matrix: (Units=1/GPa)
#
#
# Indices 1 2 3 4 5 6 
#
# 1 0.014132 -0.004659 -0.006146 0.003931 -0.003525 0.010359
# 2 -0.004659 0.024898 -0.010465 -0.009993 -0.011847 -0.021588
# 3 -0.006146 -0.010465 0.036293 -0.015040 0.044383 -0.006478
# 4 0.003931 -0.009993 -0.015040 0.052165 -0.035924 0.025469
# 5 -0.003525 -0.011847 0.044383 -0.035924 0.103153 -0.011446
# 6 0.010359 -0.021588 -0.006478 0.025469 -0.011446 0.072286
#
#
# Mechanical properties :
#
#
# Convention : Reuss Voigt Hill
#
# Bulk Modulus (GPa) = 30.50314 49.19839 39.85077
# Shear Modulus (GPa) = 14.02936 27.37962 20.70449
#
# Velocity S-wave (km/s) = 2.60406 3.63786 3.16347
# Velocity P-wave (km/s) = 4.87702 6.43627 5.71011
#
# Compressibility (1/GPa) = 0.03278351
#
# Stress axis : x y z
#
# Youngs Moduli (GPa) = 70.75892 40.16463 27.55320
#
# Poissons Ratio (x) = 0.18711 0.16935
# Poissons Ratio (y) = 0.32963 0.28834
# Poissons Ratio (z) = 0.43492 0.42032
#
# Static dielectric constant tensor:
#      x y z
#    x 1.753900 0.016560 0.029000 
#    y 0.016560 1.784700 0.055560 
#    z 0.029000 0.055560 1.792630 
# 
# From -- ./inp_files/419784.got.cif
#   From: 2010.05.17/outbox.cif.g08.bks.cpg/sg2_210_cif.got.tgz:419784.got - 2010.06.03 11:33:40.
