data_PCOD9008450
_publ_section_title
;
Structure prediction by ZEFSAII (Michael W. Deem and Ramdas Pophale) SiO2 
 PCOD9008450
Probable space group: P -1
;
_chemical_formula_sum "Si O2"
_cell_formula_units_Z 14
_cell_length_a 12.302646
_cell_length_b 11.409751
_cell_length_c 5.164317
_cell_angle_alpha 100.226346
_cell_angle_beta 86.019071
_cell_angle_gamma 129.715474
_cell_volume 547.837968
_symmetry_space_group_name_H-M "P -1"
_symmetry_group_IT_number 2
_symmetry_cell_setting 'triclinic'
loop_
_space_group_symop_operation_xyz
x,y,z
-x,-y,-z
loop_
_atom_site_type_symbol
_atom_site_label
_atom_site_fract_x
_atom_site_fract_y
_atom_site_fract_z
Si Si1 0.770251 0.368532 0.057942
Si Si2 0.317353 0.175146 0.776761
Si Si3 0.494396 0.078649 0.779820
Si Si4 0.029138 0.701970 0.896833
Si Si5 0.061918 0.131573 0.759063
Si Si6 0.622614 0.651991 0.691682
Si Si7 0.811236 0.591490 0.503264
O O1 0.737646 0.423168 0.341060
O O2 0.835325 0.285860 0.088132
O O3 0.635341 0.257577 0.857024
O O4 0.897878 0.532822 0.971309
O O5 0.357763 0.067230 0.770209
O O6 0.163701 0.111298 0.885402
O O7 0.330427 0.217290 0.485318
O O8 0.417216 0.314507 0.019071
O O9 0.500000 0.000000 0.500000
O O10 0.500000 0.000000 0.000000
O O11 0.970558 0.676281 0.605324
O O12 0.035148 0.836582 0.077047
O O13 0.174449 0.300309 0.678373
O O14 0.000000 0.000000 0.500000
O O15 0.500000 0.500000 0.500000
O O16 0.728683 0.615826 0.728487
#
# Coordination Sequence:
#
# PCOD9008450 Si02
#       7
#     2   2   2   2   2   2   2
#     4  10  24  41  67  96 136 178 232 285 336 413
#     4  11  24  44  63  99 133 173 224 275 340 404
#     4  12  29  48  69 100 138 189 234 280 348 414
#     4  10  21  42  67  98 131 177 231 281 348 400
#     4  10  23  40  63  98 133 174 222 282 341 410
#     4  11  22  38  69  98 130 170 216 277 340 400
#     4  10  21  39  64  98 128 173 226 275 348 398
#
# _framework density 25.555002999999999
#
# number of rings (size 3 to 8) (size 9 to 14) (size 15 to 20)
#    0.000    1.429    1.429    2.571    6.000    1.714 
#    0.000    0.000    0.000    0.000    0.000    0.000 
#    0.000    0.000    0.000    0.000    0.000    0.000 
#
# Total GULP energy -78184.651542 kJ/mol
# GULP energy per Si atom -5584.617967 kJ/mol
# Density = 2.549684 g / cm^3
# Si number density = 25.555003 Si / 1000 Ang^3
#
#
#
# Elastic Constant Matrix: (Units=GPa)
#
#
# Indices 1 2 3 4 5 6 
#
# 1 168.5226 41.2473 49.0201 15.6282 -8.1161 -59.0345
# 2 41.2473 94.8621 34.7713 3.1142 -8.8520 -27.2543
# 3 49.0201 34.7713 160.2710 22.7827 -16.5122 -25.0499
# 4 15.6282 3.1142 22.7827 48.4329 -14.9383 2.1337
# 5 -8.1161 -8.8520 -16.5122 -14.9383 40.6668 7.2767
# 6 -59.0345 -27.2543 -25.0499 2.1337 7.2767 32.8205
#
#
#
# Elastic Compliance Matrix: (Units=1/GPa)
#
#
# Indices 1 2 3 4 5 6 
#
# 1 0.020193 0.002545 0.000535 -0.010733 -0.006473 0.040976
# 2 0.002545 0.014469 -0.001186 -0.002022 -0.000414 0.015910
# 3 0.000535 -0.001186 0.007906 -0.003928 0.000515 0.006153
# 4 -0.010733 -0.002022 -0.003928 0.031188 0.012426 -0.028765
# 5 -0.006473 -0.000414 0.000515 0.012426 0.031449 -0.019375
# 6 0.040976 0.015910 0.006153 -0.028765 -0.019375 0.128246
#
#
# Mechanical properties :
#
#
# Convention : Reuss Voigt Hill
#
# Bulk Modulus (GPa) = 21.57254 74.85924 48.21589
# Shear Modulus (GPa) = 20.39857 44.29183 32.34520
#
# Velocity S-wave (km/s) = 2.82835 4.16768 3.56154
# Velocity P-wave (km/s) = 4.37333 7.24682 5.98508
#
# Compressibility (1/GPa) = 0.04635523
#
# Stress axis : x y z
#
# Youngs Moduli (GPa) = 49.52152 69.11507 126.48402
#
# Poissons Ratio (x) = -0.17587 -0.06765
# Poissons Ratio (y) = -0.12601 0.14998
# Poissons Ratio (z) = -0.02649 0.08196
#
# Static dielectric constant tensor:
#      x y z
#    x 2.102990 0.065190 0.042310 
#    y 0.065190 2.090340 -0.050430 
#    z 0.042310 -0.050430 2.076170 
# 
# From -- ./inp_files/63143.got.cif
#   From: 2010.05.17/outbox.cif.g08.bks.cpg/sg2_32_cif.got.tgz:63143.got - 2010.06.03 11:33:40.
