data_PCOD9008514
_publ_section_title
;
Structure prediction by ZEFSAII (Michael W. Deem and Ramdas Pophale) SiO2 
 PCOD9008514
Probable space group: P -1
;
_chemical_formula_sum "Si O2"
_cell_formula_units_Z 14
_cell_length_a 9.941856
_cell_length_b 9.843637
_cell_length_c 9.307978
_cell_angle_alpha 78.338254
_cell_angle_beta 135.446999
_cell_angle_gamma 113.809462
_cell_volume 579.465404
_symmetry_space_group_name_H-M "P -1"
_symmetry_group_IT_number 2
_symmetry_cell_setting 'triclinic'
loop_
_space_group_symop_operation_xyz
x,y,z
-x,-y,-z
loop_
_atom_site_type_symbol
_atom_site_label
_atom_site_fract_x
_atom_site_fract_y
_atom_site_fract_z
Si Si1 0.119945 0.798343 0.167471
Si Si2 0.282173 0.459266 0.153795
Si Si3 0.077289 0.376567 0.466458
Si Si4 0.819087 0.817172 0.171939
Si Si5 0.398756 0.651105 0.489646
Si Si6 0.369593 0.678238 0.914579
Si Si7 0.827964 0.126645 0.132304
O O1 0.983793 0.850774 0.161988
O O2 0.321003 0.787030 0.398226
O O3 0.960462 0.628799 0.041444
O O4 0.178817 0.880420 0.043231
O O5 0.351595 0.578500 0.309947
O O6 0.373907 0.334616 0.294640
O O7 0.372169 0.555602 0.058639
O O8 0.131455 0.292989 0.657243
O O9 0.251919 0.525221 0.511436
O O10 0.854079 0.388501 0.316929
O O11 0.027910 0.261882 0.316730
O O12 0.833129 0.971332 0.222484
O O13 0.575940 0.734831 0.966487
O O14 0.351148 0.820561 0.955174
#
# Coordination Sequence:
#
# PCOD9008514 Si02
#       7
#     2   2   2   2   2   2   2
#     4  12  23  40  63  91 127 152 197 256 304 345
#     4  11  20  38  66  91 117 157 207 244 296 364
#     4  10  21  39  65  85 120 157 209 241 293 356
#     4  12  25  39  59  95 125 158 194 252 306 343
#     4  11  20  38  66  91 117 157 207 244 296 364
#     4  10  21  39  65  85 120 157 209 241 293 356
#     4  10  22  44  64  81 123 168 207 233 284 374
#
# _framework density 24.160202000000002
#
# number of rings (size 3 to 8) (size 9 to 14) (size 15 to 20)
#    0.857    0.286    5.714    1.714    0.000    2.286 
#    0.000    0.000    0.000    3.429    0.000    0.000 
#    0.000    0.000    0.000    0.000    0.000    0.000 
#
# Total GULP energy -78277.564752 kJ/mol
# GULP energy per Si atom -5591.254625 kJ/mol
# Density = 2.410521 g / cm^3
# Si number density = 24.160202 Si / 1000 Ang^3
#
#
#
# Elastic Constant Matrix: (Units=GPa)
#
#
# Indices 1 2 3 4 5 6 
#
# 1 108.4733 3.6474 38.1555 -17.4524 7.5100 -15.4949
# 2 3.6474 45.5109 9.0882 -20.6589 -3.1700 -17.4120
# 3 38.1555 9.0882 85.6595 -19.0712 21.0858 -11.7194
# 4 -17.4524 -20.6589 -19.0712 20.4635 -4.2074 7.1128
# 5 7.5100 -3.1700 21.0858 -4.2074 38.9828 -3.5034
# 6 -15.4949 -17.4120 -11.7194 7.1128 -3.5034 23.0105
#
#
#
# Elastic Compliance Matrix: (Units=1/GPa)
#
#
# Indices 1 2 3 4 5 6 
#
# 1 0.014454 0.013498 -0.002399 0.019781 0.002919 0.013055
# 2 0.013498 0.073889 0.007055 0.079225 0.012275 0.045974
# 3 -0.002399 0.007055 0.018670 0.018927 -0.006445 0.006400
# 4 0.019781 0.079225 0.018927 0.152833 0.012263 0.037533
# 5 0.002919 0.012275 -0.006445 0.012263 0.031707 0.009008
# 6 0.013055 0.045974 0.006400 0.037533 0.009008 0.080067
#
#
# Mechanical properties :
#
#
# Convention : Reuss Voigt Hill
#
# Bulk Modulus (GPa) = 6.97731 37.93620 22.45676
# Shear Modulus (GPa) = 13.05190 29.07488 21.06339
#
# Velocity S-wave (km/s) = 2.32679 3.47280 2.95587
# Velocity P-wave (km/s) = 3.18007 5.64061 4.57872
#
# Compressibility (1/GPa) = 0.14332163
#
# Stress axis : x y z
#
# Youngs Moduli (GPa) = 69.18464 13.53378 53.56177
#
# Poissons Ratio (x) = -0.18268 0.12849
# Poissons Ratio (y) = -0.93384 -0.37789
# Poissons Ratio (z) = 0.16596 -0.09548
#
# Static dielectric constant tensor:
#      x y z
#    x 1.962130 -0.068300 -0.014520 
#    y -0.068300 1.910670 0.036020 
#    z -0.014520 0.036020 1.903610 
# 
# From -- ./inp_files/178449.got.cif
#   From: 2010.05.17/outbox.cif.g08.bks.cpg/sg2_90_cif.got.tgz:178449.got - 2010.06.03 11:33:40.
