data_PCOD9008011
_publ_section_title
;
Structure prediction by ZEFSAII (Michael W. Deem and Ramdas Pophale) SiO2 
 PCOD9008011
Probable space group: P -1
;
_chemical_formula_sum "Si O2"
_cell_formula_units_Z 16
_cell_length_a 8.165045
_cell_length_b 20.679920
_cell_length_c 7.850231
_cell_angle_alpha 102.548979
_cell_angle_beta 64.710040
_cell_angle_gamma 146.246044
_cell_volume 640.329613
_symmetry_space_group_name_H-M "P -1"
_symmetry_group_IT_number 2
_symmetry_cell_setting 'triclinic'
loop_
_space_group_symop_operation_xyz
x,y,z
-x,-y,-z
loop_
_atom_site_type_symbol
_atom_site_label
_atom_site_fract_x
_atom_site_fract_y
_atom_site_fract_z
Si Si1 0.539096 0.439380 0.584629
Si Si2 0.405952 0.042543 0.760643
Si Si3 0.149789 0.044079 0.196720
Si Si4 0.174510 0.729838 0.436550
Si Si5 0.709071 0.683977 0.043903
Si Si6 0.435848 0.724482 0.025259
Si Si7 0.398238 0.885260 0.734695
Si Si8 0.695248 0.496945 0.178265
O O1 0.487448 0.372370 0.721999
O O2 0.526615 0.414268 0.377377
O O3 0.277348 0.416856 0.735787
O O4 0.872085 0.586474 0.527027
O O5 0.417182 0.966857 0.708255
O O6 0.180053 0.012824 0.704725
O O7 0.771067 0.185843 0.653782
O O8 0.218689 0.012860 0.994695
O O9 0.249834 0.031315 0.305181
O O10 0.428246 0.185211 0.124699
O O11 0.409047 0.754361 0.234342
O O12 0.259586 0.787729 0.612209
O O13 0.672066 0.736732 0.970550
O O14 0.510142 0.572923 0.943329
O O15 0.100672 0.794280 0.955739
O O16 0.072635 0.589582 0.056681
#
# Coordination Sequence:
#
# PCOD9008011 Si02
#       8
#     2   2   2   2   2   2   2   2
#     4  10  22  40  64  98 133 176 225 272 336 399
#     4  10  22  45  67  92 135 172 218 279 336 400
#     4  10  22  41  70  96 130 170 221 282 332 396
#     4  10  23  41  65  91 136 172 214 284 334 387
#     4  12  23  40  68 100 134 178 229 272 331 414
#     4  10  22  42  62  96 136 175 216 279 336 389
#     4  12  23  41  70 103 123 176 229 267 343 408
#     4  10  21  39  63  93 135 180 220 274 334 391
#
# _framework density 24.987131000000002
#
# number of rings (size 3 to 8) (size 9 to 14) (size 15 to 20)
#    0.000    1.500    2.500    2.250    1.750    3.500 
#    2.250    0.000    2.750    0.000    0.000    0.000 
#    0.000    0.000    0.000    0.000    0.000    0.000 
#
# Total GULP energy -89175.706564 kJ/mol
# GULP energy per Si atom -5573.481660 kJ/mol
# Density = 2.493026 g / cm^3
# Si number density = 24.987131 Si / 1000 Ang^3
#
#
#
# Elastic Constant Matrix: (Units=GPa)
#
#
# Indices 1 2 3 4 5 6 
#
# 1 126.3358 36.2074 5.0669 -2.5799 4.7899 1.4657
# 2 36.2074 82.0008 14.8353 -16.9651 -4.3136 -8.4965
# 3 5.0669 14.8353 52.0694 -14.3253 22.3916 -1.2133
# 4 -2.5799 -16.9651 -14.3253 37.9000 2.8402 -5.1839
# 5 4.7899 -4.3136 22.3916 2.8402 31.9130 -0.7454
# 6 1.4657 -8.4965 -1.2133 -5.1839 -0.7454 27.2199
#
#
#
# Elastic Compliance Matrix: (Units=1/GPa)
#
#
# Indices 1 2 3 4 5 6 
#
# 1 0.009432 -0.005077 0.001489 -0.001154 -0.003099 -0.002331
# 2 -0.005077 0.017756 -0.005720 0.005868 0.006814 0.006865
# 3 0.001489 -0.005720 0.036369 0.013579 -0.027686 0.001583
# 4 -0.001154 0.005868 0.013579 0.036174 -0.011568 0.009072
# 5 -0.003099 0.006814 -0.027686 -0.011568 0.053184 0.000313
# 6 -0.002331 0.006865 0.001583 0.009072 0.000313 0.040813
#
#
# Mechanical properties :
#
#
# Convention : Reuss Voigt Hill
#
# Bulk Modulus (GPa) = 22.25227 41.40279 31.82753
# Shear Modulus (GPa) = 21.99510 33.02634 27.51072
#
# Velocity S-wave (km/s) = 2.97013 3.63951 3.32173
# Velocity P-wave (km/s) = 4.54830 5.85380 5.24185
#
# Compressibility (1/GPa) = 0.04493924
#
# Stress axis : x y z
#
# Youngs Moduli (GPa) = 106.02411 56.31972 27.49624
#
# Poissons Ratio (x) = 0.28596 -0.04095
# Poissons Ratio (y) = 0.53833 0.15729
# Poissons Ratio (z) = -0.15792 0.32218
#
# Static dielectric constant tensor:
#      x y z
#    x 2.131930 0.139860 0.015790 
#    y 0.139860 2.166200 0.004000 
#    z 0.015790 0.004000 2.017070 
# 
# From -- ./inp_files/226340.got.cif
#   From: 2010.05.17/outbox.cif.g08.bks.cpg/sg2_114_cif.got.tgz:226340.got - 2010.06.03 11:33:40.
