data_PCOD9008524
_publ_section_title
;
Structure prediction by ZEFSAII (Michael W. Deem and Ramdas Pophale) SiO2 
 PCOD9008524
Probable space group: P -1
;
_chemical_formula_sum "Si O2"
_cell_formula_units_Z 14
_cell_length_a 21.049348
_cell_length_b 8.403705
_cell_length_c 7.765736
_cell_angle_alpha 55.867543
_cell_angle_beta 44.463512
_cell_angle_gamma 36.762891
_cell_volume 575.704725
_symmetry_space_group_name_H-M "P -1"
_symmetry_group_IT_number 2
_symmetry_cell_setting 'triclinic'
loop_
_space_group_symop_operation_xyz
x,y,z
-x,-y,-z
loop_
_atom_site_type_symbol
_atom_site_label
_atom_site_fract_x
_atom_site_fract_y
_atom_site_fract_z
Si Si1 0.889822 0.225892 0.704083
Si Si2 0.291770 0.212834 0.744552
Si Si3 0.522000 0.743206 0.767581
Si Si4 0.385048 0.318355 0.040974
Si Si5 0.054932 0.704864 0.094658
Si Si6 0.834969 0.902085 0.196785
Si Si7 0.610075 0.432485 0.438872
O O1 0.757855 0.507391 0.722663
O O2 0.933444 0.314926 0.710164
O O3 0.000000 0.000000 0.500000
O O4 0.854966 0.069360 0.948613
O O5 0.400023 0.169976 0.457764
O O6 0.217242 0.180060 0.781929
O O7 0.374981 0.984950 0.868405
O O8 0.186945 0.495235 0.868337
O O9 0.560327 0.616656 0.959093
O O10 0.575450 0.546241 0.625452
O O11 0.363607 0.424441 0.824263
O O12 0.500000 0.000000 0.000000
O O13 0.961666 0.692633 0.188176
O O14 0.000000 0.000000 0.000000
O O15 0.724491 0.117920 0.410385
O O16 0.500000 0.500000 0.500000
#
# Coordination Sequence:
#
# PCOD9008524 Si02
#       7
#     2   2   2   2   2   2   2
#     4  10  23  42  63  93 132 170 221 273 329 397
#     4  11  21  40  64  99 127 171 222 271 325 399
#     4  11  23  39  72  91 132 182 213 266 345 384
#     4  11  24  41  67 101 130 174 228 273 325 397
#     4  10  21  39  65  87 125 171 215 261 332 389
#     4  10  22  40  66  94 129 170 217 274 326 395
#     4  11  23  45  64  99 136 168 223 275 326 395
#
# _framework density 24.318023
#
# number of rings (size 3 to 8) (size 9 to 14) (size 15 to 20)
#    0.000    1.429    1.429    5.571    6.000    0.571 
#    0.000    0.714    3.143    0.000    0.000    0.000 
#    0.000    0.000    0.000    0.000    0.000    0.000 
#
# Total GULP energy -78185.898188 kJ/mol
# GULP energy per Si atom -5584.707013 kJ/mol
# Density = 2.426267 g / cm^3
# Si number density = 24.318023 Si / 1000 Ang^3
#
#
#
# Elastic Constant Matrix: (Units=GPa)
#
#
# Indices 1 2 3 4 5 6 
#
# 1 217.9674 50.7741 49.8417 14.5242 1.9604 -9.3320
# 2 50.7741 105.1727 50.6077 51.1082 9.9540 -9.8238
# 3 49.8417 50.6077 71.5889 40.0651 1.0885 5.8894
# 4 14.5242 51.1082 40.0651 52.4865 6.4809 1.5066
# 5 1.9604 9.9540 1.0885 6.4809 43.9964 9.3291
# 6 -9.3320 -9.8238 5.8894 1.5066 9.3291 37.5857
#
#
#
# Elastic Compliance Matrix: (Units=1/GPa)
#
#
# Indices 1 2 3 4 5 6 
#
# 1 0.006159 -0.002575 -0.005343 0.004913 -0.000634 0.001654
# 2 -0.002575 0.022709 -0.005269 -0.017105 -0.004029 0.007808
# 3 -0.005343 -0.005269 0.032368 -0.018491 0.005114 -0.008304
# 4 0.004913 -0.017105 -0.018491 0.048849 -0.002741 -0.001631
# 5 -0.000634 -0.004029 0.005114 -0.002741 0.025702 -0.008281
# 6 0.001654 0.007808 -0.008304 -0.001631 -0.008281 0.032479
#
#
# Mechanical properties :
#
#
# Convention : Reuss Voigt Hill
#
# Bulk Modulus (GPa) = 28.68536 77.46401 53.07468
# Shear Modulus (GPa) = 24.24107 43.04743 33.64425
#
# Velocity S-wave (km/s) = 3.16070 4.21192 3.72359
# Velocity P-wave (km/s) = 5.01413 7.45503 6.35291
#
# Compressibility (1/GPa) = 0.03486099
#
# Stress axis : x y z
#
# Youngs Moduli (GPa) = 162.37393 44.03484 30.89483
#
# Poissons Ratio (x) = 0.11338 0.16508
# Poissons Ratio (y) = 0.41808 0.16279
# Poissons Ratio (z) = 0.86762 0.23203
#
# Static dielectric constant tensor:
#      x y z
#    x 1.992150 -0.027280 -0.008580 
#    y -0.027280 2.005700 -0.077430 
#    z -0.008580 -0.077430 2.067260 
# 
# From -- ./inp_files/236561.got.cif
#   From: 2010.05.17/outbox.cif.g08.bks.cpg/sg2_119_cif.got.tgz:236561.got - 2010.06.03 11:33:40.
