data_PCOD9008481
_publ_section_title
;
Structure prediction by ZEFSAII (Michael W. Deem and Ramdas Pophale) SiO2 
 PCOD9008481
Probable space group: P -1
;
_chemical_formula_sum "Si O2"
_cell_formula_units_Z 16
_cell_length_a 9.150941
_cell_length_b 8.853261
_cell_length_c 13.625330
_cell_angle_alpha 113.309180
_cell_angle_beta 75.165994
_cell_angle_gamma 59.165146
_cell_volume 707.944528
_symmetry_space_group_name_H-M "P -1"
_symmetry_group_IT_number 2
_symmetry_cell_setting 'triclinic'
loop_
_space_group_symop_operation_xyz
x,y,z
-x,-y,-z
loop_
_atom_site_type_symbol
_atom_site_label
_atom_site_fract_x
_atom_site_fract_y
_atom_site_fract_z
Si Si1 0.434209 0.430109 0.581188
Si Si2 0.326861 0.744407 0.144862
Si Si3 0.685107 0.990430 0.948966
Si Si4 0.596147 0.218608 0.224170
Si Si5 0.992562 0.758045 0.128148
Si Si6 0.579457 0.152774 0.647315
Si Si7 0.911371 0.467337 0.151082
Si Si8 0.240426 0.334342 0.443707
O O1 0.500000 0.500000 0.500000
O O2 0.362080 0.621593 0.720781
O O3 0.623533 0.188765 0.539633
O O4 0.276541 0.425597 0.554169
O O5 0.330990 0.912081 0.127853
O O6 0.112452 0.810543 0.177504
O O7 0.364063 0.758708 0.255311
O O8 0.500000 0.500000 0.000000
O O9 0.642847 0.150781 0.085302
O O10 0.915199 0.743083 0.862813
O O11 0.500000 0.000000 0.000000
O O12 0.373573 0.317144 0.326932
O O13 0.759763 0.989787 0.201299
O O14 0.997329 0.583394 0.139635
O O15 0.093290 0.639078 0.974565
O O16 0.327983 0.327088 0.725970
O O17 0.673368 0.908780 0.600925
O O18 0.000000 0.500000 0.500000
#
# Coordination Sequence:
#
# PCOD9008481 Si02
#       8
#     2   2   2   2   2   2   2   2
#     4  10  25  47  69  94 130 173 236 294 342 396
#     4  12  24  39  66 107 146 177 226 268 332 429
#     4  11  24  39  66 107 150 180 224 271 329 430
#     4  10  22  43  69  95 139 182 218 282 353 387
#     4  10  21  39  65 100 143 180 215 269 333 425
#     4  12  24  44  72  98 134 184 221 283 355 404
#     4  10  22  40  66  98 138 186 219 262 345 421
#     4  11  25  47  73  97 126 176 247 297 334 401
#
# _framework density 22.600639999999999
#
# number of rings (size 3 to 8) (size 9 to 14) (size 15 to 20)
#    0.000    1.250    2.500    2.625    5.250    2.000 
#    0.000    3.750    0.000    0.000    0.000    0.000 
#    0.000    0.000    0.000    0.000    0.000    0.000 
#
# Total GULP energy -89477.986579 kJ/mol
# GULP energy per Si atom -5592.374161 kJ/mol
# Density = 2.254920 g / cm^3
# Si number density = 22.600640 Si / 1000 Ang^3
#
#
#
# Elastic Constant Matrix: (Units=GPa)
#
#
# Indices 1 2 3 4 5 6 
#
# 1 127.0414 35.8771 41.0250 -1.1196 13.4924 -15.3893
# 2 35.8771 132.5249 27.5741 -1.9955 1.1940 -4.6922
# 3 41.0250 27.5741 57.2860 8.4690 2.5786 -5.9229
# 4 -1.1196 -1.9955 8.4690 38.9808 -3.2894 3.7326
# 5 13.4924 1.1940 2.5786 -3.2894 41.0490 7.2571
# 6 -15.3893 -4.6922 -5.9229 3.7326 7.2571 28.7871
#
#
#
# Elastic Compliance Matrix: (Units=1/GPa)
#
#
# Indices 1 2 3 4 5 6 
#
# 1 0.011683 -0.001451 -0.007040 0.000903 -0.004259 0.005517
# 2 -0.001451 0.008638 -0.003364 0.001217 0.000600 -0.000369
# 3 -0.007040 -0.003364 0.025169 -0.005993 0.000063 0.001628
# 4 0.000903 0.001217 -0.005993 0.027783 0.003145 -0.004947
# 5 -0.004259 0.000600 0.000063 0.003145 0.027680 -0.009552
# 6 0.005517 -0.000369 0.001628 -0.004947 -0.009552 0.041012
#
#
# Mechanical properties :
#
#
# Convention : Reuss Voigt Hill
#
# Bulk Modulus (GPa) = 45.91239 58.42272 52.16755
# Shear Modulus (GPa) = 28.91266 35.92177 32.41721
#
# Velocity S-wave (km/s) = 3.58059 3.99107 3.79139
# Velocity P-wave (km/s) = 6.11988 6.86617 6.50374
#
# Compressibility (1/GPa) = 0.02178061
#
# Stress axis : x y z
#
# Youngs Moduli (GPa) = 85.59375 115.76304 39.73206
#
# Poissons Ratio (x) = 0.16795 0.27971
# Poissons Ratio (y) = 0.12418 0.13366
# Poissons Ratio (z) = 0.60257 0.38944
#
# Static dielectric constant tensor:
#      x y z
#    x 1.859970 0.057490 -0.026860 
#    y 0.057490 1.887710 -0.063000 
#    z -0.026860 -0.063000 1.929780 
# 
# From -- ./inp_files/495589.got.cif
#   From: 2010.05.17/outbox.cif.g08.bks.cpg/sg2_248_cif.got.tgz:495589.got - 2010.06.03 11:33:40.
