data_PCOD9008340
_publ_section_title
;
Structure prediction by ZEFSAII (Michael W. Deem and Ramdas Pophale) SiO2 
 PCOD9008340
Probable space group: P -1
;
_chemical_formula_sum "Si O2"
_cell_formula_units_Z 12
_cell_length_a 12.424520
_cell_length_b 8.583394
_cell_length_c 15.227186
_cell_angle_alpha 37.882484
_cell_angle_beta 150.153087
_cell_angle_gamma 125.430484
_cell_volume 466.130017
_symmetry_space_group_name_H-M "P -1"
_symmetry_group_IT_number 2
_symmetry_cell_setting 'triclinic'
loop_
_space_group_symop_operation_xyz
x,y,z
-x,-y,-z
loop_
_atom_site_type_symbol
_atom_site_label
_atom_site_fract_x
_atom_site_fract_y
_atom_site_fract_z
Si Si1 0.911775 0.043237 0.551341
Si Si2 0.225362 0.248399 0.259070
Si Si3 0.681346 0.373199 0.076422
Si Si4 0.820035 0.842367 0.045552
Si Si5 0.702303 0.795245 0.176444
Si Si6 0.285476 0.818345 0.344311
O O1 0.782152 0.958189 0.576845
O O2 0.120372 0.772033 0.789068
O O3 0.749718 0.162834 0.300303
O O4 0.053198 0.244011 0.587269
O O5 0.447799 0.337820 0.383628
O O6 0.237548 0.091337 0.246464
O O7 0.000000 0.500000 0.000000
O O8 0.708812 0.641836 0.012687
O O9 0.423690 0.419443 0.840033
O O10 0.738974 0.911321 0.056180
O O11 0.097087 0.699663 0.298656
O O12 0.760878 0.102144 0.825435
O O13 0.500000 0.000000 0.000000
#
# Coordination Sequence:
#
# PCOD9008340 Si02
#       6
#     2   2   2   2   2   2
#     4  10  21  42  62  95 138 167 233 280 329 410
#     4  11  22  44  67  99 133 182 230 277 341 407
#     4  10  22  39  65  99 131 182 218 281 347 398
#     4  11  21  44  65  99 140 173 230 278 348 405
#     4  10  21  39  64  93 132 176 217 280 334 398
#     4  10  24  42  69  98 138 179 222 289 332 409
#
# _framework density 25.743891000000001
#
# number of rings (size 3 to 8) (size 9 to 14) (size 15 to 20)
#    0.000    1.667    1.667    2.500    0.000    0.667 
#   18.000    4.167    0.000    0.000    0.000    0.000 
#    0.000    0.000    0.000    0.000    0.000    0.000 
#
# Total GULP energy -67246.089441 kJ/mol
# GULP energy per Si atom -5603.840787 kJ/mol
# Density = 2.568530 g / cm^3
# Si number density = 25.743891 Si / 1000 Ang^3
#
#
#
# Elastic Constant Matrix: (Units=GPa)
#
#
# Indices 1 2 3 4 5 6 
#
# 1 184.0898 23.5406 43.6814 2.0036 1.3345 8.9725
# 2 23.5406 80.8569 39.5518 29.5020 17.7202 7.1846
# 3 43.6814 39.5518 117.9022 24.0232 35.6902 6.6212
# 4 2.0036 29.5020 24.0232 46.6068 15.2867 3.8214
# 5 1.3345 17.7202 35.6902 15.2867 50.2367 7.8771
# 6 8.9725 7.1846 6.6212 3.8214 7.8771 31.4423
#
#
#
# Elastic Compliance Matrix: (Units=1/GPa)
#
#
# Indices 1 2 3 4 5 6 
#
# 1 0.006292 -0.001337 -0.002702 0.001431 0.002040 -0.001606
# 2 -0.001337 0.018110 -0.003324 -0.009255 -0.000908 -0.001704
# 3 -0.002702 -0.003324 0.013324 -0.002199 -0.007697 0.000920
# 4 0.001431 -0.009255 -0.002199 0.029802 -0.004218 -0.000396
# 5 0.002040 -0.000908 -0.007697 -0.004218 0.027737 -0.005190
# 6 -0.001606 -0.001704 0.000920 -0.000396 -0.005190 0.033807
#
#
# Mechanical properties :
#
#
# Convention : Reuss Voigt Hill
#
# Bulk Modulus (GPa) = 43.47529 66.26629 54.87079
# Shear Modulus (GPa) = 33.01135 44.06217 38.53676
#
# Velocity S-wave (km/s) = 3.58480 4.14159 3.87321
# Velocity P-wave (km/s) = 5.83598 6.97616 6.43139
#
# Compressibility (1/GPa) = 0.02300157
#
# Stress axis : x y z
#
# Youngs Moduli (GPa) = 158.93100 55.21857 75.05430
#
# Poissons Ratio (x) = 0.07381 0.20277
# Poissons Ratio (y) = 0.21246 0.24945
# Poissons Ratio (z) = 0.42937 0.18353
#
# Static dielectric constant tensor:
#      x y z
#    x 2.008840 0.006090 -0.006500 
#    y 0.006090 2.039640 0.011760 
#    z -0.006500 0.011760 2.037980 
# 
# From -- ./inp_files/512702.got.cif
#   From: 2010.05.17/outbox.cif.g08.bks.cpg/sg2_257_cif.got.tgz:512702.got - 2010.06.03 11:33:40.
