data_PCOD9008789
_publ_section_title
;
Structure prediction by ZEFSAII (Michael W. Deem and Ramdas Pophale) SiO2 
 PCOD9008789
Probable space group: P -1
;
_chemical_formula_sum "Si O2"
_cell_formula_units_Z 12
_cell_length_a 8.286508
_cell_length_b 14.361139
_cell_length_c 7.166842
_cell_angle_alpha 127.805689
_cell_angle_beta 76.893886
_cell_angle_gamma 70.002243
_cell_volume 512.302658
_symmetry_space_group_name_H-M "P -1"
_symmetry_group_IT_number 2
_symmetry_cell_setting 'triclinic'
loop_
_space_group_symop_operation_xyz
x,y,z
-x,-y,-z
loop_
_atom_site_type_symbol
_atom_site_label
_atom_site_fract_x
_atom_site_fract_y
_atom_site_fract_z
Si Si1 0.509868 0.355784 0.858494
Si Si2 0.671443 0.695348 0.813937
Si Si3 0.181740 0.478723 0.806781
Si Si4 0.675905 0.023541 0.975849
Si Si5 0.957881 0.194657 0.669882
Si Si6 0.723566 0.926959 0.241530
O O1 0.403526 0.350765 0.694750
O O2 0.747918 0.220449 0.691506
O O3 0.500000 0.500000 0.000000
O O4 0.366573 0.375167 0.091187
O O5 0.808747 0.574427 0.468443
O O6 0.767730 0.775852 0.962157
O O7 0.442627 0.826158 0.934970
O O8 0.131800 0.638176 0.038542
O O9 0.000000 0.500000 0.000000
O O10 0.880498 0.883159 0.641584
O O11 0.720659 0.015406 0.173749
O O12 0.500000 0.000000 0.000000
O O13 0.104546 0.100550 0.692687
O O14 0.500000 0.000000 0.500000
#
# Coordination Sequence:
#
# PCOD9008789 Si02
#       6
#     2   2   2   2   2   2
#     4  10  26  45  65  96 142 175 221 271 335 393
#     4  11  24  41  71 100 131 175 227 270 333 392
#     4  11  24  42  71  98 131 170 229 277 326 396
#     4  10  21  39  65  98 129 172 222 266 330 389
#     4  11  23  42  65  96 138 175 214 275 333 385
#     4  11  22  40  71  95 133 169 221 276 327 390
#
# _framework density 23.423655
#
# number of rings (size 3 to 8) (size 9 to 14) (size 15 to 20)
#    0.000    1.333    3.333    3.000    2.333   10.000 
#    0.000    1.667    0.000    0.000    0.000    0.000 
#    0.000    0.000    0.000    0.000    0.000    0.000 
#
# Total GULP energy -67033.298326 kJ/mol
# GULP energy per Si atom -5586.108194 kJ/mol
# Density = 2.337034 g / cm^3
# Si number density = 23.423655 Si / 1000 Ang^3
#
#
#
# Elastic Constant Matrix: (Units=GPa)
#
#
# Indices 1 2 3 4 5 6 
#
# 1 76.5517 32.5747 18.5284 2.3365 6.5846 -30.6090
# 2 32.5747 145.0432 38.7814 -14.8597 12.3341 -10.1164
# 3 18.5284 38.7814 139.1722 4.1847 9.6808 3.6338
# 4 2.3365 -14.8597 4.1847 41.2951 -3.9599 4.0489
# 5 6.5846 12.3341 9.6808 -3.9599 28.8520 1.7484
# 6 -30.6090 -10.1164 3.6338 4.0489 1.7484 54.7611
#
#
#
# Elastic Compliance Matrix: (Units=1/GPa)
#
#
# Indices 1 2 3 4 5 6 
#
# 1 0.019602 -0.003262 -0.001622 -0.003534 -0.003677 0.010841
# 2 -0.003262 0.008620 -0.001934 0.003337 -0.001816 -0.000291
# 3 -0.001622 -0.001934 0.008139 -0.001424 -0.001630 -0.001647
# 4 -0.003534 0.003337 -0.001424 0.026442 0.003689 -0.003337
# 5 -0.003677 -0.001816 -0.001630 0.003689 0.037556 -0.003754
# 6 0.010841 -0.000291 -0.001647 -0.003337 -0.003754 0.024743
#
#
# Mechanical properties :
#
#
# Convention : Reuss Voigt Hill
#
# Bulk Modulus (GPa) = 44.00250 60.05955 52.03102
# Shear Modulus (GPa) = 34.17314 43.04051 38.60682
#
# Velocity S-wave (km/s) = 3.82372 4.29123 4.06420
# Velocity P-wave (km/s) = 6.19037 7.08866 6.65469
#
# Compressibility (1/GPa) = 0.02272598
#
# Stress axis : x y z
#
# Youngs Moduli (GPa) = 51.01420 116.00566 122.85915
#
# Poissons Ratio (x) = 0.37842 0.19924
# Poissons Ratio (y) = 0.16641 0.23764
# Poissons Ratio (z) = 0.08273 0.22438
#
# Static dielectric constant tensor:
#      x y z
#    x 1.801940 -0.069920 -0.062090 
#    y -0.069920 1.988150 0.007470 
#    z -0.062090 0.007470 1.777000 
# 
# From -- ./inp_files/40209.got.cif
#   From: 2010.05.17/outbox.cif.g08.bks.cpg/sg2_21_cif.got.tgz:40209.got - 2010.06.03 11:33:40.
