data_PCOD9008705
_publ_section_title
;
Structure prediction by ZEFSAII (Michael W. Deem and Ramdas Pophale) SiO2 
 PCOD9008705
Probable space group: P -1
;
_chemical_formula_sum "Si O2"
_cell_formula_units_Z 16
_cell_length_a 16.434348
_cell_length_b 10.047113
_cell_length_c 9.624142
_cell_angle_alpha 66.238711
_cell_angle_beta 99.174461
_cell_angle_gamma 46.632321
_cell_volume 798.479549
_symmetry_space_group_name_H-M "P -1"
_symmetry_group_IT_number 2
_symmetry_cell_setting 'triclinic'
loop_
_space_group_symop_operation_xyz
x,y,z
-x,-y,-z
loop_
_atom_site_type_symbol
_atom_site_label
_atom_site_fract_x
_atom_site_fract_y
_atom_site_fract_z
Si Si1 0.353088 0.605427 0.094238
Si Si2 0.022951 0.118813 0.874769
Si Si3 0.822645 0.847623 0.442646
Si Si4 0.628033 0.748481 0.738930
Si Si5 0.080669 0.486942 0.135275
Si Si6 0.631814 0.718475 0.084799
Si Si7 0.598694 0.438708 0.192783
Si Si8 0.140699 0.479434 0.572564
O O1 0.363079 0.431697 0.234248
O O2 0.459513 0.579726 0.182638
O O3 0.421186 0.494730 0.004380
O O4 0.178843 0.892231 0.930472
O O5 0.031403 0.234873 0.941302
O O6 0.891367 0.359863 0.630743
O O7 0.000000 0.000000 0.000000
O O8 0.857117 0.709581 0.648043
O O9 0.772250 0.792276 0.346000
O O10 0.976779 0.674689 0.493072
O O11 0.720356 0.132285 0.339719
O O12 0.780403 0.615729 0.825671
O O13 0.500000 0.000000 0.500000
O O14 0.607422 0.771141 0.890652
O O15 0.000000 0.500000 0.000000
O O16 0.639593 0.539170 0.212812
O O17 0.779266 0.573603 0.249456
O O18 0.500000 0.000000 0.000000
#
# Coordination Sequence:
#
# PCOD9008705 Si02
#       8
#     2   2   2   2   2   2   2   2
#     4  10  21  39  65  95 120 175 223 266 326 404
#     4  11  22  41  68  93 132 181 221 269 341 408
#     4  10  21  40  67  91 127 181 219 265 337 401
#     4  11  24  44  66  94 138 178 221 276 345 405
#     4  11  24  39  64  98 131 173 222 281 338 398
#     4  11  27  41  66 101 133 173 225 288 330 394
#     4  10  22  39  64  94 128 166 225 272 329 393
#     4  10  23  40  63  97 133 168 228 276 327 399
#
# _framework density 20.038083
#
# number of rings (size 3 to 8) (size 9 to 14) (size 15 to 20)
#    0.000    1.500    2.500    1.500    8.750    2.500 
#    0.000    0.000    0.000    3.750    0.000    0.000 
#    0.000    0.000    0.000    0.000    0.000    0.000 
#
# Total GULP energy -89072.858906 kJ/mol
# GULP energy per Si atom -5567.053682 kJ/mol
# Density = 1.999248 g / cm^3
# Si number density = 20.038083 Si / 1000 Ang^3
#
#
#
# Elastic Constant Matrix: (Units=GPa)
#
#
# Indices 1 2 3 4 5 6 
#
# 1 127.4737 33.4968 51.3425 -4.2978 -8.2876 10.2128
# 2 33.4968 65.0346 35.4352 -13.2107 -4.9817 13.2049
# 3 51.3425 35.4352 74.8977 -4.7242 -2.2540 14.7458
# 4 -4.2978 -13.2107 -4.7242 33.1033 7.5637 -4.6162
# 5 -8.2876 -4.9817 -2.2540 7.5637 33.9582 0.6625
# 6 10.2128 13.2049 14.7458 -4.6162 0.6625 36.6917
#
#
#
# Elastic Compliance Matrix: (Units=1/GPa)
#
#
# Indices 1 2 3 4 5 6 
#
# 1 0.011201 -0.002177 -0.006677 -0.000830 0.002152 0.000206
# 2 -0.002177 0.023276 -0.008350 0.007138 0.000808 -0.003532
# 3 -0.006677 -0.008350 0.022627 -0.001361 -0.000964 -0.004384
# 4 -0.000830 0.007138 -0.001361 0.034740 -0.007037 0.002707
# 5 0.002152 0.000808 -0.000964 -0.007037 0.031633 -0.001959
# 6 0.000206 -0.003532 -0.004384 0.002707 -0.001959 0.030606
#
#
# Mechanical properties :
#
#
# Convention : Reuss Voigt Hill
#
# Bulk Modulus (GPa) = 44.05830 56.43945 50.24887
# Shear Modulus (GPa) = 25.50267 30.55939 28.03103
#
# Velocity S-wave (km/s) = 3.57138 3.90945 3.74423
# Velocity P-wave (km/s) = 6.24831 6.97177 6.61993
#
# Compressibility (1/GPa) = 0.02269720
#
# Stress axis : x y z
#
# Youngs Moduli (GPa) = 89.27404 42.96200 44.19450
#
# Poissons Ratio (x) = 0.09353 0.29507
# Poissons Ratio (y) = 0.19436 0.36903
# Poissons Ratio (z) = 0.59606 0.35874
#
# Static dielectric constant tensor:
#      x y z
#    x 1.802270 0.027950 0.019500 
#    y 0.027950 1.751150 -0.000590 
#    z 0.019500 -0.000590 1.730330 
# 
# From -- ./inp_files/297918.got.cif
#   From: 2010.05.17/outbox.cif.g08.bks.cpg/sg2_149_cif.got.tgz:297918.got - 2010.06.03 11:33:40.
