data_PCOD9008630
_publ_section_title
;
Structure prediction by ZEFSAII (Michael W. Deem and Ramdas Pophale) SiO2 
 PCOD9008630
Probable space group: P -1
;
_chemical_formula_sum "Si O2"
_cell_formula_units_Z 15
_cell_length_a 12.986069
_cell_length_b 11.763232
_cell_length_c 15.843279
_cell_angle_alpha 37.719009
_cell_angle_beta 152.449032
_cell_angle_gamma 132.632420
_cell_volume 682.381603
_symmetry_space_group_name_H-M "P -1"
_symmetry_group_IT_number 2
_symmetry_cell_setting 'triclinic'
loop_
_space_group_symop_operation_xyz
x,y,z
-x,-y,-z
loop_
_atom_site_type_symbol
_atom_site_label
_atom_site_fract_x
_atom_site_fract_y
_atom_site_fract_z
Si Si1 0.449700 0.605457 0.156760
Si Si2 0.097648 0.078558 0.252231
Si Si3 0.183168 0.765491 0.200756
Si Si4 0.995855 0.614327 0.729567
Si Si5 0.125664 0.195712 0.635564
Si Si6 0.229536 0.776218 0.412927
Si Si7 0.000000 0.500000 0.500000
Si Si8 0.681172 0.615558 0.661818
O O1 0.617545 0.766411 0.181751
O O2 0.598410 0.410988 0.355293
O O3 0.357521 0.570959 0.204126
O O4 0.247941 0.632293 0.929936
O O5 0.219157 0.250197 0.275312
O O6 0.277886 0.925528 0.431225
O O7 0.961796 0.989569 0.280959
O O8 0.935052 0.132033 0.024150
O O9 0.048005 0.584423 0.226295
O O10 0.203890 0.859539 0.252103
O O11 0.438795 0.695293 0.406782
O O12 0.914707 0.773106 0.511101
O O13 0.849914 0.606926 0.712607
O O14 0.990494 0.366409 0.487064
O O15 0.007186 0.689002 0.335694
#
# Coordination Sequence:
#
# PCOD9008630 Si02
#       8
#     2   2   2   2   2   2   1   2
#     4  10  21  39  65  93 114 165 207 243 301 359
#     4  11  24  41  61  92 131 156 190 262 309 349
#     4  11  22  39  65  92 115 167 205 247 302 353
#     4  12  22  40  67  88 119 163 211 245 294 363
#     4  10  22  40  61  88 126 157 200 254 296 360
#     4   9  19  39  61  92 124 152 202 251 301 362
#     4   8  14  36  60  80 118 158 190 238 300 340
#     4  11  24  39  63  93 120 158 211 248 295 363
#
# _framework density 21.981833999999999
#
# number of rings (size 3 to 8) (size 9 to 14) (size 15 to 20)
#    0.000    1.600    5.333    1.200    0.000    3.733 
#    2.400    7.333    0.000    0.000    0.000    0.000 
#    0.000    0.000    0.000    0.000    0.000    0.000 
#
# Total GULP energy -83501.184297 kJ/mol
# GULP energy per Si atom -5566.745620 kJ/mol
# Density = 2.193180 g / cm^3
# Si number density = 21.981834 Si / 1000 Ang^3
#
#
#
# Elastic Constant Matrix: (Units=GPa)
#
#
# Indices 1 2 3 4 5 6 
#
# 1 59.1272 22.0344 12.3685 0.9512 -20.3044 2.1525
# 2 22.0344 59.6162 17.7926 12.9040 -2.4416 17.0084
# 3 12.3685 17.7926 80.2666 29.0827 -1.6101 14.0678
# 4 0.9512 12.9040 29.0827 30.5851 4.6602 -3.6996
# 5 -20.3044 -2.4416 -1.6101 4.6602 16.1012 -1.7993
# 6 2.1525 17.0084 14.0678 -3.6996 -1.7993 38.8997
#
#
#
# Elastic Compliance Matrix: (Units=1/GPa)
#
#
# Indices 1 2 3 4 5 6 
#
# 1 0.038482 -0.013876 -0.004261 0.002634 0.046114 0.007862
# 2 -0.013876 0.027825 0.003855 -0.015208 -0.010135 -0.014708
# 3 -0.004261 0.003855 0.024173 -0.026594 0.003924 -0.012539
# 4 0.002634 -0.015208 -0.026594 0.069925 -0.019438 0.021873
# 5 0.046114 -0.010135 0.003924 -0.019438 0.125233 0.004405
# 6 0.007862 -0.014708 -0.012539 0.021873 0.004405 0.038522
#
#
# Mechanical properties :
#
#
# Convention : Reuss Voigt Hill
#
# Bulk Modulus (GPa) = 16.15118 33.71122 24.93120
# Shear Modulus (GPa) = 13.39182 26.90482 20.14832
#
# Velocity S-wave (km/s) = 2.47092 3.50230 3.03081
# Velocity P-wave (km/s) = 3.93752 5.63241 4.85943
#
# Compressibility (1/GPa) = 0.06191497
#
# Stress axis : x y z
#
# Youngs Moduli (GPa) = 25.98609 35.93906 41.36916
#
# Poissons Ratio (x) = 0.49869 0.17629
# Poissons Ratio (y) = 0.36058 -0.15948
# Poissons Ratio (z) = 0.11074 -0.13855
#
# Static dielectric constant tensor:
#      x y z
#    x 1.957820 -0.080480 0.078200 
#    y -0.080480 1.885640 -0.035410 
#    z 0.078200 -0.035410 1.832200 
# 
# From -- ./inp_files/338711.got.cif
#   From: 2010.05.17/outbox.cif.g08.bks.cpg/sg2_170_cif.got.tgz:338711.got - 2010.06.03 11:33:40.
