data_PCOD9008732
_publ_section_title
;
Structure prediction by ZEFSAII (Michael W. Deem and Ramdas Pophale) SiO2 
 PCOD9008732
Probable space group: P -1
;
_chemical_formula_sum "Si O2"
_cell_formula_units_Z 14
_cell_length_a 9.871722
_cell_length_b 19.212085
_cell_length_c 12.221847
_cell_angle_alpha 29.105316
_cell_angle_beta 145.098048
_cell_angle_gamma 122.155082
_cell_volume 483.284746
_symmetry_space_group_name_H-M "P -1"
_symmetry_group_IT_number 2
_symmetry_cell_setting 'triclinic'
loop_
_space_group_symop_operation_xyz
x,y,z
-x,-y,-z
loop_
_atom_site_type_symbol
_atom_site_label
_atom_site_fract_x
_atom_site_fract_y
_atom_site_fract_z
Si Si1 0.217835 0.687984 0.121079
Si Si2 0.080388 0.792867 0.653698
Si Si3 0.147986 0.733897 0.553993
Si Si4 0.708898 0.189621 0.670989
Si Si5 0.147414 0.240034 0.020529
Si Si6 0.386496 0.191917 0.028547
Si Si7 0.328072 0.281996 0.499156
O O1 0.500000 0.500000 0.500000
O O2 0.382949 0.757427 0.192039
O O3 0.003399 0.805079 0.715253
O O4 0.049726 0.655638 0.143583
O O5 0.305319 0.840843 0.751908
O O6 0.280331 0.645126 0.884010
O O7 0.758719 0.838028 0.343979
O O8 0.368877 0.704995 0.641476
O O9 0.912004 0.707763 0.386175
O O10 0.934733 0.961009 0.124818
O O11 0.431875 0.257992 0.475022
O O12 0.927499 0.217786 0.838018
O O13 0.264454 0.293465 0.926964
O O14 0.462937 0.027718 0.557951
O O15 0.000000 0.500000 0.000000
#
# Coordination Sequence:
#
# PCOD9008732 Si02
#       7
#     2   2   2   2   2   2   2
#     4  11  24  44  65  86 123 169 210 247 307 365
#     4  12  24  40  62  96 124 160 204 260 302 362
#     4  10  21  39  65  96 125 155 203 251 309 365
#     4   9  20  41  66  91 125 166 197 248 309 369
#     4   9  20  41  66  91 125 166 197 248 309 369
#     4  10  21  39  65  96 125 155 203 251 309 365
#     4  11  24  44  65  86 123 169 210 247 307 365
#
# _framework density 28.968429
#
# number of rings (size 3 to 8) (size 9 to 14) (size 15 to 20)
#    0.000    1.714    2.857    0.857    4.000    1.143 
#    0.000    1.429    0.000    0.000    0.000    0.000 
#    0.000    0.000    0.000    0.000    0.000    0.000 
#
# Total GULP energy -78100.073921 kJ/mol
# GULP energy per Si atom -5578.576709 kJ/mol
# Density = 2.890250 g / cm^3
# Si number density = 28.968429 Si / 1000 Ang^3
#
#
#
# Elastic Constant Matrix: (Units=GPa)
#
#
# Indices 1 2 3 4 5 6 
#
# 1 235.8416 68.5716 40.9070 6.2624 58.8103 -16.0466
# 2 68.5716 106.3838 14.6808 35.7808 4.3902 -9.4111
# 3 40.9070 14.6808 99.0423 -13.0965 23.8176 -6.8795
# 4 6.2624 35.7808 -13.0965 45.4856 -5.6331 3.1086
# 5 58.8103 4.3902 23.8176 -5.6331 54.9796 5.9321
# 6 -16.0466 -9.4111 -6.8795 3.1086 5.9321 66.9542
#
#
#
# Elastic Compliance Matrix: (Units=1/GPa)
#
#
# Indices 1 2 3 4 5 6 
#
# 1 0.007790 -0.005122 -0.000215 0.001806 -0.007833 0.001735
# 2 -0.005122 0.017710 -0.003180 -0.013742 0.003902 0.001227
# 3 -0.000215 -0.003180 0.012528 0.005520 -0.004478 0.000929
# 4 0.001806 -0.013742 0.005520 0.034383 0.000575 -0.002579
# 5 -0.007833 0.003902 -0.004478 0.000575 0.028725 -0.004361
# 6 0.001735 0.001227 0.000929 -0.002579 -0.004361 0.016125
#
#
# Mechanical properties :
#
#
# Convention : Reuss Voigt Hill
#
# Bulk Modulus (GPa) = 47.63355 76.62073 62.12714
# Shear Modulus (GPa) = 35.38706 54.62441 45.00573
#
# Velocity S-wave (km/s) = 3.49889 4.34712 3.94587
# Velocity P-wave (km/s) = 5.72730 7.19053 6.50022
#
# Compressibility (1/GPa) = 0.02099361
#
# Stress axis : x y z
#
# Youngs Moduli (GPa) = 128.36821 56.46511 79.81974
#
# Poissons Ratio (x) = 0.28923 0.01718
# Poissons Ratio (y) = 0.65755 0.25381
# Poissons Ratio (z) = 0.02763 0.17955
#
# Static dielectric constant tensor:
#      x y z
#    x 2.398720 -0.030110 -0.109990 
#    y -0.030110 2.275760 -0.099330 
#    z -0.109990 -0.099330 2.247680 
# 
# From -- ./inp_files/259800.got.cif
#   From: 2010.05.17/outbox.cif.g08.bks.cpg/sg2_130_cif.got.tgz:259800.got - 2010.06.03 11:33:40.
