data_PCOD9008024
_publ_section_title
;
Structure prediction by ZEFSAII (Michael W. Deem and Ramdas Pophale) SiO2 
 PCOD9008024
Probable space group: P -1
;
_chemical_formula_sum "Si O2"
_cell_formula_units_Z 16
_cell_length_a 7.955026
_cell_length_b 21.145586
_cell_length_c 14.878015
_cell_angle_alpha 16.871837
_cell_angle_beta 72.985006
_cell_angle_gamma 67.709490
_cell_volume 648.605706
_symmetry_space_group_name_H-M "P -1"
_symmetry_group_IT_number 2
_symmetry_cell_setting 'triclinic'
loop_
_space_group_symop_operation_xyz
x,y,z
-x,-y,-z
loop_
_atom_site_type_symbol
_atom_site_label
_atom_site_fract_x
_atom_site_fract_y
_atom_site_fract_z
Si Si1 0.207237 0.936641 0.516414
Si Si2 0.522381 0.725757 0.876702
Si Si3 0.751899 0.575747 0.198452
Si Si4 0.907620 0.671070 0.640225
Si Si5 0.606372 0.997988 0.132879
Si Si6 0.767596 0.805863 0.173971
Si Si7 0.846049 0.340772 0.240757
Si Si8 0.792431 0.363259 0.675023
O O1 0.335096 0.748998 0.822357
O O2 0.248234 0.820296 0.570904
O O3 0.000000 0.000000 0.500000
O O4 0.234434 0.179714 0.164877
O O5 0.500000 0.000000 0.500000
O O6 0.562065 0.605005 0.132482
O O7 0.699611 0.558086 0.020428
O O8 0.757408 0.521674 0.374831
O O9 0.936569 0.383583 0.387383
O O10 0.980597 0.801668 0.528875
O O11 0.702820 0.793324 0.466643
O O12 0.920077 0.443895 0.003585
O O13 0.708724 0.919693 0.126541
O O14 0.391059 0.049120 0.070012
O O15 0.667930 0.203674 0.888661
O O16 0.756564 0.546530 0.513909
O O17 0.983135 0.781825 0.157857
#
# Coordination Sequence:
#
# PCOD9008024 Si02
#       8
#     2   2   2   2   2   2   2   2
#     4  11  21  39  61  92 129 164 213 265 313 381
#     4   9  21  39  61  86 128 165 204 259 314 381
#     4  10  21  41  61  90 128 165 207 261 325 377
#     4  10  21  39  64  91 127 166 207 261 322 382
#     4  11  23  45  67  95 136 172 216 276 332 380
#     4  10  24  42  67  97 130 170 229 266 319 407
#     4  10  21  39  63  94 125 166 214 255 318 388
#     4  11  23  45  68  95 136 171 217 278 329 385
#
# _framework density 24.668299000000001
#
# number of rings (size 3 to 8) (size 9 to 14) (size 15 to 20)
#    0.000    1.750    2.500    1.125    1.750    4.000 
#    9.000    0.000    0.000    0.000    0.000    0.000 
#    0.000    0.000    0.000    0.000    0.000    0.000 
#
# Total GULP energy -89291.883624 kJ/mol
# GULP energy per Si atom -5580.742727 kJ/mol
# Density = 2.461215 g / cm^3
# Si number density = 24.668299 Si / 1000 Ang^3
#
#
#
# Elastic Constant Matrix: (Units=GPa)
#
#
# Indices 1 2 3 4 5 6 
#
# 1 125.5164 28.4105 49.7659 14.6825 51.5341 18.9240
# 2 28.4105 72.8253 30.4674 -11.2653 4.5815 12.5604
# 3 49.7659 30.4674 79.0625 13.5335 28.8649 11.8585
# 4 14.6825 -11.2653 13.5335 31.9777 8.0043 1.3634
# 5 51.5341 4.5815 28.8649 8.0043 53.5510 9.2759
# 6 18.9240 12.5604 11.8585 1.3634 9.2759 34.6296
#
#
#
# Elastic Compliance Matrix: (Units=1/GPa)
#
#
# Indices 1 2 3 4 5 6 
#
# 1 0.016194 -0.004730 -0.002542 -0.004749 -0.012633 -0.002693
# 2 -0.004730 0.021666 -0.009220 0.012242 0.006594 -0.004365
# 3 -0.002542 -0.009220 0.022151 -0.009638 -0.007169 -0.000553
# 4 -0.004749 0.012242 -0.009638 0.041203 0.002714 -0.000894
# 5 -0.012633 0.006594 -0.007169 0.002714 0.034120 -0.002280
# 6 -0.002693 -0.004365 -0.000553 -0.000894 -0.002280 0.032767
#
#
# Mechanical properties :
#
#
# Convention : Reuss Voigt Hill
#
# Bulk Modulus (GPa) = 36.99947 54.96576 45.98262
# Shear Modulus (GPa) = 23.79919 35.28236 29.54077
#
# Velocity S-wave (km/s) = 3.10944 3.78600 3.46427
# Velocity P-wave (km/s) = 5.28421 6.43755 5.88918
#
# Compressibility (1/GPa) = 0.02702741
#
# Stress axis : x y z
#
# Youngs Moduli (GPa) = 61.75301 46.15609 45.14466
#
# Poissons Ratio (x) = 0.21830 0.11474
# Poissons Ratio (y) = 0.29206 0.41624
# Poissons Ratio (z) = 0.15695 0.42557
#
# Static dielectric constant tensor:
#      x y z
#    x 2.110470 0.105610 -0.030160 
#    y 0.105610 2.000690 -0.054650 
#    z -0.030160 -0.054650 1.969550 
# 
# From -- ./inp_files/507815.got.cif
#   From: 2010.05.17/outbox.cif.g08.bks.cpg/sg2_254_cif.got.tgz:507815.got - 2010.06.03 11:33:40.
