data_PCOD9008580
_publ_section_title
;
Structure prediction by ZEFSAII (Michael W. Deem and Ramdas Pophale) SiO2 
 PCOD9008580
Probable space group: P -1
;
_chemical_formula_sum "Si O2"
_cell_formula_units_Z 16
_cell_length_a 10.613801
_cell_length_b 13.000262
_cell_length_c 6.400620
_cell_angle_alpha 111.884033
_cell_angle_beta 119.367015
_cell_angle_gamma 88.777630
_cell_volume 699.838860
_symmetry_space_group_name_H-M "P -1"
_symmetry_group_IT_number 2
_symmetry_cell_setting 'triclinic'
loop_
_space_group_symop_operation_xyz
x,y,z
-x,-y,-z
loop_
_atom_site_type_symbol
_atom_site_label
_atom_site_fract_x
_atom_site_fract_y
_atom_site_fract_z
Si Si1 0.804907 0.355851 0.749703
Si Si2 0.484045 0.381582 0.515001
Si Si3 0.062010 0.439649 0.696358
Si Si4 0.084717 0.204281 0.464608
Si Si5 0.503282 0.259771 0.830321
Si Si6 0.702456 0.925548 0.714227
Si Si7 0.211758 0.814937 0.036376
Si Si8 0.275643 0.200072 0.977263
O O1 0.632120 0.335495 0.535055
O O2 0.922222 0.382029 0.680119
O O3 0.835879 0.468599 0.005978
O O4 0.836609 0.254263 0.843437
O O5 0.500000 0.500000 0.500000
O O6 0.490550 0.368612 0.762415
O O7 0.328241 0.304827 0.256473
O O8 0.138930 0.340299 0.599608
O O9 0.000000 0.500000 0.500000
O O10 0.171210 0.129720 0.335216
O O11 0.920614 0.183872 0.229406
O O12 0.120816 0.180933 0.716991
O O13 0.446645 0.154494 0.547276
O O14 0.668880 0.251873 0.011760
O O15 0.395826 0.233042 0.917379
O O16 0.712833 0.908181 0.957585
O O17 0.720120 0.054639 0.766170
#
# Coordination Sequence:
#
# PCOD9008580 Si02
#       8
#     2   2   2   2   2   2   2   2
#     4  10  24  40  65  96 127 167 210 265 319 371
#     4  10  21  39  65  91 124 165 212 259 314 381
#     4  11  23  42  62  93 130 164 205 263 323 377
#     4  11  24  40  64  93 127 170 212 261 314 380
#     4   9  22  42  63  93 124 166 212 261 320 372
#     4  10  23  44  63  91 131 171 211 262 317 373
#     4  11  22  43  65  94 130 164 217 266 310 378
#     4  10  23  41  61  91 130 166 211 260 320 372
#
# _framework density 22.862404999999999
#
# number of rings (size 3 to 8) (size 9 to 14) (size 15 to 20)
#    0.000    1.750    1.250    1.500    3.500    4.500 
#    4.500    0.000    0.000    0.000    0.000    0.000 
#    0.000    0.000    0.000    0.000    0.000    0.000 
#
# Total GULP energy -89352.869360 kJ/mol
# GULP energy per Si atom -5584.554335 kJ/mol
# Density = 2.281037 g / cm^3
# Si number density = 22.862405 Si / 1000 Ang^3
#
#
#
# Elastic Constant Matrix: (Units=GPa)
#
#
# Indices 1 2 3 4 5 6 
#
# 1 52.3616 0.0013 22.1892 -11.6052 2.1126 -6.7977
# 2 0.0013 104.9338 15.9742 -2.2465 -15.9560 7.1509
# 3 22.1892 15.9742 81.8370 -21.1829 14.5143 -5.9012
# 4 -11.6052 -2.2465 -21.1829 25.0715 -1.6995 5.5733
# 5 2.1126 -15.9560 14.5143 -1.6995 40.4210 -3.2817
# 6 -6.7977 7.1509 -5.9012 5.5733 -3.2817 30.0176
#
#
#
# Elastic Compliance Matrix: (Units=1/GPa)
#
#
# Indices 1 2 3 4 5 6 
#
# 1 0.022809 0.000866 -0.004835 0.005966 0.001384 0.003052
# 2 0.000866 0.011077 -0.003766 -0.000880 0.005446 -0.002424
# 3 -0.004835 -0.003766 0.018939 0.012848 -0.007468 0.000324
# 4 0.005966 -0.000880 0.012848 0.054618 -0.003499 -0.006437
# 5 0.001384 0.005446 -0.007468 -0.003499 0.029467 0.001419
# 6 0.003052 -0.002424 0.000324 -0.006437 0.001419 0.035996
#
#
# Mechanical properties :
#
#
# Convention : Reuss Voigt Hill
#
# Bulk Modulus (GPa) = 26.76867 35.05129 30.90998
# Shear Modulus (GPa) = 24.89706 32.49988 28.69847
#
# Velocity S-wave (km/s) = 3.30357 3.77443 3.54682
# Velocity P-wave (km/s) = 5.12694 5.86172 5.50660
#
# Compressibility (1/GPa) = 0.03735711
#
# Stress axis : x y z
#
# Youngs Moduli (GPa) = 43.84152 90.27320 52.80207
#
# Poissons Ratio (x) = -0.07817 0.25528
# Poissons Ratio (y) = -0.03796 0.19883
# Poissons Ratio (z) = 0.21196 0.33992
#
# Static dielectric constant tensor:
#      x y z
#    x 1.874550 -0.001960 0.015160 
#    y -0.001960 1.847510 -0.004610 
#    z 0.015160 -0.004610 1.909560 
# 
# From -- ./inp_files/71510.got.cif
#   From: 2010.05.17/outbox.cif.g08.bks.cpg/sg2_36_cif.got.tgz:71510.got - 2010.06.03 11:33:40.
