data_PCOD9008426
_publ_section_title
;
Structure prediction by ZEFSAII (Michael W. Deem and Ramdas Pophale) SiO2 
 PCOD9008426
Probable space group: P -1
;
_chemical_formula_sum "Si O2"
_cell_formula_units_Z 14
_cell_length_a 5.458333
_cell_length_b 13.751689
_cell_length_c 19.635956
_cell_angle_alpha 149.638411
_cell_angle_beta 55.749754
_cell_angle_gamma 115.127229
_cell_volume 609.203281
_symmetry_space_group_name_H-M "P -1"
_symmetry_group_IT_number 2
_symmetry_cell_setting 'triclinic'
loop_
_space_group_symop_operation_xyz
x,y,z
-x,-y,-z
loop_
_atom_site_type_symbol
_atom_site_label
_atom_site_fract_x
_atom_site_fract_y
_atom_site_fract_z
Si Si1 0.228608 0.863239 0.041747
Si Si2 0.166217 0.324440 0.196409
Si Si3 0.744857 0.221177 0.291722
Si Si4 0.851896 0.970489 0.708071
Si Si5 0.144977 0.087694 0.596274
Si Si6 0.675827 0.397075 0.545267
Si Si7 0.914745 0.531276 0.242355
O O1 0.140713 0.675282 0.904244
O O2 0.582555 0.855082 0.968326
O O3 0.030272 0.058626 0.165091
O O4 0.164767 0.862118 0.131369
O O5 0.830045 0.281654 0.238794
O O6 0.177898 0.472735 0.221020
O O7 0.243245 0.425767 0.315577
O O8 0.458258 0.115960 0.286958
O O9 0.291692 0.603161 0.541300
O O10 0.104072 0.793463 0.581946
O O11 0.947838 0.041306 0.663340
O O12 0.088658 0.317000 0.726175
O O13 0.500000 0.000000 0.500000
O O14 0.000000 0.000000 0.500000
O O15 0.349757 0.372185 0.608087
#
# Coordination Sequence:
#
# PCOD9008426 Si02
#       7
#     2   2   2   2   2   2   2
#     4  10  25  43  64  94 140 181 229 280 346 420
#     4  11  23  41  65  98 137 182 228 283 345 415
#     4  11  23  41  65  98 137 182 228 283 345 415
#     4  11  24  43  68  99 136 176 233 283 348 415
#     4  12  26  47  79 107 139 183 232 297 359 419
#     4  10  21  39  64  96 134 173 229 284 342 410
#     4  11  24  43  68  99 136 176 233 283 348 415
#
# _framework density 22.980834999999999
#
# number of rings (size 3 to 8) (size 9 to 14) (size 15 to 20)
#    0.000    1.143    1.429    4.286    4.000    9.714 
#    0.000    2.857    0.000    0.000    0.000    0.000 
#    0.000    0.000    0.000    0.000    0.000    0.000 
#
# Total GULP energy -78235.249898 kJ/mol
# GULP energy per Si atom -5588.232136 kJ/mol
# Density = 2.292853 g / cm^3
# Si number density = 22.980835 Si / 1000 Ang^3
#
#
#
# Elastic Constant Matrix: (Units=GPa)
#
#
# Indices 1 2 3 4 5 6 
#
# 1 83.0667 26.5656 38.2748 -5.4050 -10.0294 -13.5781
# 2 26.5656 134.5580 34.9099 -17.2947 -1.8896 -21.6224
# 3 38.2748 34.9099 143.4445 -17.7741 -2.3552 -6.4596
# 4 -5.4050 -17.2947 -17.7741 37.1865 -0.7375 3.5126
# 5 -10.0294 -1.8896 -2.3552 -0.7375 45.1175 -2.3017
# 6 -13.5781 -21.6224 -6.4596 3.5126 -2.3017 26.9873
#
#
#
# Elastic Compliance Matrix: (Units=1/GPa)
#
#
# Indices 1 2 3 4 5 6 
#
# 1 0.015483 -0.001116 -0.003577 -0.000513 0.003527 0.006408
# 2 -0.001116 0.009399 -0.001329 0.002988 0.000447 0.006301
# 3 -0.003577 -0.001329 0.008566 0.003066 -0.000417 -0.001248
# 4 -0.000513 0.002988 0.003066 0.029774 0.000609 -0.000954
# 5 0.003527 0.000447 -0.000417 0.000609 0.023156 0.003928
# 6 0.006408 0.006301 -0.001248 -0.000954 0.003928 0.045487
#
#
# Mechanical properties :
#
#
# Convention : Reuss Voigt Hill
#
# Bulk Modulus (GPa) = 46.71491 62.28553 54.50022
# Shear Modulus (GPa) = 33.10303 39.27951 36.19127
#
# Velocity S-wave (km/s) = 3.79946 4.13877 3.97274
# Velocity P-wave (km/s) = 6.29442 7.07116 6.69407
#
# Compressibility (1/GPa) = 0.02140644
#
# Stress axis : x y z
#
# Youngs Moduli (GPa) = 64.58559 106.38874 116.74116
#
# Poissons Ratio (x) = 0.11869 0.41758
# Poissons Ratio (y) = 0.07205 0.15510
# Poissons Ratio (z) = 0.23102 0.14134
#
# Static dielectric constant tensor:
#      x y z
#    x 2.011650 0.003990 0.024460 
#    y 0.003990 1.909130 0.012480 
#    z 0.024460 0.012480 1.818100 
# 
# From -- ./inp_files/364379.got.cif
#   From: 2010.05.17/outbox.cif.g08.bks.cpg/sg2_183_cif.got.tgz:364379.got - 2010.06.03 11:33:40.
