data_PCOD9008675
_publ_section_title
;
Structure prediction by ZEFSAII (Michael W. Deem and Ramdas Pophale) SiO2 
 PCOD9008675
Probable space group: P -1
;
_chemical_formula_sum "Si O2"
_cell_formula_units_Z 16
_cell_length_a 14.147653
_cell_length_b 6.968063
_cell_length_c 11.590481
_cell_angle_alpha 104.081521
_cell_angle_beta 40.755677
_cell_angle_gamma 119.168178
_cell_volume 635.265292
_symmetry_space_group_name_H-M "P -1"
_symmetry_group_IT_number 2
_symmetry_cell_setting 'triclinic'
loop_
_space_group_symop_operation_xyz
x,y,z
-x,-y,-z
loop_
_atom_site_type_symbol
_atom_site_label
_atom_site_fract_x
_atom_site_fract_y
_atom_site_fract_z
Si Si1 0.044451 0.908524 0.090233
Si Si2 0.313598 0.645767 0.599881
Si Si3 0.979255 0.660863 0.894459
Si Si4 0.666280 0.691821 0.612643
Si Si5 0.675483 0.503894 0.818431
Si Si6 0.396862 0.987896 0.765054
Si Si7 0.000403 0.045400 0.372596
Si Si8 0.346838 0.723862 0.977793
O O1 0.031237 0.879305 0.235335
O O2 0.991977 0.099810 0.146323
O O3 0.235427 0.013157 0.894544
O O4 0.954508 0.695614 0.058622
O O5 0.320811 0.417951 0.534803
O O6 0.366686 0.761177 0.692765
O O7 0.142053 0.638705 0.726504
O O8 0.448032 0.818071 0.410834
O O9 0.824481 0.456778 0.948433
O O10 0.704455 0.560485 0.663259
O O11 0.488727 0.662433 0.800204
O O12 0.805018 0.955313 0.520048
O O13 0.839239 0.711949 0.754896
O O14 0.500000 0.500000 0.000000
O O15 0.665025 0.297066 0.875421
O O16 0.400494 0.956367 0.894106
O O17 0.000000 0.000000 0.500000
#
# Coordination Sequence:
#
# PCOD9008675 Si02
#       8
#     2   2   2   2   2   2   2   2
#     4  10  21  40  64  88 122 170 205 252 320 359
#     4  10  23  43  58  94 129 163 209 260 309 365
#     4  10  22  38  65  88 125 163 210 258 309 373
#     4  10  23  40  67  89 125 169 205 259 316 363
#     4   9  20  41  64  91 123 161 210 258 306 372
#     4  10  24  39  62  90 132 164 207 259 307 376
#     4  10  21  39  65  94 120 165 210 255 309 371
#     4  11  22  39  62  94 124 168 206 256 311 373
#
# _framework density 25.186329000000001
#
# number of rings (size 3 to 8) (size 9 to 14) (size 15 to 20)
#    0.000    2.000    1.250    0.750    7.000    2.500 
#    0.000    2.500    0.000    0.000    0.000    0.000 
#    0.000    0.000    0.000    0.000    0.000    0.000 
#
# Total GULP energy -89326.452197 kJ/mol
# GULP energy per Si atom -5582.903262 kJ/mol
# Density = 2.512900 g / cm^3
# Si number density = 25.186329 Si / 1000 Ang^3
#
#
#
# Elastic Constant Matrix: (Units=GPa)
#
#
# Indices 1 2 3 4 5 6 
#
# 1 94.6621 21.1209 36.1385 -11.5044 7.9789 7.6300
# 2 21.1209 55.9305 12.3046 -5.8352 -5.6367 13.5339
# 3 36.1385 12.3046 107.5990 -13.6993 4.9416 11.7058
# 4 -11.5044 -5.8352 -13.6993 38.2807 -0.6562 1.6951
# 5 7.9789 -5.6367 4.9416 -0.6562 44.2756 -8.3422
# 6 7.6300 13.5339 11.7058 1.6951 -8.3422 45.2517
#
#
#
# Elastic Compliance Matrix: (Units=1/GPa)
#
#
# Indices 1 2 3 4 5 6 
#
# 1 0.013380 -0.004158 -0.003559 0.002098 -0.002636 -0.000656
# 2 -0.004158 0.021254 -0.000313 0.002152 0.002545 -0.005186
# 3 -0.003559 -0.000313 0.011230 0.002995 -0.001083 -0.002523
# 4 0.002098 0.002152 0.002995 0.028273 -0.000573 -0.002937
# 5 -0.002636 0.002545 -0.001083 -0.000573 0.024340 0.004472
# 6 -0.000656 -0.005186 -0.002523 -0.002937 0.004472 0.025348
#
#
# Mechanical properties :
#
#
# Convention : Reuss Voigt Hill
#
# Bulk Modulus (GPa) = 33.55056 44.14662 38.84859
# Shear Modulus (GPa) = 33.37349 38.13677 35.75513
#
# Velocity S-wave (km/s) = 3.64409 3.89547 3.77188
# Velocity P-wave (km/s) = 5.57277 6.14809 5.86748
#
# Compressibility (1/GPa) = 0.02980576
#
# Stress axis : x y z
#
# Youngs Moduli (GPa) = 74.73702 47.04973 89.04406
#
# Poissons Ratio (x) = 0.19562 0.31690
# Poissons Ratio (y) = 0.31074 0.02785
# Poissons Ratio (z) = 0.26598 0.01472
#
# Static dielectric constant tensor:
#      x y z
#    x 2.076400 -0.008590 0.065720 
#    y -0.008590 2.078550 -0.052920 
#    z 0.065720 -0.052920 2.013860 
# 
# From -- ./inp_files/203803.got.cif
#   From: 2010.05.17/outbox.cif.g08.bks.cpg/sg2_102_cif.got.tgz:203803.got - 2010.06.03 11:33:40.
