data_PCOD9008621
_publ_section_title
;
Structure prediction by ZEFSAII (Michael W. Deem and Ramdas Pophale) SiO2 
 PCOD9008621
Probable space group: P -1
;
_chemical_formula_sum "Si O2"
_cell_formula_units_Z 16
_cell_length_a 8.902320
_cell_length_b 18.177334
_cell_length_c 9.275080
_cell_angle_alpha 141.124981
_cell_angle_beta 105.443099
_cell_angle_gamma 56.802406
_cell_volume 750.792097
_symmetry_space_group_name_H-M "P -1"
_symmetry_group_IT_number 2
_symmetry_cell_setting 'triclinic'
loop_
_space_group_symop_operation_xyz
x,y,z
-x,-y,-z
loop_
_atom_site_type_symbol
_atom_site_label
_atom_site_fract_x
_atom_site_fract_y
_atom_site_fract_z
Si Si1 0.918189 0.142031 0.099214
Si Si2 0.403070 0.561456 0.414842
Si Si3 0.344415 0.494752 0.864067
Si Si4 0.918530 0.402936 0.811519
Si Si5 0.271705 0.088050 0.402059
Si Si6 0.183703 0.921383 0.327412
Si Si7 0.472138 0.807611 0.455468
Si Si8 0.681565 0.003932 0.028587
O O1 0.748271 0.271777 0.339949
O O2 0.852191 0.134868 0.912509
O O3 0.000000 0.000000 0.000000
O O4 0.109061 0.137400 0.113657
O O5 0.500000 0.500000 0.500000
O O6 0.583930 0.516400 0.294770
O O7 0.262710 0.530103 0.242731
O O8 0.371304 0.346862 0.683648
O O9 0.500000 0.500000 0.000000
O O10 0.150094 0.609830 0.065892
O O11 0.079920 0.242874 0.563156
O O12 0.000000 0.500000 0.000000
O O13 0.432767 0.117754 0.474679
O O14 0.241996 0.025572 0.442651
O O15 0.322322 0.975967 0.114424
O O16 0.348291 0.803595 0.291688
O O17 0.000000 0.000000 0.500000
O O18 0.344083 0.890928 0.689994
O O19 0.500000 0.000000 0.000000
#
# Coordination Sequence:
#
# PCOD9008621 Si02
#       8
#     2   2   2   2   2   2   2   2
#     4  12  22  42  67  95 133 177 223 276 337 404
#     4  11  26  43  67 100 139 176 227 282 340 402
#     4  10  24  41  68  94 131 176 223 267 336 403
#     4  11  22  44  72  94 129 182 230 268 336 412
#     4  11  23  43  66  94 133 175 221 271 339 403
#     4  12  26  36  65 101 132 165 220 280 330 389
#     4  11  23  43  65  99 133 172 221 275 340 393
#     4  10  21  39  65  92 126 172 216 269 330 398
#
# _framework density 21.310825000000001
#
# number of rings (size 3 to 8) (size 9 to 14) (size 15 to 20)
#    0.000    1.000    5.000    1.125    7.000    0.000 
#    0.000    0.625    0.000    0.000    0.000    0.000 
#    0.000    0.000    0.000    0.000    0.000    0.000 
#
# Total GULP energy -89099.555873 kJ/mol
# GULP energy per Si atom -5568.722242 kJ/mol
# Density = 2.126232 g / cm^3
# Si number density = 21.310825 Si / 1000 Ang^3
#
#
#
# Elastic Constant Matrix: (Units=GPa)
#
#
# Indices 1 2 3 4 5 6 
#
# 1 118.0333 39.4244 38.9910 -20.8679 -20.0625 10.3144
# 2 39.4244 101.1601 37.4456 -25.4949 -5.1177 -0.0418
# 3 38.9910 37.4456 112.3540 -21.9535 -24.8187 6.1629
# 4 -20.8679 -25.4949 -21.9535 38.1543 2.7687 -3.8028
# 5 -20.0625 -5.1177 -24.8187 2.7687 42.7787 -6.9539
# 6 10.3144 -0.0418 6.1629 -3.8028 -6.9539 36.0530
#
#
#
# Elastic Compliance Matrix: (Units=1/GPa)
#
#
# Indices 1 2 3 4 5 6 
#
# 1 0.011219 -0.002925 -0.001461 0.002886 0.003557 -0.001973
# 2 -0.002925 0.013498 -0.002695 0.006142 -0.001445 0.001682
# 3 -0.001461 -0.002695 0.012421 0.004105 0.005911 -0.000135
# 4 0.002886 0.006142 0.004105 0.034320 0.002674 0.002615
# 5 0.003557 -0.001445 0.005911 0.002674 0.028745 0.003797
# 6 -0.001973 0.001682 -0.000135 0.002615 0.003797 0.029335
#
#
# Mechanical properties :
#
#
# Convention : Reuss Voigt Hill
#
# Bulk Modulus (GPa) = 43.52261 62.58549 53.05405
# Shear Modulus (GPa) = 33.03430 37.77630 35.40530
#
# Velocity S-wave (km/s) = 3.94143 4.21483 4.08042
# Velocity P-wave (km/s) = 6.41718 7.28822 6.86653
#
# Compressibility (1/GPa) = 0.02297656
#
# Stress axis : x y z
#
# Youngs Moduli (GPa) = 89.13516 74.08321 80.51082
#
# Poissons Ratio (x) = 0.21670 0.11760
# Poissons Ratio (y) = 0.26072 0.21697
# Poissons Ratio (z) = 0.13020 0.19965
#
# Static dielectric constant tensor:
#      x y z
#    x 1.896860 0.001230 0.012580 
#    y 0.001230 1.779370 -0.018080 
#    z 0.012580 -0.018080 1.870360 
# 
# From -- ./inp_files/218921.got.cif
#   From: 2010.05.17/outbox.cif.g08.bks.cpg/sg2_110_cif.got.tgz:218921.got - 2010.06.03 11:33:40.
