data_PCOD9008581
_publ_section_title
;
Structure prediction by ZEFSAII (Michael W. Deem and Ramdas Pophale) SiO2 
 PCOD9008581
Probable space group: P -1
;
_chemical_formula_sum "Si O2"
_cell_formula_units_Z 16
_cell_length_a 14.315813
_cell_length_b 9.754587
_cell_length_c 7.878956
_cell_angle_alpha 48.153368
_cell_angle_beta 58.004094
_cell_angle_gamma 52.925379
_cell_volume 638.666920
_symmetry_space_group_name_H-M "P -1"
_symmetry_group_IT_number 2
_symmetry_cell_setting 'triclinic'
loop_
_space_group_symop_operation_xyz
x,y,z
-x,-y,-z
loop_
_atom_site_type_symbol
_atom_site_label
_atom_site_fract_x
_atom_site_fract_y
_atom_site_fract_z
Si Si1 0.710408 0.586457 0.546005
Si Si2 0.923090 0.592769 0.161383
Si Si3 0.403951 0.138957 0.110599
Si Si4 0.341743 0.988859 0.634293
Si Si5 0.899661 0.996199 0.309962
Si Si6 0.581753 0.305869 0.891235
Si Si7 0.210228 0.049640 0.204152
Si Si8 0.909290 0.343769 0.805187
O O1 0.815444 0.522262 0.357684
O O2 0.661172 0.824096 0.406572
O O3 0.608725 0.502680 0.692268
O O4 0.785828 0.497307 0.719088
O O5 0.006894 0.555629 0.275524
O O6 0.863775 0.829983 0.983648
O O7 0.000000 0.500000 0.000000
O O8 0.406892 0.009939 0.382084
O O9 0.274741 0.186229 0.113828
O O10 0.451833 0.311571 0.962575
O O11 0.500000 0.000000 0.000000
O O12 0.208279 0.029026 0.668693
O O13 0.390960 0.794231 0.865382
O O14 0.872716 0.982001 0.545090
O O15 0.020786 0.823454 0.266056
O O16 0.890314 0.213625 0.084662
O O17 0.683720 0.150630 0.798173
#
# Coordination Sequence:
#
# PCOD9008581 Si02
#       8
#     2   2   2   2   2   2   2   2
#     4  12  25  40  66  97 132 170 218 266 316 383
#     4  12  26  40  62  96 136 174 213 268 318 378
#     4   9  22  42  73  92 125 172 210 270 332 378
#     4  11  21  43  68  93 131 165 214 270 319 387
#     4  10  21  39  65  91 124 180 210 268 315 384
#     4  11  22  44  66  98 126 168 221 263 327 384
#     4  10  22  42  65  92 132 168 217 264 328 378
#     4  11  23  40  61  92 132 171 223 254 324 379
#
# _framework density 25.052181000000001
#
# number of rings (size 3 to 8) (size 9 to 14) (size 15 to 20)
#    0.000    1.250    3.750    1.500    7.000    1.000 
#    0.000    0.625    0.000    0.000    0.000    0.000 
#    0.000    0.000    0.000    0.000    0.000    0.000 
#
# Total GULP energy -89638.296907 kJ/mol
# GULP energy per Si atom -5602.393557 kJ/mol
# Density = 2.499516 g / cm^3
# Si number density = 25.052181 Si / 1000 Ang^3
#
#
#
# Elastic Constant Matrix: (Units=GPa)
#
#
# Indices 1 2 3 4 5 6 
#
# 1 82.3055 3.7211 25.2029 4.2547 -12.7594 -1.2720
# 2 3.7211 58.3168 25.0190 21.3225 -2.6422 2.6732
# 3 25.2029 25.0190 156.2256 26.7689 -14.1529 11.6179
# 4 4.2547 21.3225 26.7689 44.1215 10.0103 2.3906
# 5 -12.7594 -2.6422 -14.1529 10.0103 41.5963 -1.6949
# 6 -1.2720 2.6732 11.6179 2.3906 -1.6949 27.1165
#
#
#
# Elastic Compliance Matrix: (Units=1/GPa)
#
#
# Indices 1 2 3 4 5 6 
#
# 1 0.013382 0.000543 -0.001760 -0.001477 0.003965 0.001706
# 2 0.000543 0.021735 -0.001421 -0.010485 0.003572 -0.000361
# 3 -0.001760 -0.001421 0.008217 -0.004696 0.003179 -0.002850
# 4 -0.001477 -0.010485 -0.004696 0.033191 -0.010729 -0.000621
# 5 0.003965 0.003572 0.003179 -0.010729 0.029198 0.001243
# 6 0.001706 -0.000361 -0.002850 -0.000621 0.001243 0.038347
#
#
# Mechanical properties :
#
#
# Convention : Reuss Voigt Hill
#
# Bulk Modulus (GPa) = 26.27725 44.97043 35.62384
# Shear Modulus (GPa) = 30.85786 38.76051 34.80919
#
# Velocity S-wave (km/s) = 3.51343 3.93770 3.73160
# Velocity P-wave (km/s) = 5.19333 6.21801 5.72863
#
# Compressibility (1/GPa) = 0.03805574
#
# Stress axis : x y z
#
# Youngs Moduli (GPa) = 74.72849 46.00925 121.69548
#
# Poissons Ratio (x) = -0.02497 0.21423
# Poissons Ratio (y) = -0.04056 0.17298
# Poissons Ratio (z) = 0.13155 0.06540
#
# Static dielectric constant tensor:
#      x y z
#    x 2.000620 0.003950 -0.029320 
#    y 0.003950 1.995050 0.016530 
#    z -0.029320 0.016530 1.962730 
# 
# From -- ./inp_files/270577.got.cif
#   From: 2010.05.17/outbox.cif.g08.bks.cpg/sg2_136_cif.got.tgz:270577.got - 2010.06.03 11:33:40.
