data_PCOD9008584
_publ_section_title
;
Structure prediction by ZEFSAII (Michael W. Deem and Ramdas Pophale) SiO2 
 PCOD9008584
Probable space group: P -1
;
_chemical_formula_sum "Si O2"
_cell_formula_units_Z 16
_cell_length_a 20.292587
_cell_length_b 9.234234
_cell_length_c 23.896427
_cell_angle_alpha 27.490597
_cell_angle_beta 159.596817
_cell_angle_gamma 150.462022
_cell_volume 699.572952
_symmetry_space_group_name_H-M "P -1"
_symmetry_group_IT_number 2
_symmetry_cell_setting 'triclinic'
loop_
_space_group_symop_operation_xyz
x,y,z
-x,-y,-z
loop_
_atom_site_type_symbol
_atom_site_label
_atom_site_fract_x
_atom_site_fract_y
_atom_site_fract_z
Si Si1 0.019352 0.785121 0.642258
Si Si2 0.288158 0.100110 0.934582
Si Si3 0.954054 0.110265 0.591714
Si Si4 0.911420 0.740951 0.884275
Si Si5 0.324029 0.775606 0.471925
Si Si6 0.444973 0.821988 0.776695
Si Si7 0.758210 0.704105 0.992581
Si Si8 0.366930 0.548914 0.135559
O O1 0.826181 0.487854 0.594336
O O2 0.186889 0.596743 0.829651
O O3 0.043055 0.994300 0.645859
O O4 0.000000 0.000000 0.500000
O O5 0.338818 0.485689 0.836723
O O6 0.061739 0.993599 0.770761
O O7 0.380407 0.031901 0.090835
O O8 0.398009 0.932253 0.033243
O O9 0.721265 0.997877 0.434489
O O10 0.000000 0.500000 0.500000
O O11 0.755617 0.562825 0.867151
O O12 0.799501 0.989301 0.680088
O O13 0.086156 0.973876 0.977136
O O14 0.000000 0.500000 0.000000
O O15 0.434063 0.565713 0.669193
O O16 0.500000 0.000000 0.500000
O O17 0.549548 0.742607 0.831800
O O18 0.762830 0.616647 0.961799
#
# Coordination Sequence:
#
# PCOD9008584 Si02
#       8
#     2   2   2   2   2   2   2   2
#     4  11  24  40  66  97 137 177 223 279 342 403
#     4  10  21  39  65  91 126 179 211 276 327 391
#     4  10  22  42  60  95 133 178 221 271 333 404
#     4  10  22  44  67  92 125 171 216 273 337 399
#     4   9  22  42  67  95 128 176 226 273 339 411
#     4  10  23  39  61  91 136 168 223 263 336 398
#     4  11  24  41  62  98 128 167 218 274 334 401
#     4  11  21  41  66  90 128 167 220 269 330 394
#
# _framework density 22.871095
#
# number of rings (size 3 to 8) (size 9 to 14) (size 15 to 20)
#    0.000    1.750    1.250    1.875    7.000    3.500 
#    4.500    0.625    0.000    0.000    0.000    0.000 
#    0.000    0.000    0.000    0.000    0.000    0.000 
#
# Total GULP energy -89243.013734 kJ/mol
# GULP energy per Si atom -5577.688358 kJ/mol
# Density = 2.281904 g / cm^3
# Si number density = 22.871095 Si / 1000 Ang^3
#
#
#
# Elastic Constant Matrix: (Units=GPa)
#
#
# Indices 1 2 3 4 5 6 
#
# 1 78.6320 38.8625 30.2166 6.2470 6.4752 -26.9167
# 2 38.8625 83.6948 29.2433 0.8320 -3.1384 -28.9546
# 3 30.2166 29.2433 161.3476 4.0154 0.3255 -21.9988
# 4 6.2470 0.8320 4.0154 28.8817 -8.8874 10.2435
# 5 6.4752 -3.1384 0.3255 -8.8874 23.7156 2.6702
# 6 -26.9167 -28.9546 -21.9988 10.2435 2.6702 37.0324
#
#
#
# Elastic Compliance Matrix: (Units=1/GPa)
#
#
# Indices 1 2 3 4 5 6 
#
# 1 0.024795 -0.004922 -0.000612 -0.017044 -0.016016 0.019679
# 2 -0.004922 0.018410 -0.000854 -0.002768 0.001520 0.010966
# 3 -0.000612 -0.000854 0.007074 -0.002683 -0.001492 0.003940
# 4 -0.017044 -0.002768 -0.002683 0.060815 0.031079 -0.035210
# 5 -0.016016 0.001520 -0.001492 0.031079 0.061149 -0.024345
# 6 0.019679 0.010966 0.003940 -0.035210 -0.024345 0.063716
#
#
# Mechanical properties :
#
#
# Convention : Reuss Voigt Hill
#
# Bulk Modulus (GPa) = 26.66452 57.81325 42.23889
# Shear Modulus (GPa) = 19.13981 32.94940 26.04460
#
# Velocity S-wave (km/s) = 2.89598 3.79972 3.37821
# Velocity P-wave (km/s) = 4.78186 6.67707 5.80730
#
# Compressibility (1/GPa) = 0.03750302
#
# Stress axis : x y z
#
# Youngs Moduli (GPa) = 40.33114 54.31734 141.36112
#
# Poissons Ratio (x) = 0.26737 0.08647
# Poissons Ratio (y) = 0.19853 0.12072
# Poissons Ratio (z) = 0.02467 0.04639
#
# Static dielectric constant tensor:
#      x y z
#    x 1.828060 0.021420 -0.018010 
#    y 0.021420 1.899230 -0.019260 
#    z -0.018010 -0.019260 1.943280 
# 
# From -- ./inp_files/273718.got.cif
#   From: 2010.05.17/outbox.cif.g08.bks.cpg/sg2_137_cif.got.tgz:273718.got - 2010.06.03 11:33:40.
