data_PCOD9008525
_publ_section_title
;
Structure prediction by ZEFSAII (Michael W. Deem and Ramdas Pophale) SiO2 
 PCOD9008525
Probable space group: P -1
;
_chemical_formula_sum "Si O2"
_cell_formula_units_Z 14
_cell_length_a 10.545319
_cell_length_b 12.798137
_cell_length_c 24.121435
_cell_angle_alpha 31.030083
_cell_angle_beta 31.010202
_cell_angle_gamma 53.938486
_cell_volume 722.681719
_symmetry_space_group_name_H-M "P -1"
_symmetry_group_IT_number 2
_symmetry_cell_setting 'triclinic'
loop_
_space_group_symop_operation_xyz
x,y,z
-x,-y,-z
loop_
_atom_site_type_symbol
_atom_site_label
_atom_site_fract_x
_atom_site_fract_y
_atom_site_fract_z
Si Si1 0.613657 0.539199 0.502704
Si Si2 0.307211 0.477570 0.837506
Si Si3 0.306859 0.013593 0.891812
Si Si4 0.387838 0.747445 0.785926
Si Si5 0.278153 0.993990 0.041140
Si Si6 0.653517 0.369128 0.024406
Si Si7 0.342619 0.725987 0.605072
O O1 0.500000 0.500000 0.500000
O O2 0.563507 0.287412 0.655632
O O3 0.417581 0.593342 0.590804
O O4 0.945449 0.769538 0.279128
O O5 0.442232 0.584299 0.798480
O O6 0.447176 0.685932 0.643442
O O7 0.961769 0.373604 0.021079
O O8 0.313113 0.251146 0.917888
O O9 0.327892 0.969607 0.968745
O O10 0.337297 0.825125 0.929697
O O11 0.000000 0.000000 0.000000
O O12 0.517790 0.002754 0.591076
O O13 0.491204 0.757973 0.804848
O O14 0.500000 0.000000 0.000000
O O15 0.993717 0.585099 0.806003
O O16 0.500000 0.500000 0.000000
#
# Coordination Sequence:
#
# PCOD9008525 Si02
#       7
#     2   2   2   2   2   2   2
#     4  12  22  40  73  95 124 179 232 265 324 402
#     4  10  21  40  62  91 126 170 212 262 327 399
#     4  12  22  45  71  96 131 179 232 267 321 414
#     4  10  21  39  65  87 125 173 215 259 323 397
#     4  12  26  42  65 102 140 166 218 290 340 378
#     4  11  25  41  62  98 133 164 218 282 327 376
#     4  11  20  40  66  91 121 170 228 264 316 403
#
# _framework density 19.372288999999999
#
# number of rings (size 3 to 8) (size 9 to 14) (size 15 to 20)
#    0.000    0.857    5.714    2.143    2.000    1.143 
#    2.571    0.000    0.000    0.000    0.000    0.000 
#    0.000    0.000    0.000    0.000    0.000    0.000 
#
# Total GULP energy -78164.906730 kJ/mol
# GULP energy per Si atom -5583.207624 kJ/mol
# Density = 1.932820 g / cm^3
# Si number density = 19.372289 Si / 1000 Ang^3
#
#
#
# Elastic Constant Matrix: (Units=GPa)
#
#
# Indices 1 2 3 4 5 6 
#
# 1 131.8998 56.5656 44.1908 4.5698 17.9639 14.7586
# 2 56.5656 101.6813 30.1623 -14.4568 8.6575 22.2241
# 3 44.1908 30.1623 120.1477 -7.2383 29.9140 3.7897
# 4 4.5698 -14.4568 -7.2383 28.0131 0.0438 1.8044
# 5 17.9639 8.6575 29.9140 0.0438 26.5626 3.3626
# 6 14.7586 22.2241 3.7897 1.8044 3.3626 32.1149
#
#
#
# Elastic Compliance Matrix: (Units=1/GPa)
#
#
# Indices 1 2 3 4 5 6 
#
# 1 0.011727 -0.006396 -0.002227 -0.005782 -0.003325 -0.000027
# 2 -0.006396 0.017220 -0.001435 0.010171 0.001520 -0.009539
# 3 -0.002227 -0.001435 0.012761 0.002832 -0.012613 0.001672
# 4 -0.005782 0.010171 0.002832 0.043072 -0.001785 -0.006949
# 5 -0.003325 0.001520 -0.012613 -0.001785 0.054063 -0.003596
# 6 -0.000027 -0.009539 0.001672 -0.006949 -0.003596 0.038321
#
#
# Mechanical properties :
#
#
# Convention : Reuss Voigt Hill
#
# Bulk Modulus (GPa) = 46.31657 68.39624 57.35640
# Shear Modulus (GPa) = 24.45247 32.19212 28.32230
#
# Velocity S-wave (km/s) = 3.55666 4.08089 3.82776
# Velocity P-wave (km/s) = 6.38960 7.58866 7.01480
#
# Compressibility (1/GPa) = 0.02159055
#
# Stress axis : x y z
#
# Youngs Moduli (GPa) = 85.27402 58.07142 78.36479
#
# Poissons Ratio (x) = 0.37144 0.17453
# Poissons Ratio (y) = 0.54543 0.11248
# Poissons Ratio (z) = 0.18992 0.08335
#
# Static dielectric constant tensor:
#      x y z
#    x 1.760650 0.002370 -0.005250 
#    y 0.002370 1.671680 0.002900 
#    z -0.005250 0.002900 1.679850 
# 
# From -- ./inp_files/77270.got.cif
#   From: 2010.05.17/outbox.cif.g08.bks.cpg/sg2_39_cif.got.tgz:77270.got - 2010.06.03 11:33:40.
