data_PCOD9008531
_publ_section_title
;
Structure prediction by ZEFSAII (Michael W. Deem and Ramdas Pophale) SiO2 
 PCOD9008531
Probable space group: P -1
;
_chemical_formula_sum "Si O2"
_cell_formula_units_Z 15
_cell_length_a 11.958521
_cell_length_b 11.775397
_cell_length_c 11.555361
_cell_angle_alpha 119.661594
_cell_angle_beta 127.764438
_cell_angle_gamma 102.972733
_cell_volume 715.920028
_symmetry_space_group_name_H-M "P -1"
_symmetry_group_IT_number 2
_symmetry_cell_setting 'triclinic'
loop_
_space_group_symop_operation_xyz
x,y,z
-x,-y,-z
loop_
_atom_site_type_symbol
_atom_site_label
_atom_site_fract_x
_atom_site_fract_y
_atom_site_fract_z
Si Si1 0.263179 0.634118 0.504648
Si Si2 0.419718 0.124130 0.600022
Si Si3 0.399718 0.794513 0.990368
Si Si4 0.925997 0.927264 0.723413
Si Si5 0.757720 0.674014 0.722485
Si Si6 0.279020 0.976743 0.895530
Si Si7 0.243905 0.719042 0.286578
Si Si8 0.000000 0.500000 0.500000
O O1 0.185373 0.437144 0.314655
O O2 0.512710 0.809504 0.800458
O O3 0.287586 0.739369 0.459986
O O4 0.093567 0.568387 0.457197
O O5 0.542512 0.184497 0.830044
O O6 0.254348 0.128012 0.496889
O O7 0.595071 0.257579 0.674860
O O8 0.284200 0.897121 0.368023
O O9 0.243498 0.809385 0.853002
O O10 0.619966 0.968598 0.141224
O O11 0.225306 0.568147 0.715802
O O12 0.809775 0.782588 0.689320
O O13 0.096526 0.154081 0.999614
O O14 0.069500 0.918879 0.746228
O O15 0.500000 0.500000 0.500000
O O16 0.000000 0.500000 0.000000
#
# Coordination Sequence:
#
# PCOD9008531 Si02
#       8
#     2   2   2   2   2   2   2   1
#     4  11  20  39  64  93 122 167 221 269 306 380
#     4  11  24  40  62  97 134 165 209 270 333 383
#     4  10  21  41  64  90 125 169 221 264 314 386
#     4  11  24  38  63  96 131 171 206 269 333 378
#     4  11  22  38  62  90 131 170 216 257 316 395
#     4  10  21  39  65  88 122 169 218 261 312 381
#     4  11  23  39  64  92 131 170 210 262 327 389
#     4  10  22  36  68  92 118 166 224 272 310 370
#
# _framework density 20.952059999999999
#
# number of rings (size 3 to 8) (size 9 to 14) (size 15 to 20)
#    0.000    1.333    2.667    3.200    1.867    1.600 
#    0.000    0.000    0.000    2.400    0.000    0.000 
#    0.000    0.000    0.000    0.000    0.000    0.000 
#
# Total GULP energy -83606.114886 kJ/mol
# GULP energy per Si atom -5573.740992 kJ/mol
# Density = 2.090437 g / cm^3
# Si number density = 20.952060 Si / 1000 Ang^3
#
#
#
# Elastic Constant Matrix: (Units=GPa)
#
#
# Indices 1 2 3 4 5 6 
#
# 1 135.4773 56.4417 42.9517 -17.8172 28.6039 15.6228
# 2 56.4417 66.6825 29.4452 -4.6300 14.4066 8.6651
# 3 42.9517 29.4452 82.3926 -2.6477 17.0217 10.8414
# 4 -17.8172 -4.6300 -2.6477 36.6368 0.0973 0.2478
# 5 28.6039 14.4066 17.0217 0.0973 36.9311 3.1363
# 6 15.6228 8.6651 10.8414 0.2478 3.1363 44.0893
#
#
#
# Elastic Compliance Matrix: (Units=1/GPa)
#
#
# Indices 1 2 3 4 5 6 
#
# 1 0.014171 -0.008888 -0.002452 0.005623 -0.006201 -0.002262
# 2 -0.008888 0.024379 -0.003885 -0.001516 -0.000779 -0.000623
# 3 -0.002452 -0.003885 0.015814 -0.000517 -0.003704 -0.001990
# 4 0.005623 -0.001516 -0.000517 0.029820 -0.003478 -0.001488
# 5 -0.006201 -0.000779 -0.003704 -0.003478 0.033826 0.000875
# 6 -0.002262 -0.000623 -0.001990 -0.001488 0.000875 0.024041
#
#
# Mechanical properties :
#
#
# Convention : Reuss Voigt Hill
#
# Bulk Modulus (GPa) = 41.81530 60.24773 51.03151
# Shear Modulus (GPa) = 27.70515 33.91236 30.80875
#
# Velocity S-wave (km/s) = 3.64030 4.02751 3.83879
# Velocity P-wave (km/s) = 6.13759 7.10248 6.63759
#
# Compressibility (1/GPa) = 0.02391469
#
# Stress axis : x y z
#
# Youngs Moduli (GPa) = 70.56566 41.01911 63.23556
#
# Poissons Ratio (x) = 0.36458 0.15503
# Poissons Ratio (y) = 0.62719 0.24567
# Poissons Ratio (z) = 0.17300 0.15936
#
# Static dielectric constant tensor:
#      x y z
#    x 2.079970 -0.197560 -0.622540 
#    y -0.197560 1.744960 0.203120 
#    z -0.622540 0.203120 2.698190 
# 
# From -- ./inp_files/269963.got.cif
#   From: 2010.05.17/outbox.cif.g08.bks.cpg/sg2_135_cif.got.tgz:269963.got - 2010.06.03 11:33:40.
