data_PCOD9008341
_publ_section_title
;
Structure prediction by ZEFSAII (Michael W. Deem and Ramdas Pophale) SiO2 
 PCOD9008341
Probable space group: P -1
;
_chemical_formula_sum "Si O2"
_cell_formula_units_Z 16
_cell_length_a 9.753024
_cell_length_b 10.306558
_cell_length_c 19.632556
_cell_angle_alpha 147.626902
_cell_angle_beta 68.395563
_cell_angle_gamma 130.053769
_cell_volume 731.090136
_symmetry_space_group_name_H-M "P -1"
_symmetry_group_IT_number 2
_symmetry_cell_setting 'triclinic'
loop_
_space_group_symop_operation_xyz
x,y,z
-x,-y,-z
loop_
_atom_site_type_symbol
_atom_site_label
_atom_site_fract_x
_atom_site_fract_y
_atom_site_fract_z
Si Si1 0.252814 0.399333 0.269916
Si Si2 0.637750 0.326861 0.360810
Si Si3 0.591837 0.375720 0.965032
Si Si4 0.965094 0.364622 0.627788
Si Si5 0.994567 0.359255 0.009711
Si Si6 0.519467 0.398980 0.137453
Si Si7 0.779945 0.381347 0.170815
Si Si8 0.545484 0.740459 0.492449
O O1 0.092479 0.427180 0.293208
O O2 0.401261 0.510965 0.228404
O O3 0.379871 0.597545 0.401329
O O4 0.155473 0.030019 0.136665
O O5 0.571269 0.494627 0.406778
O O6 0.531298 0.207594 0.401637
O O7 0.880168 0.579827 0.431238
O O8 0.553958 0.009791 0.191622
O O9 0.500000 0.500000 0.000000
O O10 0.795434 0.521861 0.958999
O O11 0.632893 0.507094 0.093313
O O12 0.102991 0.486286 0.722648
O O13 0.753366 0.032274 0.546139
O O14 0.000000 0.500000 0.000000
O O15 0.938531 0.499390 0.136221
O O16 0.654073 0.473542 0.210371
O O17 0.365556 0.009273 0.980935
#
# Coordination Sequence:
#
# PCOD9008341 Si02
#       8
#     2   2   2   2   2   2   2   2
#     4  11  26  43  64 102 142 173 225 289 339 406
#     4  11  25  47  72  98 136 182 236 284 327 417
#     4  12  24  41  68 104 137 171 220 287 355 401
#     4  12  24  45  71 101 134 182 233 281 343 401
#     4  11  22  39  63  97 134 180 224 272 347 410
#     4  10  22  40  65  95 137 175 210 281 347 404
#     4  10  21  39  64  93 132 176 222 277 333 409
#     4  11  26  48  71  96 138 189 233 281 333 402
#
# _framework density 21.885126
#
# number of rings (size 3 to 8) (size 9 to 14) (size 15 to 20)
#    0.000    1.000    2.500    3.750    5.250    2.500 
#    2.250    0.000    0.000    0.000    0.000    0.000 
#    0.000    0.000    0.000    0.000    0.000    0.000 
#
# Total GULP energy -89322.151921 kJ/mol
# GULP energy per Si atom -5582.634495 kJ/mol
# Density = 2.183531 g / cm^3
# Si number density = 21.885126 Si / 1000 Ang^3
#
#
#
# Elastic Constant Matrix: (Units=GPa)
#
#
# Indices 1 2 3 4 5 6 
#
# 1 139.3424 -29.6124 51.8006 -25.9983 26.2475 9.2704
# 2 -29.6124 144.6496 -28.4735 26.3235 -49.7507 14.9183
# 3 51.8006 -28.4735 110.7371 -37.8826 49.7814 -1.7269
# 4 -25.9983 26.3235 -37.8826 44.1245 -17.5452 -4.0054
# 5 26.2475 -49.7507 49.7814 -17.5452 69.3389 3.9228
# 6 9.2704 14.9183 -1.7269 -4.0054 3.9228 38.7406
#
#
#
# Elastic Compliance Matrix: (Units=1/GPa)
#
#
# Indices 1 2 3 4 5 6 
#
# 1 0.009220 0.001495 -0.003956 0.001238 0.000901 -0.002922
# 2 0.001495 0.011524 -0.004383 -0.006556 0.009566 -0.006637
# 3 -0.003956 -0.004383 0.020241 0.012956 -0.013252 0.006218
# 4 0.001238 -0.006556 0.012956 0.036871 -0.005550 0.007180
# 5 0.000901 0.009566 -0.013252 -0.005550 0.029510 -0.008052
# 6 -0.002922 -0.006637 0.006218 0.007180 -0.008052 0.030903
#
#
# Mechanical properties :
#
#
# Convention : Reuss Voigt Hill
#
# Bulk Modulus (GPa) = 36.63274 42.46206 39.54740
# Shear Modulus (GPa) = 31.04519 57.17509 44.11014
#
# Velocity S-wave (km/s) = 3.77045 5.11682 4.49434
# Velocity P-wave (km/s) = 5.97746 7.37248 6.71132
#
# Compressibility (1/GPa) = 0.02729799
#
# Stress axis : x y z
#
# Youngs Moduli (GPa) = 108.45453 86.77379 49.40568
#
# Poissons Ratio (x) = -0.12971 0.19544
# Poissons Ratio (y) = -0.16212 0.21652
# Poissons Ratio (z) = 0.42904 0.38029
#
# Static dielectric constant tensor:
#      x y z
#    x 1.788700 0.044920 -0.003570 
#    y 0.044920 1.922960 0.008650 
#    z -0.003570 0.008650 1.805950 
# 
# From -- ./inp_files/557663.got.cif
#   From: 2010.05.17/outbox.cif.g08.bks.cpg/sg2_279_cif.got.tgz:557663.got - 2010.06.03 11:33:40.
