data_PCOD9008271
_publ_section_title
;
Structure prediction by ZEFSAII (Michael W. Deem and Ramdas Pophale) SiO2 
 PCOD9008271
Probable space group: P -1
;
_chemical_formula_sum "Si O2"
_cell_formula_units_Z 16
_cell_length_a 12.868667
_cell_length_b 12.122097
_cell_length_c 13.320581
_cell_angle_alpha 71.071393
_cell_angle_beta 65.206792
_cell_angle_gamma 127.370512
_cell_volume 894.676288
_symmetry_space_group_name_H-M "P -1"
_symmetry_group_IT_number 2
_symmetry_cell_setting 'triclinic'
loop_
_space_group_symop_operation_xyz
x,y,z
-x,-y,-z
loop_
_atom_site_type_symbol
_atom_site_label
_atom_site_fract_x
_atom_site_fract_y
_atom_site_fract_z
Si Si1 0.843379 0.247321 0.754570
Si Si2 0.356801 0.775947 0.329158
Si Si3 0.538834 0.289425 0.171777
Si Si4 0.650453 0.440481 0.730047
Si Si5 0.892381 0.054971 0.699106
Si Si6 0.847262 0.454016 0.827047
Si Si7 0.606941 0.047573 0.544257
Si Si8 0.645092 0.638847 0.003317
O O1 0.684575 0.163200 0.757531
O O2 0.826715 0.094440 0.797532
O O3 0.803855 0.281706 0.862974
O O4 0.100323 0.508691 0.541882
O O5 0.459607 0.749760 0.246390
O O6 0.453892 0.921142 0.346290
O O7 0.650242 0.513549 0.081238
O O8 0.300273 0.099508 0.263870
O O9 0.482572 0.158666 0.327187
O O10 0.711179 0.374081 0.002938
O O11 0.755980 0.452844 0.772180
O O12 0.485847 0.389838 0.860635
O O13 0.862827 0.694911 0.517641
O O14 0.870460 0.906868 0.797778
O O15 0.118327 0.711911 0.647960
O O16 0.500000 0.000000 0.500000
O O17 0.500000 0.500000 0.000000
#
# Coordination Sequence:
#
# PCOD9008271 Si02
#       8
#     2   2   2   2   2   2   2   2
#     4   8  14  27  49  75 104 126 154 199 258 312
#     4   8  15  29  49  76  98 126 166 205 250 298
#     4  11  21  33  47  74 108 134 168 201 243 307
#     4  10  17  31  54  76 109 133 154 204 255 306
#     4  10  17  29  47  74 106 137 157 189 250 311
#     4  10  19  32  51  78 105 131 158 209 258 298
#     4  11  22  37  54  71  98 137 175 211 248 288
#     4  10  21  30  44  79 110 136 163 191 245 317
#
# _framework density 17.883565000000001
#
# number of rings (size 3 to 8) (size 9 to 14) (size 15 to 20)
#    0.000    2.250    5.000    1.500    0.000    5.000 
#    0.000    0.000    0.000    0.750    0.000    8.750 
#    0.000    0.000    0.000    0.000    0.000    0.000 
#
# Total GULP energy -89216.790719 kJ/mol
# GULP energy per Si atom -5576.049420 kJ/mol
# Density = 1.784286 g / cm^3
# Si number density = 17.883565 Si / 1000 Ang^3
#
#
#
# Elastic Constant Matrix: (Units=GPa)
#
#
# Indices 1 2 3 4 5 6 
#
# 1 48.9884 33.0440 20.7821 1.5827 22.2325 -5.4965
# 2 33.0440 65.0341 15.1312 3.3479 16.8382 -19.3658
# 3 20.7821 15.1312 68.5422 -5.9654 10.1789 -5.7771
# 4 1.5827 3.3479 -5.9654 30.3886 -14.9985 4.2970
# 5 22.2325 16.8382 10.1789 -14.9985 24.5631 -3.1172
# 6 -5.4965 -19.3658 -5.7771 4.2970 -3.1172 22.0418
#
#
#
# Elastic Compliance Matrix: (Units=1/GPa)
#
#
# Indices 1 2 3 4 5 6 
#
# 1 0.066830 -0.008488 -0.010497 -0.042598 -0.075819 0.004038
# 2 -0.008488 0.036778 -0.000938 -0.020960 -0.026087 0.030347
# 3 -0.010497 -0.000938 0.017574 0.007807 0.007721 0.000735
# 4 -0.042598 -0.020960 0.007807 0.094350 0.103397 -0.030763
# 5 -0.075819 -0.026087 0.007721 0.103397 0.182827 -0.034104
# 6 0.004038 0.030347 0.000735 -0.030763 -0.034104 0.074405
#
#
# Mechanical properties :
#
#
# Convention : Reuss Voigt Hill
#
# Bulk Modulus (GPa) = 12.29466 35.60883 23.95174
# Shear Modulus (GPa) = 9.26405 22.97251 16.11828
#
# Velocity S-wave (km/s) = 2.27848 3.58796 3.00541
# Velocity P-wave (km/s) = 3.71641 6.09257 5.04634
#
# Compressibility (1/GPa) = 0.08133615
#
# Stress axis : x y z
#
# Youngs Moduli (GPa) = 14.96334 27.19038 56.90254
#
# Poissons Ratio (x) = 0.23080 0.59729
# Poissons Ratio (y) = 0.12702 0.05335
# Poissons Ratio (z) = 0.15707 0.02549
#
# Static dielectric constant tensor:
#      x y z
#    x 1.582600 -0.045360 -0.004370 
#    y -0.045360 1.644130 -0.007840 
#    z -0.004370 -0.007840 1.661620 
# 
# From -- ./inp_files/266715.got.cif
#   From: 2010.05.17/outbox.cif.g08.bks.cpg/sg2_134_cif.got.tgz:266715.got - 2010.06.03 11:33:40.
