data_PCOD9008466
_publ_section_title
;
Structure prediction by ZEFSAII (Michael W. Deem and Ramdas Pophale) SiO2 
 PCOD9008466
Probable space group: P -1
;
_chemical_formula_sum "Si O2"
_cell_formula_units_Z 12
_cell_length_a 12.087655
_cell_length_b 15.406531
_cell_length_c 9.250682
_cell_angle_alpha 37.801012
_cell_angle_beta 130.427475
_cell_angle_gamma 152.220190
_cell_volume 484.352109
_symmetry_space_group_name_H-M "P -1"
_symmetry_group_IT_number 2
_symmetry_cell_setting 'triclinic'
loop_
_space_group_symop_operation_xyz
x,y,z
-x,-y,-z
loop_
_atom_site_type_symbol
_atom_site_label
_atom_site_fract_x
_atom_site_fract_y
_atom_site_fract_z
Si Si1 0.615494 0.946764 0.613498
Si Si2 0.788252 0.449214 0.409688
Si Si3 0.510470 0.178996 0.802844
Si Si4 0.445314 0.600994 0.170302
Si Si5 0.050160 0.188848 0.161420
Si Si6 0.049146 0.122881 0.730405
O O1 0.466928 0.801611 0.536699
O O2 0.500000 0.000000 0.500000
O O3 0.899841 0.151908 0.568083
O O4 0.546299 0.771945 0.897975
O O5 0.703785 0.397871 0.569459
O O6 0.000000 0.500000 0.500000
O O7 0.872925 0.644476 0.123681
O O8 0.588709 0.305058 0.859204
O O9 0.229343 0.004802 0.781286
O O10 0.500000 0.000000 0.000000
O O11 0.662599 0.664385 0.317561
O O12 0.219657 0.347820 0.234995
O O13 0.066150 0.052723 0.270647
O O14 0.000000 0.000000 0.000000
#
# Coordination Sequence:
#
# PCOD9008466 Si02
#       6
#     2   2   2   2   2   2
#     4  10  21  39  64  99 132 166 221 277 330 393
#     4  11  23  39  63 101 129 172 220 271 333 393
#     4  11  21  40  65  96 142 173 218 284 328 387
#     4   9  21  40  64  95 130 181 219 265 340 393
#     4  10  22  43  66  95 135 175 226 269 332 401
#     4   9  20  39  68  94 131 178 217 276 332 391
#
# _framework density 24.775365000000001
#
# number of rings (size 3 to 8) (size 9 to 14) (size 15 to 20)
#    0.000    2.000    1.667    1.000    4.667    6.667 
#    3.000    3.333    0.000   13.000    0.000    0.000 
#    0.000    0.000    0.000    0.000    0.000    0.000 
#
# Total GULP energy -67048.831651 kJ/mol
# GULP energy per Si atom -5587.402638 kJ/mol
# Density = 2.471898 g / cm^3
# Si number density = 24.775365 Si / 1000 Ang^3
#
#
#
# Elastic Constant Matrix: (Units=GPa)
#
#
# Indices 1 2 3 4 5 6 
#
# 1 166.3224 106.2358 34.1853 8.4693 6.0555 1.2688
# 2 106.2358 225.7647 51.7058 10.9604 -7.7304 -6.6417
# 3 34.1853 51.7058 69.2796 -8.0681 2.2180 8.2145
# 4 8.4693 10.9604 -8.0681 30.6779 7.5473 -5.4809
# 5 6.0555 -7.7304 2.2180 7.5473 51.2877 5.0457
# 6 1.2688 -6.6417 8.2145 -5.4809 5.0457 53.3906
#
#
#
# Elastic Compliance Matrix: (Units=1/GPa)
#
#
# Indices 1 2 3 4 5 6 
#
# 1 0.008894 -0.003818 -0.001591 -0.001263 -0.001327 -0.000446
# 2 -0.003818 0.007448 -0.004231 -0.003026 0.002087 0.001160
# 3 -0.001591 -0.004231 0.019582 0.007158 -0.002097 -0.002568
# 4 -0.001263 -0.003026 0.007158 0.038063 -0.006520 0.003076
# 5 -0.001327 0.002087 -0.002097 -0.006520 0.021222 -0.002061
# 6 -0.000446 0.001160 -0.002568 0.003076 -0.002061 0.019791
#
#
# Mechanical properties :
#
#
# Convention : Reuss Voigt Hill
#
# Bulk Modulus (GPa) = 60.08209 93.95783 77.01996
# Shear Modulus (GPa) = 35.75825 45.02055 40.38940
#
# Velocity S-wave (km/s) = 3.80320 4.26743 4.04198
# Velocity P-wave (km/s) = 6.60221 7.89224 7.27587
#
# Compressibility (1/GPa) = 0.01664390
#
# Stress axis : x y z
#
# Youngs Moduli (GPa) = 112.43268 134.27116 51.06616
#
# Poissons Ratio (x) = 0.51267 0.08124
# Poissons Ratio (y) = 0.42929 0.21607
# Poissons Ratio (z) = 0.17886 0.56812
#
# Static dielectric constant tensor:
#      x y z
#    x 1.902400 -0.127670 0.081290 
#    y -0.127670 -1.505930 0.073730 
#    z 0.081290 0.073730 1.979430 
# 
# From -- ./inp_files/271664.got.cif
#   From: 2010.05.17/outbox.cif.g08.bks.cpg/sg2_136_cif.got.tgz:271664.got - 2010.06.03 11:33:40.
