data_PCOD9008177
_publ_section_title
;
Structure prediction by ZEFSAII (Michael W. Deem and Ramdas Pophale) SiO2 
 PCOD9008177
Probable space group: P -1
;
_chemical_formula_sum "Si O2"
_cell_formula_units_Z 16
_cell_length_a 8.830676
_cell_length_b 14.268333
_cell_length_c 22.451252
_cell_angle_alpha 157.931330
_cell_angle_beta 130.375712
_cell_angle_gamma 50.782058
_cell_volume 804.632002
_symmetry_space_group_name_H-M "P -1"
_symmetry_group_IT_number 2
_symmetry_cell_setting 'triclinic'
loop_
_space_group_symop_operation_xyz
x,y,z
-x,-y,-z
loop_
_atom_site_type_symbol
_atom_site_label
_atom_site_fract_x
_atom_site_fract_y
_atom_site_fract_z
Si Si1 0.061877 0.327008 0.830318
Si Si2 0.647158 0.164237 0.601361
Si Si3 0.573196 0.900418 0.876474
Si Si4 0.290148 0.516119 0.420631
Si Si5 0.867949 0.843496 0.121778
Si Si6 0.961230 0.648802 0.516321
Si Si7 0.406609 0.617188 0.774844
Si Si8 0.784521 0.038105 0.434364
O O1 0.875131 0.157376 0.677548
O O2 0.153235 0.275874 0.888616
O O3 0.971268 0.617256 0.974074
O O4 0.214904 0.218284 0.754211
O O5 0.559179 0.451537 0.758076
O O6 0.644656 0.098739 0.491697
O O7 0.500000 0.000000 0.500000
O O8 0.694765 0.746117 0.765349
O O9 0.529665 0.705979 0.802600
O O10 0.348995 0.021141 0.872485
O O11 0.680338 0.126927 0.064622
O O12 0.500000 0.500000 0.500000
O O13 0.253591 0.738557 0.492702
O O14 0.121449 0.562769 0.455159
O O15 0.013357 0.062369 0.293551
O O16 0.753715 0.565631 0.391845
O O17 0.000000 0.500000 0.500000
O O18 0.000000 0.000000 0.500000
#
# Coordination Sequence:
#
# PCOD9008177 Si02
#       8
#     2   2   2   2   2   2   2   2
#     4  10  21  39  64  89 120 172 215 253 309 390
#     4  11  22  38  63  92 127 165 207 266 319 377
#     4  11  22  41  66  93 124 173 213 258 317 386
#     4  12  22  41  68  94 128 171 214 264 320 387
#     4  11  20  39  67  88 126 165 215 256 314 381
#     4  12  24  40  63  97 128 165 211 272 323 374
#     4  11  23  39  63  93 130 162 214 261 320 377
#     4  10  22  39  60  95 124 167 216 254 317 386
#
# _framework density 19.884865999999999
#
# number of rings (size 3 to 8) (size 9 to 14) (size 15 to 20)
#    0.000    1.000    6.250    0.750    1.750    0.500 
#    0.000    1.250    0.000    2.250    0.000    0.000 
#    0.000    0.000    0.000    0.000    0.000    0.000 
#
# Total GULP energy -89228.111556 kJ/mol
# GULP energy per Si atom -5576.756972 kJ/mol
# Density = 1.983961 g / cm^3
# Si number density = 19.884866 Si / 1000 Ang^3
#
#
#
# Elastic Constant Matrix: (Units=GPa)
#
#
# Indices 1 2 3 4 5 6 
#
# 1 96.9532 17.6480 46.8219 11.9034 -16.0259 19.5930
# 2 17.6480 90.2675 7.7497 12.7908 6.2648 9.0518
# 3 46.8219 7.7497 129.0381 13.3030 -18.5484 -1.5939
# 4 11.9034 12.7908 13.3030 31.0566 -2.8810 1.7189
# 5 -16.0259 6.2648 -18.5484 -2.8810 38.7279 -6.5660
# 6 19.5930 9.0518 -1.5939 1.7189 -6.5660 28.0774
#
#
#
# Elastic Compliance Matrix: (Units=1/GPa)
#
#
# Indices 1 2 3 4 5 6 
#
# 1 0.015836 -0.001448 -0.005186 -0.002467 0.002396 -0.010167
# 2 -0.001448 0.012687 -0.000346 -0.004669 -0.003792 -0.003700
# 3 -0.005186 -0.000346 0.010483 -0.002315 0.003661 0.005323
# 4 -0.002467 -0.004669 -0.002315 0.036132 0.001524 0.001240
# 5 0.002396 -0.003792 0.003661 0.001524 0.030443 0.006784
# 6 -0.010167 -0.003700 0.005323 0.001240 0.006784 0.045716
#
#
# Mechanical properties :
#
#
# Convention : Reuss Voigt Hill
#
# Bulk Modulus (GPa) = 39.92724 51.18867 45.55796
# Shear Modulus (GPa) = 28.80101 35.84166 32.32134
#
# Velocity S-wave (km/s) = 3.80990 4.25014 4.03603
# Velocity P-wave (km/s) = 6.28304 7.06282 6.68431
#
# Compressibility (1/GPa) = 0.02504556
#
# Stress axis : x y z
#
# Youngs Moduli (GPa) = 63.14796 78.82232 95.39410
#
# Poissons Ratio (x) = 0.11414 0.49471
# Poissons Ratio (y) = 0.09144 0.03300
# Poissons Ratio (z) = 0.32748 0.02727
#
# Static dielectric constant tensor:
#      x y z
#    x 1.711140 -0.005610 -0.019540 
#    y -0.005610 0.457730 0.201470 
#    z -0.019540 0.201470 1.710540 
# 
# From -- ./inp_files/266876.got.cif
#   From: 2010.05.17/outbox.cif.g08.bks.cpg/sg2_134_cif.got.tgz:266876.got - 2010.06.03 11:33:40.
