data_PCOD9008643
_publ_section_title
;
Structure prediction by ZEFSAII (Michael W. Deem and Ramdas Pophale) SiO2 
 PCOD9008643
Probable space group: P -1
;
_chemical_formula_sum "Si O2"
_cell_formula_units_Z 16
_cell_length_a 7.679307
_cell_length_b 14.286344
_cell_length_c 11.325379
_cell_angle_alpha 104.238874
_cell_angle_beta 38.851751
_cell_angle_gamma 118.449297
_cell_volume 667.464867
_symmetry_space_group_name_H-M "P -1"
_symmetry_group_IT_number 2
_symmetry_cell_setting 'triclinic'
loop_
_space_group_symop_operation_xyz
x,y,z
-x,-y,-z
loop_
_atom_site_type_symbol
_atom_site_label
_atom_site_fract_x
_atom_site_fract_y
_atom_site_fract_z
Si Si1 0.664767 0.019574 0.047022
Si Si2 0.734858 0.647030 0.526391
Si Si3 0.215622 0.188968 0.272667
Si Si4 0.764551 0.269122 0.404757
Si Si5 0.764547 0.964800 0.380315
Si Si6 0.548039 0.208880 0.858726
Si Si7 0.982555 0.748036 0.970959
Si Si8 0.527143 0.592590 0.349661
O O1 0.004611 0.025178 0.846024
O O2 0.736541 0.134579 0.101281
O O3 0.500000 0.000000 0.000000
O O4 0.475579 0.910155 0.187778
O O5 0.653058 0.733774 0.660865
O O6 0.600811 0.618360 0.456918
O O7 0.601119 0.535669 0.637108
O O8 0.107856 0.701173 0.327591
O O9 0.972935 0.227589 0.355837
O O10 0.461497 0.208995 0.043246
O O11 0.010152 0.059453 0.365794
O O12 0.424366 0.162894 0.530768
O O13 0.722126 0.362118 0.523861
O O14 0.925148 0.303500 0.203480
O O15 0.500000 0.000000 0.500000
O O16 0.287442 0.224520 0.928950
O O17 0.828971 0.665153 0.133530
#
# Coordination Sequence:
#
# PCOD9008643 Si02
#       8
#     2   2   2   2   2   2   2   2
#     4  11  22  38  63  97 138 171 213 266 322 393
#     4  11  25  42  66  86 127 173 213 269 320 384
#     4   9  21  40  62  94 123 162 213 263 316 379
#     4  10  21  39  65  93 125 163 211 263 320 381
#     4   9  19  37  62  94 132 167 211 261 316 389
#     4  10  23  39  64  96 125 165 214 265 321 382
#     4  11  23  41  65  92 130 168 210 269 323 384
#     4  11  25  44  60  93 127 169 218 263 326 380
#
# _framework density 23.971299999999999
#
# number of rings (size 3 to 8) (size 9 to 14) (size 15 to 20)
#    0.000    1.750    1.250    2.625    3.500    6.000 
#    0.000    6.250    0.000    0.000    0.000    0.000 
#    0.000    0.000    0.000    0.000    0.000    0.000 
#
# Total GULP energy -89540.061880 kJ/mol
# GULP energy per Si atom -5596.253867 kJ/mol
# Density = 2.391674 g / cm^3
# Si number density = 23.971300 Si / 1000 Ang^3
#
#
#
# Elastic Constant Matrix: (Units=GPa)
#
#
# Indices 1 2 3 4 5 6 
#
# 1 65.3920 2.5588 0.6323 -9.2404 -1.4550 3.6841
# 2 2.5588 97.8439 16.5031 -12.6674 0.2419 -4.2997
# 3 0.6323 16.5031 56.2866 -1.6739 4.5672 2.4732
# 4 -9.2404 -12.6674 -1.6739 38.9544 -2.5122 6.5796
# 5 -1.4550 0.2419 4.5672 -2.5122 28.8313 1.6975
# 6 3.6841 -4.2997 2.4732 6.5796 1.6975 29.6563
#
#
#
# Elastic Compliance Matrix: (Units=1/GPa)
#
#
# Indices 1 2 3 4 5 6 
#
# 1 0.016122 0.000020 -0.000033 0.004436 0.001385 -0.003061
# 2 0.000020 0.011262 -0.003304 0.003379 0.000659 0.001119
# 3 -0.000033 -0.003304 0.019048 -0.000135 -0.002893 -0.001868
# 4 0.004436 0.003379 -0.000135 0.029151 0.003151 -0.006698
# 5 0.001385 0.000659 -0.002893 0.003151 0.035633 -0.002574
# 6 -0.003061 0.001119 -0.001868 -0.006698 -0.002574 0.036051
#
#
# Mechanical properties :
#
#
# Convention : Reuss Voigt Hill
#
# Bulk Modulus (GPa) = 25.12685 28.76789 26.94737
# Shear Modulus (GPa) = 29.91009 32.81030 31.36019
#
# Velocity S-wave (km/s) = 3.53618 3.70365 3.62088
# Velocity P-wave (km/s) = 5.21321 5.50603 5.36162
#
# Compressibility (1/GPa) = 0.03979806
#
# Stress axis : x y z
#
# Youngs Moduli (GPa) = 62.02710 88.79333 52.49829
#
# Poissons Ratio (x) = -0.00180 0.00174
# Poissons Ratio (y) = -0.00126 0.17347
# Poissons Ratio (z) = 0.00205 0.29341
#
# Static dielectric constant tensor:
#      x y z
#    x 1.996820 0.000290 -0.004270 
#    y 0.000290 1.926480 0.020160 
#    z -0.004270 0.020160 1.888750 
# 
# From -- ./inp_files/315832.got.cif
#   From: 2010.05.17/outbox.cif.g08.bks.cpg/sg2_158_cif.got.tgz:315832.got - 2010.06.03 11:33:40.
