data_PCOD9008371
_publ_section_title
;
Structure prediction by ZEFSAII (Michael W. Deem and Ramdas Pophale) SiO2 
 PCOD9008371
Probable space group: P -1
;
_chemical_formula_sum "Si O2"
_cell_formula_units_Z 14
_cell_length_a 10.603127
_cell_length_b 11.344863
_cell_length_c 13.328063
_cell_angle_alpha 58.082362
_cell_angle_beta 78.342212
_cell_angle_gamma 127.925270
_cell_volume 662.098080
_symmetry_space_group_name_H-M "P -1"
_symmetry_group_IT_number 2
_symmetry_cell_setting 'triclinic'
loop_
_space_group_symop_operation_xyz
x,y,z
-x,-y,-z
loop_
_atom_site_type_symbol
_atom_site_label
_atom_site_fract_x
_atom_site_fract_y
_atom_site_fract_z
Si Si1 0.810772 0.623276 0.717530
Si Si2 0.865676 0.700721 0.442710
Si Si3 0.812915 0.375467 0.496496
Si Si4 0.744610 0.171445 0.163951
Si Si5 0.764625 0.262052 0.901392
Si Si6 0.671475 0.705860 0.974132
Si Si7 0.877788 0.011943 0.304327
O O1 0.898790 0.693257 0.557349
O O2 0.776494 0.435881 0.850029
O O3 0.002062 0.874907 0.653120
O O4 0.535811 0.446414 0.841431
O O5 0.738170 0.459758 0.508736
O O6 0.733779 0.729519 0.446014
O O7 0.150375 0.995751 0.217349
O O8 0.000000 0.500000 0.500000
O O9 0.987445 0.539298 0.295951
O O10 0.546272 0.040718 0.677362
O O11 0.753591 0.041369 0.287586
O O12 0.756804 0.161796 0.046630
O O13 0.000000 0.500000 0.000000
O O14 0.500000 0.000000 0.000000
O O15 0.887343 0.787281 0.905653
O O16 0.500000 0.500000 0.000000
#
# Coordination Sequence:
#
# PCOD9008371 Si02
#       7
#     2   2   2   2   2   2   2
#     4  11  18  38  66  96 127 176 221 271 333 390
#     4  10  21  39  64  94 135 165 231 268 322 408
#     4  12  25  44  69 101 130 187 225 272 338 404
#     4  12  26  47  67 100 144 173 223 288 334 396
#     4  12  24  42  72  98 136 179 229 269 335 409
#     4   8  19  33  59  93 128 169 214 262 335 386
#     4   9  22  41  60  98 132 173 214 283 337 381
#
# _framework density 21.144904
#
# number of rings (size 3 to 8) (size 9 to 14) (size 15 to 20)
#    0.857    0.571    4.286    1.286    0.000    1.143 
#    2.571    0.714    0.000    0.000    0.000    0.000 
#    0.000    0.000    0.000    0.000    0.000    0.000 
#
# Total GULP energy -77982.812284 kJ/mol
# GULP energy per Si atom -5570.200877 kJ/mol
# Density = 2.109678 g / cm^3
# Si number density = 21.144904 Si / 1000 Ang^3
#
#
#
# Elastic Constant Matrix: (Units=GPa)
#
#
# Indices 1 2 3 4 5 6 
#
# 1 40.7226 5.9357 -5.8747 -8.2509 -0.4288 2.1859
# 2 5.9357 76.1323 35.6702 -13.0489 -10.8120 1.6470
# 3 -5.8747 35.6702 100.8378 -1.7911 -19.9779 14.9742
# 4 -8.2509 -13.0489 -1.7911 39.9548 -4.6124 4.0469
# 5 -0.4288 -10.8120 -19.9779 -4.6124 28.2441 -0.7875
# 6 2.1859 1.6470 14.9742 4.0469 -0.7875 35.6554
#
#
#
# Elastic Compliance Matrix: (Units=1/GPa)
#
#
# Indices 1 2 3 4 5 6 
#
# 1 0.026777 -0.002316 0.003586 0.005632 0.002875 -0.003616
# 2 -0.002316 0.017329 -0.005662 0.005207 0.003477 0.001205
# 3 0.003586 -0.005662 0.014694 0.001123 0.008294 -0.006074
# 4 0.005632 0.005207 0.001123 0.029238 0.007530 -0.004209
# 5 0.002875 0.003477 0.008294 0.007530 0.043773 -0.003708
# 6 -0.003616 0.001205 -0.006074 -0.004209 -0.003708 0.031159
#
#
# Mechanical properties :
#
#
# Convention : Reuss Voigt Hill
#
# Bulk Modulus (GPa) = 19.99409 32.12835 26.06122
# Shear Modulus (GPa) = 26.53565 32.90161 29.71863
#
# Velocity S-wave (km/s) = 3.54636 3.94890 3.75303
# Velocity P-wave (km/s) = 5.12300 6.00160 5.57962
#
# Compressibility (1/GPa) = 0.05001477
#
# Stress axis : x y z
#
# Youngs Moduli (GPa) = 37.34577 57.70772 68.05532
#
# Poissons Ratio (x) = 0.13364 -0.24404
# Poissons Ratio (y) = 0.08649 0.38536
# Poissons Ratio (z) = -0.13392 0.32676
#
# Static dielectric constant tensor:
#      x y z
#    x 1.850480 -0.019790 -0.020800 
#    y -0.019790 1.780920 -0.032100 
#    z -0.020800 -0.032100 1.772890 
# 
# From -- ./inp_files/427981.got.cif
#   From: 2010.05.17/outbox.cif.g08.bks.cpg/sg2_214_cif.got.tgz:427981.got - 2010.06.03 11:33:40.
