data_PCOD9008634
_publ_section_title
;
Structure prediction by ZEFSAII (Michael W. Deem and Ramdas Pophale) SiO2 
 PCOD9008634
Probable space group: P -1
;
_chemical_formula_sum "Si O2"
_cell_formula_units_Z 16
_cell_length_a 20.261985
_cell_length_b 8.322449
_cell_length_c 5.287767
_cell_angle_alpha 97.874209
_cell_angle_beta 81.666120
_cell_angle_gamma 124.720971
_cell_volume 723.531556
_symmetry_space_group_name_H-M "P -1"
_symmetry_group_IT_number 2
_symmetry_cell_setting 'triclinic'
loop_
_space_group_symop_operation_xyz
x,y,z
-x,-y,-z
loop_
_atom_site_type_symbol
_atom_site_label
_atom_site_fract_x
_atom_site_fract_y
_atom_site_fract_z
Si Si1 0.798881 0.584446 0.350720
Si Si2 0.936376 0.281812 0.397405
Si Si3 0.922971 0.675969 0.938681
Si Si4 0.676797 0.866323 0.727477
Si Si5 0.320556 0.356185 0.825797
Si Si6 0.498528 0.608404 0.774750
Si Si7 0.798267 0.295654 0.587624
Si Si8 0.916736 0.953212 0.659626
O O1 0.746175 0.596326 0.167508
O O2 0.754557 0.378688 0.474483
O O3 0.834280 0.774430 0.544527
O O4 0.882737 0.616246 0.219309
O O5 0.852114 0.249503 0.372205
O O6 0.000000 0.500000 0.500000
O O7 0.986347 0.259015 0.145206
O O8 0.919268 0.141966 0.615542
O O9 0.862548 0.483334 0.763290
O O10 0.916837 0.856400 0.901107
O O11 0.683538 0.768209 0.444765
O O12 0.585254 0.812496 0.773895
O O13 0.739453 0.098950 0.731153
O O14 0.688549 0.764826 0.942537
O O15 0.409157 0.560967 0.819182
O O16 0.500000 0.500000 0.500000
O O17 0.500000 0.500000 0.000000
O O18 0.000000 0.000000 0.500000
#
# Coordination Sequence:
#
# PCOD9008634 Si02
#       8
#     2   2   2   2   2   2   2   2
#     4  11  23  36  56  86 117 158 202 246 305 361
#     4   9  18  36  55  77 108 150 195 253 298 350
#     4   9  21  37  55  77 114 158 195 250 299 363
#     4  10  21  39  65  93 120 156 203 252 298 355
#     4  10  22  37  65  91 122 160 200 246 300 365
#     4   8  16  35  59  90 120 153 196 243 296 357
#     4  10  22  36  56  83 120 150 201 254 301 352
#     4   9  19  37  56  76 110 146 200 245 297 356
#
# _framework density 22.113755000000001
#
# number of rings (size 3 to 8) (size 9 to 14) (size 15 to 20)
#    0.000    2.500    0.000    1.500    7.000    2.500 
#    0.000    0.625    0.000    0.750    0.000    0.000 
#    0.000    0.000    0.000    0.000    0.000    0.000 
#
# Total GULP energy -89177.137548 kJ/mol
# GULP energy per Si atom -5573.571097 kJ/mol
# Density = 2.206342 g / cm^3
# Si number density = 22.113755 Si / 1000 Ang^3
#
#
#
# Elastic Constant Matrix: (Units=GPa)
#
#
# Indices 1 2 3 4 5 6 
#
# 1 105.8650 69.2370 23.3273 -16.2717 10.7519 14.3432
# 2 69.2370 126.6118 30.8266 -32.2279 5.9021 -2.1970
# 3 23.3273 30.8266 89.8775 -13.1682 9.3298 1.3796
# 4 -16.2717 -32.2279 -13.1682 33.2859 0.9403 2.9022
# 5 10.7519 5.9021 9.3298 0.9403 30.4136 -6.2559
# 6 14.3432 -2.1970 1.3796 2.9022 -6.2559 31.4092
#
#
#
# Elastic Compliance Matrix: (Units=1/GPa)
#
#
# Indices 1 2 3 4 5 6 
#
# 1 0.017750 -0.009331 -0.000516 0.000495 -0.006389 -0.010054
# 2 -0.009331 0.015926 -0.001853 0.009660 0.001477 0.004858
# 3 -0.000516 -0.001853 0.012789 0.003252 -0.003793 -0.001511
# 4 0.000495 0.009660 0.003252 0.041472 -0.005270 -0.004575
# 5 -0.006389 0.001477 -0.003793 -0.005270 0.038512 0.011345
# 6 -0.010054 0.004858 -0.001511 -0.004575 0.011345 0.039517
#
#
# Mechanical properties :
#
#
# Convention : Reuss Voigt Hill
#
# Bulk Modulus (GPa) = 43.35799 63.23733 53.29766
# Shear Modulus (GPa) = 25.37350 32.28598 28.82974
#
# Velocity S-wave (km/s) = 3.39102 3.82513 3.61460
# Velocity P-wave (km/s) = 5.91450 6.94027 6.44782
#
# Compressibility (1/GPa) = 0.02306380
#
# Stress axis : x y z
#
# Youngs Moduli (GPa) = 56.33944 62.78876 78.19107
#
# Poissons Ratio (x) = 0.58589 0.04037
# Poissons Ratio (y) = 0.52571 0.14491
# Poissons Ratio (z) = 0.02909 0.11636
#
# Static dielectric constant tensor:
#      x y z
#    x 1.860020 -0.003590 -0.034450 
#    y -0.003590 1.840120 0.022730 
#    z -0.034450 0.022730 1.908990 
# 
# From -- ./inp_files/51164.got.cif
#   From: 2010.05.17/outbox.cif.g08.bks.cpg/sg2_26_cif.got.tgz:51164.got - 2010.06.03 11:33:40.
