data_PCOD9008230
_publ_section_title
;
Structure prediction by ZEFSAII (Michael W. Deem and Ramdas Pophale) SiO2 
 PCOD9008230
Probable space group: P -1
;
_chemical_formula_sum "Si O2"
_cell_formula_units_Z 16
_cell_length_a 8.252596
_cell_length_b 20.361442
_cell_length_c 13.820034
_cell_angle_alpha 33.923044
_cell_angle_beta 37.410837
_cell_angle_gamma 39.466339
_cell_volume 742.419086
_symmetry_space_group_name_H-M "P -1"
_symmetry_group_IT_number 2
_symmetry_cell_setting 'triclinic'
loop_
_space_group_symop_operation_xyz
x,y,z
-x,-y,-z
loop_
_atom_site_type_symbol
_atom_site_label
_atom_site_fract_x
_atom_site_fract_y
_atom_site_fract_z
Si Si1 0.263326 0.403274 0.935694
Si Si2 0.335328 0.447082 0.425627
Si Si3 0.218855 0.137904 0.274649
Si Si4 0.126723 0.425458 0.746484
Si Si5 0.161861 0.024372 0.627018
Si Si6 0.827853 0.928182 0.226479
Si Si7 0.141528 0.783383 0.845360
Si Si8 0.310189 0.309466 0.426311
O O1 0.530194 0.444902 0.782142
O O2 0.226457 0.413925 0.823854
O O3 0.288269 0.261849 0.120134
O O4 0.000000 0.500000 0.000000
O O5 0.452930 0.346493 0.408187
O O6 0.000000 0.500000 0.500000
O O7 0.361021 0.399012 0.582781
O O8 0.056169 0.101373 0.485442
O O9 0.048361 0.163859 0.224128
O O10 0.505244 0.021966 0.265929
O O11 0.923516 0.566376 0.653671
O O12 0.950231 0.330586 0.933878
O O13 0.052041 0.090955 0.697882
O O14 0.500000 0.000000 0.500000
O O15 0.109126 0.893409 0.801973
O O16 0.824068 0.795616 0.353610
O O17 0.000000 0.000000 0.000000
O O18 0.459678 0.739475 0.707210
#
# Coordination Sequence:
#
# PCOD9008230 Si02
#       8
#     2   2   2   2   2   2   2   2
#     4  11  24  43  69  99 129 173 217 267 324 386
#     4  10  23  41  63  94 131 172 207 276 322 375
#     4  10  23  42  67  93 128 164 214 269 317 379
#     4  10  24  39  65  95 132 169 211 270 322 381
#     4  10  21  39  64  91 121 168 206 260 313 381
#     4  11  26  42  63  94 127 173 213 260 320 387
#     4  11  21  42  66  96 126 164 217 268 324 378
#     4  11  23  41  63  95 128 168 220 259 322 389
#
# _framework density 21.551168000000001
#
# number of rings (size 3 to 8) (size 9 to 14) (size 15 to 20)
#    0.000    1.500    2.500    2.625    7.000    4.000 
#    0.000    0.625    0.000    0.000    0.000    0.000 
#    0.000    0.000    0.000    0.000    0.000    0.000 
#
# Total GULP energy -89422.300641 kJ/mol
# GULP energy per Si atom -5588.893790 kJ/mol
# Density = 2.150212 g / cm^3
# Si number density = 21.551168 Si / 1000 Ang^3
#
#
#
# Elastic Constant Matrix: (Units=GPa)
#
#
# Indices 1 2 3 4 5 6 
#
# 1 49.1155 15.2309 13.9564 -18.3100 -15.3864 14.0278
# 2 15.2309 29.6589 13.4213 -23.2323 -0.4394 7.4035
# 3 13.9564 13.4213 115.9804 -34.7456 -23.6475 4.7370
# 4 -18.3100 -23.2323 -34.7456 41.7083 10.5353 -2.6712
# 5 -15.3864 -0.4394 -23.6475 10.5353 46.8554 -5.9527
# 6 14.0278 7.4035 4.7370 -2.6712 -5.9527 32.6198
#
#
#
# Elastic Compliance Matrix: (Units=1/GPa)
#
#
# Indices 1 2 3 4 5 6 
#
# 1 0.030324 -0.007746 0.001515 0.007705 0.007715 -0.009464
# 2 -0.007746 0.071058 0.003199 0.040851 -0.010962 -0.011916
# 3 0.001515 0.003199 0.012455 0.011719 0.003988 -0.001499
# 4 0.007705 0.040851 0.011719 0.060764 -0.006160 -0.010435
# 5 0.007715 -0.010962 0.003988 -0.006160 0.027567 0.003117
# 6 -0.009464 -0.011916 -0.001499 -0.010435 0.003117 0.037362
#
#
# Mechanical properties :
#
#
# Convention : Reuss Voigt Hill
#
# Bulk Modulus (GPa) = 9.27874 31.10800 20.19337
# Shear Modulus (GPa) = 17.76086 34.37979 26.07032
#
# Velocity S-wave (km/s) = 2.87387 3.99841 3.48184
# Velocity P-wave (km/s) = 3.91497 5.98182 5.05515
#
# Compressibility (1/GPa) = 0.10777322
#
# Stress axis : x y z
#
# Youngs Moduli (GPa) = 32.97741 14.07300 80.28979
#
# Poissons Ratio (x) = 0.10901 -0.12165
# Poissons Ratio (y) = 0.25544 -0.25685
# Poissons Ratio (z) = -0.04997 -0.04502
#
# Static dielectric constant tensor:
#      x y z
#    x 1.820700 0.010270 0.015640 
#    y 0.010270 1.819530 0.023450 
#    z 0.015640 0.023450 1.781250 
# 
# From -- ./inp_files/507862.got.cif
#   From: 2010.05.17/outbox.cif.g08.bks.cpg/sg2_254_cif.got.tgz:507862.got - 2010.06.03 11:33:40.
