data_PCOD9008564
_publ_section_title
;
Structure prediction by ZEFSAII (Michael W. Deem and Ramdas Pophale) SiO2 
 PCOD9008564
Probable space group: P -1
;
_chemical_formula_sum "Si O2"
_cell_formula_units_Z 14
_cell_length_a 8.087520
_cell_length_b 13.875966
_cell_length_c 8.040162
_cell_angle_alpha 110.644398
_cell_angle_beta 49.158637
_cell_angle_gamma 86.400951
_cell_volume 581.351273
_symmetry_space_group_name_H-M "P -1"
_symmetry_group_IT_number 2
_symmetry_cell_setting 'triclinic'
loop_
_space_group_symop_operation_xyz
x,y,z
-x,-y,-z
loop_
_atom_site_type_symbol
_atom_site_label
_atom_site_fract_x
_atom_site_fract_y
_atom_site_fract_z
Si Si1 0.327166 0.002198 0.860793
Si Si2 0.261047 0.774576 0.106671
Si Si3 0.442568 0.409262 0.594752
Si Si4 0.193894 0.067832 0.353815
Si Si5 0.763886 0.698195 0.617763
Si Si6 0.844062 0.185120 0.187847
Si Si7 0.758183 0.448907 0.881649
O O1 0.603044 0.984206 0.668831
O O2 0.275008 0.903176 0.746433
O O3 0.269851 0.996324 0.091705
O O4 0.123077 0.121774 0.011449
O O5 0.212406 0.667930 0.125543
O O6 0.086338 0.884969 0.388047
O O7 0.545910 0.733614 0.912611
O O8 0.181567 0.796562 0.981243
O O9 0.500000 0.500000 0.500000
O O10 0.330181 0.345692 0.508810
O O11 0.689248 0.308895 0.439191
O O12 0.265595 0.467712 0.898977
O O13 0.217304 0.185134 0.363391
O O14 0.018055 0.593342 0.417252
O O15 0.500000 0.500000 0.000000
#
# Coordination Sequence:
#
# PCOD9008564 Si02
#       7
#     2   2   2   2   2   2   2
#     4  10  21  40  64  94 123 166 205 262 303 372
#     4  10  21  41  62  90 126 160 207 254 305 380
#     4  11  20  41  66  90 125 170 204 252 311 374
#     4  10  21  39  67  91 125 162 205 259 319 351
#     4  10  21  42  64  90 127 162 207 251 316 373
#     4  10  21  39  65  90 127 161 211 249 311 367
#     4  11  24  39  66  93 124 164 207 259 314 367
#
# _framework density 24.081826
#
# number of rings (size 3 to 8) (size 9 to 14) (size 15 to 20)
#    0.000    1.714    5.714    0.429    4.000    1.714 
#    0.000    0.000    0.000    0.000    0.000    0.000 
#    0.000    0.000    0.000    0.000    0.000    0.000 
#
# Total GULP energy -78200.199177 kJ/mol
# GULP energy per Si atom -5585.728513 kJ/mol
# Density = 2.402701 g / cm^3
# Si number density = 24.081826 Si / 1000 Ang^3
#
#
#
# Elastic Constant Matrix: (Units=GPa)
#
#
# Indices 1 2 3 4 5 6 
#
# 1 73.2871 8.2906 34.8800 9.8630 -14.6858 3.4629
# 2 8.2906 65.9499 20.9446 25.3429 -6.5312 -6.0323
# 3 34.8800 20.9446 177.7629 36.1152 -40.2131 2.6540
# 4 9.8630 25.3429 36.1152 39.7613 0.6189 -3.5821
# 5 -14.6858 -6.5312 -40.2131 0.6189 37.9921 8.7491
# 6 3.4629 -6.0323 2.6540 -3.5821 8.7491 17.4758
#
#
#
# Elastic Compliance Matrix: (Units=1/GPa)
#
#
# Indices 1 2 3 4 5 6 
#
# 1 0.016402 -0.000200 -0.000414 -0.004413 0.007796 -0.008064
# 2 -0.000200 0.021010 0.001805 -0.014952 0.005400 0.001249
# 3 -0.000414 0.001805 0.011850 -0.013096 0.015572 -0.011575
# 4 -0.004413 -0.014952 -0.013096 0.049807 -0.023478 0.019665
# 5 0.007796 0.005400 0.015572 -0.023478 0.055055 -0.034421
# 6 -0.008064 0.001249 -0.011575 0.019665 -0.034421 0.082272
#
#
# Mechanical properties :
#
#
# Convention : Reuss Voigt Hill
#
# Bulk Modulus (GPa) = 19.36387 49.47002 34.41695
# Shear Modulus (GPa) = 19.90200 35.90480 27.90340
#
# Velocity S-wave (km/s) = 2.87789 3.86547 3.40765
# Velocity P-wave (km/s) = 4.37051 6.36471 5.45944
#
# Compressibility (1/GPa) = 0.05164256
#
# Stress axis : x y z
#
# Youngs Moduli (GPa) = 60.96859 47.59651 84.38542
#
# Poissons Ratio (x) = 0.00953 0.03496
# Poissons Ratio (y) = 0.01221 -0.15228
# Poissons Ratio (z) = 0.02526 -0.08589
#
# Static dielectric constant tensor:
#      x y z
#    x 1.954100 0.027480 -0.071720 
#    y 0.027480 1.994230 -0.008170 
#    z -0.071720 -0.008170 2.031590 
# 
# From -- ./inp_files/199913.got.cif
#   From: 2010.05.17/outbox.cif.g08.bks.cpg/sg2_100_cif.got.tgz:199913.got - 2010.06.03 11:33:40.
