data_PCOD9008244
_publ_section_title
;
Structure prediction by ZEFSAII (Michael W. Deem and Ramdas Pophale) SiO2 
 PCOD9008244
Probable space group: P -1
;
_chemical_formula_sum "Si O2"
_cell_formula_units_Z 16
_cell_length_a 10.842072
_cell_length_b 7.992311
_cell_length_c 11.922961
_cell_angle_alpha 63.024335
_cell_angle_beta 100.688812
_cell_angle_gamma 58.097544
_cell_volume 646.552610
_symmetry_space_group_name_H-M "P -1"
_symmetry_group_IT_number 2
_symmetry_cell_setting 'triclinic'
loop_
_space_group_symop_operation_xyz
x,y,z
-x,-y,-z
loop_
_atom_site_type_symbol
_atom_site_label
_atom_site_fract_x
_atom_site_fract_y
_atom_site_fract_z
Si Si1 0.541139 0.544141 0.261236
Si Si2 0.176812 0.792282 0.779318
Si Si3 0.625860 0.050066 0.520874
Si Si4 0.803589 0.220796 0.947952
Si Si5 0.759980 0.680531 0.833140
Si Si6 0.630152 0.861369 0.174498
Si Si7 0.843304 0.796931 0.419104
Si Si8 0.883900 0.556625 0.125184
O O1 0.640881 0.418250 0.195407
O O2 0.333201 0.774286 0.134971
O O3 0.613964 0.666498 0.278360
O O4 0.577460 0.316847 0.407385
O O5 0.071790 0.709276 0.772342
O O6 0.087960 0.064558 0.627556
O O7 0.195709 0.807787 0.909731
O O8 0.680400 0.952101 0.687055
O O9 0.779855 0.841390 0.521810
O O10 0.500000 0.000000 0.500000
O O11 0.715700 0.520600 0.828019
O O12 0.000000 0.000000 0.000000
O O13 0.962416 0.483234 0.888739
O O14 0.739829 0.697761 0.957581
O O15 0.668236 0.950716 0.263044
O O16 0.811038 0.703635 0.184180
O O17 0.500000 0.000000 0.000000
O O18 0.000000 0.500000 0.500000
#
# Coordination Sequence:
#
# PCOD9008244 Si02
#       8
#     2   2   2   2   2   2   2   2
#     4  10  22  42  62  92 123 176 214 258 319 387
#     4   9  21  40  62  88 122 168 216 261 309 390
#     4  11  23  41  66  88 130 174 214 250 313 406
#     4  11  22  34  63  93 129 161 214 272 321 368
#     4  10  21  39  64  91 126 167 214 254 326 381
#     4  11  24  40  67  94 130 160 219 275 321 365
#     4  11  25  41  66  95 129 170 214 266 328 378
#     4   9  21  40  64  93 120 166 214 269 311 380
#
# _framework density 24.746632000000002
#
# number of rings (size 3 to 8) (size 9 to 14) (size 15 to 20)
#    0.000    1.750    1.250    1.875    7.000    3.000 
#    0.000    4.375    0.000    0.000    0.000    0.000 
#    0.000    0.000    0.000    0.000    0.000    0.000 
#
# Total GULP energy -89326.051958 kJ/mol
# GULP energy per Si atom -5582.878247 kJ/mol
# Density = 2.469031 g / cm^3
# Si number density = 24.746632 Si / 1000 Ang^3
#
#
#
# Elastic Constant Matrix: (Units=GPa)
#
#
# Indices 1 2 3 4 5 6 
#
# 1 85.1533 20.2939 26.6561 1.8977 -27.1119 7.2930
# 2 20.2939 77.3812 26.3831 2.2954 -18.2968 -3.4203
# 3 26.6561 26.3831 72.2405 2.6953 -27.8931 -0.0772
# 4 1.8977 2.2954 2.6953 31.6751 3.9214 -1.5121
# 5 -27.1119 -18.2968 -27.8931 3.9214 48.2549 -2.2443
# 6 7.2930 -3.4203 -0.0772 -1.5121 -2.2443 33.7584
#
#
#
# Elastic Compliance Matrix: (Units=1/GPa)
#
#
# Indices 1 2 3 4 5 6 
#
# 1 0.015294 -0.001732 -0.002446 -0.001537 0.006502 -0.003122
# 2 -0.001732 0.015492 -0.003891 -0.000938 0.002825 0.002081
# 3 -0.002446 -0.003891 0.019613 -0.002287 0.008703 0.000655
# 4 -0.001537 -0.000938 -0.002287 0.032625 -0.005129 0.001352
# 5 0.006502 0.002825 0.008703 -0.005129 0.030929 0.000728
# 6 -0.003122 0.002081 0.000655 0.001352 0.000728 0.030618
#
#
# Mechanical properties :
#
#
# Convention : Reuss Voigt Hill
#
# Bulk Modulus (GPa) = 29.18842 42.38235 35.78539
# Shear Modulus (GPa) = 29.04823 33.50047 31.27435
#
# Velocity S-wave (km/s) = 3.42983 3.68331 3.55883
# Velocity P-wave (km/s) = 5.24457 5.93740 5.60171
#
# Compressibility (1/GPa) = 0.03426016
#
# Stress axis : x y z
#
# Youngs Moduli (GPa) = 65.38621 64.55152 50.98707
#
# Poissons Ratio (x) = 0.11180 0.12473
# Poissons Ratio (y) = 0.11324 0.19837
# Poissons Ratio (z) = 0.15996 0.25115
#
# Static dielectric constant tensor:
#      x y z
#    x 1.961230 0.011930 0.082480 
#    y 0.011930 1.946500 -0.072640 
#    z 0.082480 -0.072640 2.084190 
# 
# From -- ./inp_files/308411.got.cif
#   From: 2010.05.17/outbox.cif.g08.bks.cpg/sg2_155_cif.got.tgz:308411.got - 2010.06.03 11:33:40.
