data_PCOD9008577
_publ_section_title
;
Structure prediction by ZEFSAII (Michael W. Deem and Ramdas Pophale) SiO2 
 PCOD9008577
Probable space group: P -1
;
_chemical_formula_sum "Si O2"
_cell_formula_units_Z 12
_cell_length_a 7.730293
_cell_length_b 5.336331
_cell_length_c 14.454762
_cell_angle_alpha 100.011381
_cell_angle_beta 82.162454
_cell_angle_gamma 121.913476
_cell_volume 497.737366
_symmetry_space_group_name_H-M "P -1"
_symmetry_group_IT_number 2
_symmetry_cell_setting 'triclinic'
loop_
_space_group_symop_operation_xyz
x,y,z
-x,-y,-z
loop_
_atom_site_type_symbol
_atom_site_label
_atom_site_fract_x
_atom_site_fract_y
_atom_site_fract_z
Si Si1 0.848056 0.752710 0.813530
Si Si2 0.259928 0.826377 0.474545
Si Si3 0.028508 0.693141 0.292713
Si Si4 0.724322 0.625676 0.446808
Si Si5 0.172459 0.841447 0.014861
Si Si6 0.511206 0.278076 0.910895
O O1 0.959181 0.569421 0.775458
O O2 0.610881 0.479279 0.825821
O O3 0.903804 0.008056 0.750777
O O4 0.889512 0.941263 0.917267
O O5 0.194233 0.801838 0.371556
O O6 0.181334 0.500734 0.496468
O O7 0.500000 0.000000 0.500000
O O8 0.186684 0.026990 0.541522
O O9 0.798360 0.558885 0.340849
O O10 0.500000 0.500000 0.500000
O O11 0.336710 0.827156 0.070445
O O12 0.000000 0.500000 0.000000
O O13 0.290115 0.986061 0.919595
O O14 0.500000 0.500000 0.000000
#
# Coordination Sequence:
#
# PCOD9008577 Si02
#       6
#     2   2   2   2   2   2
#     4  11  23  40  65 104 141 177 226 285 355 392
#     4  10  21  39  65  91 122 173 234 271 332 423
#     4  12  22  39  68  95 135 182 219 298 355 387
#     4  10  21  39  65  91 124 174 233 275 332 424
#     4  10  21  43  75 100 134 190 236 267 325 422
#     4   9  20  41  71  97 138 182 231 267 336 418
#
# _framework density 24.109103000000001
#
# number of rings (size 3 to 8) (size 9 to 14) (size 15 to 20)
#    0.000    1.667    1.667    3.000    0.000    2.667 
#    0.000    3.333   44.000    0.000    0.000    0.000 
#    0.000    0.000    0.000    0.000    0.000    0.000 
#
# Total GULP energy -66851.641600 kJ/mol
# GULP energy per Si atom -5570.970133 kJ/mol
# Density = 2.405423 g / cm^3
# Si number density = 24.109103 Si / 1000 Ang^3
#
#
#
# Elastic Constant Matrix: (Units=GPa)
#
#
# Indices 1 2 3 4 5 6 
#
# 1 113.6739 62.5437 50.3442 -3.0987 -34.7104 -19.8859
# 2 62.5437 181.7293 65.6588 -23.7417 -35.3698 -17.8466
# 3 50.3442 65.6588 122.8894 -22.6498 -33.5742 -4.1116
# 4 -3.0987 -23.7417 -22.6498 64.1807 -7.2792 -6.4884
# 5 -34.7104 -35.3698 -33.5742 -7.2792 48.4673 3.9158
# 6 -19.8859 -17.8466 -4.1116 -6.4884 3.9158 58.5063
#
#
#
# Elastic Compliance Matrix: (Units=1/GPa)
#
#
# Indices 1 2 3 4 5 6 
#
# 1 0.013619 -0.002247 -0.002644 -0.000088 0.005998 0.003347
# 2 -0.002247 0.008145 -0.001987 0.002739 0.003235 0.001668
# 3 -0.002644 -0.001987 0.012736 0.004276 0.006166 -0.000548
# 4 -0.000088 0.002739 0.004276 0.019233 0.007565 0.002733
# 5 0.005998 0.003235 0.006166 0.007565 0.032525 0.002121
# 6 0.003347 0.001668 -0.000548 0.002733 0.002121 0.018861
#
#
# Mechanical properties :
#
#
# Convention : Reuss Voigt Hill
#
# Bulk Modulus (GPa) = 48.20618 86.15399 67.18009
# Shear Modulus (GPa) = 39.74823 50.21392 44.98107
#
# Velocity S-wave (km/s) = 4.06480 4.56870 4.32410
# Velocity P-wave (km/s) = 6.48603 7.97767 7.27021
#
# Compressibility (1/GPa) = 0.02074423
#
# Stress axis : x y z
#
# Youngs Moduli (GPa) = 73.42562 122.77098 78.51452
#
# Poissons Ratio (x) = 0.27590 0.20761
# Poissons Ratio (y) = 0.16501 0.15600
# Poissons Ratio (z) = 0.19416 0.24393
#
# Static dielectric constant tensor:
#      x y z
#    x 2.083630 0.109780 -0.042940 
#    y 0.109780 1.976200 -0.051680 
#    z -0.042940 -0.051680 1.983190 
# 
# From -- ./inp_files/552789.got.cif
#   From: 2010.05.17/outbox.cif.g08.bks.cpg/sg2_277_cif.got.tgz:552789.got - 2010.06.03 11:33:40.
