data_PCOD9008578
_publ_section_title
;
Structure prediction by ZEFSAII (Michael W. Deem and Ramdas Pophale) SiO2 
 PCOD9008578
Probable space group: P -1
;
_chemical_formula_sum "Si O2"
_cell_formula_units_Z 16
_cell_length_a 5.244399
_cell_length_b 6.268650
_cell_length_c 24.558435
_cell_angle_alpha 85.865913
_cell_angle_beta 54.548634
_cell_angle_gamma 82.691446
_cell_volume 652.342048
_symmetry_space_group_name_H-M "P -1"
_symmetry_group_IT_number 2
_symmetry_cell_setting 'triclinic'
loop_
_space_group_symop_operation_xyz
x,y,z
-x,-y,-z
loop_
_atom_site_type_symbol
_atom_site_label
_atom_site_fract_x
_atom_site_fract_y
_atom_site_fract_z
Si Si1 0.128807 0.519881 0.921500
Si Si2 0.962685 0.778170 0.149950
Si Si3 0.158236 0.433650 0.348082
Si Si4 0.791226 0.352661 0.492724
Si Si5 0.364496 0.107275 0.068920
Si Si6 0.299782 0.906209 0.742491
Si Si7 0.425554 0.269672 0.637315
Si Si8 0.262753 0.367818 0.173367
O O1 0.027527 0.295851 0.912032
O O2 0.448021 0.517048 0.843136
O O3 0.925282 0.729437 0.918854
O O4 0.000000 0.500000 0.000000
O O5 0.016210 0.566289 0.182863
O O6 0.704378 0.951373 0.204529
O O7 0.272696 0.902118 0.116640
O O8 0.408429 0.275671 0.287582
O O9 0.354740 0.598371 0.353926
O O10 0.000198 0.285706 0.415425
O O11 0.882443 0.569742 0.345451
O O12 0.500000 0.500000 0.500000
O O13 0.629875 0.204800 0.558453
O O14 0.000000 0.500000 0.500000
O O15 0.488954 0.264846 0.095908
O O16 0.500000 0.000000 0.000000
O O17 0.970204 0.802381 0.777336
O O18 0.334702 0.065808 0.685049
#
# Coordination Sequence:
#
# PCOD9008578 Si02
#       8
#     2   2   2   2   2   2   2   2
#     4  11  23  41  70  95 122 165 219 284 345 409
#     4  10  23  44  59  91 127 169 215 277 337 410
#     4  10  22  44  68 106 140 186 239 293 346 418
#     4   8  16  35  68  98 138 178 231 295 351 396
#     4  10  21  39  65  91 123 154 207 267 337 409
#     4  11  24  45  65  95 140 189 230 279 350 430
#     4  10  22  44  69 102 142 188 234 295 351 411
#     4  10  23  44  59  93 125 170 218 273 337 414
#
# _framework density 24.527007000000001
#
# number of rings (size 3 to 8) (size 9 to 14) (size 15 to 20)
#    0.000    2.000    0.000    2.250    0.000    7.500 
#   29.250    0.000    0.000    9.000    0.000    0.000 
#    0.000    0.000    0.000    0.000    0.000    0.000 
#
# Total GULP energy -89070.004549 kJ/mol
# GULP energy per Si atom -5566.875284 kJ/mol
# Density = 2.447118 g / cm^3
# Si number density = 24.527007 Si / 1000 Ang^3
#
#
#
# Elastic Constant Matrix: (Units=GPa)
#
#
# Indices 1 2 3 4 5 6 
#
# 1 87.7650 -4.3362 4.0882 -0.4144 -9.7297 -26.8865
# 2 -4.3362 71.1786 53.3793 -18.7025 -7.4765 -6.7477
# 3 4.0882 53.3793 123.8545 -24.8653 -13.6744 5.5433
# 4 -0.4144 -18.7025 -24.8653 50.8127 -4.3891 3.8399
# 5 -9.7297 -7.4765 -13.6744 -4.3891 32.2649 -0.4427
# 6 -26.8865 -6.7477 5.5433 3.8399 -0.4427 1.9421
#
#
#
# Elastic Compliance Matrix: (Units=1/GPa)
#
#
# Indices 1 2 3 4 5 6 
#
# 1 0.000383 -0.006018 0.004755 0.002779 0.000641 -0.034524
# 2 -0.006018 0.016512 -0.004720 0.005515 0.000442 -0.023269
# 3 0.004755 -0.004720 0.010352 0.002624 0.005302 0.015897
# 4 0.002779 0.005515 0.002624 0.023129 0.006455 0.005889
# 5 0.000641 0.000442 0.005302 0.006455 0.034282 -0.009679
# 6 -0.034524 -0.023269 0.015897 0.005889 -0.009679 -0.103114
#
#
# Mechanical properties :
#
#
# Convention : Reuss Voigt Hill
#
# Bulk Modulus (GPa) = 65.44064 43.22895 54.33480
# Shear Modulus (GPa) = -3585.09615 32.31506 -1776.39055
#
# Velocity S-wave (km/s) = -38.27357 3.63372 -26.94126
# Velocity P-wave (km/s) = 43.89096 5.93873 30.75019
#
# Compressibility (1/GPa) = 0.01528102
#
# Stress axis : x y z
#
# Youngs Moduli (GPa) = 2609.75262 60.56117 96.59808
#
# Poissons Ratio (x) = 0.36444 -0.45930
# Poissons Ratio (y) = 15.70460 0.45598
# Poissons Ratio (z) = -12.40870 0.28587
#
# Static dielectric constant tensor:
#      x y z
#    x 2.057970 0.057400 0.032260 
#    y 0.057400 1.933840 -0.002710 
#    z 0.032260 -0.002710 2.134090 
# 
# From -- ./inp_files/11278.got.cif
#   From: 2010.05.17/outbox.cif.g08.bks.cpg/sg2_6_cif.got.tgz:11278.got - 2010.06.03 11:33:40.
