data_PCOD9008326
_publ_section_title
;
Structure prediction by ZEFSAII (Michael W. Deem and Ramdas Pophale) SiO2 
 PCOD9008326
Probable space group: P -1
;
_chemical_formula_sum "Si O2"
_cell_formula_units_Z 16
_cell_length_a 8.559068
_cell_length_b 8.396231
_cell_length_c 18.625758
_cell_angle_alpha 92.696531
_cell_angle_beta 87.936719
_cell_angle_gamma 34.107916
_cell_volume 743.005020
_symmetry_space_group_name_H-M "P -1"
_symmetry_group_IT_number 2
_symmetry_cell_setting 'triclinic'
loop_
_space_group_symop_operation_xyz
x,y,z
-x,-y,-z
loop_
_atom_site_type_symbol
_atom_site_label
_atom_site_fract_x
_atom_site_fract_y
_atom_site_fract_z
Si Si1 0.310909 0.260317 0.453561
Si Si2 0.440924 0.681985 0.943295
Si Si3 0.888171 0.649792 0.701363
Si Si4 0.654481 0.813416 0.205800
Si Si5 0.260032 0.809535 0.546436
Si Si6 0.071505 0.862937 0.705134
Si Si7 0.483402 0.587296 0.202125
Si Si8 0.041479 0.314380 0.942456
O O1 0.225215 0.302315 0.373226
O O2 0.537253 0.211731 0.443795
O O3 0.000000 0.500000 0.500000
O O4 0.500000 0.000000 0.500000
O O5 0.407935 0.608954 0.869726
O O6 0.731205 0.529418 0.929169
O O7 0.199725 0.021602 0.965225
O O8 0.500000 0.500000 0.000000
O O9 0.151697 0.342696 0.729101
O O10 0.966240 0.770416 0.695707
O O11 0.634053 0.853392 0.765765
O O12 0.583263 0.686088 0.192118
O O13 0.793063 0.767445 0.132092
O O14 0.500000 0.500000 0.500000
O O15 0.116727 0.894972 0.626975
O O16 0.000000 0.000000 0.500000
O O17 0.369179 0.602353 0.733225
O O18 0.847224 0.133434 0.768432
O O19 0.000000 0.500000 0.000000
#
# Coordination Sequence:
#
# PCOD9008326 Si02
#       8
#     2   2   2   2   2   2   2   2
#     4  12  25  42  65  94 130 173 223 279 337 402
#     4  12  26  44  68  98 134 176 222 277 335 403
#     4  10  21  39  64  93 127 168 214 270 333 401
#     4  10  22  41  65  93 128 169 215 268 332 400
#     4  12  25  42  65  94 130 173 223 279 337 402
#     4  10  21  39  64  93 127 168 214 270 333 401
#     4  10  22  41  65  93 128 169 215 268 332 400
#     4  12  26  44  68  98 134 176 222 277 335 403
#
# _framework density 21.534174
#
# number of rings (size 3 to 8) (size 9 to 14) (size 15 to 20)
#    0.000    1.000    0.000    6.750    0.000    8.000 
#    0.000    0.000    0.000    0.000    0.000    0.000 
#    0.000    0.000    0.000    0.000    0.000    0.000 
#
# Total GULP energy -89177.824997 kJ/mol
# GULP energy per Si atom -5573.614062 kJ/mol
# Density = 2.148516 g / cm^3
# Si number density = 21.534174 Si / 1000 Ang^3
#
#
#
# Elastic Constant Matrix: (Units=GPa)
#
#
# Indices 1 2 3 4 5 6 
#
# 1 44.6974 15.0142 39.7233 -2.3622 1.2815 -18.2293
# 2 15.0142 99.9401 -7.1784 -6.6302 7.7622 -14.8900
# 3 39.7233 -7.1784 98.3047 -3.4409 -1.5144 7.6141
# 4 -2.3622 -6.6302 -3.4409 25.8467 -6.7028 -2.1538
# 5 1.2815 7.7622 -1.5144 -6.7028 34.9498 3.1423
# 6 -18.2293 -14.8900 7.6141 -2.1538 3.1423 37.3474
#
#
#
# Elastic Compliance Matrix: (Units=1/GPa)
#
#
# Indices 1 2 3 4 5 6 
#
# 1 0.066476 -0.006128 -0.030158 0.002183 -0.005266 0.036721
# 2 -0.006128 0.011665 0.003287 0.002495 -0.001861 0.001290
# 3 -0.030158 0.003287 0.024106 0.000579 0.003200 -0.018560
# 4 0.002183 0.002495 0.000579 0.041750 0.007060 0.003755
# 5 -0.005266 -0.001861 0.003200 0.007060 0.031268 -0.006189
# 6 0.036721 0.001290 -0.018560 0.003755 -0.006189 0.049735
#
#
# Mechanical properties :
#
#
# Convention : Reuss Voigt Hill
#
# Bulk Modulus (GPa) = 27.58789 37.56226 32.57508
# Shear Modulus (GPa) = 16.49725 32.65433 24.57579
#
# Velocity S-wave (km/s) = 2.77085 3.89832 3.38190
# Velocity P-wave (km/s) = 4.80373 6.14357 5.51449
#
# Compressibility (1/GPa) = 0.03624778
#
# Stress axis : x y z
#
# Youngs Moduli (GPa) = 15.04310 85.72700 41.48346
#
# Poissons Ratio (x) = 0.52534 1.25106
# Poissons Ratio (y) = 0.09219 -0.13635
# Poissons Ratio (z) = 0.45367 -0.28177
#
# Static dielectric constant tensor:
#      x y z
#    x 1.758540 0.052660 -0.028490 
#    y 0.052660 1.789850 -0.001430 
#    z -0.028490 -0.001430 1.802170 
# 
# From -- ./inp_files/226227.got.cif
#   From: 2010.05.17/outbox.cif.g08.bks.cpg/sg2_114_cif.got.tgz:226227.got - 2010.06.03 11:33:40.
