data_PCOD9008409
_publ_section_title
;
Structure prediction by ZEFSAII (Michael W. Deem and Ramdas Pophale) SiO2 
 PCOD9008409
Probable space group: P -1
;
_chemical_formula_sum "Si O2"
_cell_formula_units_Z 16
_cell_length_a 8.971092
_cell_length_b 17.222542
_cell_length_c 21.933797
_cell_angle_alpha 20.004327
_cell_angle_beta 149.136415
_cell_angle_gamma 140.484047
_cell_volume 582.664738
_symmetry_space_group_name_H-M "P -1"
_symmetry_group_IT_number 2
_symmetry_cell_setting 'triclinic'
loop_
_space_group_symop_operation_xyz
x,y,z
-x,-y,-z
loop_
_atom_site_type_symbol
_atom_site_label
_atom_site_fract_x
_atom_site_fract_y
_atom_site_fract_z
Si Si1 0.251345 0.399512 0.277462
Si Si2 0.175234 0.725191 0.209690
Si Si3 0.766116 0.383683 0.041792
Si Si4 0.160134 0.082511 0.239940
Si Si5 0.823556 0.907079 0.153058
Si Si6 0.283753 0.811802 0.608175
Si Si7 0.630326 0.729659 0.457391
Si Si8 0.668924 0.642089 0.178291
O O1 0.433201 0.281630 0.485677
O O2 0.492527 0.440638 0.282420
O O3 0.990311 0.275164 0.253841
O O4 0.063262 0.665036 0.030079
O O5 0.040132 0.917383 0.971669
O O6 0.376451 0.849847 0.232700
O O7 0.355337 0.529419 0.373688
O O8 0.955550 0.617678 0.254452
O O9 0.501511 0.577912 0.832986
O O10 0.598733 0.226149 0.058029
O O11 0.000000 0.500000 0.000000
O O12 0.497565 0.105301 0.326884
O O13 0.200414 0.995480 0.388207
O O14 0.020375 0.899455 0.287953
O O15 0.500000 0.000000 0.000000
O O16 0.765958 0.720426 0.220751
O O17 0.969177 0.759356 0.554036
#
# Coordination Sequence:
#
# PCOD9008409 Si02
#       8
#     2   2   2   2   2   2   2   2
#     4  10  21  40  66  92 122 165 213 253 304 378
#     4  11  24  39  60  94 131 161 210 255 315 371
#     4   9  20  39  62  92 124 159 203 255 313 365
#     4  10  21  39  64  96 119 161 212 248 308 372
#     4  12  22  41  64  89 126 169 209 253 311 379
#     4  10  21  39  66  92 125 161 204 265 304 365
#     4  11  22  40  64  94 125 163 210 260 305 368
#     4  11  22  41  62  90 126 169 202 259 318 362
#
# _framework density 27.460045999999998
#
# number of rings (size 3 to 8) (size 9 to 14) (size 15 to 20)
#    0.000    1.500    3.750    1.125    0.000    4.500 
#    4.500    0.000    0.000    1.500    0.000    0.000 
#    0.000    0.000    0.000    0.000    0.000    0.000 
#
# Total GULP energy -89350.465849 kJ/mol
# GULP energy per Si atom -5584.404116 kJ/mol
# Density = 2.739755 g / cm^3
# Si number density = 27.460046 Si / 1000 Ang^3
#
#
#
# Elastic Constant Matrix: (Units=GPa)
#
#
# Indices 1 2 3 4 5 6 
#
# 1 106.7722 17.0347 20.5085 19.1774 9.5443 13.5927
# 2 17.0347 168.9885 31.4299 63.7711 3.4131 -3.9994
# 3 20.5085 31.4299 113.5530 33.5213 20.5655 -12.4154
# 4 19.1774 63.7711 33.5213 53.3076 -7.8925 -5.3101
# 5 9.5443 3.4131 20.5655 -7.8925 39.1482 7.7108
# 6 13.5927 -3.9994 -12.4154 -5.3101 7.7108 41.5077
#
#
#
# Elastic Compliance Matrix: (Units=1/GPa)
#
#
# Indices 1 2 3 4 5 6 
#
# 1 0.011092 0.001180 -0.000450 -0.005949 -0.003011 -0.003855
# 2 0.001180 0.012016 0.002868 -0.017504 -0.006488 0.000595
# 3 -0.000450 0.002868 0.014904 -0.013862 -0.011809 0.005302
# 4 -0.005949 -0.017504 -0.013862 0.053605 0.021258 -0.000976
# 5 -0.003011 -0.006488 -0.011809 0.021258 0.038843 -0.007668
# 6 -0.003855 0.000595 0.005302 -0.000976 -0.007668 0.028297
#
#
# Mechanical properties :
#
#
# Convention : Reuss Voigt Hill
#
# Bulk Modulus (GPa) = 22.11945 58.58445 40.35195
# Shear Modulus (GPa) = 30.00649 48.14876 39.07762
#
# Velocity S-wave (km/s) = 3.30924 4.19192 3.77646
# Velocity P-wave (km/s) = 4.76173 6.69405 5.80880
#
# Compressibility (1/GPa) = 0.04520908
#
# Stress axis : x y z
#
# Youngs Moduli (GPa) = 90.15258 83.22526 67.09456
#
# Poissons Ratio (x) = -0.09821 0.03020
# Poissons Ratio (y) = -0.10639 -0.19246
# Poissons Ratio (z) = 0.04057 -0.23872
#
# Static dielectric constant tensor:
#      x y z
#    x 2.149320 -0.064460 -0.018880 
#    y -0.064460 2.187250 -0.046410 
#    z -0.018880 -0.046410 2.306080 
# 
# From -- ./inp_files/591225.got.cif
#   From: 2010.05.17/outbox.cif.g08.bks.cpg/sg2_296_cif.got.tgz:591225.got - 2010.06.03 11:33:40.
