data_PCOD9008300
_publ_section_title
;
Structure prediction by ZEFSAII (Michael W. Deem and Ramdas Pophale) SiO2 
 PCOD9008300
Probable space group: P -1
;
_chemical_formula_sum "Si O2"
_cell_formula_units_Z 16
_cell_length_a 5.946952
_cell_length_b 13.166756
_cell_length_c 9.106120
_cell_angle_alpha 94.499310
_cell_angle_beta 65.252134
_cell_angle_gamma 80.297946
_cell_volume 629.377638
_symmetry_space_group_name_H-M "P -1"
_symmetry_group_IT_number 2
_symmetry_cell_setting 'triclinic'
loop_
_space_group_symop_operation_xyz
x,y,z
-x,-y,-z
loop_
_atom_site_type_symbol
_atom_site_label
_atom_site_fract_x
_atom_site_fract_y
_atom_site_fract_z
Si Si1 0.704316 0.852292 0.880282
Si Si2 0.323407 0.934384 0.626056
Si Si3 0.359885 0.422995 0.113984
Si Si4 0.994917 0.377495 0.674046
Si Si5 0.791970 0.728588 0.105849
Si Si6 0.606231 0.717023 0.665989
Si Si7 0.848672 0.064726 0.860408
Si Si8 0.764282 0.195749 0.621565
O O1 0.797159 0.759858 0.728970
O O2 0.731328 0.965497 0.838170
O O3 0.852543 0.816093 0.988389
O O4 0.399076 0.862853 0.987106
O O5 0.465244 0.827023 0.650381
O O6 0.171544 0.885803 0.536933
O O7 0.500000 0.000000 0.500000
O O8 0.138525 0.002686 0.805798
O O9 0.513284 0.352674 0.195151
O O10 0.126123 0.500643 0.266813
O O11 0.500000 0.500000 0.000000
O O12 0.278605 0.353060 0.000428
O O13 0.025348 0.330820 0.825952
O O14 0.259821 0.351991 0.512394
O O15 0.828978 0.309248 0.622748
O O16 0.536704 0.785059 0.266417
O O17 0.899564 0.134459 0.718307
#
# Coordination Sequence:
#
# PCOD9008300 Si02
#       8
#     2   2   2   2   2   2   2   2
#     4   9  21  43  63  95 144 178 235 286 336 419
#     4  12  24  41  67 105 144 181 233 280 351 419
#     4  11  24  46  70 101 136 180 229 291 352 414
#     4  12  23  44  74  95 136 182 227 292 351 402
#     4  10  22  43  69  99 134 179 233 281 348 420
#     4  11  24  42  67 103 138 177 232 286 342 417
#     4  10  21  39  64  92 137 189 223 282 344 402
#     4  11  22  41  66 100 137 178 233 285 338 409
#
# _framework density 25.421939999999999
#
# number of rings (size 3 to 8) (size 9 to 14) (size 15 to 20)
#    0.000    1.250    2.500    3.375    0.000    1.500 
#    0.000    3.750    0.000    0.000    0.000    0.000 
#    0.000    0.000    0.000    0.000    0.000    0.000 
#
# Total GULP energy -89321.084685 kJ/mol
# GULP energy per Si atom -5582.567793 kJ/mol
# Density = 2.536408 g / cm^3
# Si number density = 25.421940 Si / 1000 Ang^3
#
#
#
# Elastic Constant Matrix: (Units=GPa)
#
#
# Indices 1 2 3 4 5 6 
#
# 1 31.8144 20.3609 18.8969 -5.6779 -11.4602 -8.3527
# 2 20.3609 142.4280 55.3567 2.5575 -2.0602 -9.7980
# 3 18.8969 55.3567 131.2507 16.2393 -3.6256 -6.2862
# 4 -5.6779 2.5575 16.2393 52.0957 -3.4364 4.8695
# 5 -11.4602 -2.0602 -3.6256 -3.4364 30.6291 2.4356
# 6 -8.3527 -9.7980 -6.2862 4.8695 2.4356 49.2674
#
#
#
# Elastic Compliance Matrix: (Units=1/GPa)
#
#
# Indices 1 2 3 4 5 6 
#
# 1 0.045640 -0.004125 -0.005063 0.007413 0.016657 0.004715
# 2 -0.004125 0.008863 -0.003139 -0.000067 -0.001385 0.000738
# 3 -0.005063 -0.003139 0.010098 -0.003656 -0.001339 0.000233
# 4 0.007413 -0.000067 -0.003656 0.021618 0.004889 -0.001601
# 5 0.016657 -0.001385 -0.001339 0.004889 0.039181 -0.000042
# 6 0.004715 0.000738 0.000233 -0.001601 -0.000042 0.021434
#
#
# Mechanical properties :
#
#
# Convention : Reuss Voigt Hill
#
# Bulk Modulus (GPa) = 25.03197 54.96911 40.00054
# Shear Modulus (GPa) = 27.05589 40.45704 33.75646
#
# Velocity S-wave (km/s) = 3.26586 3.99359 3.64792
# Velocity P-wave (km/s) = 4.90806 6.55246 5.78894
#
# Compressibility (1/GPa) = 0.03994891
#
# Stress axis : x y z
#
# Youngs Moduli (GPa) = 21.91051 112.83418 99.02730
#
# Poissons Ratio (x) = 0.46540 0.50134
# Poissons Ratio (y) = 0.09037 0.31082
# Poissons Ratio (z) = 0.11093 0.35416
#
# Static dielectric constant tensor:
#      x y z
#    x 2.085020 -0.043070 0.015820 
#    y -0.043070 2.019810 -0.077740 
#    z 0.015820 -0.077740 2.124400 
# 
# From -- ./inp_files/135465.got.cif
#   From: 2010.05.17/outbox.cif.g08.bks.cpg/sg2_68_cif.got.tgz:135465.got - 2010.06.03 11:33:40.
