data_PCOD9008696
_publ_section_title
;
Structure prediction by ZEFSAII (Michael W. Deem and Ramdas Pophale) SiO2 
 PCOD9008696
Probable space group: P -1
;
_chemical_formula_sum "Si O2"
_cell_formula_units_Z 12
_cell_length_a 5.359543
_cell_length_b 7.796623
_cell_length_c 12.912344
_cell_angle_alpha 119.089238
_cell_angle_beta 109.980484
_cell_angle_gamma 69.689051
_cell_volume 432.226802
_symmetry_space_group_name_H-M "P -1"
_symmetry_group_IT_number 2
_symmetry_cell_setting 'triclinic'
loop_
_space_group_symop_operation_xyz
x,y,z
-x,-y,-z
loop_
_atom_site_type_symbol
_atom_site_label
_atom_site_fract_x
_atom_site_fract_y
_atom_site_fract_z
Si Si1 0.674480 0.591894 0.356797
Si Si2 0.340674 0.069599 0.154637
Si Si3 0.769554 0.661197 0.153708
Si Si4 0.085432 0.232408 0.355194
Si Si5 0.775219 0.086778 0.577109
Si Si6 0.009635 0.747530 0.015309
O O1 0.743759 0.675340 0.279042
O O2 0.832185 0.668004 0.498252
O O3 0.357446 0.677798 0.363246
O O4 0.802387 0.355993 0.307977
O O5 0.314099 0.212299 0.293637
O O6 0.268837 0.202210 0.079218
O O7 0.573384 0.868094 0.144253
O O8 0.083985 0.963496 0.097640
O O9 0.768266 0.423303 0.064483
O O10 0.014138 0.661292 0.107178
O O11 0.086305 0.009978 0.327974
O O12 0.500000 0.000000 0.500000
O O13 0.000000 0.000000 0.500000
#
# Coordination Sequence:
#
# PCOD9008696 Si02
#       6
#     2   2   2   2   2   2
#     4  10  21  40  65  95 133 171 219 276 341 409
#     4  11  21  40  64  91 128 165 218 277 330 396
#     4  11  21  41  66  91 127 170 217 272 330 402
#     4  10  21  39  65  94 132 172 218 277 341 407
#     4  10  22  41  68  94 134 179 225 276 341 414
#     4  10  24  39  63  93 125 171 222 268 332 394
#
# _framework density 27.763200000000001
#
# number of rings (size 3 to 8) (size 9 to 14) (size 15 to 20)
#    0.000    1.667    3.333    1.000    0.000    3.333 
#    0.000    0.000    0.000    0.000    0.000    0.000 
#    0.000    0.000    0.000    0.000    0.000    0.000 
#
# Total GULP energy -66859.206492 kJ/mol
# GULP energy per Si atom -5571.600541 kJ/mol
# Density = 2.770001 g / cm^3
# Si number density = 27.763200 Si / 1000 Ang^3
#
#
#
# Elastic Constant Matrix: (Units=GPa)
#
#
# Indices 1 2 3 4 5 6 
#
# 1 85.5945 45.3531 53.5152 -4.6025 -26.8052 -24.4188
# 2 45.3531 216.9493 47.0756 -16.2421 -13.2911 -67.7938
# 3 53.5152 47.0756 195.4220 -15.9348 -40.0994 -6.5942
# 4 -4.6025 -16.2421 -15.9348 54.5143 -2.0030 -5.2719
# 5 -26.8052 -13.2911 -40.0994 -2.0030 37.0134 6.2579
# 6 -24.4188 -67.7938 -6.5942 -5.2719 6.2579 55.3413
#
#
#
# Elastic Compliance Matrix: (Units=1/GPa)
#
#
# Indices 1 2 3 4 5 6 
#
# 1 0.018421 -0.000711 -0.002643 0.001496 0.009283 0.006035
# 2 -0.000711 0.008435 -0.001351 0.003026 -0.000511 0.010205
# 3 -0.002643 -0.001351 0.007484 0.001550 0.006212 -0.002484
# 4 0.001496 0.003026 0.001550 0.020556 0.003936 0.006065
# 5 0.009283 -0.000511 0.006212 0.003936 0.040499 0.000005
# 6 0.006035 0.010205 -0.002484 0.006065 0.000005 0.033515
#
#
# Mechanical properties :
#
#
# Convention : Reuss Voigt Hill
#
# Bulk Modulus (GPa) = 40.11168 87.76150 63.93659
# Shear Modulus (GPa) = 34.09960 52.84194 43.47077
#
# Velocity S-wave (km/s) = 3.50841 4.36743 3.96127
# Velocity P-wave (km/s) = 5.55798 7.55724 6.63336
#
# Compressibility (1/GPa) = 0.02493039
#
# Stress axis : x y z
#
# Youngs Moduli (GPa) = 54.28496 118.55028 133.62530
#
# Poissons Ratio (x) = 0.08427 0.35317
# Poissons Ratio (y) = 0.03859 0.18054
# Poissons Ratio (z) = 0.14347 0.16017
#
# Static dielectric constant tensor:
#      x y z
#    x 2.583620 0.165230 0.065130 
#    y 0.165230 2.327480 0.079350 
#    z 0.065130 0.079350 2.242260 
# 
# From -- ./inp_files/53776.got.cif
#   From: 2010.05.17/outbox.cif.g08.bks.cpg/sg2_27_cif.got.tgz:53776.got - 2010.06.03 11:33:40.
