data_PCOD9008530
_publ_section_title
;
Structure prediction by ZEFSAII (Michael W. Deem and Ramdas Pophale) SiO2 
 PCOD9008530
Probable space group: P -1
;
_chemical_formula_sum "Si O2"
_cell_formula_units_Z 16
_cell_length_a 11.851540
_cell_length_b 9.289601
_cell_length_c 14.300011
_cell_angle_alpha 36.530138
_cell_angle_beta 128.922807
_cell_angle_gamma 123.581358
_cell_volume 725.115927
_symmetry_space_group_name_H-M "P -1"
_symmetry_group_IT_number 2
_symmetry_cell_setting 'triclinic'
loop_
_space_group_symop_operation_xyz
x,y,z
-x,-y,-z
loop_
_atom_site_type_symbol
_atom_site_label
_atom_site_fract_x
_atom_site_fract_y
_atom_site_fract_z
Si Si1 0.296927 0.625224 0.287101
Si Si2 0.801348 0.686439 0.422815
Si Si3 0.558936 0.812547 0.451931
Si Si4 0.108118 0.599236 0.611963
Si Si5 0.776388 0.167345 0.270508
Si Si6 0.614821 0.603919 0.926377
Si Si7 0.608525 0.345820 0.381031
Si Si8 0.843120 0.914646 0.007714
O O1 0.215087 0.499005 0.400771
O O2 0.453564 0.733159 0.351900
O O3 0.333992 0.397552 0.362801
O O4 0.213667 0.850798 0.093647
O O5 0.663165 0.599034 0.331266
O O6 0.948787 0.639318 0.471554
O O7 0.807984 0.956077 0.326565
O O8 0.459163 0.829446 0.481100
O O9 0.651487 0.046076 0.338398
O O10 0.105681 0.727678 0.646858
O O11 0.242359 0.717286 0.557399
O O12 0.140853 0.323960 0.797010
O O13 0.719410 0.394177 0.070963
O O14 0.515977 0.635128 0.769255
O O15 0.720898 0.824160 0.912739
O O16 0.500000 0.500000 0.000000
O O17 0.000000 0.000000 0.000000
#
# Coordination Sequence:
#
# PCOD9008530 Si02
#       8
#     2   2   2   2   2   2   2   2
#     4   9  18  36  61  88 118 158 210 242 298 375
#     4  10  21  40  61  89 123 163 208 248 312 371
#     4   9  20  37  60  91 119 158 200 253 307 363
#     4  11  22  39  60  93 125 162 209 253 310 365
#     4  10  21  39  65  88 122 167 203 252 307 374
#     4  11  22  41  61  94 126 159 210 256 312 366
#     4  11  23  40  61  93 127 158 202 269 306 363
#     4  11  21  38  66  87 120 171 209 247 301 381
#
# _framework density 22.065435000000001
#
# number of rings (size 3 to 8) (size 9 to 14) (size 15 to 20)
#    0.000    1.750    3.750    2.250    0.000    1.000 
#    4.500    0.000    0.000    0.750    0.000    0.000 
#    0.000    0.000    0.000    0.000    0.000    0.000 
#
# Total GULP energy -89307.470665 kJ/mol
# GULP energy per Si atom -5581.716917 kJ/mol
# Density = 2.201521 g / cm^3
# Si number density = 22.065435 Si / 1000 Ang^3
#
#
#
# Elastic Constant Matrix: (Units=GPa)
#
#
# Indices 1 2 3 4 5 6 
#
# 1 95.3727 25.4159 18.9215 -1.0282 5.6824 4.5060
# 2 25.4159 82.5147 38.8463 -0.2431 10.1412 1.6994
# 3 18.9215 38.8463 78.1256 -3.6909 15.3399 -8.2701
# 4 -1.0282 -0.2431 -3.6909 40.4790 -10.5893 13.2125
# 5 5.6824 10.1412 15.3399 -10.5893 29.7143 -4.8630
# 6 4.5060 1.6994 -8.2701 13.2125 -4.8630 42.8520
#
#
#
# Elastic Compliance Matrix: (Units=1/GPa)
#
#
# Indices 1 2 3 4 5 6 
#
# 1 0.011636 -0.002787 -0.001462 0.000518 -0.000600 -0.001623
# 2 -0.002787 0.016785 -0.007542 -0.000515 -0.001792 -0.001873
# 3 -0.001462 -0.007542 0.018523 -0.001317 -0.006575 0.003688
# 4 0.000518 -0.000515 -0.001317 0.029963 0.010063 -0.008385
# 5 -0.000600 -0.001792 -0.006575 0.010063 0.041437 0.000465
# 6 -0.001623 -0.001873 0.003688 -0.008385 0.000465 0.026931
#
#
# Mechanical properties :
#
#
# Convention : Reuss Voigt Hill
#
# Bulk Modulus (GPa) = 42.80282 46.93116 44.86699
# Shear Modulus (GPa) = 28.30547 34.13102 31.21824
#
# Velocity S-wave (km/s) = 3.58550 3.93722 3.76547
# Velocity P-wave (km/s) = 6.04825 6.47952 6.26759
#
# Compressibility (1/GPa) = 0.02336295
#
# Stress axis : x y z
#
# Youngs Moduli (GPa) = 85.94037 59.57558 53.98698
#
# Poissons Ratio (x) = 0.16605 0.07892
# Poissons Ratio (y) = 0.23953 0.40716
# Poissons Ratio (z) = 0.12562 0.44931
#
# Static dielectric constant tensor:
#      x y z
#    x 1.828590 -0.040130 0.030790 
#    y -0.040130 1.900990 -0.012950 
#    z 0.030790 -0.012950 1.821820 
# 
# From -- ./inp_files/406770.got.cif
#   From: 2010.05.17/outbox.cif.g08.bks.cpg/sg2_204_cif.got.tgz:406770.got - 2010.06.03 11:33:40.
