data_PCOD9008131
_publ_section_title
;
Structure prediction by ZEFSAII (Michael W. Deem and Ramdas Pophale) SiO2 
 PCOD9008131
Probable space group: P -1
;
_chemical_formula_sum "Si O2"
_cell_formula_units_Z 16
_cell_length_a 20.509955
_cell_length_b 5.580179
_cell_length_c 12.404476
_cell_angle_alpha 97.768788
_cell_angle_beta 143.881396
_cell_angle_gamma 97.554512
_cell_volume 755.496955
_symmetry_space_group_name_H-M "P -1"
_symmetry_group_IT_number 2
_symmetry_cell_setting 'triclinic'
loop_
_space_group_symop_operation_xyz
x,y,z
-x,-y,-z
loop_
_atom_site_type_symbol
_atom_site_label
_atom_site_fract_x
_atom_site_fract_y
_atom_site_fract_z
Si Si1 0.399616 0.615761 0.894982
Si Si2 0.328875 0.907626 0.381966
Si Si3 0.934726 0.755411 0.251075
Si Si4 0.181518 0.153017 0.682325
Si Si5 0.356934 0.156472 0.083441
Si Si6 0.173502 0.863153 0.987560
Si Si7 0.574410 0.372612 0.660445
Si Si8 0.573613 0.111632 0.277254
O O1 0.272208 0.393623 0.747365
O O2 0.384305 0.756748 0.774189
O O3 0.500000 0.500000 0.000000
O O4 0.466624 0.825897 0.090776
O O5 0.335739 0.666422 0.308042
O O6 0.324624 0.884104 0.503353
O O7 0.465308 0.125273 0.553314
O O8 0.222131 0.949158 0.179257
O O9 0.883581 0.749319 0.304499
O O10 0.899337 0.454329 0.144489
O O11 0.890020 0.952741 0.134773
O O12 0.079373 0.920605 0.466177
O O13 0.271391 0.053213 0.860152
O O14 0.351069 0.424114 0.135977
O O15 0.496309 0.243891 0.245468
O O16 0.298190 0.949149 0.088232
O O17 0.500000 0.500000 0.500000
#
# Coordination Sequence:
#
# PCOD9008131 Si02
#       8
#     2   2   2   2   2   2   2   2
#     4  11  23  42  57  88 121 161 205 255 300 372
#     4  11  21  33  55  85 128 162 198 255 305 383
#     4  10  24  40  62  95 116 166 206 260 314 365
#     4  10  21  39  64  84 124 158 206 259 309 359
#     4  11  19  35  61  89 129 159 195 253 311 388
#     4  11  22  38  59  91 126 156 206 250 314 365
#     4  11  19  32  52  90 124 166 193 238 323 381
#     4  11  23  35  59  89 119 164 207 238 314 376
#
# _framework density 21.178111999999999
#
# number of rings (size 3 to 8) (size 9 to 14) (size 15 to 20)
#    0.000    1.250    3.750    3.750    0.000    5.500 
#    0.000    0.000    0.000    1.500    0.000    0.000 
#    0.000    0.000    0.000    0.000    0.000    0.000 
#
# Total GULP energy -89282.469326 kJ/mol
# GULP energy per Si atom -5580.154333 kJ/mol
# Density = 2.112991 g / cm^3
# Si number density = 21.178112 Si / 1000 Ang^3
#
#
#
# Elastic Constant Matrix: (Units=GPa)
#
#
# Indices 1 2 3 4 5 6 
#
# 1 41.4395 23.8886 33.1772 4.1548 -7.8088 19.6967
# 2 23.8886 83.9397 55.3891 11.2700 -7.1425 14.5724
# 3 33.1772 55.3891 154.7325 6.7303 -11.7281 26.7973
# 4 4.1548 11.2700 6.7303 38.8926 7.6963 -3.6697
# 5 -7.8088 -7.1425 -11.7281 7.6963 31.8265 -1.2874
# 6 19.6967 14.5724 26.7973 -3.6697 -1.2874 33.0094
#
#
#
# Elastic Compliance Matrix: (Units=1/GPa)
#
#
# Indices 1 2 3 4 5 6 
#
# 1 0.041036 -0.004829 -0.002569 -0.006208 0.008705 -0.020619
# 2 -0.004829 0.017289 -0.004572 -0.004229 0.001975 -0.001433
# 3 -0.002569 -0.004572 0.009563 -0.000830 0.001897 -0.004230
# 4 -0.006208 -0.004229 -0.000830 0.030556 -0.009792 0.009260
# 5 0.008705 0.001975 0.001897 -0.009792 0.036773 -0.007261
# 6 -0.020619 -0.001433 -0.004230 0.009260 -0.007261 0.047410
#
#
# Mechanical properties :
#
#
# Convention : Reuss Voigt Hill
#
# Bulk Modulus (GPa) = 22.75484 56.11350 39.43417
# Shear Modulus (GPa) = 22.60241 31.92282 27.26261
#
# Velocity S-wave (km/s) = 3.27043 3.88667 3.59179
# Velocity P-wave (km/s) = 5.00288 6.83338 5.98849
#
# Compressibility (1/GPa) = 0.04394669
#
# Stress axis : x y z
#
# Youngs Moduli (GPa) = 24.36905 57.84052 104.57372
#
# Poissons Ratio (x) = 0.27933 0.26868
# Poissons Ratio (y) = 0.11769 0.47807
# Poissons Ratio (z) = 0.06261 0.26443
#
# Static dielectric constant tensor:
#      x y z
#    x 1.827770 -0.060990 -0.028260 
#    y -0.060990 1.909120 -0.016950 
#    z -0.028260 -0.016950 1.818230 
# 
# From -- ./inp_files/83311.got.cif
#   From: 2010.05.17/outbox.cif.g08.bks.cpg/sg2_42_cif.got.tgz:83311.got - 2010.06.03 11:33:40.
