data_PCOD9008688
_publ_section_title
;
Structure prediction by ZEFSAII (Michael W. Deem and Ramdas Pophale) SiO2 
 PCOD9008688
Probable space group: P -1
;
_chemical_formula_sum "Si O2"
_cell_formula_units_Z 12
_cell_length_a 15.182477
_cell_length_b 7.915037
_cell_length_c 7.980827
_cell_angle_alpha 145.028482
_cell_angle_beta 91.452447
_cell_angle_gamma 99.343213
_cell_volume 520.705362
_symmetry_space_group_name_H-M "P -1"
_symmetry_group_IT_number 2
_symmetry_cell_setting 'triclinic'
loop_
_space_group_symop_operation_xyz
x,y,z
-x,-y,-z
loop_
_atom_site_type_symbol
_atom_site_label
_atom_site_fract_x
_atom_site_fract_y
_atom_site_fract_z
Si Si1 0.432493 0.090989 0.200985
Si Si2 0.223314 0.892985 0.997810
Si Si3 0.071531 0.643896 0.267716
Si Si4 0.927538 0.998303 0.139869
Si Si5 0.216770 0.242058 0.599825
Si Si6 0.572645 0.530001 0.175309
O O1 0.459389 0.379830 0.568047
O O2 0.331774 0.033084 0.065548
O O3 0.500000 0.000000 0.000000
O O4 0.415623 0.806723 0.096659
O O5 0.206185 0.143430 0.325440
O O6 0.207327 0.585249 0.862461
O O7 0.153780 0.875397 0.828630
O O8 0.023432 0.760923 0.515799
O O9 0.145767 0.967363 0.476073
O O10 0.108650 0.360574 0.091651
O O11 0.000000 0.500000 0.000000
O O12 0.000000 0.000000 0.000000
O O13 0.321042 0.254316 0.667571
O O14 0.500000 0.500000 0.000000
#
# Coordination Sequence:
#
# PCOD9008688 Si02
#       6
#     2   2   2   2   2   2
#     4  10  21  39  65  94 129 170 212 263 322 379
#     4  10  22  43  66  93 131 173 215 266 323 382
#     4  12  26  44  68  97 129 171 217 269 326 387
#     4  12  26  44  68  97 129 171 217 269 326 387
#     4  10  22  43  66  93 131 173 215 266 323 382
#     4  10  21  39  65  94 129 170 212 263 322 379
#
# _framework density 23.045663999999999
#
# number of rings (size 3 to 8) (size 9 to 14) (size 15 to 20)
#    0.000    1.333    0.000    5.000    0.000    4.000 
#    0.000    3.333    0.000    0.000    0.000    0.000 
#    0.000    0.000    0.000    0.000    0.000    0.000 
#
# Total GULP energy -66973.037541 kJ/mol
# GULP energy per Si atom -5581.086462 kJ/mol
# Density = 2.299321 g / cm^3
# Si number density = 23.045664 Si / 1000 Ang^3
#
#
#
# Elastic Constant Matrix: (Units=GPa)
#
#
# Indices 1 2 3 4 5 6 
#
# 1 102.5395 52.8507 42.2011 -14.9050 -2.7567 -15.4436
# 2 52.8507 71.8981 35.5970 1.2616 7.3616 -13.0959
# 3 42.2011 35.5970 146.1711 -11.5768 -8.7546 -7.1077
# 4 -14.9050 1.2616 -11.5768 44.5463 -6.7086 -4.6167
# 5 -2.7567 7.3616 -8.7546 -6.7086 34.4322 -5.6339
# 6 -15.4436 -13.0959 -7.1077 -4.6167 -5.6339 31.9389
#
#
#
# Elastic Compliance Matrix: (Units=1/GPa)
#
#
# Indices 1 2 3 4 5 6 
#
# 1 0.019424 -0.013553 -0.000950 0.008286 0.006811 0.006022
# 2 -0.013553 0.026972 -0.003752 -0.007546 -0.009117 0.000972
# 3 -0.000950 -0.003752 0.008493 0.002622 0.003543 0.000896
# 4 0.008286 -0.007546 0.002622 0.028326 0.009656 0.007294
# 5 0.006811 -0.009117 0.003543 0.009656 0.035632 0.008025
# 6 0.006022 0.000972 0.000896 0.007294 0.008025 0.037290
#
#
# Mechanical properties :
#
#
# Convention : Reuss Voigt Hill
#
# Bulk Modulus (GPa) = 54.41439 64.65626 59.53533
# Shear Modulus (GPa) = 25.15443 34.84746 30.00094
#
# Velocity S-wave (km/s) = 3.30738 3.89280 3.61197
# Velocity P-wave (km/s) = 6.18448 6.95139 6.57912
#
# Compressibility (1/GPa) = 0.01837749
#
# Stress axis : x y z
#
# Youngs Moduli (GPa) = 51.48394 37.07584 117.74777
#
# Poissons Ratio (x) = 0.50250 0.11188
# Poissons Ratio (y) = 0.69777 0.44178
# Poissons Ratio (z) = 0.04892 0.13910
#
# Static dielectric constant tensor:
#      x y z
#    x 1.973040 0.063120 0.084040 
#    y 0.063120 1.924750 -0.016320 
#    z 0.084040 -0.016320 1.875820 
# 
# From -- ./inp_files/297179.got.cif
#   From: 2010.05.17/outbox.cif.g08.bks.cpg/sg2_149_cif.got.tgz:297179.got - 2010.06.03 11:33:40.
