data_PCOD9008402
_publ_section_title
;
Structure prediction by ZEFSAII (Michael W. Deem and Ramdas Pophale) SiO2 
 PCOD9008402
Probable space group: P -1
;
_chemical_formula_sum "Si O2"
_cell_formula_units_Z 16
_cell_length_a 13.131035
_cell_length_b 8.284070
_cell_length_c 17.620572
_cell_angle_alpha 139.265534
_cell_angle_beta 34.909802
_cell_angle_gamma 139.531115
_cell_volume 664.086714
_symmetry_space_group_name_H-M "P -1"
_symmetry_group_IT_number 2
_symmetry_cell_setting 'triclinic'
loop_
_space_group_symop_operation_xyz
x,y,z
-x,-y,-z
loop_
_atom_site_type_symbol
_atom_site_label
_atom_site_fract_x
_atom_site_fract_y
_atom_site_fract_z
Si Si1 0.994207 0.961487 0.706131
Si Si2 0.703158 0.433970 0.117165
Si Si3 0.592566 0.827425 0.428927
Si Si4 0.349214 0.390475 0.984659
Si Si5 0.854888 0.193584 0.726465
Si Si6 0.751602 0.623690 0.525694
Si Si7 0.905379 0.162377 0.992042
Si Si8 0.370431 0.457168 0.261062
O O1 0.929503 0.091083 0.719916
O O2 0.966829 0.093040 0.847555
O O3 0.217652 0.006948 0.580749
O O4 0.824925 0.673746 0.712917
O O5 0.657070 0.670586 0.268407
O O6 0.505386 0.284697 0.139463
O O7 0.905574 0.592864 0.007546
O O8 0.741517 0.268587 0.103888
O O9 0.423390 0.589009 0.489230
O O10 0.500000 0.000000 0.500000
O O11 0.263813 0.624402 0.116177
O O12 0.182448 0.105587 0.002234
O O13 0.500000 0.500000 0.000000
O O14 0.471280 0.348794 0.823252
O O15 0.047456 0.364015 0.624165
O O16 0.757516 0.925429 0.638831
O O17 0.717553 0.513726 0.593695
#
# Coordination Sequence:
#
# PCOD9008402 Si02
#       8
#     2   2   2   2   2   2   2   2
#     4  10  21  39  66  94 126 174 217 261 326 391
#     4   9  21  40  64  90 129 176 207 264 328 388
#     4  10  22  39  68  93 123 170 219 268 321 385
#     4  12  25  36  67 105 132 165 220 275 316 384
#     4  10  23  43  67  98 129 174 220 265 321 393
#     4   9  22  43  68  88 133 177 213 266 328 387
#     4  10  21  39  64  95 134 168 213 262 331 381
#     4  10  21  41  65  96 128 174 216 264 325 384
#
# _framework density 24.093240000000002
#
# number of rings (size 3 to 8) (size 9 to 14) (size 15 to 20)
#    0.000    2.000    1.250    0.750    8.750    3.500 
#    0.000   13.750    0.000    0.000    0.000    0.000 
#    0.000    0.000    0.000    0.000    0.000    0.000 
#
# Total GULP energy -89097.313907 kJ/mol
# GULP energy per Si atom -5568.582119 kJ/mol
# Density = 2.403840 g / cm^3
# Si number density = 24.093240 Si / 1000 Ang^3
#
#
#
# Elastic Constant Matrix: (Units=GPa)
#
#
# Indices 1 2 3 4 5 6 
#
# 1 38.3426 13.4414 -16.5010 -11.9072 -24.4173 16.2560
# 2 13.4414 120.7627 27.7427 -18.0936 -22.6626 16.2079
# 3 -16.5010 27.7427 39.6275 -18.5612 -5.3294 -2.1277
# 4 -11.9072 -18.0936 -18.5612 43.6136 -4.8332 -5.8442
# 5 -24.4173 -22.6626 -5.3294 -4.8332 44.3303 -13.2262
# 6 16.2560 16.2079 -2.1277 -5.8442 -13.2262 41.0714
#
#
#
# Elastic Compliance Matrix: (Units=1/GPa)
#
#
# Indices 1 2 3 4 5 6 
#
# 1 -0.373892 0.031033 -0.334465 -0.260579 -0.259347 -0.002184
# 2 0.031033 0.008736 0.021146 0.023553 0.025780 -0.002982
# 3 -0.334465 0.021146 -0.261004 -0.217853 -0.226591 0.006546
# 4 -0.260579 0.023553 -0.217853 -0.149463 -0.172235 0.005824
# 5 -0.259347 0.025780 -0.226591 -0.172235 -0.150848 0.007652
# 6 -0.002184 -0.002982 0.006546 0.005824 0.007652 0.030021
#
#
# Mechanical properties :
#
#
# Convention : Reuss Voigt Hill
#
# Bulk Modulus (GPa) = -0.83982 27.56654 13.36336
# Shear Modulus (GPa) = -6.86069 37.40637 15.27284
#
# Velocity S-wave (km/s) = -1.68930 3.94454 2.52048
# Velocity P-wave (km/s) = 2.03821 5.67559 3.74553
#
# Compressibility (1/GPa) = -1.19073073
#
# Stress axis : x y z
#
# Youngs Moduli (GPa) = -2.67457 114.47232 -3.83136
#
# Poissons Ratio (x) = -3.55247 -1.28146
# Poissons Ratio (y) = 0.08300 0.08102
# Poissons Ratio (z) = -0.89455 -2.42061
#
# Static dielectric constant tensor:
#      x y z
#    x 2.090570 0.104400 -0.023950 
#    y 0.104400 2.069100 0.001040 
#    z -0.023950 0.001040 1.960690 
# 
# From -- ./inp_files/597456.got.cif
#   From: 2010.05.17/outbox.cif.g08.bks.cpg/sg2_299_cif.got.tgz:597456.got - 2010.06.03 11:33:40.
