data_PCOD9008087
_publ_section_title
;
Structure prediction by ZEFSAII (Michael W. Deem and Ramdas Pophale) SiO2 
 PCOD9008087
Probable space group: P -1
;
_chemical_formula_sum "Si O2"
_cell_formula_units_Z 13
_cell_length_a 6.705478
_cell_length_b 10.571823
_cell_length_c 8.244424
_cell_angle_alpha 107.452300
_cell_angle_beta 99.738645
_cell_angle_gamma 67.902721
_cell_volume 515.533238
_symmetry_space_group_name_H-M "P -1"
_symmetry_group_IT_number 2
_symmetry_cell_setting 'triclinic'
loop_
_space_group_symop_operation_xyz
x,y,z
-x,-y,-z
loop_
_atom_site_type_symbol
_atom_site_label
_atom_site_fract_x
_atom_site_fract_y
_atom_site_fract_z
Si Si1 0.011367 0.087409 0.316050
Si Si2 0.676283 0.933368 0.138094
Si Si3 0.002021 0.270701 0.077111
Si Si4 0.779865 0.563309 0.334495
Si Si5 0.500000 0.000000 0.500000
Si Si6 0.814918 0.368574 0.548095
Si Si7 0.379257 0.636814 0.142978
O O1 0.062665 0.167815 0.198112
O O2 0.827910 0.214000 0.437986
O O3 0.231957 0.023656 0.423387
O O4 0.876395 0.991855 0.197806
O O5 0.565347 0.965889 0.307948
O O6 0.801498 0.770635 0.037405
O O7 0.500000 0.000000 0.000000
O O8 0.919070 0.432112 0.191201
O O9 0.790689 0.258024 0.956234
O O10 0.704635 0.490429 0.448365
O O11 0.570863 0.673020 0.266773
O O12 0.937636 0.641222 0.439647
O O13 0.743245 0.398935 0.734311
O O14 0.500000 0.500000 0.000000
#
# Coordination Sequence:
#
# PCOD9008087 Si02
#       7
#     2   2   2   2   1   2   2
#     4  11  25  46  69 102 137 181 232 284 348 404
#     4  12  26  49  71 101 139 181 233 289 338 411
#     4  10  22  44  65  96 137 176 224 286 337 404
#     4   9  21  41  65  94 132 176 225 274 346 399
#     4  12  26  46  76 102 134 188 230 284 356 402
#     4  10  21  42  64  95 136 171 225 282 328 420
#     4  10  21  39  63  97 132 178 221 275 342 402
#
# _framework density 25.216608999999998
#
# number of rings (size 3 to 8) (size 9 to 14) (size 15 to 20)
#    0.000    1.538    1.538    2.308    0.000    4.923 
#   13.846    0.000    0.000    0.000    0.000    0.000 
#    0.000    0.000    0.000    0.000    0.000    0.000 
#
# Total GULP energy -72438.750805 kJ/mol
# GULP energy per Si atom -5572.211600 kJ/mol
# Density = 2.515921 g / cm^3
# Si number density = 25.216609 Si / 1000 Ang^3
#
#
#
# Elastic Constant Matrix: (Units=GPa)
#
#
# Indices 1 2 3 4 5 6 
#
# 1 78.0916 34.4615 58.3386 -8.9607 -1.5658 -9.6999
# 2 34.4615 78.8697 49.4640 -11.1718 6.5946 -7.2550
# 3 58.3386 49.4640 183.7672 -26.6890 -20.3101 -19.0953
# 4 -8.9607 -11.1718 -26.6890 35.3239 -18.5104 13.7338
# 5 -1.5658 6.5946 -20.3101 -18.5104 73.1472 -5.1441
# 6 -9.6999 -7.2550 -19.0953 13.7338 -5.1441 29.7452
#
#
#
# Elastic Compliance Matrix: (Units=1/GPa)
#
#
# Indices 1 2 3 4 5 6 
#
# 1 0.018629 -0.005233 -0.004560 -0.001704 -0.000648 0.002546
# 2 -0.005233 0.017224 -0.003191 0.000515 -0.002436 -0.000213
# 3 -0.004560 -0.003191 0.009394 0.006798 0.004619 0.001425
# 4 -0.001704 0.000515 0.006798 0.045386 0.012242 -0.014904
# 5 -0.000648 -0.002436 0.004619 0.012242 0.018233 -0.000339
# 6 0.002546 -0.000213 0.001425 -0.014904 -0.000339 0.042135
#
#
# Mechanical properties :
#
#
# Convention : Reuss Voigt Hill
#
# Bulk Modulus (GPa) = 51.87056 69.47295 60.67175
# Shear Modulus (GPa) = 27.26329 40.87423 34.06876
#
# Velocity S-wave (km/s) = 3.29167 4.03044 3.67964
# Velocity P-wave (km/s) = 5.92127 7.01923 6.49350
#
# Compressibility (1/GPa) = 0.01927876
#
# Stress axis : x y z
#
# Youngs Moduli (GPa) = 53.67979 58.05774 106.44905
#
# Poissons Ratio (x) = 0.30382 0.48539
# Poissons Ratio (y) = 0.28091 0.33972
# Poissons Ratio (z) = 0.24477 0.18529
#
# Static dielectric constant tensor:
#      x y z
#    x 2.012590 -0.012150 0.013360 
#    y -0.012150 2.016600 0.017000 
#    z 0.013360 0.017000 1.983340 
# 
# From -- ./inp_files/131161.got.cif
#   From: 2010.05.17/outbox.cif.g08.bks.cpg/sg2_66_cif.got.tgz:131161.got - 2010.06.03 11:33:40.
