data_PCOD9008598
_publ_section_title
;
Structure prediction by ZEFSAII (Michael W. Deem and Ramdas Pophale) SiO2 
 PCOD9008598
Probable space group: P -1
;
_chemical_formula_sum "Si O2"
_cell_formula_units_Z 14
_cell_length_a 14.454974
_cell_length_b 5.312058
_cell_length_c 20.090421
_cell_angle_alpha 84.996040
_cell_angle_beta 19.997332
_cell_angle_gamma 81.464044
_cell_volume 515.442486
_symmetry_space_group_name_H-M "P -1"
_symmetry_group_IT_number 2
_symmetry_cell_setting 'triclinic'
loop_
_space_group_symop_operation_xyz
x,y,z
-x,-y,-z
loop_
_atom_site_type_symbol
_atom_site_label
_atom_site_fract_x
_atom_site_fract_y
_atom_site_fract_z
Si Si1 0.954663 0.428462 0.791903
Si Si2 0.898310 0.928807 0.178073
Si Si3 0.021529 0.669229 0.367994
Si Si4 0.578743 0.410591 0.239974
Si Si5 0.341059 0.083957 0.176948
Si Si6 0.664672 0.802789 0.075524
Si Si7 0.535174 0.363056 0.551503
O O1 0.102173 0.213823 0.747484
O O2 0.901567 0.304546 0.762116
O O3 0.147108 0.641337 0.644101
O O4 0.698894 0.581852 0.001364
O O5 0.606612 0.887376 0.346689
O O6 0.140785 0.762363 0.973000
O O7 0.035236 0.168665 0.100292
O O8 0.172282 0.375237 0.286008
O O9 0.691464 0.701214 0.591797
O O10 0.134296 0.883024 0.327784
O O11 0.527363 0.690149 0.232928
O O12 0.610158 0.453233 0.295783
O O13 0.527099 0.044139 0.119101
O O14 0.500000 0.000000 0.000000
O O15 0.500000 0.500000 0.500000
#
# Coordination Sequence:
#
# PCOD9008598 Si02
#       7
#     2   2   2   2   2   2   2
#     4   9  20  40  62  96 128 169 224 278 325 392
#     4  10  21  39  65  91 132 174 213 275 335 400
#     4  11  25  43  69  99 135 177 227 280 324 394
#     4  10  24  42  62  95 134 167 220 272 337 399
#     4  12  25  42  71  99 135 177 230 273 334 387
#     4  11  24  38  63  94 133 172 219 274 333 395
#     4   9  19  41  68  92 124 171 221 274 336 400
#
# _framework density 27.16113
#
# number of rings (size 3 to 8) (size 9 to 14) (size 15 to 20)
#    0.000    1.714    1.429    1.714    6.000    2.286 
#    0.000    0.000    0.000    0.000    0.000    0.000 
#    0.000    0.000    0.000    0.000    0.000    0.000 
#
# Total GULP energy -78359.288110 kJ/mol
# GULP energy per Si atom -5597.092008 kJ/mol
# Density = 2.709931 g / cm^3
# Si number density = 27.161130 Si / 1000 Ang^3
#
#
#
# Elastic Constant Matrix: (Units=GPa)
#
#
# Indices 1 2 3 4 5 6 
#
# 1 129.8254 28.0177 57.1152 -7.3513 1.4332 6.9595
# 2 28.0177 102.7059 55.5408 -21.7680 -4.4515 22.0041
# 3 57.1152 55.5408 110.3507 -13.8250 -5.9201 12.9551
# 4 -7.3513 -21.7680 -13.8250 55.2680 17.1334 -8.1698
# 5 1.4332 -4.4515 -5.9201 17.1334 45.1848 -3.7345
# 6 6.9595 22.0041 12.9551 -8.1698 -3.7345 36.9361
#
#
#
# Elastic Compliance Matrix: (Units=1/GPa)
#
#
# Indices 1 2 3 4 5 6 
#
# 1 0.010029 0.000196 -0.005278 0.000426 -0.001167 -0.000179
# 2 0.000196 0.015400 -0.006714 0.003930 -0.001365 -0.006125
# 3 -0.005278 -0.006714 0.015276 -0.000022 0.001498 -0.000217
# 4 0.000426 0.003930 -0.000022 0.022427 -0.007989 0.001739
# 5 -0.001167 -0.001365 0.001498 -0.007989 0.025367 0.001305
# 6 -0.000179 -0.006125 -0.000217 0.001739 0.001305 0.031349
#
#
# Mechanical properties :
#
#
# Convention : Reuss Voigt Hill
#
# Bulk Modulus (GPa) = 58.43354 69.35882 63.89618
# Shear Modulus (GPa) = 33.52467 40.95833 37.24150
#
# Velocity S-wave (km/s) = 3.51706 3.88748 3.70690
# Velocity P-wave (km/s) = 6.16873 6.76325 6.47282
#
# Compressibility (1/GPa) = 0.01711346
#
# Stress axis : x y z
#
# Youngs Moduli (GPa) = 99.71341 64.93530 65.46131
#
# Poissons Ratio (x) = -0.01275 0.34548
# Poissons Ratio (y) = -0.01959 0.43954
# Poissons Ratio (z) = 0.52625 0.43601
#
# Static dielectric constant tensor:
#      x y z
#    x 2.090060 -0.019200 -0.022330 
#    y -0.019200 2.175220 0.003730 
#    z -0.022330 0.003730 2.162870 
# 
# From -- ./inp_files/33590.got.cif
#   From: 2010.05.17/outbox.cif.g08.bks.cpg/sg2_17_cif.got.tgz:33590.got - 2010.06.03 11:33:40.
