data_PCOD9008308
_publ_section_title
;
Structure prediction by ZEFSAII (Michael W. Deem and Ramdas Pophale) SiO2 
 PCOD9008308
Probable space group: P -1
;
_chemical_formula_sum "Si O2"
_cell_formula_units_Z 10
_cell_length_a 7.589867
_cell_length_b 15.293646
_cell_length_c 5.669832
_cell_angle_alpha 74.975470
_cell_angle_beta 71.840382
_cell_angle_gamma 37.561775
_cell_volume 381.142552
_symmetry_space_group_name_H-M "P -1"
_symmetry_group_IT_number 2
_symmetry_cell_setting 'triclinic'
loop_
_space_group_symop_operation_xyz
x,y,z
-x,-y,-z
loop_
_atom_site_type_symbol
_atom_site_label
_atom_site_fract_x
_atom_site_fract_y
_atom_site_fract_z
Si Si1 0.694290 0.275824 0.688140
Si Si2 0.073668 0.413886 0.803886
Si Si3 0.413829 0.667233 0.784335
Si Si4 0.262659 0.932818 0.688454
Si Si5 0.545536 0.877962 0.106173
O O1 0.413205 0.319451 0.709621
O O2 0.713552 0.328850 0.404776
O O3 0.636158 0.345192 0.915311
O O4 0.970807 0.103816 0.710997
O O5 0.128520 0.286435 0.896040
O O6 0.771580 0.539034 0.697790
O O7 0.000000 0.500000 0.000000
O O8 0.252482 0.827561 0.744409
O O9 0.411731 0.910073 0.400321
O O10 0.427993 0.883882 0.900972
O O11 0.500000 0.000000 0.000000
#
# Coordination Sequence:
#
# PCOD9008308 Si02
#       5
#     2   2   2   2   2
#     4  11  21  34  62  98 122 147 197 265 302 347
#     4  10  21  39  64  93 122 154 204 250 306 347
#     4  11  20  35  61  96 120 151 195 253 309 347
#     4  12  22  40  63  92 122 158 204 252 303 351
#     4  12  26  41  62  88 125 167 204 240 298 373
#
# _framework density 26.236903000000002
#
# number of rings (size 3 to 8) (size 9 to 14) (size 15 to 20)
#    0.000    0.800    6.000    3.600    0.000    0.000 
#    0.000    0.000    0.000   16.800    0.000    0.000 
#    0.000    0.000    0.000    0.000    0.000    0.000 
#
# Total GULP energy -55750.729512 kJ/mol
# GULP energy per Si atom -5575.072951 kJ/mol
# Density = 2.617719 g / cm^3
# Si number density = 26.236903 Si / 1000 Ang^3
#
#
#
# Elastic Constant Matrix: (Units=GPa)
#
#
# Indices 1 2 3 4 5 6 
#
# 1 40.4038 1.9126 44.2049 -4.3360 16.7332 -9.5767
# 2 1.9126 182.7174 50.7233 0.7355 12.6204 -33.6303
# 3 44.2049 50.7233 250.0433 -1.9009 39.8315 -15.3213
# 4 -4.3360 0.7355 -1.9009 54.1911 -8.1636 14.0479
# 5 16.7332 12.6204 39.8315 -8.1636 36.3932 -12.7385
# 6 -9.5767 -33.6303 -15.3213 14.0479 -12.7385 33.1577
#
#
#
# Elastic Compliance Matrix: (Units=1/GPa)
#
#
# Indices 1 2 3 4 5 6 
#
# 1 0.035750 0.003116 -0.004959 -0.000835 -0.009515 0.007892
# 2 0.003116 0.007487 -0.001598 -0.002138 0.000314 0.008782
# 3 -0.004959 -0.001598 0.005750 -0.000319 -0.004184 -0.001868
# 4 -0.000835 -0.002138 -0.000319 0.021566 0.002564 -0.010709
# 5 -0.009515 0.000314 -0.004184 0.002564 0.040427 0.010082
# 6 0.007892 0.008782 -0.001868 -0.010709 0.010082 0.048892
#
#
# Mechanical properties :
#
#
# Convention : Reuss Voigt Hill
#
# Bulk Modulus (GPa) = 23.75054 74.09401 48.92227
# Shear Modulus (GPa) = 27.65626 49.83664 38.74645
#
# Velocity S-wave (km/s) = 3.25021 4.36304 3.84707
# Velocity P-wave (km/s) = 4.81219 7.32688 6.19840
#
# Compressibility (1/GPa) = 0.04210431
#
# Stress axis : x y z
#
# Youngs Moduli (GPa) = 27.97184 133.56268 173.91762
#
# Poissons Ratio (x) = -0.41615 0.86251
# Poissons Ratio (y) = -0.08715 0.27789
# Poissons Ratio (z) = 0.13872 0.21341
#
# Static dielectric constant tensor:
#      x y z
#    x 2.103250 -0.059770 -0.137630 
#    y -0.059770 2.032480 0.027810 
#    z -0.137630 0.027810 2.267060 
# 
# From -- ./inp_files/17960.got.cif
#   From: 2010.05.17/outbox.cif.g08.bks.cpg/sg2_9_cif.got.tgz:17960.got - 2010.06.03 11:33:40.
