data_PCOD9008359
_publ_section_title
;
Structure prediction by ZEFSAII (Michael W. Deem and Ramdas Pophale) SiO2 
 PCOD9008359
Probable space group: P -1
;
_chemical_formula_sum "Si O2"
_cell_formula_units_Z 16
_cell_length_a 14.579080
_cell_length_b 5.664944
_cell_length_c 12.179371
_cell_angle_alpha 41.680275
_cell_angle_beta 99.059081
_cell_angle_gamma 109.461203
_cell_volume 623.940367
_symmetry_space_group_name_H-M "P -1"
_symmetry_group_IT_number 2
_symmetry_cell_setting 'triclinic'
loop_
_space_group_symop_operation_xyz
x,y,z
-x,-y,-z
loop_
_atom_site_type_symbol
_atom_site_label
_atom_site_fract_x
_atom_site_fract_y
_atom_site_fract_z
Si Si1 0.190157 0.890620 0.253179
Si Si2 0.708955 0.929915 0.251573
Si Si3 0.559347 0.035115 0.344061
Si Si4 0.556214 0.787713 0.008765
Si Si5 0.650490 0.078779 0.569426
Si Si6 0.939715 0.959979 0.669098
Si Si7 0.233478 0.821032 0.069423
Si Si8 0.140051 0.019596 0.574685
O O1 0.278235 0.083511 0.289363
O O2 0.206113 0.070721 0.073575
O O3 0.189741 0.461588 0.400874
O O4 0.083144 0.849453 0.293108
O O5 0.709922 0.504447 0.399878
O O6 0.782517 0.121461 0.298686
O O7 0.603845 0.934654 0.275448
O O8 0.746065 0.103361 0.081196
O O9 0.586806 0.486878 0.193610
O O10 0.603216 0.895425 0.508702
O O11 0.441918 0.905258 0.380640
O O12 0.500000 0.500000 0.000000
O O13 0.500000 0.000000 0.000000
O O14 0.656665 0.114645 0.883158
O O15 0.863798 0.541840 0.817830
O O16 0.899917 0.142118 0.495269
O O17 0.047234 0.970108 0.653732
#
# Coordination Sequence:
#
# PCOD9008359 Si02
#       8
#     2   2   2   2   2   2   2   2
#     4  10  21  39  64  94 128 175 219 284 339 410
#     4  11  22  42  64  93 139 176 226 283 347 405
#     4  11  23  40  66  91 129 181 224 281 331 410
#     4  12  27  45  68 101 141 188 229 282 346 417
#     4  10  22  40  62  94 126 171 234 270 338 405
#     4  10  21  40  67  93 132 170 231 284 344 411
#     4  11  25  39  63  95 135 171 224 280 344 413
#     4   9  21  41  65  97 125 177 227 284 342 412
#
# _framework density 25.643477000000001
#
# number of rings (size 3 to 8) (size 9 to 14) (size 15 to 20)
#    0.000    1.500    1.250    3.000    5.250    0.500 
#    4.500    0.625    0.000    0.000    0.000    0.000 
#    0.000    0.000    0.000    0.000    0.000    0.000 
#
# Total GULP energy -89261.855144 kJ/mol
# GULP energy per Si atom -5578.865946 kJ/mol
# Density = 2.558511 g / cm^3
# Si number density = 25.643477 Si / 1000 Ang^3
#
#
#
# Elastic Constant Matrix: (Units=GPa)
#
#
# Indices 1 2 3 4 5 6 
#
# 1 90.3965 16.7602 38.8936 15.4087 -40.1812 -7.8735
# 2 16.7602 70.9762 31.1388 3.8714 -10.4927 -3.9275
# 3 38.8936 31.1388 104.5982 18.2171 -26.6118 -4.3203
# 4 15.4087 3.8714 18.2171 53.7174 -10.7501 -17.4010
# 5 -40.1812 -10.4927 -26.6118 -10.7501 42.5862 2.0145
# 6 -7.8735 -3.9275 -4.3203 -17.4010 2.0145 42.2850
#
#
#
# Elastic Compliance Matrix: (Units=1/GPa)
#
#
# Indices 1 2 3 4 5 6 
#
# 1 0.020225 -0.000914 -0.002744 -0.000680 0.016862 0.002318
# 2 -0.000914 0.016393 -0.004544 0.001171 0.000569 0.001343
# 3 -0.002744 -0.004544 0.013420 -0.002954 0.003977 -0.000967
# 4 -0.000680 0.001171 -0.002954 0.023338 0.003261 0.009129
# 5 0.016862 0.000569 0.003977 0.003261 0.042703 0.002906
# 6 0.002318 0.001343 -0.000967 0.009129 0.002906 0.027725
#
#
# Mechanical properties :
#
#
# Convention : Reuss Voigt Hill
#
# Bulk Modulus (GPa) = 29.73178 48.83956 39.28567
# Shear Modulus (GPa) = 29.16809 39.66293 34.41551
#
# Velocity S-wave (km/s) = 3.37626 3.93709 3.66741
# Velocity P-wave (km/s) = 5.17864 6.30511 5.76944
#
# Compressibility (1/GPa) = 0.03363405
#
# Stress axis : x y z
#
# Youngs Moduli (GPa) = 49.44255 61.00088 74.51577
#
# Poissons Ratio (x) = 0.05575 0.20450
# Poissons Ratio (y) = 0.04518 0.33860
# Poissons Ratio (z) = 0.13569 0.27719
#
# Static dielectric constant tensor:
#      x y z
#    x 1.992870 0.018060 0.017140 
#    y 0.018060 2.259690 0.000130 
#    z 0.017140 0.000130 2.081040 
# 
# From -- ./inp_files/441573.got.cif
#   From: 2010.05.17/outbox.cif.g08.bks.cpg/sg2_221_cif.got.tgz:441573.got - 2010.06.03 11:33:40.
