data_PCOD9008214
_publ_section_title
;
Structure prediction by ZEFSAII (Michael W. Deem and Ramdas Pophale) SiO2 
 PCOD9008214
Probable space group: P -1
;
_chemical_formula_sum "Si O2"
_cell_formula_units_Z 16
_cell_length_a 11.714667
_cell_length_b 9.586892
_cell_length_c 14.576571
_cell_angle_alpha 112.627765
_cell_angle_beta 133.497089
_cell_angle_gamma 103.301133
_cell_volume 738.316952
_symmetry_space_group_name_H-M "P -1"
_symmetry_group_IT_number 2
_symmetry_cell_setting 'triclinic'
loop_
_space_group_symop_operation_xyz
x,y,z
-x,-y,-z
loop_
_atom_site_type_symbol
_atom_site_label
_atom_site_fract_x
_atom_site_fract_y
_atom_site_fract_z
Si Si1 0.972612 0.661783 0.037456
Si Si2 0.511294 0.738114 0.028971
Si Si3 0.230589 0.947977 0.572543
Si Si4 0.158622 0.272967 0.829257
Si Si5 0.064274 0.551241 0.654538
Si Si6 0.487677 0.045339 0.400675
Si Si7 0.765864 0.736683 0.806316
Si Si8 0.286887 0.513446 0.451122
O O1 0.927082 0.688457 0.122290
O O2 0.787049 0.611696 0.856887
O O3 0.221817 0.902785 0.203216
O O4 0.000000 0.500000 0.000000
O O5 0.686769 0.763947 0.070075
O O6 0.668297 0.918807 0.243009
O O7 0.334224 0.500579 0.924515
O O8 0.336887 0.725479 0.874776
O O9 0.442593 0.040907 0.650122
O O10 0.060344 0.926104 0.407913
O O11 0.073714 0.690815 0.442589
O O12 0.000000 0.500000 0.500000
O O13 0.938661 0.605906 0.644529
O O14 0.657202 0.304227 0.537722
O O15 0.500000 0.000000 0.500000
O O16 0.527672 0.658085 0.675992
O O17 0.749261 0.656576 0.674875
O O18 0.000000 0.000000 0.000000
#
# Coordination Sequence:
#
# PCOD9008214 Si02
#       8
#     2   2   2   2   2   2   2   2
#     4  12  24  38  67  99 129 170 217 264 325 396
#     4  10  22  40  64  88 125 171 206 266 329 368
#     4  10  21  39  64  90 125 165 210 265 323 386
#     4  10  22  41  60  93 130 159 214 268 317 386
#     4  10  24  42  62  92 123 166 223 262 309 386
#     4  11  20  37  63  97 131 164 212 263 325 387
#     4  11  24  44  65  94 131 170 211 264 334 387
#     4  10  24  43  64  91 133 171 213 270 321 390
#
# _framework density 21.670909999999999
#
# number of rings (size 3 to 8) (size 9 to 14) (size 15 to 20)
#    0.000    1.500    2.500    1.875    7.000    0.500 
#    2.250    0.000    0.000    0.000    0.000    0.000 
#    0.000    0.000    0.000    0.000    0.000    0.000 
#
# Total GULP energy -89312.958818 kJ/mol
# GULP energy per Si atom -5582.059926 kJ/mol
# Density = 2.162159 g / cm^3
# Si number density = 21.670910 Si / 1000 Ang^3
#
#
#
# Elastic Constant Matrix: (Units=GPa)
#
#
# Indices 1 2 3 4 5 6 
#
# 1 142.3595 22.3395 55.5634 -12.1521 11.7443 -17.6735
# 2 22.3395 45.4753 18.1317 -19.8652 7.8273 -8.2608
# 3 55.5634 18.1317 124.7609 -18.1437 7.1495 -20.0629
# 4 -12.1521 -19.8652 -18.1437 36.4466 -7.9674 3.5435
# 5 11.7443 7.8273 7.1495 -7.9674 34.0825 -5.8325
# 6 -17.6735 -8.2608 -20.0629 3.5435 -5.8325 23.2386
#
#
#
# Elastic Compliance Matrix: (Units=1/GPa)
#
#
# Indices 1 2 3 4 5 6 
#
# 1 0.009134 -0.002692 -0.003211 -0.000634 -0.001501 0.002938
# 2 -0.002692 0.031417 -0.000036 0.015234 -0.001631 0.006358
# 3 -0.003211 -0.000036 0.011053 0.003950 0.000866 0.006703
# 4 -0.000634 0.015234 0.003950 0.038324 0.005515 0.003884
# 5 -0.001501 -0.001631 0.000866 0.005515 0.032422 0.006323
# 6 0.002938 0.006358 0.006703 0.003884 0.006323 0.054308
#
#
# Mechanical properties :
#
#
# Convention : Reuss Voigt Hill
#
# Bulk Modulus (GPa) = 25.17111 56.07390 40.62250
# Shear Modulus (GPa) = 24.77977 33.19094 28.98536
#
# Velocity S-wave (km/s) = 3.38517 3.91780 3.66118
# Velocity P-wave (km/s) = 5.18841 6.81153 6.05460
#
# Compressibility (1/GPa) = 0.03972809
#
# Stress axis : x y z
#
# Youngs Moduli (GPa) = 109.47516 31.83009 90.47187
#
# Poissons Ratio (x) = 0.08568 0.29047
# Poissons Ratio (y) = 0.29469 0.00324
# Poissons Ratio (z) = 0.35148 0.00114
#
# Static dielectric constant tensor:
#      x y z
#    x 1.792800 -0.038000 0.028390 
#    y -0.038000 1.848900 -0.028930 
#    z 0.028390 -0.028930 1.837660 
# 
# From -- ./inp_files/519063.got.cif
#   From: 2010.05.17/outbox.cif.g08.bks.cpg/sg2_260_cif.got.tgz:519063.got - 2010.06.03 11:33:40.
