data_PCOD9008411
_publ_section_title
;
Structure prediction by ZEFSAII (Michael W. Deem and Ramdas Pophale) SiO2 
 PCOD9008411
Probable space group: P -1
;
_chemical_formula_sum "Si O2"
_cell_formula_units_Z 12
_cell_length_a 10.984412
_cell_length_b 11.279734
_cell_length_c 5.152101
_cell_angle_alpha 83.816838
_cell_angle_beta 69.194772
_cell_angle_gamma 65.703631
_cell_volume 543.320610
_symmetry_space_group_name_H-M "P -1"
_symmetry_group_IT_number 2
_symmetry_cell_setting 'triclinic'
loop_
_space_group_symop_operation_xyz
x,y,z
-x,-y,-z
loop_
_atom_site_type_symbol
_atom_site_label
_atom_site_fract_x
_atom_site_fract_y
_atom_site_fract_z
Si Si1 0.676065 0.827565 0.809964
Si Si2 0.434903 0.376745 0.147987
Si Si3 0.607592 0.332061 0.516119
Si Si4 0.807335 0.451677 0.106229
Si Si5 0.536800 0.095258 0.636373
Si Si6 0.088440 0.379428 0.643532
O O1 0.580889 0.759106 0.761314
O O2 0.824530 0.740391 0.583512
O O3 0.637074 0.980402 0.781745
O O4 0.618721 0.817668 0.143792
O O5 0.177348 0.437360 0.746883
O O6 0.558278 0.354815 0.848043
O O7 0.293863 0.474570 0.080597
O O8 0.739621 0.364330 0.326577
O O9 0.482425 0.408449 0.382788
O O10 0.621986 0.184140 0.493522
O O11 0.966734 0.363101 0.912804
O O12 0.500000 0.000000 0.500000
O O13 0.000000 0.500000 0.500000
#
# Coordination Sequence:
#
# PCOD9008411 Si02
#       6
#     2   2   2   2   2   2
#     4  10  21  39  64  96 122 171 219 262 320 381
#     4  11  21  38  65  97 133 164 209 272 326 382
#     4  11  24  39  65  99 134 168 213 273 328 387
#     4  11  25  39  62  97 132 175 212 263 332 387
#     4  10  21  39  67  92 129 166 217 272 319 381
#     4  11  24  42  64  91 133 176 218 262 319 400
#
# _framework density 22.086406
#
# number of rings (size 3 to 8) (size 9 to 14) (size 15 to 20)
#    0.000    1.333    3.333    2.000    4.667    0.000 
#    0.000    3.333    0.000    2.000    0.000    0.000 
#    0.000    0.000    0.000    0.000    0.000    0.000 
#
# Total GULP energy -66863.798888 kJ/mol
# GULP energy per Si atom -5571.983241 kJ/mol
# Density = 2.203614 g / cm^3
# Si number density = 22.086406 Si / 1000 Ang^3
#
#
#
# Elastic Constant Matrix: (Units=GPa)
#
#
# Indices 1 2 3 4 5 6 
#
# 1 106.9906 40.4256 65.2544 -0.4387 -10.4228 19.0028
# 2 40.4256 126.1325 59.0674 -5.8269 -31.2661 8.0038
# 3 65.2544 59.0674 145.7728 16.0955 -32.4822 13.0486
# 4 -0.4387 -5.8269 16.0955 57.6785 10.3348 -4.5061
# 5 -10.4228 -31.2661 -32.4822 10.3348 61.7234 -4.0254
# 6 19.0028 8.0038 13.0486 -4.5061 -4.0254 27.1234
#
#
#
# Elastic Compliance Matrix: (Units=1/GPa)
#
#
# Indices 1 2 3 4 5 6 
#
# 1 0.014669 -0.002060 -0.005766 0.001375 -0.002288 -0.007006
# 2 -0.002060 0.010821 -0.002873 0.001293 0.003428 0.000356
# 3 -0.005766 -0.002873 0.012280 -0.004697 0.004749 -0.001096
# 4 0.001375 0.001293 -0.004697 0.019905 -0.004688 0.003526
# 5 -0.002288 0.003428 0.004749 -0.004688 0.020876 0.000627
# 6 -0.007006 0.000356 -0.001096 0.003526 0.000627 0.042878
#
#
# Mechanical properties :
#
#
# Convention : Reuss Voigt Hill
#
# Bulk Modulus (GPa) = 61.08369 78.71010 69.89689
# Shear Modulus (GPa) = 33.71870 43.58164 38.65017
#
# Velocity S-wave (km/s) = 3.91150 4.44693 4.18778
# Velocity P-wave (km/s) = 6.93661 7.87919 7.42288
#
# Compressibility (1/GPa) = 0.01637098
#
# Stress axis : x y z
#
# Youngs Moduli (GPa) = 68.17049 92.41412 81.43121
#
# Poissons Ratio (x) = 0.19039 0.46956
# Poissons Ratio (y) = 0.14045 0.23396
# Poissons Ratio (z) = 0.39309 0.26552
#
# Static dielectric constant tensor:
#      x y z
#    x 1.928280 -0.052810 0.101990 
#    y -0.052810 1.981640 -0.073260 
#    z 0.101990 -0.073260 2.039170 
# 
# From -- ./inp_files/66031.got.cif
#   From: 2010.05.17/outbox.cif.g08.bks.cpg/sg2_34_cif.got.tgz:66031.got - 2010.06.03 11:33:40.
