data_PCOD9008399
_publ_section_title
;
Structure prediction by ZEFSAII (Michael W. Deem and Ramdas Pophale) SiO2 
 PCOD9008399
Probable space group: P -1
;
_chemical_formula_sum "Si O2"
_cell_formula_units_Z 16
_cell_length_a 9.582246
_cell_length_b 6.272604
_cell_length_c 17.246818
_cell_angle_alpha 89.124776
_cell_angle_beta 39.770178
_cell_angle_gamma 84.428589
_cell_volume 657.136666
_symmetry_space_group_name_H-M "P -1"
_symmetry_group_IT_number 2
_symmetry_cell_setting 'triclinic'
loop_
_space_group_symop_operation_xyz
x,y,z
-x,-y,-z
loop_
_atom_site_type_symbol
_atom_site_label
_atom_site_fract_x
_atom_site_fract_y
_atom_site_fract_z
Si Si1 0.742722 0.907766 0.869671
Si Si2 0.993898 0.535498 0.386720
Si Si3 0.647661 0.151234 0.759324
Si Si4 0.966251 0.805718 0.162193
Si Si5 0.246737 0.776344 0.807525
Si Si6 0.726779 0.787676 0.622432
Si Si7 0.726813 0.469098 0.357193
Si Si8 0.805368 0.606026 0.987719
O O1 0.788761 0.696054 0.905103
O O2 0.712541 0.948188 0.790765
O O3 0.914914 0.060185 0.826646
O O4 0.500000 0.000000 0.000000
O O5 0.799558 0.706206 0.505915
O O6 0.910432 0.432975 0.345673
O O7 0.194068 0.673001 0.289535
O O8 0.080438 0.345620 0.409546
O O9 0.697690 0.040552 0.654648
O O10 0.401394 0.269140 0.879610
O O11 0.794636 0.670021 0.277870
O O12 0.159627 0.648859 0.037939
O O13 0.837649 0.971714 0.156439
O O14 0.485093 0.720638 0.743752
O O15 0.281654 0.713615 0.702179
O O16 0.038866 0.660718 0.920151
O O17 0.500000 0.500000 0.500000
#
# Coordination Sequence:
#
# PCOD9008399 Si02
#       8
#     2   2   2   2   2   2   2   2
#     4   9  19  35  60  96 129 161 208 268 324 379
#     4  11  25  45  67  95 130 177 218 273 325 386
#     4  11  23  40  66  97 131 175 215 262 336 394
#     4  10  21  39  64  95 133 164 215 274 325 384
#     4  10  23  44  64 100 131 175 212 273 325 388
#     4  11  26  45  64  92 138 173 220 269 321 393
#     4  11  22  42  70  96 127 169 229 274 326 380
#     4   9  22  40  65  99 133 168 214 271 327 391
#
# _framework density 24.348056
#
# number of rings (size 3 to 8) (size 9 to 14) (size 15 to 20)
#    0.000    1.750    2.500    0.375    5.250    8.000 
#    2.250    1.250    0.000    0.000    0.000    0.000 
#    0.000    0.000    0.000    0.000    0.000    0.000 
#
# Total GULP energy -89390.268991 kJ/mol
# GULP energy per Si atom -5586.891812 kJ/mol
# Density = 2.429264 g / cm^3
# Si number density = 24.348056 Si / 1000 Ang^3
#
#
#
# Elastic Constant Matrix: (Units=GPa)
#
#
# Indices 1 2 3 4 5 6 
#
# 1 73.2938 17.6630 18.6744 10.3373 -8.9643 17.3333
# 2 17.6630 68.1436 32.0219 25.5079 -0.7937 1.7467
# 3 18.6744 32.0219 136.3750 19.2933 -18.5432 6.7369
# 4 10.3373 25.5079 19.2933 39.5562 8.3972 4.3227
# 5 -8.9643 -0.7937 -18.5432 8.3972 41.1661 -3.4097
# 6 17.3333 1.7467 6.7369 4.3227 -3.4097 25.4573
#
#
#
# Elastic Compliance Matrix: (Units=1/GPa)
#
#
# Indices 1 2 3 4 5 6 
#
# 1 0.017818 -0.003487 -0.000430 -0.001629 0.003032 -0.011096
# 2 -0.003487 0.021387 -0.002857 -0.012159 0.001168 0.003884
# 3 -0.000430 -0.002857 0.009218 -0.003446 0.004645 -0.000743
# 4 -0.001629 -0.012159 -0.003446 0.037956 -0.010296 -0.004968
# 5 0.003032 0.001168 0.004645 -0.010296 0.029358 0.002306
# 6 -0.011096 0.003884 -0.000743 -0.004968 0.002306 0.047919
#
#
# Mechanical properties :
#
#
# Convention : Reuss Voigt Hill
#
# Bulk Modulus (GPa) = 28.67376 46.05901 37.36639
# Shear Modulus (GPa) = 26.47870 35.19946 30.83908
#
# Velocity S-wave (km/s) = 3.30132 3.80633 3.56278
# Velocity P-wave (km/s) = 5.13164 6.18672 5.68372
#
# Compressibility (1/GPa) = 0.03487509
#
# Stress axis : x y z
#
# Youngs Moduli (GPa) = 56.12165 46.75789 108.47904
#
# Poissons Ratio (x) = 0.16303 0.04667
# Poissons Ratio (y) = 0.19568 0.30995
# Poissons Ratio (z) = 0.02415 0.13360
#
# Static dielectric constant tensor:
#      x y z
#    x 1.927100 -0.006840 -0.060090 
#    y -0.006840 1.945280 0.029890 
#    z -0.060090 0.029890 1.844780 
# 
# From -- ./inp_files/609195.got.cif
#   From: 2010.05.17/outbox.cif.g08.bks.cpg/sg2_305_cif.got.tgz:609195.got - 2010.06.03 11:33:40.
