data_PCOD9008137
_publ_section_title
;
Structure prediction by ZEFSAII (Michael W. Deem and Ramdas Pophale) SiO2 
 PCOD9008137
Probable space group: P -1
;
_chemical_formula_sum "Si O2"
_cell_formula_units_Z 14
_cell_length_a 14.490472
_cell_length_b 9.644033
_cell_length_c 7.972434
_cell_angle_alpha 54.613260
_cell_angle_beta 105.842428
_cell_angle_gamma 139.434525
_cell_volume 560.642705
_symmetry_space_group_name_H-M "P -1"
_symmetry_group_IT_number 2
_symmetry_cell_setting 'triclinic'
loop_
_space_group_symop_operation_xyz
x,y,z
-x,-y,-z
loop_
_atom_site_type_symbol
_atom_site_label
_atom_site_fract_x
_atom_site_fract_y
_atom_site_fract_z
Si Si1 0.830204 0.333192 0.524322
Si Si2 0.695910 0.291003 0.201041
Si Si3 0.001622 0.763965 0.829104
Si Si4 0.143728 0.324878 0.508897
Si Si5 0.730171 0.980657 0.026125
Si Si6 0.404062 0.640137 0.174062
Si Si7 0.351845 0.412016 0.979295
O O1 0.722895 0.170069 0.423161
O O2 0.850372 0.561190 0.400368
O O3 0.747506 0.144395 0.776058
O O4 0.000000 0.500000 0.500000
O O5 0.628286 0.363341 0.215465
O O6 0.602158 0.188314 0.053356
O O7 0.864421 0.547580 0.036898
O O8 0.942690 0.677175 0.671077
O O9 0.059266 0.034398 0.686502
O O10 0.139597 0.834157 0.902136
O O11 0.308077 0.518114 0.378430
O O12 0.567814 0.783614 0.164561
O O13 0.745580 0.825839 0.034400
O O14 0.311803 0.389345 0.172334
O O15 0.500000 0.500000 0.000000
#
# Coordination Sequence:
#
# PCOD9008137 Si02
#       7
#     2   2   2   2   2   2   2
#     4  12  25  36  59  93 120 155 195 243 293 356
#     4   9  19  40  59  86 118 153 193 242 290 338
#     4  10  21  39  64  86 110 162 195 246 290 340
#     4  10  23  41  59  84 120 153 201 238 299 345
#     4  11  21  36  63  91 119 150 200 237 297 348
#     4   8  20  41  63  83 117 155 196 242 287 343
#     4   8  17  36  62  87 111 149 195 245 278 338
#
# _framework density 24.971340999999999
#
# number of rings (size 3 to 8) (size 9 to 14) (size 15 to 20)
#    0.857    1.429    1.429    0.857    2.000    3.429 
#    0.000    0.000    3.143    0.000    0.000    0.000 
#    0.000    0.000    0.000    0.000    0.000    0.000 
#
# Total GULP energy -78089.129185 kJ/mol
# GULP energy per Si atom -5577.794942 kJ/mol
# Density = 2.491451 g / cm^3
# Si number density = 24.971341 Si / 1000 Ang^3
#
#
#
# Elastic Constant Matrix: (Units=GPa)
#
#
# Indices 1 2 3 4 5 6 
#
# 1 91.0856 37.0537 8.6235 4.6799 -11.1246 18.9706
# 2 37.0537 83.8082 25.1619 17.1975 -5.4230 34.9901
# 3 8.6235 25.1619 56.7893 16.4392 4.7584 21.7729
# 4 4.6799 17.1975 16.4392 31.1719 7.7081 7.0847
# 5 -11.1246 -5.4230 4.7584 7.7081 27.7050 0.1459
# 6 18.9706 34.9901 21.7729 7.0847 0.1459 57.4831
#
#
#
# Elastic Compliance Matrix: (Units=1/GPa)
#
#
# Indices 1 2 3 4 5 6 
#
# 1 0.013999 -0.005372 0.000515 -0.000184 0.004540 -0.001534
# 2 -0.005372 0.020914 -0.003086 -0.008302 0.004823 -0.008778
# 3 0.000515 -0.003086 0.024136 -0.009189 -0.001953 -0.006296
# 4 -0.000184 -0.008302 -0.009189 0.043853 -0.012338 0.003221
# 5 0.004540 0.004823 -0.001953 -0.012338 0.042642 -0.002282
# 6 -0.001534 -0.008778 -0.006296 0.003221 -0.002282 0.025239
#
#
# Mechanical properties :
#
#
# Convention : Reuss Voigt Hill
#
# Bulk Modulus (GPa) = 23.16831 41.48458 32.32645
# Shear Modulus (GPa) = 24.86879 33.99494 29.43187
#
# Velocity S-wave (km/s) = 3.15920 3.69366 3.43684
# Velocity P-wave (km/s) = 4.75452 5.90252 5.35935
#
# Compressibility (1/GPa) = 0.04316241
#
# Stress axis : x y z
#
# Youngs Moduli (GPa) = 71.43547 47.81508 41.43243
#
# Poissons Ratio (x) = 0.25686 -0.02135
# Poissons Ratio (y) = 0.38375 0.12788
# Poissons Ratio (z) = -0.03682 0.14757
#
# Static dielectric constant tensor:
#      x y z
#    x 1.985350 -0.042080 0.067830 
#    y -0.042080 2.055850 0.052610 
#    z 0.067830 0.052610 2.001520 
# 
# From -- ./inp_files/306534.got.cif
#   From: 2010.05.17/outbox.cif.g08.bks.cpg/sg2_154_cif.got.tgz:306534.got - 2010.06.03 11:33:40.
