data_PCOD9008054
_publ_section_title
;
Structure prediction by ZEFSAII (Michael W. Deem and Ramdas Pophale) SiO2 
 PCOD9008054
Probable space group: P -1
;
_chemical_formula_sum "Si O2"
_cell_formula_units_Z 12
_cell_length_a 13.463547
_cell_length_b 9.886636
_cell_length_c 6.910751
_cell_angle_alpha 50.120744
_cell_angle_beta 126.411489
_cell_angle_gamma 106.787535
_cell_volume 561.797950
_symmetry_space_group_name_H-M "P -1"
_symmetry_group_IT_number 2
_symmetry_cell_setting 'triclinic'
loop_
_space_group_symop_operation_xyz
x,y,z
-x,-y,-z
loop_
_atom_site_type_symbol
_atom_site_label
_atom_site_fract_x
_atom_site_fract_y
_atom_site_fract_z
Si Si1 0.185624 0.908346 0.581848
Si Si2 0.953037 0.416036 0.329134
Si Si3 0.412974 0.866097 0.608347
Si Si4 0.363664 0.722491 0.278889
Si Si5 0.855566 0.728869 0.650073
Si Si6 0.585790 0.698997 0.294067
O O1 0.116225 0.753735 0.555626
O O2 0.295155 0.947257 0.527690
O O3 0.102970 0.094314 0.371771
O O4 0.250840 0.822443 0.931665
O O5 0.868329 0.573762 0.968179
O O6 0.000000 0.500000 0.500000
O O7 0.064320 0.344967 0.374359
O O8 0.360043 0.767932 0.457102
O O9 0.500000 0.000000 0.500000
O O10 0.503613 0.736849 0.972299
O O11 0.492934 0.769613 0.295518
O O12 0.372578 0.512138 0.448294
O O13 0.712164 0.782014 0.370670
#
# Coordination Sequence:
#
# PCOD9008054 Si02
#       6
#     2   2   2   2   2   2
#     4  11  24  44  68  96 133 170 213 270 325 381
#     4  11  27  45  66  95 125 171 226 270 321 379
#     4  11  23  37  63 103 132 168 215 256 320 397
#     4  10  21  39  64  95 133 168 211 256 326 386
#     4  11  24  44  68  92 132 169 216 269 324 380
#     4  10  21  39  63  95 129 174 206 263 318 387
#
# _framework density 21.35999
#
# number of rings (size 3 to 8) (size 9 to 14) (size 15 to 20)
#    0.000    1.333    1.667    3.000    2.333    7.333 
#    0.000    0.000    0.000    0.000    0.000    0.000 
#    0.000    0.000    0.000    0.000    0.000    0.000 
#
# Total GULP energy -67102.042445 kJ/mol
# GULP energy per Si atom -5591.836870 kJ/mol
# Density = 2.131137 g / cm^3
# Si number density = 21.359990 Si / 1000 Ang^3
#
#
#
# Elastic Constant Matrix: (Units=GPa)
#
#
# Indices 1 2 3 4 5 6 
#
# 1 53.5009 36.2276 21.2816 12.8815 -8.9221 4.9498
# 2 36.2276 140.7096 37.4367 9.9861 -1.1335 -4.5415
# 3 21.2816 37.4367 47.5473 13.8053 -8.0372 -19.2881
# 4 12.8815 9.9861 13.8053 39.3803 1.6475 -6.1837
# 5 -8.9221 -1.1335 -8.0372 1.6475 25.1676 1.1285
# 6 4.9498 -4.5415 -19.2881 -6.1837 1.1285 33.5642
#
#
#
# Elastic Compliance Matrix: (Units=1/GPa)
#
#
# Indices 1 2 3 4 5 6 
#
# 1 0.031130 -0.004528 -0.012670 -0.007131 0.007883 -0.014063
# 2 -0.004528 0.010165 -0.007875 0.001490 -0.003666 -0.002084
# 3 -0.012670 -0.007875 0.047110 -0.006634 0.009452 0.026335
# 4 -0.007131 0.001490 -0.006634 0.030470 -0.006721 0.003281
# 5 0.007883 -0.003666 0.009452 -0.006721 0.045777 0.000995
# 6 -0.014063 -0.002084 0.026335 0.003281 0.000995 0.047291
#
#
# Mechanical properties :
#
#
# Convention : Reuss Voigt Hill
#
# Bulk Modulus (GPa) = 26.13768 47.96108 37.04938
# Shear Modulus (GPa) = 18.19224 29.40988 23.80106
#
# Velocity S-wave (km/s) = 2.92155 3.71464 3.34171
# Velocity P-wave (km/s) = 4.86250 6.39535 5.68086
#
# Compressibility (1/GPa) = 0.03825895
#
# Stress axis : x y z
#
# Youngs Moduli (GPa) = 32.12323 98.37395 21.22684
#
# Poissons Ratio (x) = 0.44546 0.26895
# Poissons Ratio (y) = 0.14546 0.16716
# Poissons Ratio (z) = 0.40701 0.77469
#
# Static dielectric constant tensor:
#      x y z
#    x 1.784550 0.036380 -0.008620 
#    y 0.036380 1.783700 -0.014820 
#    z -0.008620 -0.014820 1.754300 
# 
# From -- ./inp_files/35338.got.cif
#   From: 2010.05.17/outbox.cif.g08.bks.cpg/sg2_18_cif.got.tgz:35338.got - 2010.06.03 11:33:40.
