data_PCOD9008913
_publ_section_title
;
Structure prediction by ZEFSAII (Michael W. Deem and Ramdas Pophale) SiO2 
 PCOD9008913
Probable space group: P -1
;
_chemical_formula_sum "Si O2"
_cell_formula_units_Z 16
_cell_length_a 12.551988
_cell_length_b 8.993314
_cell_length_c 12.272967
_cell_angle_alpha 129.861012
_cell_angle_beta 81.735310
_cell_angle_gamma 125.178757
_cell_volume 811.131565
_symmetry_space_group_name_H-M "P -1"
_symmetry_group_IT_number 2
_symmetry_cell_setting 'triclinic'
loop_
_space_group_symop_operation_xyz
x,y,z
-x,-y,-z
loop_
_atom_site_type_symbol
_atom_site_label
_atom_site_fract_x
_atom_site_fract_y
_atom_site_fract_z
Si Si1 0.600312 0.152985 0.278586
Si Si2 0.876713 0.013095 0.029378
Si Si3 0.947815 0.763079 0.327589
Si Si4 0.885813 0.192796 0.870668
Si Si5 0.648126 0.554114 0.295382
Si Si6 0.395481 0.198308 0.405801
Si Si7 0.086042 0.582441 0.637237
Si Si8 0.432814 0.319620 0.027126
O O1 0.595639 0.315793 0.265210
O O2 0.493006 0.119392 0.366787
O O3 0.760246 0.320090 0.371684
O O4 0.571882 0.913984 0.114201
O O5 0.907429 0.198672 0.208240
O O6 0.719142 0.768435 0.964245
O O7 0.871301 0.109472 0.957585
O O8 0.000000 0.000000 0.000000
O O9 0.788107 0.626515 0.257265
O O10 0.958808 0.598913 0.335832
O O11 0.036248 0.855724 0.248721
O O12 0.000000 0.000000 0.500000
O O13 0.728118 0.013195 0.757995
O O14 0.000000 0.500000 0.000000
O O15 0.674741 0.779537 0.468167
O O16 0.531519 0.463449 0.182539
O O17 0.500000 0.500000 0.500000
O O18 0.000000 0.500000 0.500000
O O19 0.500000 0.500000 0.000000
#
# Coordination Sequence:
#
# PCOD9008913 Si02
#       8
#     2   2   2   2   2   2   2   2
#     4   9  21  40  66  91 122 177 219 275 333 397
#     4  11  26  43  63  98 135 181 222 286 346 401
#     4  11  23  40  66  99 127 177 221 282 337 398
#     4  12  25  43  69 101 138 172 238 286 337 407
#     4  10  21  39  66  92 129 168 228 272 334 402
#     4  10  21  40  67  98 127 171 225 280 332 395
#     4  10  23  42  63  94 133 172 220 272 345 406
#     4  11  25  43  63  96 135 180 225 277 348 413
#
# _framework density 19.725529999999999
#
# number of rings (size 3 to 8) (size 9 to 14) (size 15 to 20)
#    0.000    1.500    2.500    1.875    5.250    2.000 
#    0.000    0.625    0.000    0.000    0.000    0.000 
#    0.000    0.000    0.000    0.000    0.000    0.000 
#
# Total GULP energy -89093.353480 kJ/mol
# GULP energy per Si atom -5568.334593 kJ/mol
# Density = 1.968063 g / cm^3
# Si number density = 19.725530 Si / 1000 Ang^3
#
#
#
# Elastic Constant Matrix: (Units=GPa)
#
#
# Indices 1 2 3 4 5 6 
#
# 1 124.8298 53.7359 45.4451 -12.4660 14.7957 8.7661
# 2 53.7359 64.8976 31.1431 -5.1399 16.1292 25.1967
# 3 45.4451 31.1431 113.0166 -9.3770 26.9574 -7.6540
# 4 -12.4660 -5.1399 -9.3770 30.5333 1.6991 -2.9262
# 5 14.7957 16.1292 26.9574 1.6991 38.0427 -4.2311
# 6 8.7661 25.1967 -7.6540 -2.9262 -4.2311 23.0574
#
#
#
# Elastic Compliance Matrix: (Units=1/GPa)
#
#
# Indices 1 2 3 4 5 6 
#
# 1 0.015525 -0.020544 -0.000094 0.004314 0.004536 0.017897
# 2 -0.020544 0.080024 -0.014342 -0.006519 -0.025483 -0.089903
# 3 -0.000094 -0.014342 0.015218 0.004361 -0.002543 0.020846
# 4 0.004314 -0.006519 0.004361 0.035946 -0.002380 0.011057
# 5 0.004536 -0.025483 -0.002543 -0.002380 0.040846 0.032472
# 6 0.017897 -0.089903 0.020846 0.011057 0.032472 0.149092
#
#
# Mechanical properties :
#
#
# Convention : Reuss Voigt Hill
#
# Bulk Modulus (GPa) = 24.50482 62.59911 43.55197
# Shear Modulus (GPa) = 11.89871 29.82133 20.86002
#
# Velocity S-wave (km/s) = 2.45871 3.89242 3.25547
# Velocity P-wave (km/s) = 4.52882 7.21147 6.02144
#
# Compressibility (1/GPa) = 0.04080830
#
# Stress axis : x y z
#
# Youngs Moduli (GPa) = 64.41183 12.49623 65.71135
#
# Poissons Ratio (x) = 0.25673 0.00615
# Poissons Ratio (y) = 1.32329 0.94241
# Poissons Ratio (z) = 0.00603 0.17922
#
# Static dielectric constant tensor:
#      x y z
#    x 1.738430 0.077820 -0.017380 
#    y 0.077820 1.721630 0.045450 
#    z -0.017380 0.045450 1.683430 
# 
# From -- ./inp_files/217002.got.cif
#   From: 2010.05.17/outbox.cif.g08.bks.cpg/sg2_109_cif.got.tgz:217002.got - 2010.06.03 11:33:40.
