data_PCOD9008276
_publ_section_title
;
Structure prediction by ZEFSAII (Michael W. Deem and Ramdas Pophale) SiO2 
 PCOD9008276
Probable space group: P -1
;
_chemical_formula_sum "Si O2"
_cell_formula_units_Z 16
_cell_length_a 21.543153
_cell_length_b 5.198740
_cell_length_c 5.222998
_cell_angle_alpha 85.980086
_cell_angle_beta 77.996373
_cell_angle_gamma 81.432194
_cell_volume 565.322674
_symmetry_space_group_name_H-M "P -1"
_symmetry_group_IT_number 2
_symmetry_cell_setting 'triclinic'
loop_
_space_group_symop_operation_xyz
x,y,z
-x,-y,-z
loop_
_atom_site_type_symbol
_atom_site_label
_atom_site_fract_x
_atom_site_fract_y
_atom_site_fract_z
Si Si1 0.926747 0.637959 0.228937
Si Si2 0.040850 0.201500 0.311021
Si Si3 0.284631 0.218523 0.860677
Si Si4 0.488712 0.250563 0.805141
Si Si5 0.631191 0.510662 0.891988
Si Si6 0.240740 0.845680 0.285836
Si Si7 0.184827 0.644323 0.825517
Si Si8 0.602773 0.990075 0.499344
O O1 0.994283 0.465510 0.257660
O O2 0.884009 0.438237 0.158134
O O3 0.907891 0.748036 0.520355
O O4 0.930206 0.859497 0.993280
O O5 0.000000 0.000000 0.500000
O O6 0.249672 0.121695 0.141718
O O7 0.333032 0.986279 0.713460
O O8 0.231335 0.379622 0.726715
O O9 0.331392 0.418453 0.892600
O O10 0.559335 0.250262 0.621396
O O11 0.444950 0.146697 0.629526
O O12 0.442227 0.496631 0.948056
O O13 0.500000 0.000000 0.000000
O O14 0.623662 0.775698 0.713630
O O15 0.685056 0.296111 0.740397
O O16 0.202917 0.719931 0.093358
O O17 0.204076 0.841686 0.583305
#
# Coordination Sequence:
#
# PCOD9008276 Si02
#       8
#     2   2   2   2   2   2   2   2
#     4  10  22  39  61  90 124 158 198 240 287 343
#     4  10  21  39  64  92 123 158 195 241 290 338
#     4  10  22  36  57  82 114 153 194 245 295 348
#     4   8  15  27  53  80 103 146 183 235 302 352
#     4   9  18  35  53  79 112 145 191 243 297 352
#     4  11  24  38  60  85 116 158 200 241 294 347
#     4  11  24  41  59  88 122 157 199 243 285 344
#     4   9  15  31  54  76 109 146 185 237 300 349
#
# _framework density 28.302423000000001
#
# number of rings (size 3 to 8) (size 9 to 14) (size 15 to 20)
#    0.000    2.250    1.250    1.125    1.750    2.000 
#    0.000    0.625    0.000   25.500    0.000    0.000 
#    0.000    0.000    0.000    0.000    0.000    0.000 
#
# Total GULP energy -89502.104603 kJ/mol
# GULP energy per Si atom -5593.881538 kJ/mol
# Density = 2.823801 g / cm^3
# Si number density = 28.302423 Si / 1000 Ang^3
#
#
#
# Elastic Constant Matrix: (Units=GPa)
#
#
# Indices 1 2 3 4 5 6 
#
# 1 107.0797 -0.3260 25.4164 -16.1915 17.2185 -6.4213
# 2 -0.3260 76.6603 26.1004 -17.5749 6.3498 -5.1002
# 3 25.4164 26.1004 162.0289 -15.5215 9.5838 6.1955
# 4 -16.1915 -17.5749 -15.5215 43.0044 13.3386 -8.0153
# 5 17.2185 6.3498 9.5838 13.3386 45.3716 -4.7836
# 6 -6.4213 -5.1002 6.1955 -8.0153 -4.7836 27.4146
#
#
#
# Elastic Compliance Matrix: (Units=1/GPa)
#
#
# Indices 1 2 3 4 5 6 
#
# 1 0.012431 0.003460 -0.001468 0.008675 -0.006891 0.005221
# 2 0.003460 0.017117 -0.002216 0.010468 -0.005625 0.006575
# 3 -0.001468 -0.002216 0.007009 0.001009 -0.001146 -0.002245
# 4 0.008675 0.010468 0.001009 0.038062 -0.014865 0.012286
# 5 -0.006891 -0.005625 -0.001146 -0.014865 0.029893 -0.001531
# 6 0.005221 0.006575 -0.002245 0.012286 -0.001531 0.042755
#
#
# Mechanical properties :
#
#
# Convention : Reuss Voigt Hill
#
# Bulk Modulus (GPa) = 27.69463 49.79450 38.74457
# Shear Modulus (GPa) = 31.29835 42.79666 37.04750
#
# Velocity S-wave (km/s) = 3.32905 3.89282 3.62192
# Velocity P-wave (km/s) = 4.95815 6.15120 5.58661
#
# Compressibility (1/GPa) = 0.03610808
#
# Stress axis : x y z
#
# Youngs Moduli (GPa) = 80.44536 58.42174 142.66793
#
# Poissons Ratio (x) = -0.20212 0.20947
# Poissons Ratio (y) = -0.27831 0.31614
# Poissons Ratio (z) = 0.11811 0.12946
#
# Static dielectric constant tensor:
#      x y z
#    x 2.209140 -0.031960 -0.061850 
#    y -0.031960 2.232620 0.164690 
#    z -0.061850 0.164690 2.309730 
# 
# From -- ./inp_files/121157.got.cif
#   From: 2010.05.17/outbox.cif.g08.bks.cpg/sg2_61_cif.got.tgz:121157.got - 2010.06.03 11:33:40.
