data_PCOD9008430
_publ_section_title
;
Structure prediction by ZEFSAII (Michael W. Deem and Ramdas Pophale) SiO2 
 PCOD9008430
Probable space group: P -1
;
_chemical_formula_sum "Si O2"
_cell_formula_units_Z 16
_cell_length_a 18.129382
_cell_length_b 8.515080
_cell_length_c 5.503610
_cell_angle_alpha 118.343983
_cell_angle_beta 97.088604
_cell_angle_gamma 55.604741
_cell_volume 604.628622
_symmetry_space_group_name_H-M "P -1"
_symmetry_group_IT_number 2
_symmetry_cell_setting 'triclinic'
loop_
_space_group_symop_operation_xyz
x,y,z
-x,-y,-z
loop_
_atom_site_type_symbol
_atom_site_label
_atom_site_fract_x
_atom_site_fract_y
_atom_site_fract_z
Si Si1 0.162956 0.383202 0.326785
Si Si2 0.359020 0.158384 0.120569
Si Si3 0.329795 0.907387 0.568957
Si Si4 0.994211 0.168134 0.804659
Si Si5 0.488776 0.814744 0.252022
Si Si6 0.872966 0.752713 0.300200
Si Si7 0.143140 0.767380 0.837459
Si Si8 0.347840 0.550473 0.659472
O O1 0.272406 0.213574 0.287151
O O2 0.115540 0.355933 0.515246
O O3 0.143161 0.619935 0.515746
O O4 0.142643 0.336041 0.019708
O O5 0.360834 0.365981 0.336664
O O6 0.450569 0.923708 0.054383
O O7 0.332487 0.110948 0.816577
O O8 0.408217 0.807862 0.328563
O O9 0.357839 0.722022 0.646486
O O10 0.224350 0.008411 0.539312
O O11 0.035489 0.269942 0.740657
O O12 0.072966 0.022700 0.934622
O O13 0.000000 0.000000 0.500000
O O14 0.898721 0.278998 0.985083
O O15 0.580873 0.588559 0.198915
O O16 0.500000 0.000000 0.500000
O O17 0.246521 0.686073 0.831001
#
# Coordination Sequence:
#
# PCOD9008430 Si02
#       8
#     2   2   2   2   2   2   2   2
#     4  10  23  43  71 101 139 183 233 284 349 417
#     4   9  21  40  63  96 134 178 225 280 344 404
#     4  11  21  41  65  94 137 177 229 286 340 413
#     4  11  26  44  69  98 137 181 227 294 354 423
#     4  10  21  39  64  96 137 176 226 288 338 413
#     4  11  24  43  73 101 137 185 232 290 350 414
#     4  10  24  46  64  97 139 176 235 290 354 420
#     4  10  21  41  65  94 131 180 229 283 345 417
#
# _framework density 26.462523999999998
#
# number of rings (size 3 to 8) (size 9 to 14) (size 15 to 20)
#    0.000    1.750    2.500    0.375    5.250    3.500 
#    0.000    3.750    0.000    0.000    0.000    0.000 
#    0.000    0.000    0.000    0.000    0.000    0.000 
#
# Total GULP energy -89443.235761 kJ/mol
# GULP energy per Si atom -5590.202235 kJ/mol
# Density = 2.640229 g / cm^3
# Si number density = 26.462524 Si / 1000 Ang^3
#
#
#
# Elastic Constant Matrix: (Units=GPa)
#
#
# Indices 1 2 3 4 5 6 
#
# 1 164.3485 61.9892 32.3552 -2.1097 -37.6857 2.9769
# 2 61.9892 127.0973 6.1309 -7.9623 -19.5465 -3.7229
# 3 32.3552 6.1309 93.4680 5.2849 -0.5180 14.3299
# 4 -2.1097 -7.9623 5.2849 29.2695 12.6553 0.0281
# 5 -37.6857 -19.5465 -0.5180 12.6553 43.7541 -7.0097
# 6 2.9769 -3.7229 14.3299 0.0281 -7.0097 35.0712
#
#
#
# Elastic Compliance Matrix: (Units=1/GPa)
#
#
# Indices 1 2 3 4 5 6 
#
# 1 0.009823 -0.003550 -0.003206 -0.003148 0.008020 0.001705
# 2 -0.003550 0.009912 0.000251 0.001942 0.001046 0.001458
# 3 -0.003206 0.000251 0.012681 -0.001127 -0.003053 -0.005492
# 4 -0.003148 0.001942 -0.001127 0.040695 -0.013929 -0.001883
# 5 0.008020 0.001046 -0.003053 -0.013929 0.035469 0.007778
# 6 0.001705 0.001458 -0.005492 -0.001883 0.007778 0.032324
#
#
# Mechanical properties :
#
#
# Convention : Reuss Voigt Hill
#
# Bulk Modulus (GPa) = 51.53113 65.09605 58.31359
# Shear Modulus (GPa) = 31.17557 40.58154 35.87855
#
# Velocity S-wave (km/s) = 3.43607 3.92030 3.68615
# Velocity P-wave (km/s) = 5.93782 6.71896 6.34043
#
# Compressibility (1/GPa) = 0.01940575
#
# Stress axis : x y z
#
# Youngs Moduli (GPa) = 101.80629 100.88303 78.85758
#
# Poissons Ratio (x) = 0.35813 0.25284
# Poissons Ratio (y) = 0.36141 -0.01980
# Poissons Ratio (z) = 0.32642 -0.02533
#
# Static dielectric constant tensor:
#      x y z
#    x 2.054980 -0.045790 0.019760 
#    y -0.045790 2.187400 0.025420 
#    z 0.019760 0.025420 2.083100 
# 
# From -- ./inp_files/116425.got.cif
#   From: 2010.05.17/outbox.cif.g08.bks.cpg/sg2_59_cif.got.tgz:116425.got - 2010.06.03 11:33:40.
