data_PCOD9008922
_publ_section_title
;
Structure prediction by ZEFSAII (Michael W. Deem and Ramdas Pophale) SiO2 
 PCOD9008922
Probable space group: P -1
;
_chemical_formula_sum "Si O2"
_cell_formula_units_Z 14
_cell_length_a 12.578283
_cell_length_b 25.731028
_cell_length_c 8.624361
_cell_angle_alpha 141.551058
_cell_angle_beta 52.501314
_cell_angle_gamma 155.247385
_cell_volume 668.080687
_symmetry_space_group_name_H-M "P -1"
_symmetry_group_IT_number 2
_symmetry_cell_setting 'triclinic'
loop_
_space_group_symop_operation_xyz
x,y,z
-x,-y,-z
loop_
_atom_site_type_symbol
_atom_site_label
_atom_site_fract_x
_atom_site_fract_y
_atom_site_fract_z
Si Si1 0.183938 0.642196 0.303135
Si Si2 0.028453 0.328109 0.207200
Si Si3 0.548024 0.985522 0.675954
Si Si4 0.441902 0.408835 0.482594
Si Si5 0.329227 0.171726 0.128903
Si Si6 0.242451 0.573157 0.385802
Si Si7 0.803414 0.087649 0.368009
O O1 0.279968 0.623414 0.295017
O O2 0.034940 0.631989 0.519330
O O3 0.430361 0.829596 0.447128
O O4 0.000000 0.500000 0.000000
O O5 0.302331 0.430893 0.258321
O O6 0.111919 0.413010 0.165858
O O7 0.751949 0.125248 0.956741
O O8 0.721958 0.083748 0.593008
O O9 0.300139 0.914535 0.691506
O O10 0.500000 0.500000 0.500000
O O11 0.445575 0.308299 0.231676
O O12 0.132000 0.256037 0.459557
O O13 0.480157 0.271880 0.393699
O O14 0.364362 0.091543 0.895617
O O15 0.000000 0.000000 0.000000
O O16 0.000000 0.500000 0.500000
#
# Coordination Sequence:
#
# PCOD9008922 Si02
#       7
#     2   2   2   2   2   2   2
#     4  11  24  37  64  98 131 164 220 272 315 378
#     4  10  22  41  64  91 126 171 211 263 331 372
#     4  11  24  38  64  93 132 164 214 269 312 380
#     4  10  21  39  66  93 125 167 213 264 317 385
#     4   9  19  37  63  87 125 168 207 253 323 378
#     4   9  19  35  60  88 121 159 208 257 311 373
#     4  10  22  39  60  95 129 169 211 256 326 381
#
# _framework density 20.955553999999999
#
# number of rings (size 3 to 8) (size 9 to 14) (size 15 to 20)
#    0.000    2.000    0.000    3.000   10.000    2.857 
#    0.000    0.000    0.000    8.571    0.000    0.000 
#    0.000    0.000    0.000    0.000    0.000    0.000 
#
# Total GULP energy -77962.919315 kJ/mol
# GULP energy per Si atom -5568.779951 kJ/mol
# Density = 2.090786 g / cm^3
# Si number density = 20.955554 Si / 1000 Ang^3
#
#
#
# Elastic Constant Matrix: (Units=GPa)
#
#
# Indices 1 2 3 4 5 6 
#
# 1 144.0458 43.3654 56.9570 24.3726 14.2843 -38.0507
# 2 43.3654 77.4208 35.4189 24.7197 15.3812 -10.1448
# 3 56.9570 35.4189 151.7168 31.9436 24.0381 -10.5734
# 4 24.3726 24.7197 31.9436 30.1552 6.1837 0.0741
# 5 14.2843 15.3812 24.0381 6.1837 21.6028 9.6770
# 6 -38.0507 -10.1448 -10.5734 0.0741 9.6770 33.8406
#
#
#
# Elastic Compliance Matrix: (Units=1/GPa)
#
#
# Indices 1 2 3 4 5 6 
#
# 1 0.017317 0.001502 0.001000 -0.011806 -0.022168 0.026599
# 2 0.001502 0.023308 0.002500 -0.018459 -0.022182 0.015840
# 3 0.001000 0.002500 0.011353 -0.011568 -0.016289 0.010104
# 4 -0.011806 -0.018459 -0.011568 0.064153 0.029321 -0.030948
# 5 -0.022168 -0.022182 -0.016289 0.029321 0.118047 -0.070486
# 6 0.026599 0.015840 0.010104 -0.030948 -0.070486 0.087588
#
#
# Mechanical properties :
#
#
# Convention : Reuss Voigt Hill
#
# Bulk Modulus (GPa) = 16.13398 71.62954 43.88176
# Shear Modulus (GPa) = 15.04113 32.94920 23.99516
#
# Velocity S-wave (km/s) = 2.68202 3.96957 3.38753
# Velocity P-wave (km/s) = 4.16015 7.43410 6.02381
#
# Compressibility (1/GPa) = 0.06198099
#
# Stress axis : x y z
#
# Youngs Moduli (GPa) = 57.74729 42.90439 88.08409
#
# Poissons Ratio (x) = -0.06444 -0.08810
# Poissons Ratio (y) = -0.08674 -0.22018
# Poissons Ratio (z) = -0.05776 -0.10725
#
# Static dielectric constant tensor:
#      x y z
#    x 1.775470 -0.006180 -0.028110 
#    y -0.006180 1.777310 -0.015600 
#    z -0.028110 -0.015600 1.772640 
# 
# From -- ./inp_files/181201.got.cif
#   From: 2010.05.17/outbox.cif.g08.bks.cpg/sg2_91_cif.got.tgz:181201.got - 2010.06.03 11:33:40.
