data_PCOD9008588
_publ_section_title
;
Structure prediction by ZEFSAII (Michael W. Deem and Ramdas Pophale) SiO2 
 PCOD9008588
Probable space group: P -1
;
_chemical_formula_sum "Si O2"
_cell_formula_units_Z 16
_cell_length_a 5.741139
_cell_length_b 26.230814
_cell_length_c 16.350511
_cell_angle_alpha 16.379999
_cell_angle_beta 102.905854
_cell_angle_gamma 100.941743
_cell_volume 674.155789
_symmetry_space_group_name_H-M "P -1"
_symmetry_group_IT_number 2
_symmetry_cell_setting 'triclinic'
loop_
_space_group_symop_operation_xyz
x,y,z
-x,-y,-z
loop_
_atom_site_type_symbol
_atom_site_label
_atom_site_fract_x
_atom_site_fract_y
_atom_site_fract_z
Si Si1 0.140755 0.224011 0.668990
Si Si2 0.269291 0.642815 0.248131
Si Si3 0.107022 0.774331 0.613519
Si Si4 0.482041 0.256035 0.039999
Si Si5 0.693518 0.606831 0.732589
Si Si6 0.146165 0.954621 0.499224
Si Si7 0.857854 0.399610 0.527071
Si Si8 0.270567 0.911067 0.259435
O O1 0.237202 0.375220 0.385260
O O2 0.960036 0.300907 0.606762
O O3 0.987417 0.118020 0.755389
O O4 0.335455 0.089491 0.940589
O O5 0.500000 0.500000 0.500000
O O6 0.194420 0.718758 0.214800
O O7 0.062758 0.526078 0.377718
O O8 0.351434 0.769096 0.988548
O O9 0.020130 0.866193 0.549931
O O10 0.231327 0.913516 0.349723
O O11 0.890860 0.696038 0.667265
O O12 0.293329 0.600329 0.917798
O O13 0.632847 0.185610 0.238287
O O14 0.262091 0.133240 0.203567
O O15 0.374508 0.463088 0.720175
O O16 0.448309 0.733671 0.528794
O O17 0.000000 0.000000 0.500000
#
# Coordination Sequence:
#
# PCOD9008588 Si02
#       8
#     2   2   2   2   2   2   2   2
#     4  10  23  38  65  96 125 163 214 268 327 387
#     4   9  20  38  59  89 126 163 215 256 314 386
#     4  10  24  42  65  95 127 171 217 267 325 393
#     4  10  23  40  60  93 126 173 218 261 322 391
#     4  10  22  42  68  96 125 168 220 267 329 386
#     4  11  25  42  63  93 134 168 217 271 324 387
#     4  10  21  39  65  91 128 169 213 268 321 395
#     4  10  22  43  61  94 131 160 213 272 327 384
#
# _framework density 23.733387
#
# number of rings (size 3 to 8) (size 9 to 14) (size 15 to 20)
#    0.000    2.000    0.000    1.500    5.250    7.000 
#    0.000    3.750    0.000    0.000    0.000    0.000 
#    0.000    0.000    0.000    0.000    0.000    0.000 
#
# Total GULP energy -89408.805050 kJ/mol
# GULP energy per Si atom -5588.050316 kJ/mol
# Density = 2.367937 g / cm^3
# Si number density = 23.733387 Si / 1000 Ang^3
#
#
#
# Elastic Constant Matrix: (Units=GPa)
#
#
# Indices 1 2 3 4 5 6 
#
# 1 52.4951 27.3839 20.5362 8.6924 4.5021 -13.2607
# 2 27.3839 147.7145 50.3886 11.6133 -6.6189 -31.3461
# 3 20.5362 50.3886 103.7433 34.6753 11.8635 -5.3057
# 4 8.6924 11.6133 34.6753 29.9858 -5.1652 -2.3197
# 5 4.5021 -6.6189 11.8635 -5.1652 43.4116 7.8766
# 6 -13.2607 -31.3461 -5.3057 -2.3197 7.8766 43.8467
#
#
#
# Elastic Compliance Matrix: (Units=1/GPa)
#
#
# Indices 1 2 3 4 5 6 
#
# 1 0.023371 -0.002634 -0.000921 -0.004979 -0.004175 0.005560
# 2 -0.002634 0.010294 -0.006190 0.004899 0.003117 0.005513
# 3 -0.000921 -0.006190 0.022056 -0.024605 -0.009508 -0.001629
# 4 -0.004979 0.004899 -0.024605 0.064017 0.015679 -0.000411
# 5 -0.004175 0.003117 -0.009508 0.015679 0.029243 -0.004608
# 6 0.005560 0.005513 -0.001629 -0.000411 -0.004608 0.029038
#
#
# Mechanical properties :
#
#
# Convention : Reuss Voigt Hill
#
# Bulk Modulus (GPa) = 27.60152 55.61893 41.61023
# Shear Modulus (GPa) = 23.85639 37.15843 30.50741
#
# Velocity S-wave (km/s) = 3.17390 3.96114 3.58917
# Velocity P-wave (km/s) = 5.00865 6.66382 5.89462
#
# Compressibility (1/GPa) = 0.03622988
#
# Stress axis : x y z
#
# Youngs Moduli (GPa) = 42.78860 97.14205 45.33906
#
# Poissons Ratio (x) = 0.25588 0.04176
# Poissons Ratio (y) = 0.11271 0.28066
# Poissons Ratio (z) = 0.03941 0.60134
#
# Static dielectric constant tensor:
#      x y z
#    x 1.905580 -0.008680 -0.008480 
#    y -0.008680 1.879780 0.022440 
#    z -0.008480 0.022440 1.966920 
# 
# From -- ./inp_files/485945.got.cif
#   From: 2010.05.17/outbox.cif.g08.bks.cpg/sg2_243_cif.got.tgz:485945.got - 2010.06.03 11:33:40.
