data_PCOD9008781
_publ_section_title
;
Structure prediction by ZEFSAII (Michael W. Deem and Ramdas Pophale) SiO2 
 PCOD9008781
Probable space group: P -1
;
_chemical_formula_sum "Si O2"
_cell_formula_units_Z 14
_cell_length_a 11.957581
_cell_length_b 9.449406
_cell_length_c 11.930056
_cell_angle_alpha 129.251733
_cell_angle_beta 36.199436
_cell_angle_gamma 136.700705
_cell_volume 542.545177
_symmetry_space_group_name_H-M "P -1"
_symmetry_group_IT_number 2
_symmetry_cell_setting 'triclinic'
loop_
_space_group_symop_operation_xyz
x,y,z
-x,-y,-z
loop_
_atom_site_type_symbol
_atom_site_label
_atom_site_fract_x
_atom_site_fract_y
_atom_site_fract_z
Si Si1 0.194744 0.366130 0.690913
Si Si2 0.158060 0.769566 0.703323
Si Si3 0.513512 0.537336 0.876549
Si Si4 0.072069 0.323437 0.516923
Si Si5 0.374716 0.182466 0.630768
Si Si6 0.800668 0.202351 0.075659
Si Si7 0.603618 0.122479 0.863392
O O1 0.192135 0.345222 0.549520
O O2 0.338013 0.294428 0.610166
O O3 0.238964 0.598094 0.800719
O O4 0.953741 0.221451 0.858425
O O5 0.061706 0.539565 0.616245
O O6 0.403933 0.827026 0.564836
O O7 0.072659 0.775009 0.899234
O O8 0.182270 0.951441 0.693219
O O9 0.763185 0.677753 0.708028
O O10 0.419474 0.326945 0.776005
O O11 0.500000 0.500000 0.000000
O O12 0.377178 0.654128 0.017777
O O13 0.828363 0.147569 0.647159
O O14 0.580108 0.992930 0.138119
O O15 0.500000 0.000000 0.000000
#
# Coordination Sequence:
#
# PCOD9008781 Si02
#       7
#     2   2   2   2   2   2   2
#     4  10  21  41  70 102 130 176 232 289 341 401
#     4   9  21  41  66  97 133 179 229 284 342 405
#     4  11  26  46  69 102 141 183 233 280 347 422
#     4  10  24  47  69 103 141 180 233 284 344 411
#     4  10  21  41  70  99 134 178 231 287 341 405
#     4  10  21  39  65  97 137 177 229 280 343 410
#     4  12  24  44  69  99 143 187 221 287 346 409
#
# _framework density 25.804300999999999
#
# number of rings (size 3 to 8) (size 9 to 14) (size 15 to 20)
#    0.000    1.714    1.429    1.714    4.000    8.000 
#    5.143    0.000    0.000    0.000    0.000    0.000 
#    0.000    0.000    0.000    0.000    0.000    0.000 
#
# Total GULP energy -78454.522385 kJ/mol
# GULP energy per Si atom -5603.894456 kJ/mol
# Density = 2.574557 g / cm^3
# Si number density = 25.804301 Si / 1000 Ang^3
#
#
#
# Elastic Constant Matrix: (Units=GPa)
#
#
# Indices 1 2 3 4 5 6 
#
# 1 48.3893 13.1131 53.1056 -13.0909 3.7512 -1.8326
# 2 13.1131 73.7195 21.3966 -16.2303 -6.3182 -7.6250
# 3 53.1056 21.3966 151.9942 -31.3168 6.8796 -4.1446
# 4 -13.0909 -16.2303 -31.3168 36.7461 4.2917 0.0650
# 5 3.7512 -6.3182 6.8796 4.2917 43.1149 -7.0823
# 6 -1.8326 -7.6250 -4.1446 0.0650 -7.0823 48.3124
#
#
#
# Elastic Compliance Matrix: (Units=1/GPa)
#
#
# Indices 1 2 3 4 5 6 
#
# 1 0.034223 -0.002662 -0.011155 0.001722 -0.001816 -0.000348
# 2 -0.002662 0.015816 -0.000182 0.005589 0.002471 0.002734
# 3 -0.011155 -0.000182 0.011864 0.006233 -0.001515 0.000336
# 4 0.001722 0.005589 0.006233 0.036047 -0.003769 0.000881
# 5 -0.001816 0.002471 -0.001515 -0.003769 0.024964 0.003856
# 6 -0.000348 0.002734 0.000336 0.000881 0.003856 0.021710
#
#
# Mechanical properties :
#
#
# Convention : Reuss Voigt Hill
#
# Bulk Modulus (GPa) = 29.49431 49.92597 39.71014
# Shear Modulus (GPa) = 27.18509 38.06719 32.62614
#
# Velocity S-wave (km/s) = 3.24930 3.84503 3.55965
# Velocity P-wave (km/s) = 5.05293 6.25318 5.68482
#
# Compressibility (1/GPa) = 0.03390485
#
# Stress axis : x y z
#
# Youngs Moduli (GPa) = 29.22027 63.22540 84.28699
#
# Poissons Ratio (x) = 0.16833 0.94021
# Poissons Ratio (y) = 0.07780 0.01535
# Poissons Ratio (z) = 0.32595 0.01151
#
# Static dielectric constant tensor:
#      x y z
#    x 2.071710 0.044480 -0.049900 
#    y 0.044480 2.076650 -0.088490 
#    z -0.049900 -0.088490 2.110130 
# 
# From -- ./inp_files/419637.got.cif
#   From: 2010.05.17/outbox.cif.g08.bks.cpg/sg2_210_cif.got.tgz:419637.got - 2010.06.03 11:33:40.
