data_PCOD9008717
_publ_section_title
;
Structure prediction by ZEFSAII (Michael W. Deem and Ramdas Pophale) SiO2 
 PCOD9008717
Probable space group: P -1
;
_chemical_formula_sum "Si O2"
_cell_formula_units_Z 16
_cell_length_a 7.434957
_cell_length_b 15.054219
_cell_length_c 12.279272
_cell_angle_alpha 40.838490
_cell_angle_beta 111.602730
_cell_angle_gamma 84.417372
_cell_volume 656.862150
_symmetry_space_group_name_H-M "P -1"
_symmetry_group_IT_number 2
_symmetry_cell_setting 'triclinic'
loop_
_space_group_symop_operation_xyz
x,y,z
-x,-y,-z
loop_
_atom_site_type_symbol
_atom_site_label
_atom_site_fract_x
_atom_site_fract_y
_atom_site_fract_z
Si Si1 0.771289 0.913520 0.090528
Si Si2 0.844729 0.455039 0.584084
Si Si3 0.651761 0.368528 0.819561
Si Si4 0.700304 0.026552 0.378068
Si Si5 0.062553 0.322465 0.475528
Si Si6 0.553011 0.117286 0.648754
Si Si7 0.926436 0.008026 0.660791
Si Si8 0.519711 0.575213 0.043028
O O1 0.917036 0.831206 0.313313
O O2 0.929202 0.742821 0.208868
O O3 0.500000 0.000000 0.000000
O O4 0.710757 0.053858 0.856174
O O5 0.737784 0.440390 0.685999
O O6 0.616010 0.559484 0.351947
O O7 0.918236 0.574362 0.520406
O O8 0.613937 0.432594 0.875128
O O9 0.857712 0.161212 0.066030
O O10 0.934216 0.938287 0.429997
O O11 0.501637 0.007731 0.302689
O O12 0.812528 0.957113 0.588069
O O13 0.582509 0.227539 0.169616
O O14 0.279341 0.262885 0.495370
O O15 0.805268 0.455365 0.241678
O O16 0.699004 0.135442 0.572430
O O17 0.500000 0.500000 0.000000
#
# Coordination Sequence:
#
# PCOD9008717 Si02
#       8
#     2   2   2   2   2   2   2   2
#     4  10  21  39  65  95 128 170 219 276 334 399
#     4  11  21  43  68 102 133 174 226 277 353 403
#     4  10  23  40  70  95 136 179 222 286 341 409
#     4  10  24  43  70  92 131 188 225 283 340 400
#     4  11  25  40  67 101 135 175 223 285 341 410
#     4  11  23  43  67  98 134 179 233 276 338 412
#     4  10  22  42  66  97 129 179 233 275 334 407
#     4  11  25  44  66  98 135 178 227 283 346 408
#
# _framework density 24.358231
#
# number of rings (size 3 to 8) (size 9 to 14) (size 15 to 20)
#    0.000    1.500    2.500    1.500    8.750    1.000 
#    0.000    1.875    0.000    0.000    0.000    0.000 
#    0.000    0.000    0.000    0.000    0.000    0.000 
#
# Total GULP energy -89316.155243 kJ/mol
# GULP energy per Si atom -5582.259703 kJ/mol
# Density = 2.430279 g / cm^3
# Si number density = 24.358231 Si / 1000 Ang^3
#
#
#
# Elastic Constant Matrix: (Units=GPa)
#
#
# Indices 1 2 3 4 5 6 
#
# 1 89.7564 31.1257 22.9321 -0.8813 13.3480 -24.8293
# 2 31.1257 125.2506 23.2424 0.7444 9.1570 -26.4292
# 3 22.9321 23.2424 111.0948 5.5352 21.0312 -7.8963
# 4 -0.8813 0.7444 5.5352 35.1538 -7.0339 4.5522
# 5 13.3480 9.1570 21.0312 -7.0339 25.2380 -0.6467
# 6 -24.8293 -26.4292 -7.8963 4.5522 -0.6467 50.6941
#
#
#
# Elastic Compliance Matrix: (Units=1/GPa)
#
#
# Indices 1 2 3 4 5 6 
#
# 1 0.014646 -0.001662 -0.000886 -0.001604 -0.006692 0.006227
# 2 -0.001662 0.009590 -0.000942 -0.001027 -0.001996 0.004106
# 3 -0.000886 -0.000942 0.011521 -0.003931 -0.009858 0.001097
# 4 -0.001604 -0.001027 -0.003931 0.032330 0.013387 -0.004666
# 5 -0.006692 -0.001996 -0.009858 0.013387 0.055669 -0.006346
# 6 0.006227 0.004106 0.001097 -0.004666 -0.006346 0.025426
#
#
# Mechanical properties :
#
#
# Convention : Reuss Voigt Hill
#
# Bulk Modulus (GPa) = 34.75091 53.41135 44.08113
# Shear Modulus (GPa) = 30.16471 38.80395 34.48433
#
# Velocity S-wave (km/s) = 3.52288 3.99564 3.76668
# Velocity P-wave (km/s) = 5.55384 6.57737 6.08716
#
# Compressibility (1/GPa) = 0.02877623
#
# Stress axis : x y z
#
# Youngs Moduli (GPa) = 68.27659 104.27110 86.79566
#
# Poissons Ratio (x) = 0.17335 0.07691
# Poissons Ratio (y) = 0.11351 0.08179
# Poissons Ratio (z) = 0.06050 0.09826
#
# Static dielectric constant tensor:
#      x y z
#    x 1.923450 -0.022270 -0.022380 
#    y -0.022270 2.017120 0.001350 
#    z -0.022380 0.001350 1.905620 
# 
# From -- ./inp_files/398626.got.cif
#   From: 2010.05.17/outbox.cif.g08.bks.cpg/sg2_200_cif.got.tgz:398626.got - 2010.06.03 11:33:40.
