data_PCOD9008544
_publ_section_title
;
Structure prediction by ZEFSAII (Michael W. Deem and Ramdas Pophale) SiO2 
 PCOD9008544
Probable space group: P -1
;
_chemical_formula_sum "Si O2"
_cell_formula_units_Z 12
_cell_length_a 7.236491
_cell_length_b 9.135955
_cell_length_c 7.711415
_cell_angle_alpha 107.162550
_cell_angle_beta 106.974177
_cell_angle_gamma 80.824218
_cell_volume 464.395121
_symmetry_space_group_name_H-M "P -1"
_symmetry_group_IT_number 2
_symmetry_cell_setting 'triclinic'
loop_
_space_group_symop_operation_xyz
x,y,z
-x,-y,-z
loop_
_atom_site_type_symbol
_atom_site_label
_atom_site_fract_x
_atom_site_fract_y
_atom_site_fract_z
Si Si1 0.064198 0.141695 0.198414
Si Si2 0.183263 0.570089 0.171932
Si Si3 0.413719 0.282441 0.294163
Si Si4 0.052516 0.119391 0.702001
Si Si5 0.288543 0.628528 0.870370
Si Si6 0.712656 0.709110 0.387157
O O1 0.899068 0.255777 0.114121
O O2 0.275227 0.146620 0.171192
O O3 0.117719 0.234518 0.422663
O O4 0.986131 0.980496 0.172530
O O5 0.280416 0.442761 0.283754
O O6 0.093723 0.728279 0.282094
O O7 0.343846 0.594967 0.074918
O O8 0.000000 0.500000 0.000000
O O9 0.579781 0.290498 0.202561
O O10 0.459934 0.271560 0.509481
O O11 0.262431 0.181018 0.734011
O O12 0.000000 0.000000 0.500000
O O13 0.248128 0.465653 0.719441
#
# Coordination Sequence:
#
# PCOD9008544 Si02
#       6
#     2   2   2   2   2   2
#     4   9  21  37  62  87 125 162 200 244 312 355
#     4  12  22  40  65  91 122 163 206 252 306 355
#     4  10  23  38  62  94 123 160 206 251 302 367
#     4  10  21  39  65  89 123 165 200 249 309 364
#     4  12  21  39  63  94 123 159 207 257 298 361
#     4   9  19  38  62  88 120 162 205 245 294 365
#
# _framework density 25.840063000000001
#
# number of rings (size 3 to 8) (size 9 to 14) (size 15 to 20)
#    1.000    0.667    3.333    1.500    4.667    0.667 
#    0.000    3.333    0.000    0.000    0.000    0.000 
#    0.000    0.000    0.000    0.000    0.000    0.000 
#
# Total GULP energy -66993.460411 kJ/mol
# GULP energy per Si atom -5582.788368 kJ/mol
# Density = 2.578125 g / cm^3
# Si number density = 25.840063 Si / 1000 Ang^3
#
#
#
# Elastic Constant Matrix: (Units=GPa)
#
#
# Indices 1 2 3 4 5 6 
#
# 1 80.0102 42.1375 32.1580 -7.2769 -28.1683 35.8891
# 2 42.1375 86.9112 18.7840 -15.6656 -12.3722 45.4657
# 3 32.1580 18.7840 93.3149 9.6352 -25.1922 23.0609
# 4 -7.2769 -15.6656 9.6352 60.9811 18.1495 -18.8741
# 5 -28.1683 -12.3722 -25.1922 18.1495 42.7396 -20.8784
# 6 35.8891 45.4657 23.0609 -18.8741 -20.8784 52.9524
#
#
#
# Elastic Compliance Matrix: (Units=1/GPa)
#
#
# Indices 1 2 3 4 5 6 
#
# 1 0.022911 -0.006660 -0.001731 -0.003816 0.010755 -0.006175
# 2 -0.006660 0.023265 -0.000182 0.001913 -0.007129 -0.017511
# 3 -0.001731 -0.000182 0.015418 -0.006586 0.008563 -0.004356
# 4 -0.003816 0.001913 -0.006586 0.023373 -0.012183 0.007340
# 5 0.010755 -0.007129 0.008563 -0.012183 0.042271 0.007426
# 6 -0.006175 -0.017511 -0.004356 0.007340 0.007426 0.045547
#
#
# Mechanical properties :
#
#
# Convention : Reuss Voigt Hill
#
# Bulk Modulus (GPa) = 22.49889 49.59949 36.04919
# Shear Modulus (GPa) = 24.42010 42.47840 33.44925
#
# Velocity S-wave (km/s) = 3.07750 4.05890 3.60178
# Velocity P-wave (km/s) = 4.62103 6.41893 5.59270
#
# Compressibility (1/GPa) = 0.04444663
#
# Stress axis : x y z
#
# Youngs Moduli (GPa) = 43.64651 42.98269 64.85893
#
# Poissons Ratio (x) = 0.28628 0.11229
# Poissons Ratio (y) = 0.29070 0.01183
# Poissons Ratio (z) = 0.07556 0.00784
#
# Static dielectric constant tensor:
#      x y z
#    x 2.102860 0.133140 -0.027120 
#    y 0.133140 2.021640 -0.101270 
#    z -0.027120 -0.101270 2.165640 
# 
# From -- ./inp_files/151943.got.cif
#   From: 2010.05.17/outbox.cif.g08.bks.cpg/sg2_76_cif.got.tgz:151943.got - 2010.06.03 11:33:40.
