data_PCOD9008615
_publ_section_title
;
Structure prediction by ZEFSAII (Michael W. Deem and Ramdas Pophale) SiO2 
 PCOD9008615
Probable space group: P -1
;
_chemical_formula_sum "Si O2"
_cell_formula_units_Z 14
_cell_length_a 8.498711
_cell_length_b 7.184791
_cell_length_c 13.372315
_cell_angle_alpha 70.598654
_cell_angle_beta 98.169747
_cell_angle_gamma 52.041808
_cell_volume 537.337217
_symmetry_space_group_name_H-M "P -1"
_symmetry_group_IT_number 2
_symmetry_cell_setting 'triclinic'
loop_
_space_group_symop_operation_xyz
x,y,z
-x,-y,-z
loop_
_atom_site_type_symbol
_atom_site_label
_atom_site_fract_x
_atom_site_fract_y
_atom_site_fract_z
Si Si1 0.674045 0.544189 0.223810
Si Si2 0.584841 0.230777 0.150331
Si Si3 0.289620 0.169930 0.075256
Si Si4 0.193559 0.066057 0.299830
Si Si5 0.743262 0.253586 0.470592
Si Si6 0.017983 0.173327 0.899071
Si Si7 0.562643 0.767621 0.671421
O O1 0.575305 0.450744 0.164569
O O2 0.529115 0.859687 0.126305
O O3 0.662181 0.509079 0.349095
O O4 0.934156 0.328232 0.258315
O O5 0.602319 0.070639 0.275720
O O6 0.355473 0.342573 0.061772
O O7 0.794443 0.037004 0.130355
O O8 0.222418 0.101950 0.180432
O O9 0.108021 0.273071 0.958229
O O10 0.340268 0.103827 0.362228
O O11 0.249872 0.799717 0.400063
O O12 0.583362 0.223448 0.420186
O O13 0.000000 0.000000 0.500000
O O14 0.783129 0.444926 0.779965
O O15 0.000000 0.000000 0.000000
#
# Coordination Sequence:
#
# PCOD9008615 Si02
#       7
#     2   2   2   2   2   2   2
#     4  10  21  40  63  92 129 165 205 257 312 363
#     4  10  23  41  61  88 129 166 205 256 304 363
#     4  11  24  40  62  95 127 166 212 250 306 376
#     4  10  21  39  65  92 125 164 208 260 310 366
#     4   9  19  38  65  92 123 162 206 258 313 369
#     4  12  24  39  63  93 126 166 212 254 306 378
#     4  10  22  40  63  93 125 164 209 257 314 368
#
# _framework density 26.054403000000001
#
# number of rings (size 3 to 8) (size 9 to 14) (size 15 to 20)
#    0.000    1.714    0.000    4.286    0.000    6.286 
#    0.000    5.714    0.000   30.857    0.000    0.000 
#    0.000    0.000    0.000    0.000    0.000    0.000 
#
# Total GULP energy -78312.135890 kJ/mol
# GULP energy per Si atom -5593.723992 kJ/mol
# Density = 2.599510 g / cm^3
# Si number density = 26.054403 Si / 1000 Ang^3
#
#
#
# Elastic Constant Matrix: (Units=GPa)
#
#
# Indices 1 2 3 4 5 6 
#
# 1 152.6584 46.8946 54.6233 -3.6004 -9.6139 -19.3965
# 2 46.8946 79.0883 40.4175 1.7910 -9.6031 -19.6805
# 3 54.6233 40.4175 128.6229 -13.5637 -15.6906 -12.3735
# 4 -3.6004 1.7910 -13.5637 28.0038 3.6712 -5.0114
# 5 -9.6139 -9.6031 -15.6906 3.6712 63.8317 5.3626
# 6 -19.3965 -19.6805 -12.3735 -5.0114 5.3626 49.6193
#
#
#
# Elastic Compliance Matrix: (Units=1/GPa)
#
#
# Indices 1 2 3 4 5 6 
#
# 1 0.008699 -0.003595 -0.002376 0.000447 0.000040 0.001423
# 2 -0.003595 0.018047 -0.003900 -0.002854 0.001011 0.004383
# 3 -0.002376 -0.003900 0.010767 0.005083 0.001361 0.000576
# 4 0.000447 -0.002854 0.005083 0.039445 -0.001758 0.004484
# 5 0.000040 0.001011 0.001361 -0.001758 0.016360 -0.001190
# 6 0.001423 0.004383 0.000576 0.004484 -0.001190 0.023173
#
#
# Mechanical properties :
#
#
# Convention : Reuss Voigt Hill
#
# Bulk Modulus (GPa) = 56.27278 71.58228 63.92753
# Shear Modulus (GPa) = 35.17294 42.85323 39.01308
#
# Velocity S-wave (km/s) = 3.67819 4.05996 3.87378
# Velocity P-wave (km/s) = 6.29951 7.03644 6.67815
#
# Compressibility (1/GPa) = 0.01777058
#
# Stress axis : x y z
#
# Youngs Moduli (GPa) = 114.95842 55.41151 92.87989
#
# Poissons Ratio (x) = 0.19920 0.22064
# Poissons Ratio (y) = 0.41328 0.36225
# Poissons Ratio (z) = 0.27309 0.21612
#
# Static dielectric constant tensor:
#      x y z
#    x 2.027890 -0.007300 -0.029320 
#    y -0.007300 2.090810 0.084700 
#    z -0.029320 0.084700 2.144890 
# 
# From -- ./inp_files/492807.got.cif
#   From: 2010.05.17/outbox.cif.g08.bks.cpg/sg2_247_cif.got.tgz:492807.got - 2010.06.03 11:33:40.
