data_PCOD9008389
_publ_section_title
;
Structure prediction by ZEFSAII (Michael W. Deem and Ramdas Pophale) SiO2 
 PCOD9008389
Probable space group: P -1
;
_chemical_formula_sum "Si O2"
_cell_formula_units_Z 16
_cell_length_a 15.183876
_cell_length_b 15.394958
_cell_length_c 12.217249
_cell_angle_alpha 61.123851
_cell_angle_beta 41.907622
_cell_angle_gamma 28.589667
_cell_volume 771.980326
_symmetry_space_group_name_H-M "P -1"
_symmetry_group_IT_number 2
_symmetry_cell_setting 'triclinic'
loop_
_space_group_symop_operation_xyz
x,y,z
-x,-y,-z
loop_
_atom_site_type_symbol
_atom_site_label
_atom_site_fract_x
_atom_site_fract_y
_atom_site_fract_z
Si Si1 0.408132 0.530837 0.294651
Si Si2 0.507767 0.868807 0.639310
Si Si3 0.023590 0.378882 0.994956
Si Si4 0.516664 0.327158 0.104461
Si Si5 0.953567 0.949491 0.352316
Si Si6 0.863837 0.381161 0.934999
Si Si7 0.416037 0.447321 0.567068
Si Si8 0.414690 0.986258 0.422893
O O1 0.449146 0.449547 0.189652
O O2 0.358618 0.490284 0.464265
O O3 0.156823 0.778733 0.366202
O O4 0.691651 0.404172 0.131670
O O5 0.683756 0.838847 0.553997
O O6 0.183173 0.127128 0.780947
O O7 0.511709 0.762371 0.761398
O O8 0.577990 0.824198 0.472850
O O9 0.872963 0.463449 0.964604
O O10 0.358769 0.143325 0.803173
O O11 0.862043 0.408265 0.202821
O O12 0.000000 0.500000 0.000000
O O13 0.301483 0.483478 0.106204
O O14 0.834328 0.139134 0.877424
O O15 0.689034 0.193538 0.483223
O O16 0.823947 0.933061 0.436787
O O17 0.500000 0.500000 0.500000
#
# Coordination Sequence:
#
# PCOD9008389 Si02
#       8
#     2   2   2   2   2   2   2   2
#     4  11  23  41  68 100 129 162 214 273 320 378
#     4  10  21  39  64  95 127 169 211 260 324 378
#     4  11  23  44  65  89 131 174 214 260 316 379
#     4  11  23  39  70 103 124 162 218 268 325 377
#     4  11  23  42  65  95 130 166 210 270 323 374
#     4  10  21  42  66  95 133 161 209 274 319 372
#     4  12  25  44  68  94 125 175 223 259 311 381
#     4  10  21  40  62  89 133 171 206 263 320 378
#
# _framework density 20.725916000000002
#
# number of rings (size 3 to 8) (size 9 to 14) (size 15 to 20)
#    0.000    1.250    2.500    4.500    1.750    2.000 
#    2.250    6.875    0.000    0.000    0.000    0.000 
#    0.000    0.000    0.000    0.000    0.000    0.000 
#
# Total GULP energy -89338.870784 kJ/mol
# GULP energy per Si atom -5583.679424 kJ/mol
# Density = 2.067874 g / cm^3
# Si number density = 20.725916 Si / 1000 Ang^3
#
#
#
# Elastic Constant Matrix: (Units=GPa)
#
#
# Indices 1 2 3 4 5 6 
#
# 1 105.8642 4.0044 31.7026 -3.1618 -10.9128 10.6328
# 2 4.0044 65.7701 35.8270 -6.7053 -5.4930 8.3110
# 3 31.7026 35.8270 139.1175 -17.9772 -10.7059 1.3794
# 4 -3.1618 -6.7053 -17.9772 26.8822 9.4377 -0.4385
# 5 -10.9128 -5.4930 -10.7059 9.4377 32.9093 -13.0336
# 6 10.6328 8.3110 1.3794 -0.4385 -13.0336 23.5702
#
#
#
# Elastic Compliance Matrix: (Units=1/GPa)
#
#
# Indices 1 2 3 4 5 6 
#
# 1 0.010793 0.001462 -0.002788 -0.000783 0.001366 -0.004480
# 2 0.001462 0.018901 -0.004993 0.002018 -0.001707 -0.007939
# 3 -0.002788 -0.004993 0.009770 0.004507 0.001447 0.003330
# 4 -0.000783 0.002018 0.004507 0.045646 -0.014670 -0.007885
# 5 0.001366 -0.001707 0.001447 -0.014670 0.044924 0.024469
# 6 -0.004480 -0.007939 0.003330 -0.007885 0.024469 0.060436
#
#
# Mechanical properties :
#
#
# Convention : Reuss Voigt Hill
#
# Bulk Modulus (GPa) = 37.27559 50.42440 43.84999
# Shear Modulus (GPa) = 23.57940 32.62018 28.09979
#
# Velocity S-wave (km/s) = 3.37661 3.97152 3.68609
# Velocity P-wave (km/s) = 5.76420 6.73889 6.27051
#
# Compressibility (1/GPa) = 0.02682721
#
# Stress axis : x y z
#
# Youngs Moduli (GPa) = 92.65258 52.90604 102.35511
#
# Poissons Ratio (x) = -0.07734 0.28533
# Poissons Ratio (y) = -0.13544 0.51104
# Poissons Ratio (z) = 0.25828 0.26415
#
# Static dielectric constant tensor:
#      x y z
#    x 1.780950 -0.005210 0.015470 
#    y -0.005210 1.725000 0.009240 
#    z 0.015470 0.009240 1.807060 
# 
# From -- ./inp_files/455627.got.cif
#   From: 2010.05.17/outbox.cif.g08.bks.cpg/sg2_228_cif.got.tgz:455627.got - 2010.06.03 11:33:40.
