data_PCOD9008936
_publ_section_title
;
Structure prediction by ZEFSAII (Michael W. Deem and Ramdas Pophale) SiO2 
 PCOD9008936
Probable space group: P -1
;
_chemical_formula_sum "Si O2"
_cell_formula_units_Z 14
_cell_length_a 5.299033
_cell_length_b 15.710392
_cell_length_c 10.139587
_cell_angle_alpha 111.873286
_cell_angle_beta 86.396829
_cell_angle_gamma 123.374142
_cell_volume 643.083029
_symmetry_space_group_name_H-M "P -1"
_symmetry_group_IT_number 2
_symmetry_cell_setting 'triclinic'
loop_
_space_group_symop_operation_xyz
x,y,z
-x,-y,-z
loop_
_atom_site_type_symbol
_atom_site_label
_atom_site_fract_x
_atom_site_fract_y
_atom_site_fract_z
Si Si1 0.219163 0.620781 0.993102
Si Si2 0.569062 0.259394 0.188598
Si Si3 0.172315 0.104468 0.653293
Si Si4 0.916294 0.184709 0.290836
Si Si5 0.259484 0.044628 0.906088
Si Si6 0.123965 0.780376 0.381403
Si Si7 0.278769 0.371511 0.887088
O O1 0.292404 0.630181 0.841775
O O2 0.533609 0.677032 0.096213
O O3 0.000000 0.500000 0.000000
O O4 0.031194 0.674688 0.050608
O O5 0.798405 0.257118 0.279906
O O6 0.255096 0.227506 0.250788
O O7 0.501745 0.164375 0.030101
O O8 0.164308 0.063537 0.777463
O O9 0.529707 0.181890 0.636376
O O10 0.969695 0.154326 0.671986
O O11 0.000000 0.000000 0.500000
O O12 0.909681 0.192807 0.453092
O O13 0.693786 0.054656 0.176789
O O14 0.000000 0.000000 0.000000
O O15 0.847834 0.654317 0.272881
O O16 0.500000 0.500000 0.000000
#
# Coordination Sequence:
#
# PCOD9008936 Si02
#       7
#     2   2   2   2   2   2   2
#     4  10  21  40  67  94 121 157 214 282 332 377
#     4  11  22  39  61  91 126 170 219 257 327 384
#     4  12  25  41  63  93 133 178 225 261 318 391
#     4  11  24  38  59  90 133 173 208 262 318 399
#     4  10  23  39  60  90 131 173 214 262 312 378
#     4  12  24  41  65  91 133 173 220 267 330 379
#     4  10  21  39  66  94 119 156 213 274 332 375
#
# _framework density 21.770126999999999
#
# number of rings (size 3 to 8) (size 9 to 14) (size 15 to 20)
#    0.000    1.143    1.429    5.143    2.000    3.429 
#    0.000    0.000    0.000   20.571    0.000    0.000 
#    0.000    0.000    0.000    0.000    0.000    0.000 
#
# Total GULP energy -78043.816936 kJ/mol
# GULP energy per Si atom -5574.558353 kJ/mol
# Density = 2.172058 g / cm^3
# Si number density = 21.770127 Si / 1000 Ang^3
#
#
#
# Elastic Constant Matrix: (Units=GPa)
#
#
# Indices 1 2 3 4 5 6 
#
# 1 163.4430 30.3961 25.4991 -12.0699 0.9839 15.0740
# 2 30.3961 87.4215 29.8858 -20.8725 -4.0158 -1.9788
# 3 25.4991 29.8858 111.4099 -13.4047 4.1304 9.5428
# 4 -12.0699 -20.8725 -13.4047 41.4538 -0.2109 2.2324
# 5 0.9839 -4.0158 4.1304 -0.2109 35.5724 -5.3769
# 6 15.0740 -1.9788 9.5428 2.2324 -5.3769 21.2419
#
#
#
# Elastic Compliance Matrix: (Units=1/GPa)
#
#
# Indices 1 2 3 4 5 6 
#
# 1 0.007210 -0.002297 -0.000374 0.001117 -0.001255 -0.005598
# 2 -0.002297 0.014932 -0.003318 0.005540 0.002871 0.004656
# 3 -0.000374 -0.003318 0.010773 0.001999 -0.002468 -0.005719
# 4 0.001117 0.005540 0.001999 0.028108 -0.000099 -0.004154
# 5 -0.001255 0.002871 -0.002468 -0.000099 0.030258 0.009936
# 6 -0.005598 0.004656 -0.005719 -0.004154 0.009936 0.057003
#
#
# Mechanical properties :
#
#
# Convention : Reuss Voigt Hill
#
# Bulk Modulus (GPa) = 47.76104 59.31515 53.53810
# Shear Modulus (GPa) = 29.89673 38.08653 33.99163
#
# Velocity S-wave (km/s) = 3.70982 4.18722 3.95573
# Velocity P-wave (km/s) = 6.35112 7.11916 6.74608
#
# Compressibility (1/GPa) = 0.02093757
#
# Stress axis : x y z
#
# Youngs Moduli (GPa) = 138.69458 66.97034 92.82053
#
# Poissons Ratio (x) = 0.15382 0.03469
# Poissons Ratio (y) = 0.31855 0.30802
# Poissons Ratio (z) = 0.05183 0.22224
#
# Static dielectric constant tensor:
#      x y z
#    x 1.264700 1.176750 0.691870 
#    y 1.176750 -0.688490 -1.383300 
#    z 0.691870 -1.383300 1.052130 
# 
# From -- ./inp_files/46241.got.cif
#   From: 2010.05.17/outbox.cif.g08.bks.cpg/sg2_24_cif.got.tgz:46241.got - 2010.06.03 11:33:40.
