data_PCOD9008527
_publ_section_title
;
Structure prediction by ZEFSAII (Michael W. Deem and Ramdas Pophale) SiO2 
 PCOD9008527
Probable space group: P -1
;
_chemical_formula_sum "Si O2"
_cell_formula_units_Z 12
_cell_length_a 8.282181
_cell_length_b 10.903302
_cell_length_c 11.674664
_cell_angle_alpha 68.954083
_cell_angle_beta 60.337493
_cell_angle_gamma 115.705077
_cell_volume 561.652966
_symmetry_space_group_name_H-M "P -1"
_symmetry_group_IT_number 2
_symmetry_cell_setting 'triclinic'
loop_
_space_group_symop_operation_xyz
x,y,z
-x,-y,-z
loop_
_atom_site_type_symbol
_atom_site_label
_atom_site_fract_x
_atom_site_fract_y
_atom_site_fract_z
Si Si1 0.137930 0.342792 0.438434
Si Si2 0.007073 0.655869 0.272790
Si Si3 0.500711 0.709173 0.574640
Si Si4 0.012972 0.041274 0.850280
Si Si5 0.552442 0.312181 0.953921
Si Si6 0.298594 0.083931 0.344743
O O1 0.114793 0.425756 0.528462
O O2 0.360533 0.349047 0.398377
O O3 0.248748 0.469383 0.241630
O O4 0.827420 0.115161 0.601011
O O5 0.802485 0.483617 0.306720
O O6 0.011699 0.814620 0.201764
O O7 0.306029 0.746530 0.121125
O O8 0.702299 0.849312 0.350168
O O9 0.536085 0.834024 0.621215
O O10 0.000000 0.000000 0.000000
O O11 0.753660 0.836542 0.944865
O O12 0.492174 0.264498 0.125391
O O13 0.000000 0.000000 0.500000
#
# Coordination Sequence:
#
# PCOD9008527 Si02
#       6
#     2   2   2   2   2   2
#     4  10  21  39  65  88 119 160 205 243 299 358
#     4  11  22  39  61  93 128 148 201 262 294 348
#     4  10  21  41  59  87 127 155 199 256 286 357
#     4  11  21  38  64  92 116 160 208 242 298 359
#     4  12  22  38  66  91 119 163 198 247 311 348
#     4  10  21  41  60  87 126 158 203 245 293 363
#
# _framework density 21.365507000000001
#
# number of rings (size 3 to 8) (size 9 to 14) (size 15 to 20)
#    0.000    1.333    5.000    5.000    0.000    3.333 
#    3.000    0.833    0.000    0.000    0.000    0.000 
#    0.000    0.000    0.000    0.000    0.000    0.000 
#
# Total GULP energy -67004.188454 kJ/mol
# GULP energy per Si atom -5583.682371 kJ/mol
# Density = 2.131688 g / cm^3
# Si number density = 21.365507 Si / 1000 Ang^3
#
#
#
# Elastic Constant Matrix: (Units=GPa)
#
#
# Indices 1 2 3 4 5 6 
#
# 1 15.8371 3.4148 18.6503 -2.5100 18.0217 0.7989
# 2 3.4148 75.2632 7.7538 -3.4507 8.9762 32.5707
# 3 18.6503 7.7538 115.2709 15.9455 36.0627 8.9198
# 4 -2.5100 -3.4507 15.9455 26.7168 3.6296 1.6058
# 5 18.0217 8.9762 36.0627 3.6296 34.4012 7.9932
# 6 0.7989 32.5707 8.9198 1.6058 7.9932 17.9510
#
#
#
# Elastic Compliance Matrix: (Units=1/GPa)
#
#
# Indices 1 2 3 4 5 6 
#
# 1 0.271294 -0.081838 -0.006896 0.028850 -0.165611 0.211004
# 2 -0.081838 0.096744 0.002069 0.007310 0.061369 -0.200900
# 3 -0.006896 0.002069 0.014090 -0.007146 -0.009664 -0.005506
# 4 0.028850 0.007310 -0.007146 0.047606 -0.012278 -0.009787
# 5 -0.165611 0.061369 -0.009664 -0.012278 0.149497 -0.164647
# 6 0.211004 -0.200900 -0.005506 -0.009787 -0.164647 0.487759
#
#
# Mechanical properties :
#
#
# Convention : Reuss Voigt Hill
#
# Bulk Modulus (GPa) = 4.78936 29.55657 17.17296
# Shear Modulus (GPa) = 3.81703 27.58395 15.70049
#
# Velocity S-wave (km/s) = 1.33806 3.59702 2.71376
# Velocity P-wave (km/s) = 2.15261 5.57810 4.22782
#
# Compressibility (1/GPa) = 0.20879637
#
# Stress axis : x y z
#
# Youngs Moduli (GPa) = 3.68604 10.33657 70.97295
#
# Poissons Ratio (x) = 0.84593 0.48945
# Poissons Ratio (y) = 0.30166 -0.14683
# Poissons Ratio (z) = 0.02542 -0.02138
#
# Static dielectric constant tensor:
#      x y z
#    x 1.768320 -0.024360 0.039400 
#    y -0.024360 1.816840 0.003570 
#    z 0.039400 0.003570 1.795260 
# 
# From -- ./inp_files/151852.got.cif
#   From: 2010.05.17/outbox.cif.g08.bks.cpg/sg2_76_cif.got.tgz:151852.got - 2010.06.03 11:33:40.
