data_PCOD9008603
_publ_section_title
;
Structure prediction by ZEFSAII (Michael W. Deem and Ramdas Pophale) SiO2 
 PCOD9008603
Probable space group: P -1
;
_chemical_formula_sum "Si O2"
_cell_formula_units_Z 14
_cell_length_a 15.657441
_cell_length_b 8.521707
_cell_length_c 11.824276
_cell_angle_alpha 62.342405
_cell_angle_beta 129.033506
_cell_angle_gamma 145.621415
_cell_volume 686.419058
_symmetry_space_group_name_H-M "P -1"
_symmetry_group_IT_number 2
_symmetry_cell_setting 'triclinic'
loop_
_space_group_symop_operation_xyz
x,y,z
-x,-y,-z
loop_
_atom_site_type_symbol
_atom_site_label
_atom_site_fract_x
_atom_site_fract_y
_atom_site_fract_z
Si Si1 0.346517 0.438319 0.938827
Si Si2 0.863557 0.002297 0.270580
Si Si3 0.542635 0.104405 0.257096
Si Si4 0.422400 0.592623 0.382055
Si Si5 0.813858 0.687842 0.925297
Si Si6 0.829734 0.308334 0.000695
Si Si7 0.741507 0.550283 0.471559
O O1 0.385892 0.690574 0.855567
O O2 0.174898 0.165140 0.817227
O O3 0.500000 0.500000 0.000000
O O4 0.314305 0.392276 0.060126
O O5 0.816522 0.136847 0.139868
O O6 0.059985 0.248517 0.397721
O O7 0.751109 0.759621 0.353633
O O8 0.650779 0.311132 0.384292
O O9 0.543251 0.892787 0.324230
O O10 0.337865 0.900271 0.152179
O O11 0.500000 0.500000 0.500000
O O12 0.257783 0.360430 0.241886
O O13 0.365785 0.595318 0.454890
O O14 0.827319 0.492033 0.001797
O O15 0.000000 0.000000 0.000000
O O16 0.000000 0.500000 0.000000
#
# Coordination Sequence:
#
# PCOD9008603 Si02
#       7
#     2   2   2   2   2   2   2
#     4  11  22  41  70  94 125 167 214 268 320 373
#     4  10  21  39  65  92 120 167 211 259 320 375
#     4  10  23  40  63  93 122 168 218 255 317 385
#     4  11  25  38  59  90 130 165 204 260 318 374
#     4  11  26  42  63  95 131 162 215 270 316 379
#     4  11  22  39  65  95 128 167 217 268 322 373
#     4  10  22  40  61  89 129 165 210 253 312 396
#
# _framework density 20.395703999999999
#
# number of rings (size 3 to 8) (size 9 to 14) (size 15 to 20)
#    0.000    1.429    1.429    3.857    4.000    4.571 
#    0.000    0.000    0.000    6.857    0.000    0.000 
#    0.000    0.000    0.000    0.000    0.000    0.000 
#
# Total GULP energy -78134.517932 kJ/mol
# GULP energy per Si atom -5581.036995 kJ/mol
# Density = 2.034928 g / cm^3
# Si number density = 20.395704 Si / 1000 Ang^3
#
#
#
# Elastic Constant Matrix: (Units=GPa)
#
#
# Indices 1 2 3 4 5 6 
#
# 1 55.0608 14.6239 11.0169 -2.6093 5.4889 -3.4709
# 2 14.6239 112.6730 45.9863 7.4465 28.0625 -24.4527
# 3 11.0169 45.9863 103.1611 -2.4537 18.2560 -18.7775
# 4 -2.6093 7.4465 -2.4537 49.6899 -8.0373 7.0243
# 5 5.4889 28.0625 18.2560 -8.0373 29.4930 -9.2707
# 6 -3.4709 -24.4527 -18.7775 7.0243 -9.2707 17.8958
#
#
#
# Elastic Compliance Matrix: (Units=1/GPa)
#
#
# Indices 1 2 3 4 5 6 
#
# 1 0.019030 -0.002208 -0.001138 0.001349 -0.000834 -0.001482
# 2 -0.002208 0.017122 -0.002463 -0.007026 -0.010746 0.017573
# 3 -0.001138 -0.002463 0.013028 -0.000775 -0.002932 0.008869
# 4 0.001349 -0.007026 -0.000775 0.024807 0.008866 -0.015296
# 5 -0.000834 -0.010746 -0.002932 0.008866 0.049919 0.004458
# 6 -0.001482 0.017573 0.008869 -0.015296 0.004458 0.097222
#
#
# Mechanical properties :
#
#
# Convention : Reuss Voigt Hill
#
# Bulk Modulus (GPa) = 26.62402 46.01657 36.32029
# Shear Modulus (GPa) = 20.38603 32.70026 26.54314
#
# Velocity S-wave (km/s) = 3.16496 4.00846 3.61142
# Velocity P-wave (km/s) = 5.14179 6.63585 5.93601
#
# Compressibility (1/GPa) = 0.03756007
#
# Stress axis : x y z
#
# Youngs Moduli (GPa) = 52.54969 58.40500 76.75840
#
# Poissons Ratio (x) = 0.12899 0.08734
# Poissons Ratio (y) = 0.11606 0.18908
# Poissons Ratio (z) = 0.05979 0.14387
#
# Static dielectric constant tensor:
#      x y z
#    x 1.706050 0.014220 0.018550 
#    y 0.014220 1.764970 -0.034360 
#    z 0.018550 -0.034360 1.730940 
# 
# From -- ./inp_files/184959.got.cif
#   From: 2010.05.17/outbox.cif.g08.bks.cpg/sg2_93_cif.got.tgz:184959.got - 2010.06.03 11:33:40.
