data_PCOD9008861
_publ_section_title
;
Structure prediction by ZEFSAII (Michael W. Deem and Ramdas Pophale) SiO2 
 PCOD9008861
Probable space group: P -1
;
_chemical_formula_sum "Si O2"
_cell_formula_units_Z 14
_cell_length_a 11.189428
_cell_length_b 9.590469
_cell_length_c 8.635584
_cell_angle_alpha 106.553410
_cell_angle_beta 124.815120
_cell_angle_gamma 67.586375
_cell_volume 700.580158
_symmetry_space_group_name_H-M "P -1"
_symmetry_group_IT_number 2
_symmetry_cell_setting 'triclinic'
loop_
_space_group_symop_operation_xyz
x,y,z
-x,-y,-z
loop_
_atom_site_type_symbol
_atom_site_label
_atom_site_fract_x
_atom_site_fract_y
_atom_site_fract_z
Si Si1 0.367785 0.555368 0.794137
Si Si2 0.375471 0.063756 0.745077
Si Si3 0.775059 0.700663 0.522281
Si Si4 0.549901 0.748092 0.870712
Si Si5 0.864051 0.651195 0.927451
Si Si6 0.938661 0.222929 0.369781
Si Si7 0.067887 0.107033 0.736353
O O1 0.300862 0.424493 0.638298
O O2 0.442140 0.640075 0.748878
O O3 0.221884 0.684477 0.785645
O O4 0.500000 0.500000 0.000000
O O5 0.326492 0.139072 0.567676
O O6 0.225997 0.062637 0.738189
O O7 0.486724 0.896401 0.765788
O O8 0.449927 0.173860 0.935421
O O9 0.804314 0.678702 0.717880
O O10 0.937006 0.695338 0.564363
O O11 0.719517 0.653738 0.927776
O O12 0.915051 0.793731 0.074247
O O13 0.000000 0.500000 0.000000
O O14 0.947155 0.209692 0.559391
O O15 0.971926 0.046085 0.295268
#
# Coordination Sequence:
#
# PCOD9008861 Si02
#       7
#     2   2   2   2   2   2   2
#     4  12  23  37  65  98 124 160 211 268 304 358
#     4   9  18  40  65  94 114 158 219 262 299 355
#     4  11  24  39  62  95 132 163 204 256 313 376
#     4  10  21  39  66  86 127 164 205 258 312 363
#     4  11  25  41  60  91 136 171 197 248 326 385
#     4  10  21  39  68  95 117 160 219 261 300 363
#     4   9  19  40  68  90 118 165 212 256 306 366
#
# _framework density 19.983438
#
# number of rings (size 3 to 8) (size 9 to 14) (size 15 to 20)
#    0.000    1.714    2.857    1.286    2.000    1.714 
#    0.000    0.000    3.143    0.000    0.000    0.000 
#    0.000    0.000    0.000    0.000    0.000    0.000 
#
# Total GULP energy -78108.847520 kJ/mol
# GULP energy per Si atom -5579.203394 kJ/mol
# Density = 1.993795 g / cm^3
# Si number density = 19.983438 Si / 1000 Ang^3
#
#
#
# Elastic Constant Matrix: (Units=GPa)
#
#
# Indices 1 2 3 4 5 6 
#
# 1 56.1352 44.8535 24.1806 15.7351 28.2997 9.1499
# 2 44.8535 84.6983 44.6372 14.0497 17.5419 7.0045
# 3 24.1806 44.6372 116.8524 9.9795 12.8601 9.2624
# 4 15.7351 14.0497 9.9795 32.4445 0.6156 16.3167
# 5 28.2997 17.5419 12.8601 0.6156 30.9728 0.6914
# 6 9.1499 7.0045 9.2624 16.3167 0.6914 29.6380
#
#
#
# Elastic Compliance Matrix: (Units=1/GPa)
#
#
# Indices 1 2 3 4 5 6 
#
# 1 0.063516 -0.021695 0.002157 -0.019522 -0.046180 -0.003331
# 2 -0.021695 0.024449 -0.005999 0.000433 0.008405 0.002360
# 3 0.002157 -0.005999 0.010973 -0.000629 -0.003067 -0.002260
# 4 -0.019522 0.000433 -0.000629 0.051293 0.017336 -0.022522
# 5 -0.046180 0.008405 -0.003067 0.017336 0.070604 0.002038
# 6 -0.003331 0.002360 -0.002260 -0.022522 0.002038 0.047269
#
#
# Mechanical properties :
#
#
# Convention : Reuss Voigt Hill
#
# Bulk Modulus (GPa) = 20.89200 53.89206 37.39203
# Shear Modulus (GPa) = 14.91947 28.21203 21.56575
#
# Velocity S-wave (km/s) = 2.73535 3.76143 3.28865
# Velocity P-wave (km/s) = 4.52256 6.77432 5.75955
#
# Compressibility (1/GPa) = 0.04786522
#
# Stress axis : x y z
#
# Youngs Moduli (GPa) = 15.74418 40.90073 91.12933
#
# Poissons Ratio (x) = 0.88733 -0.19660
# Poissons Ratio (y) = 0.34157 0.54671
# Poissons Ratio (z) = -0.03397 0.24537
#
# Static dielectric constant tensor:
#      x y z
#    x 1.736470 0.002970 0.018010 
#    y 0.002970 1.710240 -0.021390 
#    z 0.018010 -0.021390 1.727480 
# 
# From -- ./inp_files/176163.got.cif
#   From: 2010.05.17/outbox.cif.g08.bks.cpg/sg2_89_cif.got.tgz:176163.got - 2010.06.03 11:33:40.
