data_PCOD9008944
_publ_section_title
;
Structure prediction by ZEFSAII (Michael W. Deem and Ramdas Pophale) SiO2 
 PCOD9008944
Probable space group: P -1
;
_chemical_formula_sum "Si O2"
_cell_formula_units_Z 14
_cell_length_a 7.101460
_cell_length_b 9.250644
_cell_length_c 13.310571
_cell_angle_alpha 132.145388
_cell_angle_beta 93.395234
_cell_angle_gamma 110.078312
_cell_volume 553.779373
_symmetry_space_group_name_H-M "P -1"
_symmetry_group_IT_number 2
_symmetry_cell_setting 'triclinic'
loop_
_space_group_symop_operation_xyz
x,y,z
-x,-y,-z
loop_
_atom_site_type_symbol
_atom_site_label
_atom_site_fract_x
_atom_site_fract_y
_atom_site_fract_z
Si Si1 0.367477 0.239873 0.842280
Si Si2 0.763140 0.077485 0.479253
Si Si3 0.693472 0.101546 0.838983
Si Si4 0.012126 0.285261 0.781052
Si Si5 0.729076 0.238470 0.101733
Si Si6 0.799960 0.541369 0.426710
Si Si7 0.458310 0.678313 0.495900
O O1 0.471396 0.115464 0.847791
O O2 0.119369 0.187221 0.814310
O O3 0.367169 0.166014 0.691893
O O4 0.500000 0.500000 0.000000
O O5 0.617975 0.196494 0.525020
O O6 0.874742 0.111953 0.606282
O O7 0.970562 0.233281 0.485134
O O8 0.834593 0.294667 0.850434
O O9 0.617014 0.866097 0.671169
O O10 0.814379 0.144546 0.969272
O O11 0.195275 0.519207 0.842681
O O12 0.795835 0.346324 0.265362
O O13 0.500000 0.000000 0.000000
O O14 0.591994 0.569997 0.403968
O O15 0.248664 0.514112 0.482775
#
# Coordination Sequence:
#
# PCOD9008944 Si02
#       7
#     2   2   2   2   2   2   2
#     4  11  23  40  65  98 133 171 216 273 329 381
#     4  10  23  40  64  96 131 170 219 271 321 388
#     4  11  23  43  67  96 132 172 217 272 325 387
#     4  11  24  42  68  96 131 175 219 266 326 393
#     4  11  22  41  67  94 133 173 211 270 332 381
#     4  10  21  40  65  93 132 173 219 263 325 391
#     4  10  21  39  66  94 127 174 220 266 320 390
#
# _framework density 25.280823999999999
#
# number of rings (size 3 to 8) (size 9 to 14) (size 15 to 20)
#    0.000    1.429    2.857    2.143    0.000    5.714 
#    0.000    0.000    0.000    5.143    0.000    0.000 
#    0.000    0.000    0.000    0.000    0.000    0.000 
#
# Total GULP energy -77946.605066 kJ/mol
# GULP energy per Si atom -5567.614648 kJ/mol
# Density = 2.522328 g / cm^3
# Si number density = 25.280824 Si / 1000 Ang^3
#
#
#
# Elastic Constant Matrix: (Units=GPa)
#
#
# Indices 1 2 3 4 5 6 
#
# 1 82.1729 33.9819 25.4688 -13.2671 7.7911 1.7387
# 2 33.9819 106.4819 27.6721 -0.2406 -7.0102 15.5342
# 3 25.4688 27.6721 163.9367 10.2430 1.6795 11.3266
# 4 -13.2671 -0.2406 10.2430 38.2998 5.3292 -0.2736
# 5 7.7911 -7.0102 1.6795 5.3292 27.5755 -9.8939
# 6 1.7387 15.5342 11.3266 -0.2736 -9.8939 31.2366
#
#
#
# Elastic Compliance Matrix: (Units=1/GPa)
#
#
# Indices 1 2 3 4 5 6 
#
# 1 0.016938 -0.005352 -0.002132 0.007431 -0.007373 0.000222
# 2 -0.005352 0.012177 -0.000828 -0.002073 0.003491 -0.004370
# 3 -0.002132 -0.000828 0.006877 -0.002559 -0.000276 -0.002073
# 4 0.007431 -0.002073 -0.002559 0.030562 -0.008717 -0.000948
# 5 -0.007373 0.003491 -0.000276 -0.008717 0.045658 0.013160
# 6 0.000222 -0.004370 -0.002073 -0.000948 0.013160 0.039086
#
#
# Mechanical properties :
#
#
# Convention : Reuss Voigt Hill
#
# Bulk Modulus (GPa) = 51.63501 58.53745 55.08623
# Shear Modulus (GPa) = 28.67323 37.12032 32.89677
#
# Velocity S-wave (km/s) = 3.37143 3.83602 3.61120
# Velocity P-wave (km/s) = 5.96861 6.54410 6.26297
#
# Compressibility (1/GPa) = 0.01936671
#
# Stress axis : x y z
#
# Youngs Moduli (GPa) = 59.03924 82.12008 145.41392
#
# Poissons Ratio (x) = 0.43953 0.31003
# Poissons Ratio (y) = 0.31600 0.12044
# Poissons Ratio (z) = 0.12588 0.06802
#
# Static dielectric constant tensor:
#      x y z
#    x 2.068850 0.005740 0.022480 
#    y 0.005740 2.085370 0.007030 
#    z 0.022480 0.007030 2.026720 
# 
# From -- ./inp_files/496910.got.cif
#   From: 2010.05.17/outbox.cif.g08.bks.cpg/sg2_249_cif.got.tgz:496910.got - 2010.06.03 11:33:40.
