data_PCOD9008661
_publ_section_title
;
Structure prediction by ZEFSAII (Michael W. Deem and Ramdas Pophale) SiO2 
 PCOD9008661
Probable space group: P -1
;
_chemical_formula_sum "Si O2"
_cell_formula_units_Z 16
_cell_length_a 17.233132
_cell_length_b 19.841634
_cell_length_c 7.931480
_cell_angle_alpha 139.526777
_cell_angle_beta 61.682396
_cell_angle_gamma 150.112890
_cell_volume 719.173306
_symmetry_space_group_name_H-M "P -1"
_symmetry_group_IT_number 2
_symmetry_cell_setting 'triclinic'
loop_
_space_group_symop_operation_xyz
x,y,z
-x,-y,-z
loop_
_atom_site_type_symbol
_atom_site_label
_atom_site_fract_x
_atom_site_fract_y
_atom_site_fract_z
Si Si1 0.392545 0.690200 0.818450
Si Si2 0.573050 0.517235 0.622580
Si Si3 0.825345 0.829919 0.226945
Si Si4 0.279903 0.047631 0.497182
Si Si5 0.268281 0.871891 0.879397
Si Si6 0.829486 0.459008 0.556074
Si Si7 0.353444 0.465309 0.888586
Si Si8 0.131624 0.397419 0.841990
O O1 0.444395 0.622797 0.643502
O O2 0.271020 0.587576 0.581169
O O3 0.262359 0.577819 0.902178
O O4 0.586761 0.956315 0.095144
O O5 0.500000 0.500000 0.500000
O O6 0.425882 0.423096 0.717382
O O7 0.782763 0.767211 0.951899
O O8 0.706767 0.605489 0.990613
O O9 0.771336 0.894783 0.423661
O O10 0.000000 0.000000 0.500000
O O11 0.317679 0.000825 0.228405
O O12 0.093910 0.824910 0.373385
O O13 0.472327 0.275354 0.829552
O O14 0.269162 0.754979 0.719702
O O15 0.048958 0.668761 0.678777
O O16 0.829088 0.514970 0.845283
O O17 0.187853 0.334070 0.688912
#
# Coordination Sequence:
#
# PCOD9008661 Si02
#       8
#     2   2   2   2   2   2   2   2
#     4  12  24  43  69  98 132 181 223 276 345 410
#     4  11  23  41  60  95 143 176 219 275 336 406
#     4  11  21  37  67  94 126 182 232 272 331 403
#     4  10  21  39  65  93 129 179 218 277 338 400
#     4  10  22  44  69  96 131 170 228 281 348 401
#     4  10  24  45  68  98 130 173 223 292 340 409
#     4  11  21  41  60  92 133 177 224 273 332 403
#     4  11  23  40  66  97 134 166 230 276 339 406
#
# _framework density 22.247765000000001
#
# number of rings (size 3 to 8) (size 9 to 14) (size 15 to 20)
#    0.000    1.250    2.500    4.875    1.750    1.500 
#    0.000    8.750    0.000    0.000    0.000    0.000 
#    0.000    0.000    0.000    0.000    0.000    0.000 
#
# Total GULP energy -89151.362410 kJ/mol
# GULP energy per Si atom -5571.960151 kJ/mol
# Density = 2.219713 g / cm^3
# Si number density = 22.247765 Si / 1000 Ang^3
#
#
#
# Elastic Constant Matrix: (Units=GPa)
#
#
# Indices 1 2 3 4 5 6 
#
# 1 107.7096 29.6779 29.9371 -2.7278 11.0371 -14.6926
# 2 29.6779 144.2656 32.2459 23.5429 3.7580 -19.5006
# 3 29.9371 32.2459 63.7920 1.8072 7.4375 -16.9719
# 4 -2.7278 23.5429 1.8072 19.5027 3.8335 -0.3794
# 5 11.0371 3.7580 7.4375 3.8335 37.3553 4.6057
# 6 -14.6926 -19.5006 -16.9719 -0.3794 4.6057 28.2793
#
#
#
# Elastic Compliance Matrix: (Units=1/GPa)
#
#
# Indices 1 2 3 4 5 6 
#
# 1 0.011696 -0.001932 -0.003344 0.005037 -0.003529 0.003380
# 2 -0.001932 0.010685 -0.003130 -0.012982 0.000938 0.004159
# 3 -0.003344 -0.003130 0.021968 0.002365 -0.004554 0.010062
# 4 0.005037 -0.012982 0.002365 0.068827 -0.007372 -0.002791
# 5 -0.003529 0.000938 -0.004554 -0.007372 0.030489 -0.008984
# 6 0.003380 0.004159 0.010062 -0.002791 -0.008984 0.047450
#
#
# Mechanical properties :
#
#
# Convention : Reuss Voigt Hill
#
# Bulk Modulus (GPa) = 36.31359 55.49879 45.90619
# Shear Modulus (GPa) = 23.03010 31.95454 27.49232
#
# Velocity S-wave (km/s) = 3.22089 3.79397 3.51911
# Velocity P-wave (km/s) = 5.49454 6.64772 6.09845
#
# Compressibility (1/GPa) = 0.02753790
#
# Stress axis : x y z
#
# Youngs Moduli (GPa) = 85.49662 93.58990 45.51985
#
# Poissons Ratio (x) = 0.18080 0.15224
# Poissons Ratio (y) = 0.16517 0.14246
# Poissons Ratio (z) = 0.28594 0.29290
#
# Static dielectric constant tensor:
#      x y z
#    x 1.807730 0.036000 0.037230 
#    y 0.036000 2.044460 -0.020080 
#    z 0.037230 -0.020080 1.899030 
# 
# From -- ./inp_files/337925.got.cif
#   From: 2010.05.17/outbox.cif.g08.bks.cpg/sg2_169_cif.got.tgz:337925.got - 2010.06.03 11:33:40.
