data_PCOD9008318
_publ_section_title
;
Structure prediction by ZEFSAII (Michael W. Deem and Ramdas Pophale) SiO2 
 PCOD9008318
Probable space group: P -1
;
_chemical_formula_sum "Si O2"
_cell_formula_units_Z 13
_cell_length_a 9.870760
_cell_length_b 13.670172
_cell_length_c 11.336326
_cell_angle_alpha 147.377658
_cell_angle_beta 129.460987
_cell_angle_gamma 65.806811
_cell_volume 607.051481
_symmetry_space_group_name_H-M "P -1"
_symmetry_group_IT_number 2
_symmetry_cell_setting 'triclinic'
loop_
_space_group_symop_operation_xyz
x,y,z
-x,-y,-z
loop_
_atom_site_type_symbol
_atom_site_label
_atom_site_fract_x
_atom_site_fract_y
_atom_site_fract_z
Si Si1 0.632091 0.307149 0.170796
Si Si2 0.073122 0.710241 0.496435
Si Si3 0.676429 0.597480 0.279641
Si Si4 0.000000 0.500000 0.000000
Si Si5 0.331342 0.979551 0.297495
Si Si6 0.040561 0.950323 0.286310
Si Si7 0.768657 0.727170 0.096153
O O1 0.776613 0.332034 0.379700
O O2 0.667122 0.480965 0.275543
O O3 0.423674 0.274201 0.064268
O O4 0.647331 0.134686 0.921441
O O5 0.870314 0.614412 0.341232
O O6 0.090108 0.935063 0.723353
O O7 0.086425 0.636280 0.297968
O O8 0.677927 0.811434 0.523022
O O9 0.500000 0.500000 0.000000
O O10 0.206659 0.470734 0.051097
O O11 0.148847 0.881289 0.174264
O O12 0.500000 0.000000 0.500000
O O13 0.181414 0.114187 0.611484
O O14 0.935504 0.787662 0.154056
#
# Coordination Sequence:
#
# PCOD9008318 Si02
#       7
#     2   2   2   1   2   2   2
#     4  12  24  42  66 101 136 161 223 279 321 386
#     4  10  24  43  64  96 128 172 219 276 324 385
#     4  11  22  41  67  99 133 172 220 262 324 401
#     4  10  22  42  64  86 128 174 214 256 334 384
#     4  11  21  39  69  97 128 177 210 267 332 380
#     4   9  20  40  61  90 129 170 219 253 320 401
#     4  10  21  39  64  93 124 173 218 263 318 392
#
# _framework density 21.414985999999999
#
# number of rings (size 3 to 8) (size 9 to 14) (size 15 to 20)
#    0.000    1.538    3.077    2.308    2.154    4.923 
#    8.308    0.000    0.000    0.000    0.000    0.000 
#    0.000    0.000    0.000    0.000    0.000    0.000 
#
# Total GULP energy -72403.779817 kJ/mol
# GULP energy per Si atom -5569.521524 kJ/mol
# Density = 2.136624 g / cm^3
# Si number density = 21.414986 Si / 1000 Ang^3
#
#
#
# Elastic Constant Matrix: (Units=GPa)
#
#
# Indices 1 2 3 4 5 6 
#
# 1 68.2329 6.9072 28.6089 -9.7511 -12.1826 -24.5545
# 2 6.9072 96.7831 24.1056 -32.8509 -3.0865 -12.8950
# 3 28.6089 24.1056 43.5906 -10.7343 -10.5677 -14.5025
# 4 -9.7511 -32.8509 -10.7343 37.0685 -4.7554 3.9485
# 5 -12.1826 -3.0865 -10.5677 -4.7554 25.7359 3.9801
# 6 -24.5545 -12.8950 -14.5025 3.9485 3.9801 40.2683
#
#
#
# Elastic Compliance Matrix: (Units=1/GPa)
#
#
# Indices 1 2 3 4 5 6 
#
# 1 0.026061 0.005824 -0.012622 0.008086 0.007541 0.011672
# 2 0.005824 0.017582 -0.007356 0.014985 0.003890 0.004679
# 3 -0.012622 -0.007356 0.039046 0.002337 0.009163 0.002875
# 4 0.008086 0.014985 0.002337 0.044345 0.014030 0.004836
# 5 0.007541 0.003890 0.009163 0.014030 0.048792 0.002946
# 6 0.011672 0.004679 0.002875 0.004836 0.002946 0.033719
#
#
# Mechanical properties :
#
#
# Convention : Reuss Voigt Hill
#
# Bulk Modulus (GPa) = 18.38855 36.42778 27.40816
# Shear Modulus (GPa) = 19.53279 30.54686 25.03983
#
# Velocity S-wave (km/s) = 3.02339 3.78090 3.42316
# Velocity P-wave (km/s) = 4.55996 6.00896 5.33390
#
# Compressibility (1/GPa) = 0.05438167
#
# Stress axis : x y z
#
# Youngs Moduli (GPa) = 38.37223 56.87499 25.61090
#
# Poissons Ratio (x) = -0.33124 0.32326
# Poissons Ratio (y) = -0.22348 0.18839
# Poissons Ratio (z) = 0.48433 0.41835
#
# Static dielectric constant tensor:
#      x y z
#    x 1.809120 0.037370 0.051720 
#    y 0.037370 2.021790 0.118830 
#    z 0.051720 0.118830 1.810280 
# 
# From -- ./inp_files/162253.got.cif
#   From: 2010.05.17/outbox.cif.g08.bks.cpg/sg2_82_cif.got.tgz:162253.got - 2010.06.03 11:33:40.
