data_PCOD9008120
_publ_section_title
;
Structure prediction by ZEFSAII (Michael W. Deem and Ramdas Pophale) SiO2 
 PCOD9008120
Probable space group: P -1
;
_chemical_formula_sum "Si O2"
_cell_formula_units_Z 14
_cell_length_a 8.776488
_cell_length_b 7.462806
_cell_length_c 13.975375
_cell_angle_alpha 74.204972
_cell_angle_beta 41.596452
_cell_angle_gamma 75.921978
_cell_volume 583.606949
_symmetry_space_group_name_H-M "P -1"
_symmetry_group_IT_number 2
_symmetry_cell_setting 'triclinic'
loop_
_space_group_symop_operation_xyz
x,y,z
-x,-y,-z
loop_
_atom_site_type_symbol
_atom_site_label
_atom_site_fract_x
_atom_site_fract_y
_atom_site_fract_z
Si Si1 0.919031 0.019129 0.355762
Si Si2 0.445357 0.457066 0.871614
Si Si3 0.642440 0.746090 0.866171
Si Si4 0.121081 0.690782 0.419971
Si Si5 0.151503 0.910569 0.069395
Si Si6 0.564428 0.298648 0.546998
Si Si7 0.157124 0.278964 0.885540
O O1 0.679088 0.141954 0.445775
O O2 0.127895 0.148997 0.261789
O O3 0.942531 0.858371 0.448130
O O4 0.989728 0.926200 0.235064
O O5 0.577616 0.637527 0.815819
O O6 0.657458 0.318450 0.753879
O O7 0.254602 0.447950 0.877739
O O8 0.340300 0.385971 0.029857
O O9 0.416690 0.876780 0.973907
O O10 0.233989 0.694957 0.470181
O O11 0.000000 0.500000 0.500000
O O12 0.075289 0.739760 0.063452
O O13 0.138246 0.106966 0.991890
O O14 0.500000 0.500000 0.500000
O O15 0.349759 0.241072 0.718757
#
# Coordination Sequence:
#
# PCOD9008120 Si02
#       7
#     2   2   2   2   2   2   2
#     4  12  24  45  78 106 142 193 243 302 362 430
#     4  10  21  39  64 101 138 179 235 299 344 427
#     4  11  21  39  74 103 134 181 242 298 359 409
#     4  11  24  44  70 104 141 189 244 298 356 435
#     4  11  23  43  72 101 141 185 243 300 356 432
#     4  11  27  47  69 101 151 192 239 295 362 437
#     4  10  24  46  63 101 144 187 235 292 365 427
#
# _framework density 23.988748000000001
#
# number of rings (size 3 to 8) (size 9 to 14) (size 15 to 20)
#    0.000    1.143    2.857    3.429    2.000    4.571 
#   10.286    0.000    0.000    0.000    0.000    0.000 
#    0.000    0.000    0.000    0.000    0.000    0.000 
#
# Total GULP energy -78236.436573 kJ/mol
# GULP energy per Si atom -5588.316898 kJ/mol
# Density = 2.393415 g / cm^3
# Si number density = 23.988748 Si / 1000 Ang^3
#
#
#
# Elastic Constant Matrix: (Units=GPa)
#
#
# Indices 1 2 3 4 5 6 
#
# 1 122.1829 50.5251 43.1700 0.6599 -1.8517 24.5462
# 2 50.5251 89.8201 14.8038 2.5312 12.5273 -9.1260
# 3 43.1700 14.8038 62.9331 3.5145 10.7069 -1.9566
# 4 0.6599 2.5312 3.5145 40.3086 6.1216 -1.8839
# 5 -1.8517 12.5273 10.7069 6.1216 31.9926 -7.7332
# 6 24.5462 -9.1260 -1.9566 -1.8839 -7.7332 62.2412
#
#
#
# Elastic Compliance Matrix: (Units=1/GPa)
#
#
# Indices 1 2 3 4 5 6 
#
# 1 0.018184 -0.010122 -0.011518 -0.000089 0.006915 -0.008161
# 2 -0.010122 0.017773 0.004226 0.000103 -0.007579 0.005792
# 3 -0.011518 0.004226 0.024556 -0.000587 -0.009276 0.004764
# 4 -0.000089 0.000103 -0.000587 0.025577 -0.004689 0.000223
# 5 0.006915 -0.007579 -0.009276 -0.004689 0.038758 0.000544
# 6 -0.008161 0.005792 0.004764 0.000223 0.000544 0.020358
#
#
# Mechanical properties :
#
#
# Convention : Reuss Voigt Hill
#
# Bulk Modulus (GPa) = 38.93187 54.65932 46.79559
# Shear Modulus (GPa) = 26.51160 38.00429 32.25795
#
# Velocity S-wave (km/s) = 3.32801 3.98459 3.67101
# Velocity P-wave (km/s) = 5.57064 6.63356 6.12520
#
# Compressibility (1/GPa) = 0.02568590
#
# Stress axis : x y z
#
# Youngs Moduli (GPa) = 54.99206 56.26477 40.72357
#
# Poissons Ratio (x) = 0.56950 0.46906
# Poissons Ratio (y) = 0.55662 -0.17210
# Poissons Ratio (z) = 0.63341 -0.23778
#
# Static dielectric constant tensor:
#      x y z
#    x 1.921550 0.027530 0.000050 
#    y 0.027530 1.942880 0.050770 
#    z 0.000050 0.050770 1.875540 
# 
# From -- ./inp_files/494557.got.cif
#   From: 2010.05.17/outbox.cif.g08.bks.cpg/sg2_248_cif.got.tgz:494557.got - 2010.06.03 11:33:40.
