data_PCOD9008036
_publ_section_title
;
Structure prediction by ZEFSAII (Michael W. Deem and Ramdas Pophale) SiO2 
 PCOD9008036
Probable space group: P -1
;
_chemical_formula_sum "Si O2"
_cell_formula_units_Z 16
_cell_length_a 9.120890
_cell_length_b 11.250233
_cell_length_c 19.257521
_cell_angle_alpha 151.352399
_cell_angle_beta 126.080093
_cell_angle_gamma 41.581769
_cell_volume 614.431379
_symmetry_space_group_name_H-M "P -1"
_symmetry_group_IT_number 2
_symmetry_cell_setting 'triclinic'
loop_
_space_group_symop_operation_xyz
x,y,z
-x,-y,-z
loop_
_atom_site_type_symbol
_atom_site_label
_atom_site_fract_x
_atom_site_fract_y
_atom_site_fract_z
Si Si1 0.105323 0.800885 0.682703
Si Si2 0.804448 0.494828 0.701461
Si Si3 0.548847 0.688427 0.322960
Si Si4 0.038120 0.159405 0.155390
Si Si5 0.853567 0.316270 0.770789
Si Si6 0.353427 0.063065 0.922907
Si Si7 0.544414 0.290848 0.471178
Si Si8 0.360329 0.928894 0.244113
O O1 0.171389 0.995092 0.842848
O O2 0.028072 0.982403 0.679903
O O3 0.337663 0.475080 0.563409
O O4 0.888631 0.829665 0.664674
O O5 0.913481 0.408807 0.764447
O O6 0.764640 0.242334 0.539236
O O7 0.923390 0.590654 0.733386
O O8 0.547800 0.815040 0.798174
O O9 0.803348 0.388674 0.248658
O O10 0.373170 0.650640 0.291482
O O11 0.500000 0.000000 0.500000
O O12 0.493415 0.714220 0.237945
O O13 0.254259 0.899271 0.128682
O O14 0.000000 0.000000 0.000000
O O15 0.778708 0.575192 0.940969
O O16 0.500000 0.000000 0.000000
O O17 0.500000 0.500000 0.500000
O O18 0.521276 0.020744 0.310204
#
# Coordination Sequence:
#
# PCOD9008036 Si02
#       8
#     2   2   2   2   2   2   2   2
#     4  10  23  37  65  96 124 175 221 283 345 406
#     4  10  22  40  64  94 131 178 221 278 344 403
#     4  11  27  46  72 107 135 180 238 292 346 418
#     4  12  28  46  71 101 146 191 230 284 352 414
#     4  10  21  39  63  94 130 166 222 284 334 408
#     4   9  19  36  63  91 127 171 221 272 332 407
#     4  11  22  42  62  94 131 171 223 279 350 404
#     4  11  26  44  71 100 139 183 233 288 343 420
#
# _framework density 26.040336
#
# number of rings (size 3 to 8) (size 9 to 14) (size 15 to 20)
#    0.000    1.500    1.250    2.250   14.000    1.500 
#    0.000    1.875    0.000    0.000    0.000    0.000 
#    0.000    0.000    0.000    0.000    0.000    0.000 
#
# Total GULP energy -89379.809505 kJ/mol
# GULP energy per Si atom -5586.238094 kJ/mol
# Density = 2.598107 g / cm^3
# Si number density = 26.040336 Si / 1000 Ang^3
#
#
#
# Elastic Constant Matrix: (Units=GPa)
#
#
# Indices 1 2 3 4 5 6 
#
# 1 111.6347 18.5804 13.6649 -6.5198 23.1914 -6.9179
# 2 18.5804 133.3381 13.4470 -20.9691 8.9508 -0.3032
# 3 13.6649 13.4470 94.9748 -11.5776 2.9031 -22.2136
# 4 -6.5198 -20.9691 -11.5776 31.8015 -8.7313 -6.0325
# 5 23.1914 8.9508 2.9031 -8.7313 30.8359 -6.8737
# 6 -6.9179 -0.3032 -22.2136 -6.0325 -6.8737 49.4823
#
#
#
# Elastic Compliance Matrix: (Units=1/GPa)
#
#
# Indices 1 2 3 4 5 6 
#
# 1 0.010913 -0.001030 -0.001432 -0.001306 -0.008239 -0.000427
# 2 -0.001030 0.008522 -0.000306 0.005359 -0.000060 0.000416
# 3 -0.001432 -0.000306 0.013089 0.006494 0.003316 0.006926
# 4 -0.001306 0.005359 0.006494 0.042502 0.013025 0.009756
# 5 -0.008239 -0.000060 0.003316 0.013025 0.043805 0.008009
# 6 -0.000427 0.000416 0.006926 0.009756 0.008009 0.025563
#
#
# Mechanical properties :
#
#
# Convention : Reuss Voigt Hill
#
# Bulk Modulus (GPa) = 37.05196 47.92580 42.48888
# Shear Modulus (GPa) = 31.46145 42.04096 36.75121
#
# Velocity S-wave (km/s) = 3.47966 4.02239 3.76083
# Velocity P-wave (km/s) = 5.51395 6.32592 5.93384
#
# Compressibility (1/GPa) = 0.02698913
#
# Stress axis : x y z
#
# Youngs Moduli (GPa) = 91.63144 117.34580 76.40222
#
# Poissons Ratio (x) = 0.12082 0.10938
# Poissons Ratio (y) = 0.09435 0.02338
# Poissons Ratio (z) = 0.13118 0.03592
#
# Static dielectric constant tensor:
#      x y z
#    x 2.088830 -0.009640 -0.044630 
#    y -0.009640 2.109900 -0.012160 
#    z -0.044630 -0.012160 2.156880 
# 
# From -- ./inp_files/589728.got.cif
#   From: 2010.05.17/outbox.cif.g08.bks.cpg/sg2_295_cif.got.tgz:589728.got - 2010.06.03 11:33:40.
