data_PCOD9008631
_publ_section_title
;
Structure prediction by ZEFSAII (Michael W. Deem and Ramdas Pophale) SiO2 
 PCOD9008631
Probable space group: P -1
;
_chemical_formula_sum "Si O2"
_cell_formula_units_Z 16
_cell_length_a 14.634551
_cell_length_b 8.563516
_cell_length_c 10.097413
_cell_angle_alpha 66.962472
_cell_angle_beta 95.289049
_cell_angle_gamma 47.646922
_cell_volume 733.395913
_symmetry_space_group_name_H-M "P -1"
_symmetry_group_IT_number 2
_symmetry_cell_setting 'triclinic'
loop_
_space_group_symop_operation_xyz
x,y,z
-x,-y,-z
loop_
_atom_site_type_symbol
_atom_site_label
_atom_site_fract_x
_atom_site_fract_y
_atom_site_fract_z
Si Si1 0.874043 0.306151 0.829803
Si Si2 0.456973 0.370404 0.075726
Si Si3 0.404375 0.816729 0.297225
Si Si4 0.321338 0.105275 0.922607
Si Si5 0.019010 0.411427 0.681672
Si Si6 0.818587 0.418085 0.074992
Si Si7 0.922690 0.746483 0.806137
Si Si8 0.566984 0.601395 0.632838
O O1 0.736716 0.404737 0.719264
O O2 0.948282 0.331299 0.731625
O O3 0.812109 0.487890 0.895329
O O4 0.000000 0.000000 0.000000
O O5 0.482001 0.297788 0.257829
O O6 0.552982 0.095015 0.101409
O O7 0.500000 0.500000 0.000000
O O8 0.285486 0.594786 0.944883
O O9 0.486391 0.797696 0.431538
O O10 0.469036 0.544220 0.350961
O O11 0.242141 0.006335 0.258162
O O12 0.391774 0.937394 0.121858
O O13 0.187059 0.182693 0.826577
O O14 0.248451 0.380823 0.877246
O O15 0.000000 0.500000 0.500000
O O16 0.938322 0.652898 0.692187
O O17 0.989558 0.201850 0.192579
O O18 0.000000 0.500000 0.000000
#
# Coordination Sequence:
#
# PCOD9008631 Si02
#       8
#     2   2   2   2   2   2   2   2
#     4  11  21  41  70  96 129 173 227 269 324 407
#     4  11  23  40  61  93 130 165 213 274 332 383
#     4  11  20  41  63  89 129 169 219 268 324 397
#     4  11  21  42  64  87 130 179 206 266 341 392
#     4  11  24  40  62  99 130 160 222 280 334 380
#     4  10  21  39  65  93 117 170 232 249 317 408
#     4  11  19  40  66  88 120 175 220 261 322 402
#     4  10  24  38  62  96 125 171 219 271 323 390
#
# _framework density 21.816320999999999
#
# number of rings (size 3 to 8) (size 9 to 14) (size 15 to 20)
#    0.000    1.250    5.000    1.875    3.500    0.000 
#    6.750    1.875    0.000    4.500    0.000    0.000 
#    0.000    0.000    0.000    0.000    0.000    0.000 
#
# Total GULP energy -89198.660846 kJ/mol
# GULP energy per Si atom -5574.916303 kJ/mol
# Density = 2.176667 g / cm^3
# Si number density = 21.816321 Si / 1000 Ang^3
#
#
#
# Elastic Constant Matrix: (Units=GPa)
#
#
# Indices 1 2 3 4 5 6 
#
# 1 132.3115 15.9266 55.6789 15.2799 11.1952 -9.3699
# 2 15.9266 97.4641 48.5026 32.4973 2.2382 -20.0029
# 3 55.6789 48.5026 144.3241 37.2329 10.7736 -11.0422
# 4 15.2799 32.4973 37.2329 33.9570 -3.0676 -0.9358
# 5 11.1952 2.2382 10.7736 -3.0676 33.9822 1.2140
# 6 -9.3699 -20.0029 -11.0422 -0.9358 1.2140 26.9344
#
#
#
# Elastic Compliance Matrix: (Units=1/GPa)
#
#
# Indices 1 2 3 4 5 6 
#
# 1 0.009390 0.001522 -0.003065 -0.002465 -0.002558 0.003170
# 2 0.001522 0.019616 -0.001154 -0.018125 -0.003569 0.014156
# 3 -0.003065 -0.001154 0.011721 -0.010627 -0.003685 0.002679
# 4 -0.002465 -0.018125 -0.010627 0.060115 0.011413 -0.017100
# 5 -0.002558 -0.003569 -0.003685 0.011413 0.032923 -0.006139
# 6 0.003170 0.014156 0.002679 -0.017100 -0.006139 0.049523
#
#
# Mechanical properties :
#
#
# Convention : Reuss Voigt Hill
#
# Bulk Modulus (GPa) = 28.30194 68.25731 48.27962
# Shear Modulus (GPa) = 24.94264 35.90748 30.42506
#
# Velocity S-wave (km/s) = 3.38494 4.06137 3.73849
# Velocity P-wave (km/s) = 5.31772 7.30398 6.38852
#
# Compressibility (1/GPa) = 0.03533327
#
# Stress axis : x y z
#
# Youngs Moduli (GPa) = 106.49652 50.97801 85.32005
#
# Poissons Ratio (x) = -0.07759 0.26147
# Poissons Ratio (y) = -0.16209 0.09849
# Poissons Ratio (z) = 0.32636 0.05884
#
# Static dielectric constant tensor:
#      x y z
#    x 1.781050 0.056990 0.021720 
#    y 0.056990 1.842870 -0.052670 
#    z 0.021720 -0.052670 1.839250 
# 
# From -- ./inp_files/297910.got.cif
#   From: 2010.05.17/outbox.cif.g08.bks.cpg/sg2_149_cif.got.tgz:297910.got - 2010.06.03 11:33:40.
