data_PCOD9008694
_publ_section_title
;
Structure prediction by ZEFSAII (Michael W. Deem and Ramdas Pophale) SiO2 
 PCOD9008694
Probable space group: P -1
;
_chemical_formula_sum "Si O2"
_cell_formula_units_Z 16
_cell_length_a 21.112080
_cell_length_b 13.210291
_cell_length_c 17.513251
_cell_angle_alpha 35.140717
_cell_angle_beta 161.591016
_cell_angle_gamma 151.942797
_cell_volume 719.179736
_symmetry_space_group_name_H-M "P -1"
_symmetry_group_IT_number 2
_symmetry_cell_setting 'triclinic'
loop_
_space_group_symop_operation_xyz
x,y,z
-x,-y,-z
loop_
_atom_site_type_symbol
_atom_site_label
_atom_site_fract_x
_atom_site_fract_y
_atom_site_fract_z
Si Si1 0.973685 0.604084 0.786606
Si Si2 0.169794 0.640209 0.482437
Si Si3 0.275513 0.963860 0.538571
Si Si4 0.566735 0.239040 0.437637
Si Si5 0.575363 0.958124 0.030350
Si Si6 0.680079 0.535107 0.969195
Si Si7 0.767796 0.640484 0.179906
Si Si8 0.342461 0.552279 0.337444
O O1 0.806749 0.409538 0.656635
O O2 0.798344 0.592746 0.659848
O O3 0.146269 0.837463 0.799002
O O4 0.146827 0.552691 0.059882
O O5 0.258926 0.809793 0.547943
O O6 0.379556 0.690315 0.632861
O O7 0.079877 0.421014 0.557164
O O8 0.948593 0.614861 0.197449
O O9 0.994960 0.895984 0.273698
O O10 0.455549 0.199447 0.561785
O O11 0.412227 0.960360 0.773189
O O12 0.378306 0.291250 0.220602
O O13 0.500000 0.000000 0.500000
O O14 0.520114 0.719819 0.119768
O O15 0.500000 0.000000 0.000000
O O16 0.717511 0.545584 0.096664
O O17 0.500000 0.500000 0.000000
O O18 0.500000 0.500000 0.500000
#
# Coordination Sequence:
#
# PCOD9008694 Si02
#       8
#     2   2   2   2   2   2   2   2
#     4  10  25  44  66  99 135 177 239 282 333 423
#     4  11  21  42  66  96 135 168 227 283 343 416
#     4  10  21  39  65  94 131 172 226 287 337 406
#     4  12  27  43  65  99 139 178 228 285 345 417
#     4  11  22  40  68  99 141 183 225 290 351 406
#     4  11  23  41  66  97 134 180 219 281 352 404
#     4  11  20  37  68 104 129 169 230 284 350 410
#     4  10  23  46  68  92 129 186 233 279 338 405
#
# _framework density 22.247567
#
# number of rings (size 3 to 8) (size 9 to 14) (size 15 to 20)
#    0.000    1.250    3.750    2.250    0.000    7.000 
#    2.250    0.000    0.000    0.000    0.000    0.000 
#    0.000    0.000    0.000    0.000    0.000    0.000 
#
# Total GULP energy -89154.507165 kJ/mol
# GULP energy per Si atom -5572.156698 kJ/mol
# Density = 2.219693 g / cm^3
# Si number density = 22.247567 Si / 1000 Ang^3
#
#
#
# Elastic Constant Matrix: (Units=GPa)
#
#
# Indices 1 2 3 4 5 6 
#
# 1 102.2718 13.9551 21.0328 4.6724 7.6423 -4.8949
# 2 13.9551 104.6395 31.9167 8.7759 -5.2880 -5.4740
# 3 21.0328 31.9167 82.2594 12.5131 15.9905 -4.7883
# 4 4.6724 8.7759 12.5131 34.6040 -4.2691 0.2659
# 5 7.6423 -5.2880 15.9905 -4.2691 31.5993 -0.1708
# 6 -4.8949 -5.4740 -4.7883 0.2659 -0.1708 22.7362
#
#
#
# Elastic Compliance Matrix: (Units=1/GPa)
#
#
# Indices 1 2 3 4 5 6 
#
# 1 0.010513 -0.000792 -0.001796 -0.000813 -0.001867 0.001690
# 2 -0.000792 0.011545 -0.005011 -0.000453 0.004607 0.001594
# 3 -0.001796 -0.005011 0.017577 -0.006107 -0.010113 0.002104
# 4 -0.000813 -0.000453 -0.006107 0.032279 0.007562 -0.001891
# 5 -0.001867 0.004607 -0.010113 0.007562 0.039001 -0.001218
# 6 0.001690 0.001594 0.002104 -0.001891 -0.001218 0.045186
#
#
# Mechanical properties :
#
#
# Convention : Reuss Voigt Hill
#
# Bulk Modulus (GPa) = 40.92042 46.99775 43.95908
# Shear Modulus (GPa) = 27.86394 32.60566 30.23480
#
# Velocity S-wave (km/s) = 3.54283 3.83245 3.69048
# Velocity P-wave (km/s) = 5.93032 6.38391 6.16129
#
# Compressibility (1/GPa) = 0.02443768
#
# Stress axis : x y z
#
# Youngs Moduli (GPa) = 95.12243 86.61965 56.89204
#
# Poissons Ratio (x) = 0.06861 0.10216
# Poissons Ratio (y) = 0.07535 0.28506
# Poissons Ratio (z) = 0.17082 0.43402
#
# Static dielectric constant tensor:
#      x y z
#    x 1.800620 -0.000520 0.037310 
#    y -0.000520 2.166730 0.004000 
#    z 0.037310 0.004000 1.981440 
# 
# From -- ./inp_files/577968.got.cif
#   From: 2010.05.17/outbox.cif.g08.bks.cpg/sg2_289_cif.got.tgz:577968.got - 2010.06.03 11:33:40.
