data_PCOD9008903
_publ_section_title
;
Structure prediction by ZEFSAII (Michael W. Deem and Ramdas Pophale) SiO2 
 PCOD9008903
Probable space group: P -1
;
_chemical_formula_sum "Si O2"
_cell_formula_units_Z 12
_cell_length_a 7.041989
_cell_length_b 5.285210
_cell_length_c 17.374752
_cell_angle_alpha 85.491034
_cell_angle_beta 83.884703
_cell_angle_gamma 115.942337
_cell_volume 572.492313
_symmetry_space_group_name_H-M "P -1"
_symmetry_group_IT_number 2
_symmetry_cell_setting 'triclinic'
loop_
_space_group_symop_operation_xyz
x,y,z
-x,-y,-z
loop_
_atom_site_type_symbol
_atom_site_label
_atom_site_fract_x
_atom_site_fract_y
_atom_site_fract_z
Si Si1 0.506011 0.668632 0.364972
Si Si2 0.625411 0.890695 0.718187
Si Si3 0.217632 0.572591 0.032861
Si Si4 0.263875 0.764209 0.500119
Si Si5 0.368951 0.145938 0.101004
Si Si6 0.956541 0.770623 0.393114
O O1 0.478978 0.910201 0.311908
O O2 0.323309 0.575273 0.440868
O O3 0.740861 0.799593 0.389996
O O4 0.463691 0.398105 0.320757
O O5 0.879400 0.077959 0.686242
O O6 0.589164 0.825768 0.810970
O O7 0.226889 0.301867 0.077901
O O8 0.261644 0.818498 0.087432
O O9 0.410670 0.699953 0.959817
O O10 0.000000 0.500000 0.000000
O O11 0.142703 0.570745 0.581782
O O12 0.115721 0.869536 0.457516
O O13 0.500000 0.000000 0.500000
#
# Coordination Sequence:
#
# PCOD9008903 Si02
#       6
#     2   2   2   2   2   2
#     4  11  24  40  59  87 119 158 203 249 301 359
#     4  11  25  41  60  90 125 157 199 249 302 359
#     4  10  21  39  66  92 121 161 201 240 294 354
#     4  10  22  41  63  88 118 157 208 256 299 358
#     4  10  22  40  61  92 125 156 200 248 290 356
#     4  10  22  38  62  86 117 159 199 249 308 354
#
# _framework density 20.960982000000001
#
# number of rings (size 3 to 8) (size 9 to 14) (size 15 to 20)
#    0.000    1.667    0.000    4.000    0.000   10.667 
#    0.000    0.000    0.000    0.000    0.000    0.000 
#    0.000    0.000    0.000    0.000    0.000    0.000 
#
# Total GULP energy -67025.415540 kJ/mol
# GULP energy per Si atom -5585.451295 kJ/mol
# Density = 2.091327 g / cm^3
# Si number density = 20.960982 Si / 1000 Ang^3
#
#
#
# Elastic Constant Matrix: (Units=GPa)
#
#
# Indices 1 2 3 4 5 6 
#
# 1 171.1226 49.5511 22.4674 3.2409 15.9084 -4.8919
# 2 49.5511 129.0509 45.2809 13.4224 2.3012 -13.5519
# 3 22.4674 45.2809 74.3903 7.5563 8.3182 -8.4840
# 4 3.2409 13.4224 7.5563 25.3014 -3.5993 5.8661
# 5 15.9084 2.3012 8.3182 -3.5993 15.1405 -3.2213
# 6 -4.8919 -13.5519 -8.4840 5.8661 -3.2213 37.8552
#
#
#
# Elastic Compliance Matrix: (Units=1/GPa)
#
#
# Indices 1 2 3 4 5 6 
#
# 1 0.007318 -0.002796 0.000342 -0.000523 -0.007694 -0.000552
# 2 -0.002796 0.011615 -0.005852 -0.004282 0.004114 0.003499
# 3 0.000342 -0.005852 0.018743 -0.004472 -0.010415 0.001957
# 4 -0.000523 -0.004282 -0.004472 0.047083 0.012979 -0.008794
# 5 -0.007694 0.004114 -0.010415 0.012979 0.082994 0.003196
# 6 -0.000552 0.003499 0.001957 -0.008794 0.003196 0.029671
#
#
# Mechanical properties :
#
#
# Convention : Reuss Voigt Hill
#
# Bulk Modulus (GPa) = 47.47211 67.68474 57.57843
# Shear Modulus (GPa) = 22.61854 32.81038 27.71446
#
# Velocity S-wave (km/s) = 3.28850 3.96069 3.64014
# Velocity P-wave (km/s) = 6.09229 7.29911 6.72283
#
# Compressibility (1/GPa) = 0.02106500
#
# Stress axis : x y z
#
# Youngs Moduli (GPa) = 136.65052 86.09366 53.35316
#
# Poissons Ratio (x) = 0.24076 -0.01827
# Poissons Ratio (y) = 0.38214 0.31220
# Poissons Ratio (z) = -0.04679 0.50378
#
# Static dielectric constant tensor:
#      x y z
#    x 1.738160 -0.013610 -0.005760 
#    y -0.013610 1.807890 0.022320 
#    z -0.005760 0.022320 1.739850 
# 
# From -- ./inp_files/580668.got.cif
#   From: 2010.05.17/outbox.cif.g08.bks.cpg/sg2_291_cif.got.tgz:580668.got - 2010.06.03 11:33:40.
