data_PCOD9008085
_publ_section_title
;
Structure prediction by ZEFSAII (Michael W. Deem and Ramdas Pophale) SiO2 
 PCOD9008085
Probable space group: P -1
;
_chemical_formula_sum "Si O2"
_cell_formula_units_Z 16
_cell_length_a 7.510430
_cell_length_b 10.940616
_cell_length_c 9.632807
_cell_angle_alpha 77.213063
_cell_angle_beta 91.086958
_cell_angle_gamma 113.192169
_cell_volume 707.453062
_symmetry_space_group_name_H-M "P -1"
_symmetry_group_IT_number 2
_symmetry_cell_setting 'triclinic'
loop_
_space_group_symop_operation_xyz
x,y,z
-x,-y,-z
loop_
_atom_site_type_symbol
_atom_site_label
_atom_site_fract_x
_atom_site_fract_y
_atom_site_fract_z
Si Si1 0.773756 0.924717 0.906011
Si Si2 0.927541 0.295564 0.172007
Si Si3 0.324727 0.195662 0.796766
Si Si4 0.080680 0.978072 0.653052
Si Si5 0.053695 0.527848 0.330075
Si Si6 0.255639 0.791644 0.110912
Si Si7 0.619093 0.638591 0.882486
Si Si8 0.469583 0.509949 0.337413
O O1 0.606917 0.776704 0.899962
O O2 0.913724 0.954601 0.770147
O O3 0.730487 0.055767 0.905353
O O4 0.829999 0.880223 0.066696
O O5 0.872552 0.156144 0.295777
O O6 0.921718 0.414341 0.244722
O O7 0.153784 0.338260 0.118931
O O8 0.809180 0.261376 0.034145
O O9 0.531474 0.196927 0.844996
O O10 0.359698 0.352006 0.746323
O O11 0.257905 0.113220 0.674440
O O12 0.000000 0.000000 0.500000
O O13 0.098610 0.680716 0.238459
O O14 0.263110 0.520276 0.317936
O O15 0.000000 0.500000 0.500000
O O16 0.546012 0.613148 0.729862
O O17 0.500000 0.500000 0.000000
O O18 0.500000 0.500000 0.500000
#
# Coordination Sequence:
#
# PCOD9008085 Si02
#       8
#     2   2   2   2   2   2   2   2
#     4  11  23  41  68  97 127 171 220 266 330 388
#     4  10  23  42  67  94 130 171 222 266 326 388
#     4  11  23  43  67  94 133 170 218 274 324 389
#     4  11  26  42  67  98 133 170 217 274 327 388
#     4  10  24  44  62  93 132 173 216 264 329 392
#     4  11  24  44  66  97 132 172 220 271 328 394
#     4  10  21  39  63  97 128 163 220 271 315 384
#     4  10  23  41  63  92 129 170 212 265 324 378
#
# _framework density 22.616340999999998
#
# number of rings (size 3 to 8) (size 9 to 14) (size 15 to 20)
#    0.000    1.500    2.500    1.125    8.750    1.000 
#    2.250    0.625    0.000    0.000    0.000    0.000 
#    0.000    0.000    0.000    0.000    0.000    0.000 
#
# Total GULP energy -89356.847192 kJ/mol
# GULP energy per Si atom -5584.802950 kJ/mol
# Density = 2.256486 g / cm^3
# Si number density = 22.616341 Si / 1000 Ang^3
#
#
#
# Elastic Constant Matrix: (Units=GPa)
#
#
# Indices 1 2 3 4 5 6 
#
# 1 61.3667 22.4488 22.9946 11.1781 3.4917 22.6531
# 2 22.4488 180.1446 78.4219 29.7351 8.5815 4.5143
# 3 22.9946 78.4219 172.5633 19.6618 15.6642 11.0480
# 4 11.1781 29.7351 19.6618 39.6150 6.7873 3.2062
# 5 3.4917 8.5815 15.6642 6.7873 34.8740 7.1284
# 6 22.6531 4.5143 11.0480 3.2062 7.1284 23.3963
#
#
#
# Elastic Compliance Matrix: (Units=1/GPa)
#
#
# Indices 1 2 3 4 5 6 
#
# 1 0.027841 -0.001792 -0.001064 -0.004583 0.004512 -0.026855
# 2 -0.001792 0.007646 -0.002920 -0.003950 -0.000072 0.002202
# 3 -0.001064 -0.002920 0.007635 -0.000822 -0.002193 -0.001231
# 4 -0.004583 -0.003950 -0.000822 0.030486 -0.004715 0.002846
# 5 0.004512 -0.000072 -0.002193 -0.004715 0.032728 -0.012645
# 6 -0.026855 0.002202 -0.001231 0.002846 -0.012645 0.072363
#
#
# Mechanical properties :
#
#
# Convention : Reuss Voigt Hill
#
# Bulk Modulus (GPa) = 31.67525 73.53393 52.60459
# Shear Modulus (GPa) = 24.90349 38.92435 31.91392
#
# Velocity S-wave (km/s) = 3.32193 4.15308 3.76054
# Velocity P-wave (km/s) = 5.36185 7.45531 6.49350
#
# Compressibility (1/GPa) = 0.03157039
#
# Stress axis : x y z
#
# Youngs Moduli (GPa) = 35.91832 130.78865 130.96849
#
# Poissons Ratio (x) = 0.23437 0.13931
# Poissons Ratio (y) = 0.06436 0.38247
# Poissons Ratio (z) = 0.03820 0.38195
#
# Static dielectric constant tensor:
#      x y z
#    x 1.957430 0.032540 -0.012120 
#    y 0.032540 1.761910 0.007660 
#    z -0.012120 0.007660 1.846760 
# 
# From -- ./inp_files/177858.got.cif
#   From: 2010.05.17/outbox.cif.g08.bks.cpg/sg2_89_cif.got.tgz:177858.got - 2010.06.03 11:33:40.
