data_PCOD9008731
_publ_section_title
;
Structure prediction by ZEFSAII (Michael W. Deem and Ramdas Pophale) SiO2 
 PCOD9008731
Probable space group: P -1
;
_chemical_formula_sum "Si O2"
_cell_formula_units_Z 14
_cell_length_a 5.167144
_cell_length_b 10.083662
_cell_length_c 21.595746
_cell_angle_alpha 41.006881
_cell_angle_beta 52.006369
_cell_angle_gamma 68.952909
_cell_volume 569.634202
_symmetry_space_group_name_H-M "P -1"
_symmetry_group_IT_number 2
_symmetry_cell_setting 'triclinic'
loop_
_space_group_symop_operation_xyz
x,y,z
-x,-y,-z
loop_
_atom_site_type_symbol
_atom_site_label
_atom_site_fract_x
_atom_site_fract_y
_atom_site_fract_z
Si Si1 0.703704 0.184874 0.684560
Si Si2 0.158701 0.171726 0.965064
Si Si3 0.736255 0.030839 0.869299
Si Si4 0.664892 0.430013 0.938720
Si Si5 0.486605 0.999995 0.427411
Si Si6 0.244179 0.160896 0.284854
Si Si7 0.567439 0.574890 0.533494
O O1 0.808943 0.125989 0.757861
O O2 0.490384 0.364718 0.658074
O O3 0.045653 0.306502 0.557982
O O4 0.567095 0.994720 0.725875
O O5 0.547500 0.176390 0.888313
O O6 0.040652 0.387106 0.904500
O O7 0.015146 0.047246 0.092338
O O8 0.000000 0.000000 0.000000
O O9 0.521479 0.800496 0.968826
O O10 0.632375 0.600073 0.832845
O O11 0.500000 0.500000 0.000000
O O12 0.276810 0.110033 0.370771
O O13 0.880307 0.105598 0.323399
O O14 0.500000 0.000000 0.500000
O O15 0.380229 0.757758 0.511500
O O16 0.500000 0.500000 0.500000
#
# Coordination Sequence:
#
# PCOD9008731 Si02
#       7
#     2   2   2   2   2   2   2
#     4  10  21  39  65  96 121 175 225 284 340 405
#     4   9  22  41  58  88 134 172 222 276 324 413
#     4  10  21  42  65  90 133 175 225 276 340 407
#     4  11  23  39  66  99 135 176 221 275 349 415
#     4  11  25  46  68  98 137 180 226 288 353 412
#     4  11  24  43  69 100 138 173 228 287 342 417
#     4  10  21  40  65  90 130 166 231 286 338 407
#
# _framework density 24.577175
#
# number of rings (size 3 to 8) (size 9 to 14) (size 15 to 20)
#    0.000    1.714    2.857    0.429    2.000    6.286 
#    5.143    0.000    0.000    0.000    0.000    0.000 
#    0.000    0.000    0.000    0.000    0.000    0.000 
#
# Total GULP energy -77998.696944 kJ/mol
# GULP energy per Si atom -5571.335496 kJ/mol
# Density = 2.452124 g / cm^3
# Si number density = 24.577175 Si / 1000 Ang^3
#
#
#
# Elastic Constant Matrix: (Units=GPa)
#
#
# Indices 1 2 3 4 5 6 
#
# 1 87.0888 31.6525 27.1761 -9.3044 33.5351 12.7509
# 2 31.6525 145.9640 52.7962 -12.7252 26.7540 0.8299
# 3 27.1761 52.7962 131.6144 -23.2173 57.2437 -5.4423
# 4 -9.3044 -12.7252 -23.2173 40.6985 -1.2186 10.9218
# 5 33.5351 26.7540 57.2437 -1.2186 53.4708 2.1860
# 6 12.7509 0.8299 -5.4423 10.9218 2.1860 33.2068
#
#
#
# Elastic Compliance Matrix: (Units=1/GPa)
#
#
# Indices 1 2 3 4 5 6 
#
# 1 0.018650 -0.002235 0.004666 0.007909 -0.015068 -0.007950
# 2 -0.002235 0.008382 -0.003034 0.000395 0.000465 -0.000009
# 3 0.004666 -0.003034 0.019043 0.010507 -0.021529 -0.000633
# 4 0.007909 0.000395 0.010507 0.035243 -0.015116 -0.011921
# 5 -0.015068 0.000465 -0.021529 -0.015116 0.050464 0.003895
# 6 -0.007950 -0.000009 -0.000633 -0.011921 0.003895 0.036728
#
#
# Mechanical properties :
#
#
# Convention : Reuss Voigt Hill
#
# Bulk Modulus (GPa) = 22.28741 65.32405 43.80573
# Shear Modulus (GPa) = 27.07480 42.34470 34.70975
#
# Velocity S-wave (km/s) = 3.32267 4.15532 3.76210
# Velocity P-wave (km/s) = 4.87937 7.04692 6.06083
#
# Compressibility (1/GPa) = 0.04486838
#
# Stress axis : x y z
#
# Youngs Moduli (GPa) = 53.61846 119.29748 52.51374
#
# Poissons Ratio (x) = 0.26668 -0.24502
# Poissons Ratio (y) = 0.11986 0.15932
# Poissons Ratio (z) = -0.25018 0.36194
#
# Static dielectric constant tensor:
#      x y z
#    x 3.434320 -0.078110 -0.130620 
#    y -0.078110 2.079660 0.035490 
#    z -0.130620 0.035490 2.011510 
# 
# From -- ./inp_files/48236.got.cif
#   From: 2010.05.17/outbox.cif.g08.bks.cpg/sg2_25_cif.got.tgz:48236.got - 2010.06.03 11:33:40.
