data_PCOD9008877
_publ_section_title
;
Structure prediction by ZEFSAII (Michael W. Deem and Ramdas Pophale) SiO2 
 PCOD9008877
Probable space group: P -1
;
_chemical_formula_sum "Si O2"
_cell_formula_units_Z 16
_cell_length_a 12.710281
_cell_length_b 12.281024
_cell_length_c 8.976820
_cell_angle_alpha 115.729918
_cell_angle_beta 47.084196
_cell_angle_gamma 132.319042
_cell_volume 758.018420
_symmetry_space_group_name_H-M "P -1"
_symmetry_group_IT_number 2
_symmetry_cell_setting 'triclinic'
loop_
_space_group_symop_operation_xyz
x,y,z
-x,-y,-z
loop_
_atom_site_type_symbol
_atom_site_label
_atom_site_fract_x
_atom_site_fract_y
_atom_site_fract_z
Si Si1 0.130999 0.329266 0.087647
Si Si2 0.333047 0.888663 0.995521
Si Si3 0.469236 0.364935 0.852238
Si Si4 0.227036 0.922964 0.611594
Si Si5 0.885597 0.440880 0.927709
Si Si6 0.521213 0.889862 0.271953
Si Si7 0.842971 0.573293 0.542752
Si Si8 0.950249 0.104771 0.546236
O O1 0.159583 0.445579 0.007894
O O2 0.135931 0.402602 0.285378
O O3 0.940651 0.176411 0.180407
O O4 0.283347 0.303017 0.919977
O O5 0.278192 0.724158 0.976113
O O6 0.171653 0.887361 0.212699
O O7 0.500000 0.000000 0.000000
O O8 0.380201 0.961145 0.830949
O O9 0.463202 0.238712 0.878162
O O10 0.643523 0.436753 0.626076
O O11 0.500000 0.500000 0.000000
O O12 0.320907 0.838786 0.439577
O O13 0.155467 0.944277 0.538930
O O14 0.380893 0.065816 0.636541
O O15 0.009859 0.440127 0.680735
O O16 0.000000 0.500000 0.000000
O O17 0.882531 0.728001 0.539695
O O18 0.000000 0.000000 0.500000
#
# Coordination Sequence:
#
# PCOD9008877 Si02
#       8
#     2   2   2   2   2   2   2   2
#     4  10  21  39  66  90 122 160 216 253 310 374
#     4  11  24  38  63  94 123 170 210 258 317 373
#     4  10  23  38  64  93 121 164 212 261 306 368
#     4  10  22  42  64  95 120 170 211 261 319 366
#     4  11  23  41  62  91 128 165 209 263 317 380
#     4  11  23  41  64  91 131 161 217 260 310 386
#     4   9  21  40  62  89 116 167 209 247 309 374
#     4  10  22  40  63  89 125 161 201 256 318 382
#
# _framework density 21.107666999999999
#
# number of rings (size 3 to 8) (size 9 to 14) (size 15 to 20)
#    0.000    1.750    1.250    1.875    8.750    1.500 
#    4.500    0.625    0.000    0.000    0.000    0.000 
#    0.000    0.000    0.000    0.000    0.000    0.000 
#
# Total GULP energy -89319.101399 kJ/mol
# GULP energy per Si atom -5582.443837 kJ/mol
# Density = 2.105963 g / cm^3
# Si number density = 21.107667 Si / 1000 Ang^3
#
#
#
# Elastic Constant Matrix: (Units=GPa)
#
#
# Indices 1 2 3 4 5 6 
#
# 1 110.2872 43.4437 15.3869 -12.8903 -16.3564 -16.0706
# 2 43.4437 64.8318 13.8089 -23.8574 -10.2445 -11.9494
# 3 15.3869 13.8089 37.5473 -20.3262 -4.6848 -3.5362
# 4 -12.8903 -23.8574 -20.3262 36.1451 5.1766 -4.1237
# 5 -16.3564 -10.2445 -4.6848 5.1766 27.7522 2.0821
# 6 -16.0706 -11.9494 -3.5362 -4.1237 2.0821 43.1273
#
#
#
# Elastic Compliance Matrix: (Units=1/GPa)
#
#
# Indices 1 2 3 4 5 6 
#
# 1 0.013424 -0.008301 -0.003309 -0.003008 0.004706 0.001916
# 2 -0.008301 0.028612 0.003842 0.018525 0.002352 0.006807
# 3 -0.003309 0.003842 0.040574 0.024605 0.001319 0.005447
# 4 -0.003008 0.018525 0.024605 0.054196 -0.001737 0.011296
# 5 0.004706 0.002352 0.001319 -0.001737 0.040191 0.000407
# 6 0.001916 0.006807 0.005447 0.011296 0.000407 0.027294
#
#
# Mechanical properties :
#
#
# Convention : Reuss Voigt Hill
#
# Bulk Modulus (GPa) = 14.90865 39.77168 27.34016
# Shear Modulus (GPa) = 20.64541 30.74004 25.69273
#
# Velocity S-wave (km/s) = 3.13085 3.82035 3.49266
# Velocity P-wave (km/s) = 4.48867 6.19220 5.40793
#
# Compressibility (1/GPa) = 0.06707518
#
# Stress axis : x y z
#
# Youngs Moduli (GPa) = 74.49131 34.95043 24.64651
#
# Poissons Ratio (x) = 0.29011 0.08155
# Poissons Ratio (y) = 0.61833 -0.09470
# Poissons Ratio (z) = 0.24649 -0.13429
#
# Static dielectric constant tensor:
#      x y z
#    x 1.768180 0.030080 0.017310 
#    y 0.030080 1.921920 -0.046970 
#    z 0.017310 -0.046970 1.796960 
# 
# From -- ./inp_files/257449.got.cif
#   From: 2010.05.17/outbox.cif.g08.bks.cpg/sg2_129_cif.got.tgz:257449.got - 2010.06.03 11:33:40.
