data_PCOD9008001
_publ_section_title
;
Structure prediction by ZEFSAII (Michael W. Deem and Ramdas Pophale) SiO2 
 PCOD9008001
Probable space group: P -1
;
_chemical_formula_sum "Si O2"
_cell_formula_units_Z 14
_cell_length_a 31.283412
_cell_length_b 10.172803
_cell_length_c 12.917870
_cell_angle_alpha 145.342311
_cell_angle_beta 17.596913
_cell_angle_gamma 146.684097
_cell_volume 674.200425
_symmetry_space_group_name_H-M "P -1"
_symmetry_group_IT_number 2
_symmetry_cell_setting 'triclinic'
loop_
_space_group_symop_operation_xyz
x,y,z
-x,-y,-z
loop_
_atom_site_type_symbol
_atom_site_label
_atom_site_fract_x
_atom_site_fract_y
_atom_site_fract_z
Si Si1 0.330297 0.892904 0.365675
Si Si2 0.665652 0.624610 0.940093
Si Si3 0.677124 0.110070 0.151296
Si Si4 0.828402 0.478602 0.876115
Si Si5 0.666060 0.671341 0.211244
Si Si6 0.169749 0.084226 0.694796
Si Si7 0.389501 0.472232 0.333780
O O1 0.288724 0.620895 0.329672
O O2 0.313876 0.078215 0.612270
O O3 0.226395 0.898248 0.510729
O O4 0.500000 0.000000 0.000000
O O5 0.680528 0.699250 0.073674
O O6 0.497973 0.525380 0.218091
O O7 0.737111 0.880424 0.882820
O O8 0.702770 0.331767 0.318802
O O9 0.500000 0.000000 0.500000
O O10 0.732184 0.232955 0.994124
O O11 0.000000 0.500000 0.500000
O O12 0.773101 0.534509 0.928502
O O13 0.808402 0.690892 0.132408
O O14 0.500000 0.500000 0.500000
O O15 0.278193 0.203448 0.427463
O O16 0.000000 0.000000 0.000000
O O17 0.500000 0.500000 0.000000
#
# Coordination Sequence:
#
# PCOD9008001 Si02
#       7
#     2   2   2   2   2   2   2
#     4  11  21  38  61  96 128 162 220 261 317 383
#     4  11  22  38  62  94 125 166 210 266 324 364
#     4   9  20  39  61  92 128 159 216 260 313 383
#     4  10  23  42  65  92 126 172 215 256 322 391
#     4  11  21  37  66  93 126 165 217 272 309 377
#     4  10  22  38  62  95 127 162 217 265 308 385
#     4  10  21  39  63  93 129 169 213 263 319 389
#
# _framework density 20.765338
#
# number of rings (size 3 to 8) (size 9 to 14) (size 15 to 20)
#    0.000    1.714    2.857    2.571    4.000    2.286 
#    0.000    0.714    0.000    2.571    0.000    0.000 
#    0.000    0.000    0.000    0.000    0.000    0.000 
#
# Total GULP energy -78053.158399 kJ/mol
# GULP energy per Si atom -5575.225600 kJ/mol
# Density = 2.071808 g / cm^3
# Si number density = 20.765338 Si / 1000 Ang^3
#
#
#
# Elastic Constant Matrix: (Units=GPa)
#
#
# Indices 1 2 3 4 5 6 
#
# 1 114.5617 51.5394 41.8013 2.5130 -9.5316 -0.3318
# 2 51.5394 129.7732 31.9897 32.4109 -5.0730 -15.8154
# 3 41.8013 31.9897 76.5572 6.5839 -16.3195 -7.7908
# 4 2.5130 32.4109 6.5839 42.3979 4.0148 0.0869
# 5 -9.5316 -5.0730 -16.3195 4.0148 39.8663 7.5267
# 6 -0.3318 -15.8154 -7.7908 0.0869 7.5267 32.2952
#
#
#
# Elastic Compliance Matrix: (Units=1/GPa)
#
#
# Indices 1 2 3 4 5 6 
#
# 1 0.013094 -0.005313 -0.005577 0.004112 0.000501 -0.003941
# 2 -0.005313 0.013276 -0.001248 -0.009625 -0.000301 0.006242
# 3 -0.005577 -0.001248 0.018280 -0.002104 0.005748 0.002408
# 4 0.004112 -0.009625 -0.002104 0.031359 -0.003417 -0.004466
# 5 0.000501 -0.000301 0.005748 -0.003417 0.028897 -0.005481
# 6 -0.003941 0.006242 0.002408 -0.004466 -0.005481 0.035851
#
#
# Mechanical properties :
#
#
# Convention : Reuss Voigt Hill
#
# Bulk Modulus (GPa) = 49.08208 63.50587 56.29398
# Shear Modulus (GPa) = 29.09920 35.94932 32.52426
#
# Velocity S-wave (km/s) = 3.74750 4.16530 3.96191
# Velocity P-wave (km/s) = 6.51252 7.33362 6.93523
#
# Compressibility (1/GPa) = 0.02037403
#
# Stress axis : x y z
#
# Youngs Moduli (GPa) = 76.36812 75.32305 54.70465
#
# Poissons Ratio (x) = 0.40022 0.30511
# Poissons Ratio (y) = 0.40577 0.06825
# Poissons Ratio (z) = 0.42593 0.09397
#
# Static dielectric constant tensor:
#      x y z
#    x 1.815850 -0.037960 0.003470 
#    y -0.037960 1.833730 0.058140 
#    z 0.003470 0.058140 1.787470 
# 
# From -- ./inp_files/389875.got.cif
#   From: 2010.05.17/outbox.cif.g08.bks.cpg/sg2_195_cif.got.tgz:389875.got - 2010.06.03 11:33:40.
