data_PCOD9008344
_publ_section_title
;
Structure prediction by ZEFSAII (Michael W. Deem and Ramdas Pophale) SiO2 
 PCOD9008344
Probable space group: P -1
;
_chemical_formula_sum "Si O2"
_cell_formula_units_Z 14
_cell_length_a 8.346973
_cell_length_b 9.944820
_cell_length_c 13.872020
_cell_angle_alpha 30.566605
_cell_angle_beta 69.762549
_cell_angle_gamma 61.498339
_cell_volume 509.148788
_symmetry_space_group_name_H-M "P -1"
_symmetry_group_IT_number 2
_symmetry_cell_setting 'triclinic'
loop_
_space_group_symop_operation_xyz
x,y,z
-x,-y,-z
loop_
_atom_site_type_symbol
_atom_site_label
_atom_site_fract_x
_atom_site_fract_y
_atom_site_fract_z
Si Si1 0.351270 0.025501 0.388310
Si Si2 0.195961 0.672428 0.785688
Si Si3 0.262808 0.448340 0.406387
Si Si4 0.104604 0.300262 0.786763
Si Si5 0.090745 0.610782 0.047157
Si Si6 0.449854 0.827136 0.030049
Si Si7 0.288039 0.665926 0.468129
O O1 0.255572 0.891112 0.573132
O O2 0.574022 0.866936 0.437245
O O3 0.284841 0.947269 0.346705
O O4 0.275518 0.366059 0.201477
O O5 0.372893 0.376069 0.937070
O O6 0.035217 0.570500 0.843605
O O7 0.131910 0.767507 0.850045
O O8 0.371541 0.621380 0.226958
O O9 0.204103 0.604205 0.425545
O O10 0.074973 0.517026 0.346895
O O11 0.204993 0.518387 0.656148
O O12 0.028186 0.194220 0.962378
O O13 0.281281 0.040302 0.870454
O O14 0.500000 0.000000 0.000000
O O15 0.500000 0.500000 0.500000
#
# Coordination Sequence:
#
# PCOD9008344 Si02
#       7
#     2   2   2   2   2   2   2
#     4  10  21  42  64  94 127 167 225 262 320 386
#     4  10  22  39  62  99 121 165 225 271 314 378
#     4  10  24  39  64  95 129 169 210 269 331 382
#     4  12  23  41  61  98 134 162 214 265 332 389
#     4  11  23  38  67  94 130 169 210 276 321 384
#     4  11  21  41  65  91 125 169 220 271 311 379
#     4  10  21  39  64  94 121 166 217 268 311 380
#
# _framework density 27.496870999999999
#
# number of rings (size 3 to 8) (size 9 to 14) (size 15 to 20)
#    0.000    1.429    2.857    3.000    6.000    0.571 
#    0.000    2.857    0.000    0.000    0.000    0.000 
#    0.000    0.000    0.000    0.000    0.000    0.000 
#
# Total GULP energy -78320.102796 kJ/mol
# GULP energy per Si atom -5594.293057 kJ/mol
# Density = 2.743429 g / cm^3
# Si number density = 27.496871 Si / 1000 Ang^3
#
#
#
# Elastic Constant Matrix: (Units=GPa)
#
#
# Indices 1 2 3 4 5 6 
#
# 1 94.4783 38.4161 12.4030 -1.6389 8.7522 -32.8680
# 2 38.4161 156.4709 36.8594 10.1160 19.8835 -26.5929
# 3 12.4030 36.8594 80.4951 15.6031 5.2447 -21.1566
# 4 -1.6389 10.1160 15.6031 60.2399 -16.4485 8.7041
# 5 8.7522 19.8835 5.2447 -16.4485 37.8535 -6.2862
# 6 -32.8680 -26.5929 -21.1566 8.7041 -6.2862 40.1681
#
#
#
# Elastic Compliance Matrix: (Units=1/GPa)
#
#
# Indices 1 2 3 4 5 6 
#
# 1 0.015704 -0.001814 0.002428 -0.002295 -0.001830 0.013139
# 2 -0.001814 0.008555 -0.002072 -0.002583 -0.004419 0.002957
# 3 0.002428 -0.002072 0.017203 -0.006354 -0.002856 0.010606
# 4 -0.002295 -0.002583 -0.006354 0.023129 0.011123 -0.010206
# 5 -0.001830 -0.004419 -0.002856 0.011123 0.033887 -0.003034
# 6 0.013139 0.002957 0.010606 -0.010206 -0.003034 0.044927
#
#
# Mechanical properties :
#
#
# Convention : Reuss Voigt Hill
#
# Bulk Modulus (GPa) = 25.94237 56.31126 41.12682
# Shear Modulus (GPa) = 31.41293 43.90336 37.65815
#
# Velocity S-wave (km/s) = 3.38363 4.00017 3.70475
# Velocity P-wave (km/s) = 4.97197 6.46983 5.76971
#
# Compressibility (1/GPa) = 0.03854698
#
# Stress axis : x y z
#
# Youngs Moduli (GPa) = 63.67915 116.88452 58.12860
#
# Poissons Ratio (x) = 0.21197 -0.14115
# Poissons Ratio (y) = 0.11548 0.12047
# Poissons Ratio (z) = -0.15463 0.24224
#
# Static dielectric constant tensor:
#      x y z
#    x 2.161410 0.092560 0.085010 
#    y 0.092560 2.293800 0.052840 
#    z 0.085010 0.052840 2.211100 
# 
# From -- ./inp_files/153718.got.cif
#   From: 2010.05.17/outbox.cif.g08.bks.cpg/sg2_77_cif.got.tgz:153718.got - 2010.06.03 11:33:40.
