data_PCOD9008767
_publ_section_title
;
Structure prediction by ZEFSAII (Michael W. Deem and Ramdas Pophale) SiO2 
 PCOD9008767
Probable space group: P -1
;
_chemical_formula_sum "Si O2"
_cell_formula_units_Z 13
_cell_length_a 14.196787
_cell_length_b 13.194514
_cell_length_c 8.520168
_cell_angle_alpha 103.406889
_cell_angle_beta 115.867971
_cell_angle_gamma 23.022863
_cell_volume 492.046464
_symmetry_space_group_name_H-M "P -1"
_symmetry_group_IT_number 2
_symmetry_cell_setting 'triclinic'
loop_
_space_group_symop_operation_xyz
x,y,z
-x,-y,-z
loop_
_atom_site_type_symbol
_atom_site_label
_atom_site_fract_x
_atom_site_fract_y
_atom_site_fract_z
Si Si1 0.762031 0.924526 0.505567
Si Si2 0.397092 0.875762 0.874673
Si Si3 0.957920 0.056134 0.676779
Si Si4 0.500000 0.000000 0.500000
Si Si5 0.688438 0.449185 0.142549
Si Si6 0.946074 0.665304 0.954997
Si Si7 0.603757 0.557315 0.487628
O O1 0.457484 0.264092 0.465975
O O2 0.683994 0.875710 0.433164
O O3 0.797286 0.931801 0.354785
O O4 0.035014 0.725757 0.720896
O O5 0.467588 0.697065 0.938060
O O6 0.725895 0.604273 0.957163
O O7 0.239151 0.093711 0.968633
O O8 0.858392 0.269274 0.679646
O O9 0.675221 0.247603 0.580252
O O10 0.000000 0.000000 0.500000
O O11 0.190231 0.781904 0.862545
O O12 0.725672 0.858770 0.717624
O O13 0.593922 0.547410 0.290815
O O14 0.000000 0.500000 0.000000
#
# Coordination Sequence:
#
# PCOD9008767 Si02
#       7
#     2   2   2   1   2   2   2
#     4  11  24  40  64  96 132 180 222 278 327 396
#     4  12  27  44  67  97 138 173 224 277 335 392
#     4   8  16  34  65  95 127 167 218 272 328 393
#     4  12  24  44  70  92 134 176 232 268 336 388
#     4  10  21  39  65  97 130 177 220 274 333 396
#     4  12  27  47  66  96 131 179 226 280 329 392
#     4   9  18  37  63  95 129 172 221 269 332 395
#
# _framework density 26.420272000000001
#
# number of rings (size 3 to 8) (size 9 to 14) (size 15 to 20)
#    0.000    1.538    3.077    1.385    4.308    1.846 
#    0.000    0.769    0.000   31.385    0.000    0.000 
#    0.000    0.000    0.000    0.000    0.000    0.000 
#
# Total GULP energy -72410.289186 kJ/mol
# GULP energy per Si atom -5570.022245 kJ/mol
# Density = 2.636014 g / cm^3
# Si number density = 26.420272 Si / 1000 Ang^3
#
#
#
# Elastic Constant Matrix: (Units=GPa)
#
#
# Indices 1 2 3 4 5 6 
#
# 1 141.0106 11.1897 -22.0723 -6.6089 -20.9054 -32.0167
# 2 11.1897 94.3133 4.2453 -5.8088 -4.0465 -0.7264
# 3 -22.0723 4.2453 96.6055 -11.4506 -12.6013 7.1059
# 4 -6.6089 -5.8088 -11.4506 38.9034 10.5693 -1.7587
# 5 -20.9054 -4.0465 -12.6013 10.5693 41.7999 -4.4229
# 6 -32.0167 -0.7264 7.1059 -1.7587 -4.4229 34.6211
#
#
#
# Elastic Compliance Matrix: (Units=1/GPa)
#
#
# Indices 1 2 3 4 5 6 
#
# 1 0.011172 -0.000994 0.002883 0.001123 0.007208 0.010697
# 2 -0.000994 0.010819 -0.000512 0.001267 0.000020 -0.000521
# 3 0.002883 -0.000512 0.011862 0.002760 0.004368 0.000919
# 4 0.001123 0.001267 0.002760 0.028460 -0.005549 0.001236
# 5 0.007208 0.000020 0.004368 -0.005549 0.031253 0.009480
# 6 0.010697 -0.000521 0.000919 0.001236 0.009480 0.039851
#
#
# Mechanical properties :
#
#
# Convention : Reuss Voigt Hill
#
# Bulk Modulus (GPa) = 27.31796 35.40610 31.36203
# Shear Modulus (GPa) = 34.99808 45.63599 40.31704
#
# Velocity S-wave (km/s) = 3.64355 4.16060 3.91063
# Velocity P-wave (km/s) = 5.29743 6.04243 5.68216
#
# Compressibility (1/GPa) = 0.03660595
#
# Stress axis : x y z
#
# Youngs Moduli (GPa) = 89.51152 92.43125 84.30471
#
# Poissons Ratio (x) = 0.09191 -0.24303
# Poissons Ratio (y) = 0.08901 0.04312
# Poissons Ratio (z) = -0.25804 0.04728
#
# Static dielectric constant tensor:
#      x y z
#    x 2.124650 0.020550 -0.011000 
#    y 0.020550 2.218670 -0.206200 
#    z -0.011000 -0.206200 2.112710 
# 
# From -- ./inp_files/32370.got.cif
#   From: 2010.05.17/outbox.cif.g08.bks.cpg/sg2_17_cif.got.tgz:32370.got - 2010.06.03 11:33:40.
