data_PCOD9008585
_publ_section_title
;
Structure prediction by ZEFSAII (Michael W. Deem and Ramdas Pophale) SiO2 
 PCOD9008585
Probable space group: P -1
;
_chemical_formula_sum "Si O2"
_cell_formula_units_Z 16
_cell_length_a 12.705500
_cell_length_b 9.244508
_cell_length_c 13.657360
_cell_angle_alpha 56.269000
_cell_angle_beta 148.535156
_cell_angle_gamma 113.121526
_cell_volume 684.143507
_symmetry_space_group_name_H-M "P -1"
_symmetry_group_IT_number 2
_symmetry_cell_setting 'triclinic'
loop_
_space_group_symop_operation_xyz
x,y,z
-x,-y,-z
loop_
_atom_site_type_symbol
_atom_site_label
_atom_site_fract_x
_atom_site_fract_y
_atom_site_fract_z
Si Si1 0.862744 0.916899 0.184025
Si Si2 0.879435 0.169692 0.398242
Si Si3 0.009982 0.869384 0.966226
Si Si4 0.420010 0.537416 0.033368
Si Si5 0.483747 0.765467 0.382414
Si Si6 0.528727 0.843376 0.805413
Si Si7 0.784996 0.575887 0.852059
Si Si8 0.561857 0.271037 0.855230
O O1 0.003472 0.019481 0.187936
O O2 0.696714 0.075504 0.041176
O O3 0.989308 0.805097 0.411054
O O4 0.735020 0.821362 0.042900
O O5 0.806266 0.343325 0.208926
O O6 0.666290 0.129246 0.287182
O O7 0.000000 0.000000 0.500000
O O8 0.242716 0.757158 0.192974
O O9 0.843156 0.745662 0.888678
O O10 0.000000 0.000000 0.000000
O O11 0.500000 0.500000 0.000000
O O12 0.460457 0.335611 0.179566
O O13 0.540565 0.659458 0.149860
O O14 0.613711 0.643717 0.609689
O O15 0.557673 0.726041 0.343232
O O16 0.487772 0.970314 0.331759
O O17 0.709747 0.416397 0.907845
O O18 0.000000 0.500000 0.000000
#
# Coordination Sequence:
#
# PCOD9008585 Si02
#       8
#     2   2   2   2   2   2   2   2
#     4  10  21  41  62  92 124 164 215 251 307 392
#     4  11  21  39  68  89 122 163 210 260 318 368
#     4  10  23  41  61  93 133 165 208 258 311 386
#     4  10  22  42  62  92 125 162 212 270 312 364
#     4  10  23  42  63  94 127 170 212 254 319 391
#     4   9  22  40  64  86 128 160 208 258 319 364
#     4  12  22  39  67  93 130 163 212 262 316 379
#     4  10  21  39  65  91 127 163 214 261 305 381
#
# _framework density 23.386907000000001
#
# number of rings (size 3 to 8) (size 9 to 14) (size 15 to 20)
#    0.000    2.000    3.750    1.125    3.500    1.500 
#    6.750    0.000    0.000    0.000    0.000    0.000 
#    0.000    0.000    0.000    0.000    0.000    0.000 
#
# Total GULP energy -89331.782274 kJ/mol
# GULP energy per Si atom -5583.236392 kJ/mol
# Density = 2.333368 g / cm^3
# Si number density = 23.386907 Si / 1000 Ang^3
#
#
#
# Elastic Constant Matrix: (Units=GPa)
#
#
# Indices 1 2 3 4 5 6 
#
# 1 43.9384 2.0289 12.2127 -7.3889 3.4377 -10.5489
# 2 2.0289 102.0170 5.8796 -12.5067 2.2863 -23.9013
# 3 12.2127 5.8796 124.5697 -7.7617 -25.5542 1.2742
# 4 -7.3889 -12.5067 -7.7617 32.9852 -0.2158 2.0829
# 5 3.4377 2.2863 -25.5542 -0.2158 28.5599 4.4393
# 6 -10.5489 -23.9013 1.2742 2.0829 4.4393 47.5148
#
#
#
# Elastic Compliance Matrix: (Units=1/GPa)
#
#
# Indices 1 2 3 4 5 6 
#
# 1 0.027335 0.002431 -0.004281 0.005479 -0.008511 0.007961
# 2 0.002431 0.012022 -0.001311 0.004345 -0.003445 0.006753
# 3 -0.004281 -0.001311 0.010837 0.001352 0.010788 -0.002967
# 4 0.005479 0.004345 0.001352 0.033392 0.000161 0.001887
# 5 -0.008511 -0.003445 0.010788 0.000161 0.047264 -0.008335
# 6 0.007961 0.006753 -0.002967 0.001887 -0.008335 0.026986
#
#
# Mechanical properties :
#
#
# Convention : Reuss Voigt Hill
#
# Bulk Modulus (GPa) = 22.79321 34.52969 28.66145
# Shear Modulus (GPa) = 27.96719 38.50556 33.23637
#
# Velocity S-wave (km/s) = 3.46186 4.06206 3.77391
# Velocity P-wave (km/s) = 5.07411 6.06605 5.59212
#
# Compressibility (1/GPa) = 0.04387272
#
# Stress axis : x y z
#
# Youngs Moduli (GPa) = 36.58257 83.18347 92.27806
#
# Poissons Ratio (x) = -0.20220 0.39501
# Poissons Ratio (y) = -0.08892 0.12095
# Poissons Ratio (z) = 0.15660 0.10903
#
# Static dielectric constant tensor:
#      x y z
#    x 2.102710 -0.027840 -0.056700 
#    y -0.027840 1.944270 0.005270 
#    z -0.056700 0.005270 1.852010 
# 
# From -- ./inp_files/528344.got.cif
#   From: 2010.05.17/outbox.cif.g08.bks.cpg/sg2_265_cif.got.tgz:528344.got - 2010.06.03 11:33:40.
