data_PCOD9008590
_publ_section_title
;
Structure prediction by ZEFSAII (Michael W. Deem and Ramdas Pophale) SiO2 
 PCOD9008590
Probable space group: P -1
;
_chemical_formula_sum "Si O2"
_cell_formula_units_Z 16
_cell_length_a 8.616193
_cell_length_b 9.727796
_cell_length_c 16.159909
_cell_angle_alpha 61.129512
_cell_angle_beta 89.037121
_cell_angle_gamma 45.137297
_cell_volume 717.273479
_symmetry_space_group_name_H-M "P -1"
_symmetry_group_IT_number 2
_symmetry_cell_setting 'triclinic'
loop_
_space_group_symop_operation_xyz
x,y,z
-x,-y,-z
loop_
_atom_site_type_symbol
_atom_site_label
_atom_site_fract_x
_atom_site_fract_y
_atom_site_fract_z
Si Si1 0.471166 0.052785 0.252094
Si Si2 0.875946 0.233756 0.374098
Si Si3 0.034142 0.290934 0.079994
Si Si4 0.571111 0.469100 0.603923
Si Si5 0.596090 0.046607 0.550045
Si Si6 0.150927 0.639688 0.109947
Si Si7 0.338732 0.618220 0.846825
Si Si8 0.894302 0.912897 0.207082
O O1 0.300397 0.078188 0.188040
O O2 0.306266 0.345535 0.192210
O O3 0.517614 0.914995 0.373180
O O4 0.731852 0.902795 0.251613
O O5 0.614376 0.485840 0.350430
O O6 0.801694 0.235580 0.282601
O O7 0.000000 0.000000 0.500000
O O8 0.095432 0.187815 0.377583
O O9 0.801493 0.419404 0.102788
O O10 0.000000 0.500000 0.000000
O O11 0.017995 0.218966 0.012835
O O12 0.500000 0.500000 0.500000
O O13 0.502922 0.705705 0.550452
O O14 0.862976 0.224490 0.700810
O O15 0.500000 0.000000 0.500000
O O16 0.363128 0.606330 0.112122
O O17 0.992057 0.788558 0.151908
O O18 0.293363 0.787587 0.868019
#
# Coordination Sequence:
#
# PCOD9008590 Si02
#       8
#     2   2   2   2   2   2   2   2
#     4  10  23  41  62  91 130 166 205 264 322 380
#     4  10  21  39  65  91 128 172 208 255 314 381
#     4  10  22  43  66  91 125 165 211 264 323 378
#     4  11  24  41  61  96 132 169 218 263 309 388
#     4  11  23  39  64  91 129 174 212 256 325 379
#     4  10  22  42  65  92 122 162 216 264 316 375
#     4  11  21  42  68  92 125 168 211 258 319 376
#     4  11  23  39  64  93 127 164 210 263 313 382
#
# _framework density 22.306692999999999
#
# number of rings (size 3 to 8) (size 9 to 14) (size 15 to 20)
#    0.000    1.500    2.500    2.625    7.000    1.500 
#    2.250    2.500    0.000    0.000    0.000    0.000 
#    0.000    0.000    0.000    0.000    0.000    0.000 
#
# Total GULP energy -89390.537562 kJ/mol
# GULP energy per Si atom -5586.908598 kJ/mol
# Density = 2.225592 g / cm^3
# Si number density = 22.306693 Si / 1000 Ang^3
#
#
#
# Elastic Constant Matrix: (Units=GPa)
#
#
# Indices 1 2 3 4 5 6 
#
# 1 121.6436 46.8439 19.7276 22.7087 7.2902 -36.8158
# 2 46.8439 117.7720 29.3992 36.7098 3.9886 -28.3288
# 3 19.7276 29.3992 81.5130 36.6166 15.5924 -9.2979
# 4 22.7087 36.7098 36.6166 38.9160 3.5305 -8.8754
# 5 7.2902 3.9886 15.5924 3.5305 50.2434 8.1993
# 6 -36.8158 -28.3288 -9.2979 -8.8754 8.1993 46.8715
#
#
#
# Elastic Compliance Matrix: (Units=1/GPa)
#
#
# Indices 1 2 3 4 5 6 
#
# 1 0.012281 -0.001587 0.001242 -0.004591 -0.003124 0.008611
# 2 -0.001587 0.013948 0.001963 -0.012707 -0.001479 0.005426
# 3 0.001242 0.001963 0.023278 -0.023079 -0.006518 0.003550
# 4 -0.004591 -0.012707 -0.023079 0.060350 0.005477 -0.005395
# 5 -0.003124 -0.001479 -0.006518 0.005477 0.023367 -0.007691
# 6 0.008611 0.005426 0.003550 -0.005395 -0.007691 0.032406
#
#
# Mechanical properties :
#
#
# Convention : Reuss Voigt Hill
#
# Bulk Modulus (GPa) = 18.95923 56.98556 37.97239
# Shear Modulus (GPa) = 27.78194 42.20338 34.99266
#
# Velocity S-wave (km/s) = 3.53293 4.35439 3.96499
# Velocity P-wave (km/s) = 5.01596 7.13322 6.16614
#
# Compressibility (1/GPa) = 0.05274476
#
# Stress axis : x y z
#
# Youngs Moduli (GPa) = 81.42928 71.69473 42.95862
#
# Poissons Ratio (x) = 0.11376 -0.05337
# Poissons Ratio (y) = 0.12920 -0.08435
# Poissons Ratio (z) = -0.10116 -0.14077
#
# Static dielectric constant tensor:
#      x y z
#    x 1.830780 -0.007180 0.023480 
#    y -0.007180 1.908790 -0.101010 
#    z 0.023480 -0.101010 1.977190 
# 
# From -- ./inp_files/313909.got.cif
#   From: 2010.05.17/outbox.cif.g08.bks.cpg/sg2_157_cif.got.tgz:313909.got - 2010.06.03 11:33:40.
