data_PCOD9008019
_publ_section_title
;
Structure prediction by ZEFSAII (Michael W. Deem and Ramdas Pophale) SiO2 
 PCOD9008019
Probable space group: P -1
;
_chemical_formula_sum "Si O2"
_cell_formula_units_Z 16
_cell_length_a 13.478172
_cell_length_b 16.445685
_cell_length_c 25.177222
_cell_angle_alpha 158.634215
_cell_angle_beta 158.324387
_cell_angle_gamma 25.456177
_cell_volume 721.219609
_symmetry_space_group_name_H-M "P -1"
_symmetry_group_IT_number 2
_symmetry_cell_setting 'triclinic'
loop_
_space_group_symop_operation_xyz
x,y,z
-x,-y,-z
loop_
_atom_site_type_symbol
_atom_site_label
_atom_site_fract_x
_atom_site_fract_y
_atom_site_fract_z
Si Si1 0.637562 0.200311 0.706733
Si Si2 0.762034 0.918808 0.041577
Si Si3 0.112196 0.650633 0.437027
Si Si4 0.437223 0.833843 0.226435
Si Si5 0.992156 0.428344 0.140409
Si Si6 0.277208 0.580366 0.686001
Si Si7 0.060723 0.120271 0.657246
Si Si8 0.575438 0.648681 0.490617
O O1 0.595542 0.210377 0.754540
O O2 0.486907 0.428579 0.739598
O O3 0.500000 0.000000 0.500000
O O4 0.963871 0.148996 0.826287
O O5 0.778402 0.155039 0.165807
O O6 0.500000 0.000000 0.000000
O O7 0.816022 0.728974 0.905788
O O8 0.170582 0.506189 0.323061
O O9 0.254484 0.491611 0.460406
O O10 0.769103 0.732016 0.318106
O O11 0.193967 0.896090 0.623699
O O12 0.347890 0.108907 0.335703
O O13 0.215547 0.703002 0.015184
O O14 0.813140 0.670357 0.169971
O O15 0.379660 0.520496 0.640512
O O16 0.000000 0.500000 0.500000
O O17 0.756796 0.258409 0.611009
O O18 0.000000 0.000000 0.500000
#
# Coordination Sequence:
#
# PCOD9008019 Si02
#       8
#     2   2   2   2   2   2   2   2
#     4  11  21  41  67  94 124 171 217 263 313 377
#     4  11  25  42  63  98 133 167 208 269 328 374
#     4  10  22  39  66  91 120 168 209 254 320 370
#     4  10  21  39  63  94 124 156 210 265 318 365
#     4  10  21  43  61  90 132 162 205 262 316 383
#     4  12  22  39  66  93 127 168 218 262 312 383
#     4   9  21  41  61  84 120 164 209 250 307 368
#     4  11  22  38  62  95 121 157 216 257 300 384
#
# _framework density 22.184642
#
# number of rings (size 3 to 8) (size 9 to 14) (size 15 to 20)
#    0.000    1.500    2.500    2.625    0.000    3.000 
#    0.000   15.000    0.000    0.000    0.000    0.000 
#    0.000    0.000    0.000    0.000    0.000    0.000 
#
# Total GULP energy -89304.051391 kJ/mol
# GULP energy per Si atom -5581.503212 kJ/mol
# Density = 2.213415 g / cm^3
# Si number density = 22.184642 Si / 1000 Ang^3
#
#
#
# Elastic Constant Matrix: (Units=GPa)
#
#
# Indices 1 2 3 4 5 6 
#
# 1 82.0169 43.1411 15.4661 5.9775 -6.3534 3.7955
# 2 43.1411 159.1719 47.7796 16.0999 -3.9705 33.3983
# 3 15.4661 47.7796 68.2158 34.5013 6.1533 15.1014
# 4 5.9775 16.0999 34.5013 45.0427 -1.4708 6.6755
# 5 -6.3534 -3.9705 6.1533 -1.4708 37.5971 2.3974
# 6 3.7955 33.3983 15.1014 6.6755 2.3974 57.8857
#
#
#
# Elastic Compliance Matrix: (Units=1/GPa)
#
#
# Indices 1 2 3 4 5 6 
#
# 1 0.014532 -0.003842 -0.001257 0.000260 0.002172 0.001472
# 2 -0.003842 0.010002 -0.006824 0.002838 0.001899 -0.004145
# 3 -0.001257 -0.006824 0.031585 -0.021597 -0.006855 -0.001446
# 4 0.000260 0.002838 -0.021597 0.037964 0.005403 -0.000622
# 5 0.002172 0.001899 -0.006855 0.005403 0.028579 -0.001256
# 6 0.001472 -0.004145 -0.001446 -0.000622 -0.001256 0.020071
#
#
# Mechanical properties :
#
#
# Convention : Reuss Voigt Hill
#
# Bulk Modulus (GPa) = 30.98507 58.01978 44.50243
# Shear Modulus (GPa) = 28.19496 41.63961 34.91729
#
# Velocity S-wave (km/s) = 3.56887 4.33709 3.97159
# Velocity P-wave (km/s) = 5.56594 7.16173 6.41366
#
# Compressibility (1/GPa) = 0.03227361
#
# Stress axis : x y z
#
# Youngs Moduli (GPa) = 68.81422 99.97782 31.66037
#
# Poissons Ratio (x) = 0.38415 0.03980
# Poissons Ratio (y) = 0.26441 0.21603
# Poissons Ratio (z) = 0.08650 0.68220
#
# Static dielectric constant tensor:
#      x y z
#    x 1.793370 0.052290 0.013150 
#    y 0.052290 1.718590 -0.002590 
#    z 0.013150 -0.002590 2.042410 
# 
# From -- ./inp_files/619767.got.cif
#   From: 2010.05.17/outbox.cif.g08.bks.cpg/sg2_310_cif.got.tgz:619767.got - 2010.06.03 11:33:40.
