data_PCOD9008241
_publ_section_title
;
Structure prediction by ZEFSAII (Michael W. Deem and Ramdas Pophale) SiO2 
 PCOD9008241
Probable space group: P -1
;
_chemical_formula_sum "Si O2"
_cell_formula_units_Z 14
_cell_length_a 11.849510
_cell_length_b 23.986703
_cell_length_c 21.324955
_cell_angle_alpha 168.733989
_cell_angle_beta 134.749320
_cell_angle_gamma 44.162733
_cell_volume 824.986629
_symmetry_space_group_name_H-M "P -1"
_symmetry_group_IT_number 2
_symmetry_cell_setting 'triclinic'
loop_
_space_group_symop_operation_xyz
x,y,z
-x,-y,-z
loop_
_atom_site_type_symbol
_atom_site_label
_atom_site_fract_x
_atom_site_fract_y
_atom_site_fract_z
Si Si1 0.444595 0.512730 0.335538
Si Si2 0.763050 0.835325 0.042095
Si Si3 0.437061 0.841466 0.358556
Si Si4 0.171168 0.690818 0.249196
Si Si5 0.397449 0.323350 0.308892
Si Si6 0.068299 0.888219 0.297554
Si Si7 0.605737 0.856240 0.202472
O O1 0.343338 0.834342 0.633093
O O2 0.597785 0.542695 0.472217
O O3 0.484048 0.302234 0.059242
O O4 0.325438 0.362250 0.165722
O O5 0.941184 0.822766 0.124872
O O6 0.755248 0.715376 0.835674
O O7 0.241376 0.905146 0.355485
O O8 0.500000 0.000000 0.500000
O O9 0.491936 0.956789 0.573855
O O10 0.500000 0.500000 0.000000
O O11 0.107215 0.662311 0.122075
O O12 0.284871 0.934650 0.555952
O O13 0.277748 0.407608 0.007753
O O14 0.025333 0.825037 0.386297
O O15 0.500000 0.500000 0.500000
O O16 0.500000 0.000000 0.000000
#
# Coordination Sequence:
#
# PCOD9008241 Si02
#       7
#     2   2   2   2   2   2   2
#     4  10  17  29  47  74 100 126 153 189 243 296
#     4  10  18  29  46  74 100 127 154 189 243 295
#     4  11  25  38  48  66  97 136 172 202 238 282
#     4  10  21  30  50  80  97 121 160 204 250 288
#     4   8  16  27  42  66 104 128 145 181 235 301
#     4  10  20  34  52  71 101 129 163 203 244 289
#     4  11  19  35  52  72 100 128 163 202 239 295
#
# _framework density 16.969973
#
# number of rings (size 3 to 8) (size 9 to 14) (size 15 to 20)
#    0.000    2.000    2.857    1.714    0.000    9.714 
#    0.000    0.000    0.000    0.000    0.000    2.000 
#    0.000    0.000    0.000    0.857    0.000    0.000 
#
# Total GULP energy -78025.875631 kJ/mol
# GULP energy per Si atom -5573.276831 kJ/mol
# Density = 1.693135 g / cm^3
# Si number density = 16.969973 Si / 1000 Ang^3
#
#
#
# Elastic Constant Matrix: (Units=GPa)
#
#
# Indices 1 2 3 4 5 6 
#
# 1 92.7166 33.6094 41.7446 -4.7245 -6.2681 5.1965
# 2 33.6094 97.2661 41.8035 -34.9714 -10.6011 22.4257
# 3 41.7446 41.8035 107.3552 -0.6024 -5.2904 16.2436
# 4 -4.7245 -34.9714 -0.6024 52.4010 19.4964 -6.6953
# 5 -6.2681 -10.6011 -5.2904 19.4964 34.7867 -3.8445
# 6 5.1965 22.4257 16.2436 -6.6953 -3.8445 20.3751
#
#
#
# Elastic Compliance Matrix: (Units=1/GPa)
#
#
# Indices 1 2 3 4 5 6 
#
# 1 0.014189 -0.004622 -0.004326 -0.002066 0.002161 0.004646
# 2 -0.004622 0.021880 -0.004493 0.013726 -0.004267 -0.015616
# 3 -0.004326 -0.004493 0.013736 -0.004721 0.001913 -0.006093
# 4 -0.002066 0.013726 -0.004721 0.033621 -0.016060 -0.002799
# 5 0.002161 -0.004267 0.001913 -0.016060 0.037618 0.004441
# 6 0.004646 -0.015616 -0.006093 -0.002799 0.004441 0.069857
#
#
# Mechanical properties :
#
#
# Convention : Reuss Voigt Hill
#
# Bulk Modulus (GPa) = 43.62383 59.07254 51.34818
# Shear Modulus (GPa) = 22.18044 33.52459 27.85252
#
# Velocity S-wave (km/s) = 3.61922 4.44951 4.05567
# Velocity P-wave (km/s) = 6.57475 7.82835 7.22878
#
# Compressibility (1/GPa) = 0.02292325
#
# Stress axis : x y z
#
# Youngs Moduli (GPa) = 70.47670 45.70463 72.80122
#
# Poissons Ratio (x) = 0.21126 0.31491
# Poissons Ratio (y) = 0.32576 0.32709
# Poissons Ratio (z) = 0.30485 0.20535
#
# Static dielectric constant tensor:
#      x y z
#    x 1.560120 0.048140 -0.004540 
#    y 0.048140 1.606750 -0.037660 
#    z -0.004540 -0.037660 1.640820 
# 
# From -- ./inp_files/123225.got.cif
#   From: 2010.05.17/outbox.cif.g08.bks.cpg/sg2_62_cif.got.tgz:123225.got - 2010.06.03 11:33:40.
