data_PCOD9008456
_publ_section_title
;
Structure prediction by ZEFSAII (Michael W. Deem and Ramdas Pophale) SiO2 
 PCOD9008456
Probable space group: P -1
;
_chemical_formula_sum "Si O2"
_cell_formula_units_Z 14
_cell_length_a 15.286858
_cell_length_b 8.685148
_cell_length_c 7.644206
_cell_angle_alpha 72.705490
_cell_angle_beta 142.185108
_cell_angle_gamma 112.929082
_cell_volume 572.989709
_symmetry_space_group_name_H-M "P -1"
_symmetry_group_IT_number 2
_symmetry_cell_setting 'triclinic'
loop_
_space_group_symop_operation_xyz
x,y,z
-x,-y,-z
loop_
_atom_site_type_symbol
_atom_site_label
_atom_site_fract_x
_atom_site_fract_y
_atom_site_fract_z
Si Si1 0.551916 0.616801 0.746174
Si Si2 0.577409 0.026401 0.806226
Si Si3 0.592376 0.738526 0.379758
Si Si4 0.131638 0.738346 0.712809
Si Si5 0.189053 0.448129 0.670408
Si Si6 0.334311 0.737751 0.540589
Si Si7 0.143800 0.959479 0.317336
O O1 0.610540 0.661535 0.627398
O O2 0.492738 0.429243 0.791487
O O3 0.397792 0.671663 0.489630
O O4 0.705007 0.670409 0.077440
O O5 0.517570 0.148412 0.794236
O O6 0.500000 0.000000 0.500000
O O7 0.498942 0.845504 0.828687
O O8 0.749809 0.117517 0.043574
O O9 0.742720 0.863640 0.512607
O O10 0.183401 0.575255 0.782396
O O11 0.106960 0.834333 0.464602
O O12 0.976632 0.661910 0.587841
O O13 0.250595 0.575156 0.568188
O O14 0.233307 0.867009 0.356053
O O15 0.000000 0.000000 0.000000
#
# Coordination Sequence:
#
# PCOD9008456 Si02
#       7
#     2   2   2   2   2   2   2
#     4  11  20  39  62  97 130 170 217 275 323 396
#     4  11  21  42  65  95 130 174 222 272 315 392
#     4  10  22  36  66  92 126 176 219 264 328 390
#     4  10  22  40  67  96 133 174 219 268 338 388
#     4  10  21  39  64  98 133 168 214 276 334 397
#     4  10  23  38  68  92 130 171 219 274 327 392
#     4  10  22  42  64  95 129 174 218 274 333 395
#
# _framework density 24.433250000000001
#
# number of rings (size 3 to 8) (size 9 to 14) (size 15 to 20)
#    0.000    1.714    2.857    1.286    2.000    1.714 
#    0.000    5.000    0.000    0.000    0.000    0.000 
#    0.000    0.000    0.000    0.000    0.000    0.000 
#
# Total GULP energy -77994.381377 kJ/mol
# GULP energy per Si atom -5571.027241 kJ/mol
# Density = 2.437764 g / cm^3
# Si number density = 24.433250 Si / 1000 Ang^3
#
#
#
# Elastic Constant Matrix: (Units=GPa)
#
#
# Indices 1 2 3 4 5 6 
#
# 1 83.9975 27.4299 47.2003 4.3857 19.6801 14.3924
# 2 27.4299 87.9055 18.6204 10.9529 20.3744 38.3889
# 3 47.2003 18.6204 113.2841 11.9658 29.8583 12.5645
# 4 4.3857 10.9529 11.9658 46.7129 7.6290 19.4729
# 5 19.6801 20.3744 29.8583 7.6290 38.1022 4.3259
# 6 14.3924 38.3889 12.5645 19.4729 4.3259 39.3620
#
#
#
# Elastic Compliance Matrix: (Units=1/GPa)
#
#
# Indices 1 2 3 4 5 6 
#
# 1 0.017041 -0.002491 -0.005820 0.002067 -0.003024 -0.002634
# 2 -0.002491 0.025229 0.002384 0.006755 -0.012424 -0.026432
# 3 -0.005820 0.002384 0.013491 -0.000773 -0.008322 -0.003206
# 4 0.002067 0.006755 -0.000773 0.029840 -0.007663 -0.021017
# 5 -0.003024 -0.012424 -0.008322 -0.007663 0.040782 0.015187
# 6 -0.002634 -0.026432 -0.003206 -0.021017 0.015187 0.061899
#
#
# Mechanical properties :
#
#
# Convention : Reuss Voigt Hill
#
# Bulk Modulus (GPa) = 22.77586 52.40980 37.59283
# Shear Modulus (GPa) = 23.28057 37.63120 30.45589
#
# Velocity S-wave (km/s) = 3.09013 3.92875 3.53440
# Velocity P-wave (km/s) = 4.69828 6.48667 5.66351
#
# Compressibility (1/GPa) = 0.04390613
#
# Stress axis : x y z
#
# Youngs Moduli (GPa) = 58.68294 39.63684 74.12306
#
# Poissons Ratio (x) = 0.09874 0.43139
# Poissons Ratio (y) = 0.14619 -0.17668
# Poissons Ratio (z) = 0.34153 -0.09448
#
# Static dielectric constant tensor:
#      x y z
#    x 2.123290 -0.123110 -0.085650 
#    y -0.123110 2.102570 0.023580 
#    z -0.085650 0.023580 2.021780 
# 
# From -- ./inp_files/218366.got.cif
#   From: 2010.05.17/outbox.cif.g08.bks.cpg/sg2_110_cif.got.tgz:218366.got - 2010.06.03 11:33:40.
