data_PCOD9008918
_publ_section_title
;
Structure prediction by ZEFSAII (Michael W. Deem and Ramdas Pophale) SiO2 
 PCOD9008918
Probable space group: P -1
;
_chemical_formula_sum "Si O2"
_cell_formula_units_Z 16
_cell_length_a 13.989663
_cell_length_b 11.497421
_cell_length_c 8.884923
_cell_angle_alpha 54.368273
_cell_angle_beta 98.088829
_cell_angle_gamma 53.529866
_cell_volume 623.000752
_symmetry_space_group_name_H-M "P -1"
_symmetry_group_IT_number 2
_symmetry_cell_setting 'triclinic'
loop_
_space_group_symop_operation_xyz
x,y,z
-x,-y,-z
loop_
_atom_site_type_symbol
_atom_site_label
_atom_site_fract_x
_atom_site_fract_y
_atom_site_fract_z
Si Si1 0.724028 0.382436 0.529413
Si Si2 0.271912 0.877098 0.721720
Si Si3 0.385187 0.757276 0.503741
Si Si4 0.459104 0.987226 0.336973
Si Si5 0.038790 0.524900 0.829219
Si Si6 0.102937 0.939208 0.888987
Si Si7 0.426717 0.928721 0.926235
Si Si8 0.123799 0.204658 0.870698
O O1 0.580571 0.434358 0.429058
O O2 0.904635 0.134765 0.659211
O O3 0.618117 0.653176 0.250074
O O4 0.803271 0.267719 0.801474
O O5 0.235024 0.791879 0.889351
O O6 0.076987 0.189161 0.417838
O O7 0.356830 0.749613 0.675170
O O8 0.382104 0.861833 0.844114
O O9 0.487255 0.781006 0.499613
O O10 0.205543 0.028719 0.170425
O O11 0.564363 0.937657 0.267353
O O12 0.500000 0.000000 0.500000
O O13 0.249438 0.281745 0.046819
O O14 0.990081 0.485269 0.703629
O O15 0.000000 0.500000 0.000000
O O16 0.070063 0.140188 0.800674
O O17 0.281586 0.089653 0.904034
#
# Coordination Sequence:
#
# PCOD9008918 Si02
#       8
#     2   2   2   2   2   2   2   2
#     4  10  22  44  65  93 132 175 216 276 316 391
#     4  11  21  39  64  96 130 175 214 274 325 390
#     4  10  21  39  66  92 134 167 219 264 327 381
#     4  11  21  41  64  97 135 170 213 277 324 391
#     4  11  20  38  65  90 133 173 210 271 327 384
#     4   9  21  40  66  91 129 168 228 268 320 386
#     4  11  23  40  67  95 138 173 218 268 328 389
#     4   9  21  39  65  95 128 175 217 266 329 388
#
# _framework density 25.682151000000001
#
# number of rings (size 3 to 8) (size 9 to 14) (size 15 to 20)
#    0.000    1.750    3.750    0.750    0.000    9.500 
#    0.000    6.250    2.750    2.250    0.000    0.000 
#    0.000    0.000    0.000    0.000    0.000    0.000 
#
# Total GULP energy -89541.710596 kJ/mol
# GULP energy per Si atom -5596.356912 kJ/mol
# Density = 2.562370 g / cm^3
# Si number density = 25.682151 Si / 1000 Ang^3
#
#
#
# Elastic Constant Matrix: (Units=GPa)
#
#
# Indices 1 2 3 4 5 6 
#
# 1 134.8974 43.8836 37.0339 16.1212 -9.7577 -26.6013
# 2 43.8836 125.6696 28.3146 25.6484 -0.0269 -26.9080
# 3 37.0339 28.3146 112.3964 17.0926 -7.7080 -11.4979
# 4 16.1212 25.6484 17.0926 38.1517 -8.0008 -12.3968
# 5 -9.7577 -0.0269 -7.7080 -8.0008 42.3773 10.7767
# 6 -26.6013 -26.9080 -11.4979 -12.3968 10.7767 42.7297
#
#
#
# Elastic Compliance Matrix: (Units=1/GPa)
#
#
# Indices 1 2 3 4 5 6 
#
# 1 0.009480 -0.001942 -0.002140 -0.000344 0.000758 0.003812
# 2 -0.001942 0.010898 -0.001047 -0.005128 -0.002764 0.004582
# 3 -0.002140 -0.001047 0.010344 -0.002929 0.000908 -0.000287
# 4 -0.000344 -0.005128 -0.002929 0.033487 0.004608 0.004321
# 5 0.000758 -0.002764 0.000908 0.004608 0.026420 -0.006351
# 6 0.003812 0.004582 -0.000287 0.004321 -0.006351 0.031440
#
#
# Mechanical properties :
#
#
# Convention : Reuss Voigt Hill
#
# Bulk Modulus (GPa) = 48.86247 65.71419 57.28833
# Shear Modulus (GPa) = 35.93289 42.23383 39.08336
#
# Velocity S-wave (km/s) = 3.74456 4.05962 3.90527
# Velocity P-wave (km/s) = 6.14515 6.90051 6.53375
#
# Compressibility (1/GPa) = 0.02046560
#
# Stress axis : x y z
#
# Youngs Moduli (GPa) = 105.48658 91.75783 96.67139
#
# Poissons Ratio (x) = 0.17815 0.20689
# Poissons Ratio (y) = 0.20480 0.10119
# Poissons Ratio (z) = 0.22576 0.09605
#
# Static dielectric constant tensor:
#      x y z
#    x 2.090690 0.017650 0.011450 
#    y 0.017650 2.041400 -0.014550 
#    z 0.011450 -0.014550 2.058760 
# 
# From -- ./inp_files/312517.got.cif
#   From: 2010.05.17/outbox.cif.g08.bks.cpg/sg2_157_cif.got.tgz:312517.got - 2010.06.03 11:33:40.
