data_PCOD9008037
_publ_section_title
;
Structure prediction by ZEFSAII (Michael W. Deem and Ramdas Pophale) SiO2 
 PCOD9008037
Probable space group: P -1
;
_chemical_formula_sum "Si O2"
_cell_formula_units_Z 12
_cell_length_a 9.400886
_cell_length_b 15.610670
_cell_length_c 12.066379
_cell_angle_alpha 154.391659
_cell_angle_beta 41.558940
_cell_angle_gamma 129.967481
_cell_volume 504.480697
_symmetry_space_group_name_H-M "P -1"
_symmetry_group_IT_number 2
_symmetry_cell_setting 'triclinic'
loop_
_space_group_symop_operation_xyz
x,y,z
-x,-y,-z
loop_
_atom_site_type_symbol
_atom_site_label
_atom_site_fract_x
_atom_site_fract_y
_atom_site_fract_z
Si Si1 0.477288 0.196362 0.590314
Si Si2 0.378112 0.265992 0.983019
Si Si3 0.657790 0.419494 0.460035
Si Si4 0.790188 0.596837 0.385014
Si Si5 0.073105 0.213339 0.680949
Si Si6 0.908372 0.209339 0.245033
O O1 0.411732 0.271792 0.839074
O O2 0.290126 0.236745 0.654041
O O3 0.704520 0.277635 0.522143
O O4 0.528471 0.955003 0.289289
O O5 0.462479 0.433340 0.205888
O O6 0.124167 0.305588 0.204224
O O7 0.806309 0.550607 0.452192
O O8 0.465765 0.349804 0.419140
O O9 0.789718 0.230029 0.219367
O O10 0.894146 0.756102 0.434497
O O11 0.892729 0.387174 0.028924
O O12 0.000000 0.000000 0.500000
O O13 0.000000 0.000000 0.000000
#
# Coordination Sequence:
#
# PCOD9008037 Si02
#       6
#     2   2   2   2   2   2
#     4  10  21  42  63  95 134 165 225 279 318 405
#     4  10  22  39  65  95 130 177 213 271 344 388
#     4  11  21  44  63  95 138 168 222 276 335 398
#     4  10  24  42  67  98 134 175 220 280 327 403
#     4  11  22  44  67  97 131 179 224 272 337 397
#     4  10  21  39  63  94 130 170 216 274 328 389
#
# _framework density 23.786836000000001
#
# number of rings (size 3 to 8) (size 9 to 14) (size 15 to 20)
#    0.000    1.667    1.667    2.500    0.000    0.667 
#   24.000    2.500    0.000    0.000    0.000    0.000 
#    0.000    0.000    0.000    0.000    0.000    0.000 
#
# Total GULP energy -66938.241046 kJ/mol
# GULP energy per Si atom -5578.186754 kJ/mol
# Density = 2.373270 g / cm^3
# Si number density = 23.786836 Si / 1000 Ang^3
#
#
#
# Elastic Constant Matrix: (Units=GPa)
#
#
# Indices 1 2 3 4 5 6 
#
# 1 79.6528 41.1583 38.3922 -17.9714 -30.6933 -23.9545
# 2 41.1583 163.9057 51.8355 -19.7384 -0.3508 -36.0326
# 3 38.3922 51.8355 79.8560 0.0363 -17.5668 -18.3415
# 4 -17.9714 -19.7384 0.0363 42.1409 -8.2843 -8.9916
# 5 -30.6933 -0.3508 -17.5668 -8.2843 42.1395 -3.8456
# 6 -23.9545 -36.0326 -18.3415 -8.9916 -3.8456 45.6436
#
#
#
# Elastic Compliance Matrix: (Units=1/GPa)
#
#
# Indices 1 2 3 4 5 6 
#
# 1 0.058368 0.003235 -0.008933 0.045753 0.051733 0.042968
# 2 0.003235 0.010113 -0.005330 0.008695 0.002793 0.009488
# 3 -0.008933 -0.005330 0.019797 -0.006773 0.000164 -0.002261
# 4 0.045753 0.008695 -0.006773 0.066362 0.047749 0.045250
# 5 0.051733 0.002793 0.000164 0.047749 0.075010 0.045148
# 6 0.042968 0.009488 -0.002261 0.045250 0.045148 0.063758
#
#
# Mechanical properties :
#
#
# Convention : Reuss Voigt Hill
#
# Bulk Modulus (GPa) = 15.10074 65.13183 40.11628
# Shear Modulus (GPa) = 14.81313 38.78671 26.79992
#
# Velocity S-wave (km/s) = 2.49819 4.04244 3.36023
# Velocity P-wave (km/s) = 3.83190 7.01636 5.65300
#
# Compressibility (1/GPa) = 0.06622192
#
# Stress axis : x y z
#
# Youngs Moduli (GPa) = 17.13267 98.88074 50.51327
#
# Poissons Ratio (x) = -0.31985 0.45122
# Poissons Ratio (y) = -0.05542 0.26924
# Poissons Ratio (z) = 0.15304 0.52704
#
# Static dielectric constant tensor:
#      x y z
#    x 1.969560 -0.022720 0.003700 
#    y -0.022720 1.980900 -0.006010 
#    z 0.003700 -0.006010 1.873980 
# 
# From -- ./inp_files/191083.got.cif
#   From: 2010.05.17/outbox.cif.g08.bks.cpg/sg2_96_cif.got.tgz:191083.got - 2010.06.03 11:33:40.
