data_PCOD9008576
_publ_section_title
;
Structure prediction by ZEFSAII (Michael W. Deem and Ramdas Pophale) SiO2 
 PCOD9008576
Probable space group: P -1
;
_chemical_formula_sum "Si O2"
_cell_formula_units_Z 14
_cell_length_a 11.395799
_cell_length_b 13.683600
_cell_length_c 11.597807
_cell_angle_alpha 147.190593
_cell_angle_beta 134.425173
_cell_angle_gamma 55.747141
_cell_volume 698.317724
_symmetry_space_group_name_H-M "P -1"
_symmetry_group_IT_number 2
_symmetry_cell_setting 'triclinic'
loop_
_space_group_symop_operation_xyz
x,y,z
-x,-y,-z
loop_
_atom_site_type_symbol
_atom_site_label
_atom_site_fract_x
_atom_site_fract_y
_atom_site_fract_z
Si Si1 0.570415 0.303915 0.377409
Si Si2 0.974710 0.037743 0.652941
Si Si3 0.697850 0.004729 0.021113
Si Si4 0.350304 0.100409 0.611035
Si Si5 0.159279 0.600801 0.145900
Si Si6 0.619134 0.843109 0.578476
Si Si7 0.464807 0.476228 0.089764
O O1 0.500000 0.500000 0.500000
O O2 0.718823 0.329869 0.597365
O O3 0.632796 0.198538 0.203253
O O4 0.433746 0.156729 0.188217
O O5 0.916401 0.239324 0.819018
O O6 0.136073 0.014055 0.813238
O O7 0.824760 0.902841 0.454526
O O8 0.000000 0.000000 0.500000
O O9 0.719227 0.960850 0.858179
O O10 0.321560 0.125127 0.479711
O O11 0.436916 0.918682 0.520519
O O12 0.474345 0.263389 0.901973
O O13 0.284346 0.508135 0.051443
O O14 0.000000 0.500000 0.000000
O O15 0.591321 0.631759 0.382210
O O16 0.500000 0.500000 0.000000
#
# Coordination Sequence:
#
# PCOD9008576 Si02
#       7
#     2   2   2   2   2   2   2
#     4  11  24  41  61  92 125 167 210 263 324 381
#     4  12  23  41  62  94 132 166 209 268 326 382
#     4  11  24  40  62  91 131 164 211 265 320 381
#     4  10  22  39  67  90 125 165 214 259 314 381
#     4  12  23  41  66  95 130 165 215 265 323 384
#     4  10  21  42  64  92 120 171 214 257 315 383
#     4  10  21  39  65  91 122 164 214 260 309 380
#
# _framework density 20.048182000000001
#
# number of rings (size 3 to 8) (size 9 to 14) (size 15 to 20)
#    0.000    1.143    4.286    1.714    4.000    0.571 
#    0.000    0.000    0.000    1.714    0.000    0.000 
#    0.000    0.000    0.000    0.000    0.000    0.000 
#
# Total GULP energy -78050.719675 kJ/mol
# GULP energy per Si atom -5575.051405 kJ/mol
# Density = 2.000255 g / cm^3
# Si number density = 20.048182 Si / 1000 Ang^3
#
#
#
# Elastic Constant Matrix: (Units=GPa)
#
#
# Indices 1 2 3 4 5 6 
#
# 1 100.6165 19.0996 52.7621 -16.0972 -9.7581 -2.3711
# 2 19.0996 73.7233 42.8202 3.6163 -4.3831 5.1653
# 3 52.7621 42.8202 105.8239 -0.2579 -8.2460 12.9941
# 4 -16.0972 3.6163 -0.2579 39.4366 -1.2633 -3.9548
# 5 -9.7581 -4.3831 -8.2460 -1.2633 42.9805 1.4474
# 6 -2.3711 5.1653 12.9941 -3.9548 1.4474 13.4078
#
#
#
# Elastic Compliance Matrix: (Units=1/GPa)
#
#
# Indices 1 2 3 4 5 6 
#
# 1 0.017268 0.000180 -0.010427 0.008565 0.001670 0.015436
# 2 0.000180 0.017854 -0.007240 -0.001633 0.000437 -0.000358
# 3 -0.010427 -0.007240 0.020163 -0.005459 0.001287 -0.020345
# 4 0.008565 -0.001633 -0.005459 0.030642 0.001081 0.016356
# 5 0.001670 0.000437 0.001287 0.001081 0.024083 -0.003402
# 6 0.015436 -0.000358 -0.020345 0.016356 -0.003402 0.102360
#
#
# Mechanical properties :
#
#
# Convention : Reuss Voigt Hill
#
# Bulk Modulus (GPa) = 49.23284 56.61415 52.92350
# Shear Modulus (GPa) = 19.67612 30.19711 24.93662
#
# Velocity S-wave (km/s) = 3.13620 3.88522 3.53063
# Velocity P-wave (km/s) = 6.14206 6.95895 6.56322
#
# Compressibility (1/GPa) = 0.02031164
#
# Stress axis : x y z
#
# Youngs Moduli (GPa) = 57.90936 56.00998 49.59549
#
# Poissons Ratio (x) = -0.01009 0.51713
# Poissons Ratio (y) = -0.01043 0.35908
# Poissons Ratio (z) = 0.60382 0.40552
#
# Static dielectric constant tensor:
#      x y z
#    x 1.749690 -0.012650 -0.049570 
#    y -0.012650 1.713220 0.064490 
#    z -0.049570 0.064490 1.756920 
# 
# From -- ./inp_files/260457.got.cif
#   From: 2010.05.17/outbox.cif.g08.bks.cpg/sg2_131_cif.got.tgz:260457.got - 2010.06.03 11:33:40.
