data_PCOD9008314
_publ_section_title
;
Structure prediction by ZEFSAII (Michael W. Deem and Ramdas Pophale) SiO2 
 PCOD9008314
Probable space group: P -1
;
_chemical_formula_sum "Si O2"
_cell_formula_units_Z 16
_cell_length_a 6.988586
_cell_length_b 26.754992
_cell_length_c 8.953140
_cell_angle_alpha 143.353587
_cell_angle_beta 126.692024
_cell_angle_gamma 76.386150
_cell_volume 689.249284
_symmetry_space_group_name_H-M "P -1"
_symmetry_group_IT_number 2
_symmetry_cell_setting 'triclinic'
loop_
_space_group_symop_operation_xyz
x,y,z
-x,-y,-z
loop_
_atom_site_type_symbol
_atom_site_label
_atom_site_fract_x
_atom_site_fract_y
_atom_site_fract_z
Si Si1 0.642418 0.819081 0.192614
Si Si2 0.201560 0.622108 0.669378
Si Si3 0.365079 0.395119 0.609129
Si Si4 0.881345 0.884502 0.765752
Si Si5 0.522909 0.064587 0.806209
Si Si6 0.318755 0.492151 0.252296
Si Si7 0.206169 0.972816 0.727152
Si Si8 0.404389 0.333873 0.779388
O O1 0.710261 0.879218 0.525303
O O2 0.487472 0.845780 0.059135
O O3 0.451490 0.710237 0.904371
O O4 0.951513 0.862437 0.370400
O O5 0.105393 0.522814 0.292143
O O6 0.962044 0.646298 0.641330
O O7 0.317057 0.614440 0.866767
O O8 0.490716 0.422620 0.570545
O O9 0.437612 0.337910 0.626361
O O10 0.500000 0.500000 0.000000
O O11 0.744373 0.777294 0.511456
O O12 0.881424 0.957614 0.062119
O O13 0.185289 0.907165 0.916029
O O14 0.279165 0.004614 0.665854
O O15 0.500000 0.000000 0.500000
O O16 0.500000 0.500000 0.500000
O O17 0.242659 0.390263 0.892813
O O18 0.500000 0.000000 0.000000
#
# Coordination Sequence:
#
# PCOD9008314 Si02
#       8
#     2   2   2   2   2   2   2   2
#     4  11  23  43  64  95 132 172 215 266 324 381
#     4  10  22  42  62  92 132 165 207 264 315 374
#     4  10  21  39  64  93 123 165 212 256 314 378
#     4  11  23  44  63  93 134 169 212 273 320 377
#     4  12  24  41  67  93 129 170 216 272 321 385
#     4   9  20  40  63  92 126 165 207 258 312 375
#     4  12  24  43  66  94 129 172 220 261 328 386
#     4   9  21  40  63  91 127 163 212 256 312 375
#
# _framework density 23.213660999999998
#
# number of rings (size 3 to 8) (size 9 to 14) (size 15 to 20)
#    0.000    1.500    2.500    2.250    0.000    7.500 
#    6.750    3.750    0.000    0.000    0.000    0.000 
#    0.000    0.000    0.000    0.000    0.000    0.000 
#
# Total GULP energy -89299.814382 kJ/mol
# GULP energy per Si atom -5581.238399 kJ/mol
# Density = 2.316083 g / cm^3
# Si number density = 23.213661 Si / 1000 Ang^3
#
#
#
# Elastic Constant Matrix: (Units=GPa)
#
#
# Indices 1 2 3 4 5 6 
#
# 1 99.7480 51.0981 26.8189 -8.3400 3.0006 18.7785
# 2 51.0981 135.6330 18.6164 -6.0052 -0.1514 22.9232
# 3 26.8189 18.6164 44.8355 -0.3777 4.1894 -1.0446
# 4 -8.3400 -6.0052 -0.3777 26.8545 1.3175 2.9068
# 5 3.0006 -0.1514 4.1894 1.3175 27.7501 -8.7043
# 6 18.7785 22.9232 -1.0446 2.9068 -8.7043 39.8263
#
#
#
# Elastic Compliance Matrix: (Units=1/GPa)
#
#
# Indices 1 2 3 4 5 6 
#
# 1 0.015613 -0.003512 -0.007730 0.004797 -0.002809 -0.006507
# 2 -0.003512 0.009758 -0.001973 0.001560 -0.000684 -0.004275
# 3 -0.007730 -0.001973 0.027994 -0.002954 -0.001571 0.005387
# 4 0.004797 0.001560 -0.002954 0.040005 -0.004181 -0.007071
# 5 -0.002809 -0.000684 -0.001571 -0.004181 0.040146 0.010757
# 6 -0.006507 -0.004275 0.005387 -0.007071 0.010757 0.033646
#
#
# Mechanical properties :
#
#
# Convention : Reuss Voigt Hill
#
# Bulk Modulus (GPa) = 37.12644 52.58703 44.85674
# Shear Modulus (GPa) = 24.68270 31.13175 27.90723
#
# Velocity S-wave (km/s) = 3.26434 3.66607 3.47102
# Velocity P-wave (km/s) = 5.49872 6.37360 5.95226
#
# Compressibility (1/GPa) = 0.02693498
#
# Stress axis : x y z
#
# Youngs Moduli (GPa) = 64.04780 102.48285 35.72174
#
# Poissons Ratio (x) = 0.35994 0.27612
# Poissons Ratio (y) = 0.22495 0.07049
# Poissons Ratio (z) = 0.49507 0.20222
#
# Static dielectric constant tensor:
#      x y z
#    x 1.914560 -0.003460 0.005020 
#    y -0.003460 1.980970 -0.006910 
#    z 0.005020 -0.006910 1.912190 
# 
# From -- ./inp_files/138679.got.cif
#   From: 2010.05.17/outbox.cif.g08.bks.cpg/sg2_70_cif.got.tgz:138679.got - 2010.06.03 11:33:40.
