data_PCOD9008444
_publ_section_title
;
Structure prediction by ZEFSAII (Michael W. Deem and Ramdas Pophale) SiO2 
 PCOD9008444
Probable space group: P -1
;
_chemical_formula_sum "Si O2"
_cell_formula_units_Z 16
_cell_length_a 25.570643
_cell_length_b 5.081809
_cell_length_c 18.218195
_cell_angle_alpha 96.711449
_cell_angle_beta 160.342163
_cell_angle_gamma 92.202186
_cell_volume 708.524609
_symmetry_space_group_name_H-M "P -1"
_symmetry_group_IT_number 2
_symmetry_cell_setting 'triclinic'
loop_
_space_group_symop_operation_xyz
x,y,z
-x,-y,-z
loop_
_atom_site_type_symbol
_atom_site_label
_atom_site_fract_x
_atom_site_fract_y
_atom_site_fract_z
Si Si1 0.418055 0.944206 0.266428
Si Si2 0.473792 0.727195 0.182091
Si Si3 0.896696 0.681555 0.387811
Si Si4 0.031974 0.740262 0.726612
Si Si5 0.038805 0.782989 0.283509
Si Si6 0.321285 0.634777 0.585248
Si Si7 0.991388 0.261764 0.039876
Si Si8 0.719732 0.328393 0.765944
O O1 0.474451 0.774734 0.273139
O O2 0.367050 0.776239 0.272419
O O3 0.571905 0.261489 0.506583
O O4 0.240213 0.945620 0.001441
O O5 0.593962 0.589964 0.300556
O O6 0.530696 0.062129 0.241693
O O7 0.287711 0.499819 0.898951
O O8 0.914568 0.705568 0.499788
O O9 0.000000 0.500000 0.500000
O O10 0.000000 0.000000 0.500000
O O11 0.024476 0.432578 0.735779
O O12 0.957863 0.901194 0.690500
O O13 0.218551 0.763566 0.506520
O O14 0.891082 0.631776 0.020515
O O15 0.164044 0.437672 0.318820
O O16 0.000000 0.500000 0.000000
O O17 0.819616 0.148187 0.859346
O O18 0.000000 0.000000 0.000000
#
# Coordination Sequence:
#
# PCOD9008444 Si02
#       8
#     2   2   2   2   2   2   2   2
#     4  10  21  39  64  97 136 167 220 267 334 386
#     4  12  25  43  68  98 133 173 222 283 333 393
#     4  12  25  45  69 101 132 170 224 274 345 408
#     4  11  23  42  69  95 129 174 219 277 336 396
#     4  10  23  43  66  94 135 176 219 265 329 394
#     4  11  24  43  65  96 135 177 223 274 329 393
#     4  11  22  40  64  92 130 179 228 266 322 385
#     4   9  21  38  62  97 131 175 212 267 319 399
#
# _framework density 22.582136999999999
#
# number of rings (size 3 to 8) (size 9 to 14) (size 15 to 20)
#    0.000    1.250    1.250    4.500    1.750    5.500 
#    0.000    8.750    0.000    0.000    0.000    0.000 
#    0.000    0.000    0.000    0.000    0.000    0.000 
#
# Total GULP energy -89196.985839 kJ/mol
# GULP energy per Si atom -5574.811615 kJ/mol
# Density = 2.253074 g / cm^3
# Si number density = 22.582137 Si / 1000 Ang^3
#
#
#
# Elastic Constant Matrix: (Units=GPa)
#
#
# Indices 1 2 3 4 5 6 
#
# 1 58.4632 8.2528 26.1699 17.3679 -12.4930 -11.5396
# 2 8.2528 101.8156 -5.4647 1.8414 0.1013 -3.7959
# 3 26.1699 -5.4647 96.3748 12.8861 -23.6754 3.4118
# 4 17.3679 1.8414 12.8861 26.0808 -3.4964 0.4876
# 5 -12.4930 0.1013 -23.6754 -3.4964 27.1363 -3.0926
# 6 -11.5396 -3.7959 3.4118 0.4876 -3.0926 35.1147
#
#
#
# Elastic Compliance Matrix: (Units=1/GPa)
#
#
# Indices 1 2 3 4 5 6 
#
# 1 0.027416 -0.001777 -0.003761 -0.015319 0.008530 0.010147
# 2 -0.001777 0.010039 0.001073 -0.000047 0.000121 0.000408
# 3 -0.003761 0.001073 0.014487 -0.003320 0.010297 -0.001574
# 4 -0.015319 -0.000047 -0.003320 0.049732 -0.004199 -0.005777
# 5 0.008530 0.000121 0.010297 -0.004199 0.049935 0.006272
# 6 0.010147 0.000408 -0.001574 -0.005777 0.006272 0.032642
#
#
# Mechanical properties :
#
#
# Convention : Reuss Voigt Hill
#
# Bulk Modulus (GPa) = 23.24860 34.95220 29.10040
# Shear Modulus (GPa) = 24.09421 32.84606 28.47013
#
# Velocity S-wave (km/s) = 3.26998 3.81795 3.55454
# Velocity P-wave (km/s) = 4.95727 5.91160 5.45534
#
# Compressibility (1/GPa) = 0.04301334
#
# Stress axis : x y z
#
# Youngs Moduli (GPa) = 36.47567 99.60858 69.02535
#
# Poissons Ratio (x) = 0.17702 0.25959
# Poissons Ratio (y) = 0.06482 -0.07410
# Poissons Ratio (z) = 0.13718 -0.10693
#
# Static dielectric constant tensor:
#      x y z
#    x 1.997140 -0.009730 0.030980 
#    y -0.009730 1.821600 0.004180 
#    z 0.030980 0.004180 1.851840 
# 
# From -- ./inp_files/578768.got.cif
#   From: 2010.05.17/outbox.cif.g08.bks.cpg/sg2_290_cif.got.tgz:578768.got - 2010.06.03 11:33:40.
