data_PCOD9008844
_publ_section_title
;
Structure prediction by ZEFSAII (Michael W. Deem and Ramdas Pophale) SiO2 
 PCOD9008844
Probable space group: P -1
;
_chemical_formula_sum "Si O2"
_cell_formula_units_Z 16
_cell_length_a 10.212733
_cell_length_b 11.414987
_cell_length_c 10.016165
_cell_angle_alpha 116.293214
_cell_angle_beta 51.185101
_cell_angle_gamma 126.111841
_cell_volume 729.977439
_symmetry_space_group_name_H-M "P -1"
_symmetry_group_IT_number 2
_symmetry_cell_setting 'triclinic'
loop_
_space_group_symop_operation_xyz
x,y,z
-x,-y,-z
loop_
_atom_site_type_symbol
_atom_site_label
_atom_site_fract_x
_atom_site_fract_y
_atom_site_fract_z
Si Si1 0.055268 0.809669 0.180593
Si Si2 0.326717 0.462002 0.691428
Si Si3 0.476550 0.387884 0.082734
Si Si4 0.139557 0.061561 0.765469
Si Si5 0.584667 0.116508 0.881662
Si Si6 0.493550 0.085742 0.418906
Si Si7 0.102625 0.241159 0.123182
Si Si8 0.153808 0.663536 0.795548
O O1 0.836508 0.702131 0.284826
O O2 0.047071 0.951632 0.197281
O O3 0.191177 0.829989 0.225761
O O4 0.137610 0.748580 0.979309
O O5 0.500000 0.500000 0.500000
O O6 0.419960 0.520078 0.806027
O O7 0.199649 0.539060 0.761269
O O8 0.250105 0.300873 0.178500
O O9 0.500000 0.500000 0.000000
O O10 0.542652 0.257400 0.970035
O O11 0.304226 0.099236 0.573917
O O12 0.181809 0.180603 0.917859
O O13 0.080819 0.904740 0.791130
O O14 0.510554 0.016334 0.750636
O O15 0.500000 0.000000 0.000000
O O16 0.668381 0.240029 0.360452
O O17 0.500000 0.000000 0.500000
O O18 0.033796 0.359210 0.175486
#
# Coordination Sequence:
#
# PCOD9008844 Si02
#       8
#     2   2   2   2   2   2   2   2
#     4  11  23  42  73  94 134 188 231 277 348 424
#     4  12  27  47  71  99 140 185 236 292 345 410
#     4  12  26  45  70 103 138 183 240 287 347 419
#     4  10  21  39  66 103 136 177 224 286 351 407
#     4  12  25  44  71 106 138 184 233 287 351 425
#     4  12  23  40  67 106 142 173 225 300 345 404
#     4  10  22  40  69  98 141 182 224 280 351 423
#     4  11  22  43  71  99 138 187 230 276 350 424
#
# _framework density 21.918486000000001
#
# number of rings (size 3 to 8) (size 9 to 14) (size 15 to 20)
#    0.000    0.750    3.750    4.125    3.500    2.500 
#    0.000    0.625    0.000    0.000    0.000    0.000 
#    0.000    0.000    0.000    0.000    0.000    0.000 
#
# Total GULP energy -89253.755259 kJ/mol
# GULP energy per Si atom -5578.359704 kJ/mol
# Density = 2.186860 g / cm^3
# Si number density = 21.918486 Si / 1000 Ang^3
#
#
#
# Elastic Constant Matrix: (Units=GPa)
#
#
# Indices 1 2 3 4 5 6 
#
# 1 144.0723 49.1931 10.5928 18.7762 9.6455 -17.0444
# 2 49.1931 87.1250 32.5689 -8.8518 1.7837 -13.5772
# 3 10.5928 32.5689 78.0277 -14.3200 0.4669 -7.6473
# 4 18.7762 -8.8518 -14.3200 21.1396 -4.3038 -5.8199
# 5 9.6455 1.7837 0.4669 -4.3038 36.0490 2.5065
# 6 -17.0444 -13.5772 -7.6473 -5.8199 2.5065 51.1436
#
#
#
# Elastic Compliance Matrix: (Units=1/GPa)
#
#
# Indices 1 2 3 4 5 6 
#
# 1 0.012110 -0.007859 -0.001210 -0.015774 -0.004733 0.000206
# 2 -0.007859 0.019333 -0.004181 0.013687 0.002604 0.003318
# 3 -0.001210 -0.004181 0.017124 0.011883 0.001566 0.002323
# 4 -0.015774 0.013687 0.011883 0.079989 0.012338 0.008651
# 5 -0.004733 0.002604 0.001566 0.012338 0.030382 -0.000737
# 6 0.000206 0.003318 0.002323 0.008651 -0.000737 0.021870
#
#
# Mechanical properties :
#
#
# Convention : Reuss Voigt Hill
#
# Bulk Modulus (GPa) = 45.31707 54.88161 50.09934
# Shear Modulus (GPa) = 23.29218 36.12446 29.70832
#
# Velocity S-wave (km/s) = 3.26340 4.06412 3.68557
# Velocity P-wave (km/s) = 5.90931 6.86411 6.40453
#
# Compressibility (1/GPa) = 0.02206674
#
# Stress axis : x y z
#
# Youngs Moduli (GPa) = 82.57359 51.72637 58.39611
#
# Poissons Ratio (x) = 0.40653 0.07067
# Poissons Ratio (y) = 0.64896 0.24415
# Poissons Ratio (z) = 0.09992 0.21627
#
# Static dielectric constant tensor:
#      x y z
#    x 1.862290 -0.052360 0.013630 
#    y -0.052360 1.905030 -0.041670 
#    z 0.013630 -0.041670 1.770830 
# 
# From -- ./inp_files/189054.got.cif
#   From: 2010.05.17/outbox.cif.g08.bks.cpg/sg2_95_cif.got.tgz:189054.got - 2010.06.03 11:33:40.
