data_PCOD9008668
_publ_section_title
;
Structure prediction by ZEFSAII (Michael W. Deem and Ramdas Pophale) SiO2 
 PCOD9008668
Probable space group: P -1
;
_chemical_formula_sum "Si O2"
_cell_formula_units_Z 14
_cell_length_a 9.025616
_cell_length_b 9.068968
_cell_length_c 22.324326
_cell_angle_alpha 144.579119
_cell_angle_beta 37.588588
_cell_angle_gamma 145.045304
_cell_volume 562.507685
_symmetry_space_group_name_H-M "P -1"
_symmetry_group_IT_number 2
_symmetry_cell_setting 'triclinic'
loop_
_space_group_symop_operation_xyz
x,y,z
-x,-y,-z
loop_
_atom_site_type_symbol
_atom_site_label
_atom_site_fract_x
_atom_site_fract_y
_atom_site_fract_z
Si Si1 0.700912 0.101282 0.662480
Si Si2 0.058413 0.802282 0.771712
Si Si3 0.690718 0.374865 0.028600
Si Si4 0.082219 0.875663 0.526900
Si Si5 0.007502 0.818398 0.991991
Si Si6 0.029027 0.768622 0.633216
Si Si7 0.502907 0.264608 0.173817
O O1 0.705777 0.032088 0.566527
O O2 0.892498 0.454125 0.720625
O O3 0.382436 0.949465 0.736113
O O4 0.860287 0.966925 0.605064
O O5 0.082158 0.890264 0.723523
O O6 0.905495 0.948864 0.904766
O O7 0.715528 0.563836 0.025356
O O8 0.544315 0.425411 0.149955
O O9 0.000000 0.500000 0.000000
O O10 0.612248 0.062865 0.923281
O O11 0.951922 0.525957 0.462722
O O12 0.188322 0.972774 0.593286
O O13 0.208185 0.680727 0.871923
O O14 0.000000 0.000000 0.000000
O O15 0.706619 0.692490 0.703438
#
# Coordination Sequence:
#
# PCOD9008668 Si02
#       7
#     2   2   2   2   2   2   2
#     4  10  24  46  72 100 142 180 226 287 347 406
#     4  11  25  44  73 101 136 186 226 279 352 409
#     4   9  19  38  62  89 129 167 221 271 333 405
#     4   9  22  42  69 102 136 177 234 286 339 407
#     4  11  26  41  63 102 134 181 225 282 340 425
#     4  10  21  41  69 102 131 183 231 284 341 407
#     4  10  21  39  65  93 133 175 222 280 340 403
#
# _framework density 24.888546000000002
#
# number of rings (size 3 to 8) (size 9 to 14) (size 15 to 20)
#    0.000    2.000    0.000    2.571    8.000    7.429 
#    0.000    2.857    0.000    0.000    0.000    0.000 
#    0.000    0.000    0.000    0.000    0.000    0.000 
#
# Total GULP energy -78141.138269 kJ/mol
# GULP energy per Si atom -5581.509876 kJ/mol
# Density = 2.483190 g / cm^3
# Si number density = 24.888546 Si / 1000 Ang^3
#
#
#
# Elastic Constant Matrix: (Units=GPa)
#
#
# Indices 1 2 3 4 5 6 
#
# 1 83.5802 38.4106 33.4469 -0.7308 -11.4406 -40.4985
# 2 38.4106 102.8116 37.3983 -0.2061 -14.8034 -23.3853
# 3 33.4469 37.3983 122.7416 -1.9420 -27.6036 -7.0455
# 4 -0.7308 -0.2061 -1.9420 25.2624 3.3742 -5.0726
# 5 -11.4406 -14.8034 -27.6036 3.3742 42.4446 -3.7605
# 6 -40.4985 -23.3853 -7.0455 -5.0726 -3.7605 51.0272
#
#
#
# Elastic Compliance Matrix: (Units=1/GPa)
#
#
# Indices 1 2 3 4 5 6 
#
# 1 0.024086 -0.002974 -0.003574 0.003403 0.004448 0.017926
# 2 -0.002974 0.012812 -0.002351 0.000194 0.002422 0.003384
# 3 -0.003574 -0.002351 0.010866 -0.000389 0.005130 -0.002074
# 4 0.003403 0.000194 -0.000389 0.041260 -0.001955 0.006694
# 5 0.004448 0.002422 0.005130 -0.001955 0.029747 0.007347
# 6 0.017926 0.003384 -0.002074 0.006694 0.007347 0.036296
#
#
# Mechanical properties :
#
#
# Convention : Reuss Voigt Hill
#
# Bulk Modulus (GPa) = 33.37131 58.62721 45.99926
# Shear Modulus (GPa) = 27.34423 37.07201 32.20812
#
# Velocity S-wave (km/s) = 3.31821 3.86362 3.60125
# Velocity P-wave (km/s) = 5.30265 6.59624 5.98450
#
# Compressibility (1/GPa) = 0.02996586
#
# Stress axis : x y z
#
# Youngs Moduli (GPa) = 41.51745 78.05322 92.02936
#
# Poissons Ratio (x) = 0.23211 0.32893
# Poissons Ratio (y) = 0.12346 0.21638
# Poissons Ratio (z) = 0.14839 0.18352
#
# Static dielectric constant tensor:
#      x y z
#    x 2.049400 0.064640 0.024020 
#    y 0.064640 2.144660 -0.020380 
#    z 0.024020 -0.020380 2.001260 
# 
# From -- ./inp_files/278910.got.cif
#   From: 2010.05.17/outbox.cif.g08.bks.cpg/sg2_140_cif.got.tgz:278910.got - 2010.06.03 11:33:40.
