data_PCOD9008029
_publ_section_title
;
Structure prediction by ZEFSAII (Michael W. Deem and Ramdas Pophale) SiO2 
 PCOD9008029
Probable space group: P -1
;
_chemical_formula_sum "Si O2"
_cell_formula_units_Z 14
_cell_length_a 14.395937
_cell_length_b 14.797909
_cell_length_c 7.999663
_cell_angle_alpha 52.985630
_cell_angle_beta 107.950326
_cell_angle_gamma 148.355730
_cell_volume 623.242228
_symmetry_space_group_name_H-M "P -1"
_symmetry_group_IT_number 2
_symmetry_cell_setting 'triclinic'
loop_
_space_group_symop_operation_xyz
x,y,z
-x,-y,-z
loop_
_atom_site_type_symbol
_atom_site_label
_atom_site_fract_x
_atom_site_fract_y
_atom_site_fract_z
Si Si1 0.812158 0.606985 0.613603
Si Si2 0.687325 0.399403 0.273410
Si Si3 0.248980 0.037122 0.520582
Si Si4 0.015339 0.602266 0.047651
Si Si5 0.423838 0.437455 0.335149
Si Si6 0.190474 0.263833 0.870897
Si Si7 0.294729 0.726482 0.235119
O O1 0.699701 0.571739 0.724767
O O2 0.759911 0.609529 0.403947
O O3 0.738735 0.405251 0.775429
O O4 0.052943 0.856082 0.497527
O O5 0.453513 0.202892 0.356463
O O6 0.818135 0.648718 0.091375
O O7 0.697415 0.328542 0.521752
O O8 0.801016 0.442235 0.149109
O O9 0.295809 0.199245 0.468643
O O10 0.174376 0.861995 0.797927
O O11 0.109937 0.626750 0.224858
O O12 0.000000 0.500000 0.000000
O O13 0.500000 0.500000 0.500000
O O14 0.624637 0.634673 0.113271
O O15 0.000000 0.000000 0.000000
O O16 0.500000 0.000000 0.000000
#
# Coordination Sequence:
#
# PCOD9008029 Si02
#       7
#     2   2   2   2   2   2   2
#     4  10  21  39  63  94 128 166 214 263 326 382
#     4  10  24  42  66  94 131 170 219 268 319 391
#     4  11  22  43  63  95 133 167 211 275 328 377
#     4  12  25  43  66  96 131 172 221 266 330 381
#     4   9  20  37  63  89 122 168 209 257 320 383
#     4   9  20  39  62  93 126 165 216 264 321 389
#     4  11  22  43  66  96 130 173 220 262 319 389
#
# _framework density 22.463177000000002
#
# number of rings (size 3 to 8) (size 9 to 14) (size 15 to 20)
#    0.000    1.714    2.857    1.714    4.000    0.571 
#    2.571    1.429    0.000    0.000    0.000    0.000 
#    0.000    0.000    0.000    0.000    0.000    0.000 
#
# Total GULP energy -78174.039426 kJ/mol
# GULP energy per Si atom -5583.859959 kJ/mol
# Density = 2.241205 g / cm^3
# Si number density = 22.463177 Si / 1000 Ang^3
#
#
#
# Elastic Constant Matrix: (Units=GPa)
#
#
# Indices 1 2 3 4 5 6 
#
# 1 191.6561 56.0979 51.9563 -21.3865 -21.8578 -4.8104
# 2 56.0979 94.0237 22.1905 -19.2420 -12.2442 -7.2409
# 3 51.9563 22.1905 67.5048 -23.4130 -2.1802 -19.9002
# 4 -21.3865 -19.2420 -23.4130 41.6112 -3.3587 9.2520
# 5 -21.8578 -12.2442 -2.1802 -3.3587 29.6039 -3.6598
# 6 -4.8104 -7.2409 -19.9002 9.2520 -3.6598 45.6541
#
#
#
# Elastic Compliance Matrix: (Units=1/GPa)
#
#
# Indices 1 2 3 4 5 6 
#
# 1 0.008053 -0.003038 -0.005449 0.000391 0.004115 -0.001758
# 2 -0.003038 0.014150 -0.000073 0.005018 0.004324 0.001222
# 3 -0.005449 -0.000073 0.024653 0.009181 -0.000172 0.008286
# 4 0.000391 0.005018 0.009181 0.032522 0.006579 -0.001224
# 5 0.004115 0.004324 -0.000172 0.006579 0.039698 0.002894
# 6 -0.001758 0.001222 0.008286 -0.001224 0.002894 0.026004
#
#
# Mechanical properties :
#
#
# Convention : Reuss Voigt Hill
#
# Bulk Modulus (GPa) = 33.62936 68.18601 50.90768
# Shear Modulus (GPa) = 29.05093 38.23650 33.64371
#
# Velocity S-wave (km/s) = 3.60011 4.13023 3.87425
# Velocity P-wave (km/s) = 5.68194 7.29147 6.53643
#
# Compressibility (1/GPa) = 0.02973592
#
# Stress axis : x y z
#
# Youngs Moduli (GPa) = 124.17797 70.67342 40.56298
#
# Poissons Ratio (x) = 0.21471 0.22103
# Poissons Ratio (y) = 0.37727 0.00294
# Poissons Ratio (z) = 0.67666 0.00513
#
# Static dielectric constant tensor:
#      x y z
#    x 1.892740 0.006580 -0.000240 
#    y 0.006580 1.860340 0.020650 
#    z -0.000240 0.020650 1.858220 
# 
# From -- ./inp_files/187988.got.cif
#   From: 2010.05.17/outbox.cif.g08.bks.cpg/sg2_94_cif.got.tgz:187988.got - 2010.06.03 11:33:40.
