data_PCOD9008508
_publ_section_title
;
Structure prediction by ZEFSAII (Michael W. Deem and Ramdas Pophale) SiO2 
 PCOD9008508
Probable space group: P -1
;
_chemical_formula_sum "Si O2"
_cell_formula_units_Z 11
_cell_length_a 15.464227
_cell_length_b 8.491254
_cell_length_c 6.154237
_cell_angle_alpha 57.191976
_cell_angle_beta 51.865348
_cell_angle_gamma 48.490791
_cell_volume 463.780045
_symmetry_space_group_name_H-M "P -1"
_symmetry_group_IT_number 2
_symmetry_cell_setting 'triclinic'
loop_
_space_group_symop_operation_xyz
x,y,z
-x,-y,-z
loop_
_atom_site_type_symbol
_atom_site_label
_atom_site_fract_x
_atom_site_fract_y
_atom_site_fract_z
Si Si1 0.097741 0.781016 0.385903
Si Si2 0.436559 0.340926 0.875508
Si Si3 0.310291 0.695937 0.446910
Si Si4 0.165439 0.031707 0.759782
Si Si5 0.596548 0.965149 0.562907
Si Si6 0.000000 0.500000 0.500000
O O1 0.225222 0.668805 0.419203
O O2 0.047549 0.619939 0.519839
O O3 0.000000 0.000000 0.500000
O O4 0.123842 0.878855 0.054757
O O5 0.344655 0.542926 0.720714
O O6 0.549923 0.356971 0.807557
O O7 0.517592 0.154804 0.714213
O O8 0.365600 0.255890 0.203488
O O9 0.225800 0.935253 0.500826
O O10 0.283177 0.022532 0.713720
O O11 0.060211 0.277287 0.715781
O O12 0.500000 0.000000 0.500000
#
# Coordination Sequence:
#
# PCOD9008508 Si02
#       6
#     2   2   2   2   2   1
#     4  12  27  49  71 100 140 185 238 291 350 403
#     4   9  21  39  68 100 140 179 223 276 348 419
#     4  10  22  45  68 100 143 182 223 292 342 409
#     4  11  26  45  69 103 141 177 240 288 340 424
#     4  10  21  39  65 105 137 178 229 277 346 420
#     4  12  28  48  72 102 134 188 240 294 340 414
#
# _framework density 23.718139999999998
#
# number of rings (size 3 to 8) (size 9 to 14) (size 15 to 20)
#    0.000    1.455    1.818    1.636    5.091    0.727 
#    0.000    5.455    0.000    0.000    0.000    0.000 
#    0.000    0.000    0.000    0.000    0.000    0.000 
#
# Total GULP energy -61249.988113 kJ/mol
# GULP energy per Si atom -5568.180738 kJ/mol
# Density = 2.366416 g / cm^3
# Si number density = 23.718140 Si / 1000 Ang^3
#
#
#
# Elastic Constant Matrix: (Units=GPa)
#
#
# Indices 1 2 3 4 5 6 
#
# 1 191.6396 46.9282 3.5410 -6.0073 10.3032 21.1487
# 2 46.9282 106.2564 38.6308 -18.7554 -9.8581 13.5910
# 3 3.5410 38.6308 47.4482 -10.1486 -14.4053 10.9167
# 4 -6.0073 -18.7554 -10.1486 37.2417 3.3964 1.3200
# 5 10.3032 -9.8581 -14.4053 3.3964 22.9931 -11.3161
# 6 21.1487 13.5910 10.9167 1.3200 -11.3161 33.8978
#
#
#
# Elastic Compliance Matrix: (Units=1/GPa)
#
#
# Indices 1 2 3 4 5 6 
#
# 1 0.007052 -0.003537 0.001863 0.000655 -0.006439 -0.005757
# 2 -0.003537 0.016090 -0.011708 0.004341 0.000229 -0.000566
# 3 0.001863 -0.011708 0.036410 0.003091 0.014847 -0.003358
# 4 0.000655 0.004341 0.003091 0.030526 -0.003754 -0.005587
# 5 -0.006439 0.000229 0.014847 -0.003754 0.066987 0.021653
# 6 -0.005757 -0.000566 -0.003358 -0.005587 0.021653 0.041846
#
#
# Mechanical properties :
#
#
# Convention : Reuss Voigt Hill
#
# Bulk Modulus (GPa) = 30.49838 58.17158 44.33498
# Shear Modulus (GPa) = 21.13231 35.90946 28.52088
#
# Velocity S-wave (km/s) = 2.98816 3.89525 3.47146
# Velocity P-wave (km/s) = 4.97916 6.69403 5.89924
#
# Compressibility (1/GPa) = 0.03278862
#
# Stress axis : x y z
#
# Youngs Moduli (GPa) = 141.80537 62.15069 27.46499
#
# Poissons Ratio (x) = 0.21985 -0.05118
# Poissons Ratio (y) = 0.50163 0.32155
# Poissons Ratio (z) = -0.26425 0.72764
#
# Static dielectric constant tensor:
#      x y z
#    x 1.976260 -0.016820 -0.047130 
#    y -0.016820 1.950560 0.030190 
#    z -0.047130 0.030190 1.892320 
# 
# From -- ./inp_files/21247.got.cif
#   From: 2010.05.17/outbox.cif.g08.bks.cpg/sg2_11_cif.got.tgz:21247.got - 2010.06.03 11:33:40.
