data_PCOD9008984
_publ_section_title
;
Structure prediction by ZEFSAII (Michael W. Deem and Ramdas Pophale) SiO2 
 PCOD9008984
Probable space group: P -1
;
_chemical_formula_sum "Si O2"
_cell_formula_units_Z 14
_cell_length_a 14.099546
_cell_length_b 11.043004
_cell_length_c 6.379067
_cell_angle_alpha 65.352170
_cell_angle_beta 104.845270
_cell_angle_gamma 140.617357
_cell_volume 569.003203
_symmetry_space_group_name_H-M "P -1"
_symmetry_group_IT_number 2
_symmetry_cell_setting 'triclinic'
loop_
_space_group_symop_operation_xyz
x,y,z
-x,-y,-z
loop_
_atom_site_type_symbol
_atom_site_label
_atom_site_fract_x
_atom_site_fract_y
_atom_site_fract_z
Si Si1 0.795484 0.544084 0.891742
Si Si2 0.349740 0.831836 0.176849
Si Si3 0.170876 0.162478 0.058683
Si Si4 0.393292 0.308321 0.738413
Si Si5 0.518557 0.212160 0.209061
Si Si6 0.282612 0.048667 0.476572
Si Si7 0.897572 0.267221 0.114106
O O1 0.784818 0.689443 0.837007
O O2 0.695127 0.377281 0.145258
O O3 0.725329 0.389189 0.763491
O O4 0.975196 0.710825 0.873331
O O5 0.420981 0.975880 0.314035
O O6 0.229945 0.821445 0.055181
O O7 0.500000 0.000000 0.000000
O O8 0.292982 0.296902 0.843097
O O9 0.199496 0.047948 0.256266
O O10 0.000000 0.000000 0.000000
O O11 0.500000 0.500000 0.500000
O O12 0.282561 0.118105 0.653849
O O13 0.472743 0.276824 0.954701
O O14 0.454404 0.206155 0.391856
O O15 0.181590 0.820141 0.641377
O O16 0.000000 0.500000 0.000000
#
# Coordination Sequence:
#
# PCOD9008984 Si02
#       7
#     2   2   2   2   2   2   2
#     4  10  21  39  66  95 135 170 218 273 326 395
#     4   9  19  40  69  90 127 175 214 273 330 388
#     4  11  25  41  65  98 138 178 220 270 339 393
#     4  11  22  38  66  94 131 174 223 273 328 392
#     4  10  21  40  67  97 130 173 224 271 333 393
#     4  11  23  41  69  95 134 176 223 277 327 398
#     4  10  21  41  68  92 131 175 215 276 332 383
#
# _framework density 24.604433
#
# number of rings (size 3 to 8) (size 9 to 14) (size 15 to 20)
#    0.000    1.714    1.429    2.571    2.000    5.714 
#    0.000    9.286   12.571    0.000    0.000    0.000 
#    0.000    0.000    0.000    0.000    0.000    0.000 
#
# Total GULP energy -77944.705964 kJ/mol
# GULP energy per Si atom -5567.478997 kJ/mol
# Density = 2.454843 g / cm^3
# Si number density = 24.604433 Si / 1000 Ang^3
#
#
#
# Elastic Constant Matrix: (Units=GPa)
#
#
# Indices 1 2 3 4 5 6 
#
# 1 96.3032 32.3440 41.4858 4.4854 -21.2236 17.9607
# 2 32.3440 109.0564 35.9068 -11.2633 7.3290 21.1256
# 3 41.4858 35.9068 108.6087 -17.8641 -6.1077 14.6605
# 4 4.4854 -11.2633 -17.8641 33.2497 9.7477 -4.1840
# 5 -21.2236 7.3290 -6.1077 9.7477 24.6167 -4.4626
# 6 17.9607 21.1256 14.6605 -4.1840 -4.4626 53.5069
#
#
#
# Elastic Compliance Matrix: (Units=1/GPa)
#
#
# Indices 1 2 3 4 5 6 
#
# 1 0.023639 -0.007904 -0.007622 -0.018334 0.027769 -0.001844
# 2 -0.007904 0.014442 -0.000558 0.009851 -0.015777 -0.003441
# 3 -0.007622 -0.000558 0.013681 0.010200 -0.007190 -0.000772
# 4 -0.018334 0.009851 0.010200 0.052215 -0.036797 0.000484
# 5 0.027769 -0.015777 -0.007190 -0.036797 0.082572 0.002887
# 6 -0.001844 -0.003441 -0.000772 0.000484 0.002887 0.021157
#
#
# Mechanical properties :
#
#
# Convention : Reuss Voigt Hill
#
# Bulk Modulus (GPa) = 51.03419 59.27127 55.15273
# Shear Modulus (GPa) = 20.29185 35.89010 28.09098
#
# Velocity S-wave (km/s) = 2.87492 3.82342 3.38258
# Velocity P-wave (km/s) = 5.63978 6.60555 6.14168
#
# Compressibility (1/GPa) = 0.01959471
#
# Stress axis : x y z
#
# Youngs Moduli (GPa) = 42.30232 69.24339 73.09602
#
# Poissons Ratio (x) = 0.54731 0.55711
# Poissons Ratio (y) = 0.33436 0.04077
# Poissons Ratio (z) = 0.32241 0.03862
#
# Static dielectric constant tensor:
#      x y z
#    x 2.831930 0.547420 -0.291830 
#    y 0.547420 2.745370 -0.311380 
#    z -0.291830 -0.311380 2.141850 
# 
# From -- ./inp_files/94659.got.cif
#   From: 2010.05.17/outbox.cif.g08.bks.cpg/sg2_48_cif.got.tgz:94659.got - 2010.06.03 11:33:40.
