data_PCOD9008597
_publ_section_title
;
Structure prediction by ZEFSAII (Michael W. Deem and Ramdas Pophale) SiO2 
 PCOD9008597
Probable space group: P -1
;
_chemical_formula_sum "Si O2"
_cell_formula_units_Z 13
_cell_length_a 7.891196
_cell_length_b 16.191770
_cell_length_c 13.670282
_cell_angle_alpha 156.555841
_cell_angle_beta 123.345469
_cell_angle_gamma 47.040302
_cell_volume 491.156936
_symmetry_space_group_name_H-M "P -1"
_symmetry_group_IT_number 2
_symmetry_cell_setting 'triclinic'
loop_
_space_group_symop_operation_xyz
x,y,z
-x,-y,-z
loop_
_atom_site_type_symbol
_atom_site_label
_atom_site_fract_x
_atom_site_fract_y
_atom_site_fract_z
Si Si1 0.270478 0.235498 0.545702
Si Si2 0.957233 0.341674 0.206305
Si Si3 0.025238 0.010565 0.339830
Si Si4 0.525245 0.409187 0.556201
Si Si5 0.212139 0.588605 0.063716
Si Si6 0.328540 0.291727 0.971346
Si Si7 0.500000 0.000000 0.000000
O O1 0.088738 0.417970 0.604441
O O2 0.341845 0.397630 0.808253
O O3 0.141896 0.156641 0.497303
O O4 0.480228 0.991251 0.296552
O O5 0.739330 0.439213 0.317603
O O6 0.933648 0.177392 0.937496
O O7 0.226973 0.170219 0.141622
O O8 0.159337 0.853647 0.306615
O O9 0.738739 0.188505 0.450922
O O10 0.607346 0.606147 0.802086
O O11 0.533514 0.241285 0.288247
O O12 0.936965 0.653525 0.045737
O O13 0.329153 0.444553 0.043531
#
# Coordination Sequence:
#
# PCOD9008597 Si02
#       7
#     2   2   2   2   2   2   1
#     4  11  21  41  63  94 131 172 207 260 313 379
#     4  10  22  42  67  91 128 164 208 266 324 379
#     4  10  21  39  65  91 132 171 213 255 311 369
#     4  11  21  42  67  92 127 166 209 267 321 378
#     4  10  23  40  59  97 135 173 212 257 300 377
#     4  11  22  39  64  94 133 173 214 254 317 372
#     4  10  24  44  70  96 122 160 216 274 322 386
#
# _framework density 26.468116999999999
#
# number of rings (size 3 to 8) (size 9 to 14) (size 15 to 20)
#    0.000    1.538    3.077    1.846    0.000    1.231 
#    2.769    3.846    0.000    0.000    0.000    0.000 
#    0.000    0.000    0.000    0.000    0.000    0.000 
#
# Total GULP energy -72480.675383 kJ/mol
# GULP energy per Si atom -5575.436568 kJ/mol
# Density = 2.640787 g / cm^3
# Si number density = 26.468117 Si / 1000 Ang^3
#
#
#
# Elastic Constant Matrix: (Units=GPa)
#
#
# Indices 1 2 3 4 5 6 
#
# 1 60.1476 29.3069 11.3692 31.2740 -19.3219 -25.9465
# 2 29.3069 77.2576 42.2797 23.2241 -25.7160 -19.4464
# 3 11.3692 42.2797 187.1471 6.5103 -40.0912 -9.2361
# 4 31.2740 23.2241 6.5103 49.9198 -12.6027 -12.3512
# 5 -19.3219 -25.7160 -40.0912 -12.6027 47.9937 13.2531
# 6 -25.9465 -19.4464 -9.2361 -12.3512 13.2531 38.5172
#
#
#
# Elastic Compliance Matrix: (Units=1/GPa)
#
#
# Indices 1 2 3 4 5 6 
#
# 1 0.033740 -0.003682 0.000983 -0.014756 0.004459 0.014839
# 2 -0.003682 0.019709 -0.002943 -0.004419 0.004401 0.003833
# 3 0.000983 -0.002943 0.006969 0.000978 0.005057 -0.000579
# 4 -0.014756 -0.004419 0.000978 0.030924 0.001311 -0.002471
# 5 0.004459 0.004401 0.005057 0.001311 0.030569 -0.003659
# 6 0.014839 0.003833 -0.000579 -0.002471 -0.003659 0.038222
#
#
# Mechanical properties :
#
#
# Convention : Reuss Voigt Hill
#
# Bulk Modulus (GPa) = 20.35223 54.49597 37.42410
# Shear Modulus (GPa) = 26.62464 43.39259 35.00861
#
# Velocity S-wave (km/s) = 3.17505 4.05338 3.64080
# Velocity P-wave (km/s) = 4.59862 6.52231 5.64304
#
# Compressibility (1/GPa) = 0.04913466
#
# Stress axis : x y z
#
# Youngs Moduli (GPa) = 29.63834 50.73744 143.48453
#
# Poissons Ratio (x) = 0.18680 -0.14105
# Poissons Ratio (y) = 0.10912 0.42233
# Poissons Ratio (z) = -0.02914 0.14934
#
# Static dielectric constant tensor:
#      x y z
#    x 2.138530 0.032870 0.075130 
#    y 0.032870 2.097900 -0.025410 
#    z 0.075130 -0.025410 2.103040 
# 
# From -- ./inp_files/33099.got.cif
#   From: 2010.05.17/outbox.cif.g08.bks.cpg/sg2_17_cif.got.tgz:33099.got - 2010.06.03 11:33:40.
