data_PCOD9008885
_publ_section_title
;
Structure prediction by ZEFSAII (Michael W. Deem and Ramdas Pophale) SiO2 
 PCOD9008885
Probable space group: P -1
;
_chemical_formula_sum "Si O2"
_cell_formula_units_Z 16
_cell_length_a 14.865817
_cell_length_b 10.965657
_cell_length_c 9.012859
_cell_angle_alpha 41.072404
_cell_angle_beta 93.696055
_cell_angle_gamma 63.672244
_cell_volume 636.538525
_symmetry_space_group_name_H-M "P -1"
_symmetry_group_IT_number 2
_symmetry_cell_setting 'triclinic'
loop_
_space_group_symop_operation_xyz
x,y,z
-x,-y,-z
loop_
_atom_site_type_symbol
_atom_site_label
_atom_site_fract_x
_atom_site_fract_y
_atom_site_fract_z
Si Si1 0.182843 0.389719 0.052544
Si Si2 0.914153 0.864148 0.733765
Si Si3 0.792161 0.303610 0.774958
Si Si4 0.988449 0.323660 0.746174
Si Si5 0.489825 0.227406 0.839036
Si Si6 0.632950 0.039972 0.754619
Si Si7 0.364018 0.393737 0.237026
Si Si8 0.633007 0.422658 0.224712
O O1 0.040240 0.709539 0.780364
O O2 0.155620 0.218520 0.258449
O O3 0.302727 0.308166 0.228599
O O4 0.238706 0.279892 0.991056
O O5 0.798588 0.199466 0.437955
O O6 0.973061 0.722701 0.032658
O O7 0.846931 0.427126 0.634312
O O8 0.655163 0.481134 0.506489
O O9 0.752492 0.352935 0.897614
O O10 0.903841 0.982743 0.035661
O O11 0.000000 0.500000 0.500000
O O12 0.612145 0.120483 0.850953
O O13 0.472459 0.295947 0.946174
O O14 0.500000 0.000000 0.000000
O O15 0.495705 0.157156 0.569174
O O16 0.634573 0.226021 0.490754
O O17 0.402910 0.484881 0.033863
#
# Coordination Sequence:
#
# PCOD9008885 Si02
#       8
#     2   2   2   2   2   2   2   2
#     4  10  21  39  66  90 130 168 219 275 340 393
#     4  10  22  42  63  98 133 169 227 290 326 408
#     4  10  24  45  66 103 140 169 238 284 329 420
#     4  11  23  44  71  95 136 186 225 282 347 401
#     4  11  23  43  68  96 133 184 223 278 343 396
#     4  10  23  41  63  95 137 171 226 281 327 414
#     4  11  22  41  65  96 134 178 213 283 344 396
#     4  11  23  41  66  95 134 177 226 274 344 399
#
# _framework density 25.135950999999999
#
# number of rings (size 3 to 8) (size 9 to 14) (size 15 to 20)
#    0.000    1.500    2.500    1.875    0.000    7.500 
#    4.500    0.000    0.000    0.000    0.000    0.000 
#    0.000    0.000    0.000    0.000    0.000    0.000 
#
# Total GULP energy -89412.664899 kJ/mol
# GULP energy per Si atom -5588.291556 kJ/mol
# Density = 2.507874 g / cm^3
# Si number density = 25.135951 Si / 1000 Ang^3
#
#
#
# Elastic Constant Matrix: (Units=GPa)
#
#
# Indices 1 2 3 4 5 6 
#
# 1 94.3258 32.5209 9.2056 -6.9539 -18.0326 -9.2556
# 2 32.5209 196.4290 43.5787 -19.1571 -5.0007 -42.8625
# 3 9.2056 43.5787 65.7133 -0.4277 -19.2101 -12.0768
# 4 -6.9539 -19.1571 -0.4277 41.9966 -7.8598 1.3584
# 5 -18.0326 -5.0007 -19.2101 -7.8598 36.1321 -2.4441
# 6 -9.2556 -42.8625 -12.0768 1.3584 -2.4441 41.6173
#
#
#
# Elastic Compliance Matrix: (Units=1/GPa)
#
#
# Indices 1 2 3 4 5 6 
#
# 1 0.012937 -0.001641 0.002058 0.002859 0.008092 0.002166
# 2 -0.001641 0.007950 -0.004061 0.002954 -0.000795 0.006501
# 3 0.002058 -0.004061 0.021910 0.000952 0.012547 0.003339
# 4 0.002859 0.002954 0.000952 0.027114 0.008481 0.003568
# 5 0.008092 -0.000795 0.012547 0.008481 0.040575 0.006728
# 6 0.002166 0.006501 0.003339 0.003568 0.006728 0.032454
#
#
# Mechanical properties :
#
#
# Convention : Reuss Voigt Hill
#
# Bulk Modulus (GPa) = 28.16122 58.56429 43.36275
# Shear Modulus (GPa) = 30.85218 42.02675 36.43947
#
# Velocity S-wave (km/s) = 3.50725 4.09342 3.81162
# Velocity P-wave (km/s) = 5.25632 6.75951 6.05475
#
# Compressibility (1/GPa) = 0.03550983
#
# Stress axis : x y z
#
# Youngs Moduli (GPa) = 77.29940 125.78615 45.64149
#
# Poissons Ratio (x) = 0.20640 -0.09394
# Poissons Ratio (y) = 0.12684 0.18533
# Poissons Ratio (z) = -0.15910 0.51077
#
# Static dielectric constant tensor:
#      x y z
#    x 2.100700 -0.025590 -0.013530 
#    y -0.025590 2.063730 -0.020600 
#    z -0.013530 -0.020600 1.962540 
# 
# From -- ./inp_files/332728.got.cif
#   From: 2010.05.17/outbox.cif.g08.bks.cpg/sg2_167_cif.got.tgz:332728.got - 2010.06.03 11:33:40.
