data_PCOD9008492
_publ_section_title
;
Structure prediction by ZEFSAII (Michael W. Deem and Ramdas Pophale) SiO2 
 PCOD9008492
Probable space group: P -1
;
_chemical_formula_sum "Si O2"
_cell_formula_units_Z 12
_cell_length_a 7.209181
_cell_length_b 12.112657
_cell_length_c 8.273900
_cell_angle_alpha 124.686502
_cell_angle_beta 125.390780
_cell_angle_gamma 76.970692
_cell_volume 478.437201
_symmetry_space_group_name_H-M "P -1"
_symmetry_group_IT_number 2
_symmetry_cell_setting 'triclinic'
loop_
_space_group_symop_operation_xyz
x,y,z
-x,-y,-z
loop_
_atom_site_type_symbol
_atom_site_label
_atom_site_fract_x
_atom_site_fract_y
_atom_site_fract_z
Si Si1 0.467197 0.104303 0.389225
Si Si2 0.097041 0.085053 0.462305
Si Si3 0.038068 0.707989 0.229377
Si Si4 0.722807 0.435327 0.509094
Si Si5 0.880768 0.716746 0.800324
Si Si6 0.286910 0.848431 0.909831
O O1 0.314734 0.069889 0.446990
O O2 0.720983 0.190312 0.601934
O O3 0.314104 0.200231 0.293051
O O4 0.474708 0.968280 0.173040
O O5 0.126949 0.236168 0.675752
O O6 0.879489 0.078839 0.227941
O O7 0.000000 0.000000 0.500000
O O8 0.132582 0.589986 0.278406
O O9 0.899494 0.700232 0.987407
O O10 0.500000 0.500000 0.500000
O O11 0.665778 0.289017 0.269757
O O12 0.851640 0.565430 0.585579
O O13 0.123793 0.796625 0.933335
#
# Coordination Sequence:
#
# PCOD9008492 Si02
#       6
#     2   2   2   2   2   2
#     4  11  23  45  69 102 139 171 221 279 342 396
#     4  10  21  39  65 101 136 170 219 272 333 401
#     4  11  24  43  71 102 134 177 224 277 336 396
#     4  11  23  45  68  96 133 182 227 270 333 398
#     4  11  22  45  72  95 138 177 225 276 332 403
#     4  10  23  41  69  97 134 179 216 282 336 390
#
# _framework density 25.081658999999998
#
# number of rings (size 3 to 8) (size 9 to 14) (size 15 to 20)
#    0.000    1.333    1.667    5.000    0.000    5.333 
#    9.000    2.500    3.667    0.000    0.000    0.000 
#    0.000    0.000    0.000    0.000    0.000    0.000 
#
# Total GULP energy -67050.981535 kJ/mol
# GULP energy per Si atom -5587.581795 kJ/mol
# Density = 2.502457 g / cm^3
# Si number density = 25.081659 Si / 1000 Ang^3
#
#
#
# Elastic Constant Matrix: (Units=GPa)
#
#
# Indices 1 2 3 4 5 6 
#
# 1 106.1832 36.7315 39.7526 17.9724 -9.5472 -25.8653
# 2 36.7315 147.3276 50.9874 2.1912 -9.5458 -9.4412
# 3 39.7526 50.9874 121.2346 0.3795 -9.7470 -14.7985
# 4 17.9724 2.1912 0.3795 34.3833 16.2899 6.5654
# 5 -9.5472 -9.5458 -9.7470 16.2899 35.4968 1.9513
# 6 -25.8653 -9.4412 -14.7985 6.5654 1.9513 47.1988
#
#
#
# Elastic Compliance Matrix: (Units=1/GPa)
#
#
# Indices 1 2 3 4 5 6 
#
# 1 0.016872 -0.001769 -0.002773 -0.015133 0.009711 0.009726
# 2 -0.001769 0.008260 -0.002847 0.000019 0.000969 -0.000253
# 3 -0.002773 -0.002847 0.010556 0.000871 0.000929 0.001061
# 4 -0.015133 0.000019 0.000871 0.052568 -0.027169 -0.014205
# 5 0.009711 0.000969 0.000929 -0.027169 0.043339 0.007794
# 6 0.009726 -0.000253 0.001061 -0.014205 0.007794 0.028453
#
#
# Mechanical properties :
#
#
# Convention : Reuss Voigt Hill
#
# Bulk Modulus (GPa) = 47.82266 69.96537 58.89401
# Shear Modulus (GPa) = 27.50341 39.90070 33.70206
#
# Velocity S-wave (km/s) = 3.31502 3.99285 3.66962
# Velocity P-wave (km/s) = 5.81039 7.01518 6.44102
#
# Compressibility (1/GPa) = 0.02091059
#
# Stress axis : x y z
#
# Youngs Moduli (GPa) = 59.27139 121.06155 94.72876
#
# Poissons Ratio (x) = 0.21419 0.26266
# Poissons Ratio (y) = 0.10487 0.26968
# Poissons Ratio (z) = 0.16434 0.34464
#
# Static dielectric constant tensor:
#      x y z
#    x 2.030250 0.005750 0.009870 
#    y 0.005750 2.111720 0.068790 
#    z 0.009870 0.068790 2.045970 
# 
# From -- ./inp_files/183452.got.cif
#   From: 2010.05.17/outbox.cif.g08.bks.cpg/sg2_92_cif.got.tgz:183452.got - 2010.06.03 11:33:40.
