data_PCOD9008622
_publ_section_title
;
Structure prediction by ZEFSAII (Michael W. Deem and Ramdas Pophale) SiO2 
 PCOD9008622
Probable space group: P -1
;
_chemical_formula_sum "Si O2"
_cell_formula_units_Z 16
_cell_length_a 13.833927
_cell_length_b 12.086098
_cell_length_c 13.428951
_cell_angle_alpha 44.804069
_cell_angle_beta 33.969665
_cell_angle_gamma 31.052460
_cell_volume 647.131055
_symmetry_space_group_name_H-M "P -1"
_symmetry_group_IT_number 2
_symmetry_cell_setting 'triclinic'
loop_
_space_group_symop_operation_xyz
x,y,z
-x,-y,-z
loop_
_atom_site_type_symbol
_atom_site_label
_atom_site_fract_x
_atom_site_fract_y
_atom_site_fract_z
Si Si1 0.287383 0.704397 0.484687
Si Si2 0.492019 0.846951 0.873237
Si Si3 0.493631 0.208447 0.883639
Si Si4 0.018800 0.364504 0.159406
Si Si5 0.981321 0.424254 0.667947
Si Si6 0.226538 0.776446 0.997635
Si Si7 0.363362 0.242882 0.619432
Si Si8 0.462789 0.560982 0.729559
O O1 0.500000 0.500000 0.500000
O O2 0.356689 0.840627 0.312533
O O3 0.066776 0.763832 0.689667
O O4 0.289692 0.641528 0.406343
O O5 0.770617 0.638414 0.771465
O O6 0.454734 0.038755 0.733068
O O7 0.395983 0.879600 0.045299
O O8 0.359812 0.806516 0.940014
O O9 0.340275 0.473096 0.856807
O O10 0.293692 0.200847 0.053048
O O11 0.837177 0.551930 0.273317
O O12 0.000000 0.500000 0.000000
O O13 0.883195 0.311214 0.805587
O O14 0.000000 0.500000 0.500000
O O15 0.225631 0.276372 0.615072
O O16 0.406482 0.617340 0.856584
O O17 0.000000 0.000000 0.000000
O O18 0.562956 0.249915 0.417355
#
# Coordination Sequence:
#
# PCOD9008622 Si02
#       8
#     2   2   2   2   2   2   2   2
#     4   9  18  35  65  98 121 165 215 262 321 385
#     4  12  25  41  64  89 134 168 212 272 324 381
#     4  10  21  39  65  92 127 166 214 263 326 385
#     4  11  19  38  71  93 126 171 212 263 330 386
#     4  12  25  40  63  91 126 167 220 263 320 384
#     4  12  24  41  61  92 129 175 216 262 324 384
#     4  11  24  42  62  98 125 169 217 268 325 388
#     4   9  21  39  61  89 128 162 218 259 316 388
#
# _framework density 24.724513000000002
#
# number of rings (size 3 to 8) (size 9 to 14) (size 15 to 20)
#    0.750    0.500    5.000    1.125    3.500    1.000 
#    0.000    0.625    0.000    0.750    0.000    0.000 
#    0.000    0.000    0.000    0.000    0.000    0.000 
#
# Total GULP energy -89211.178009 kJ/mol
# GULP energy per Si atom -5575.698626 kJ/mol
# Density = 2.466824 g / cm^3
# Si number density = 24.724513 Si / 1000 Ang^3
#
#
#
# Elastic Constant Matrix: (Units=GPa)
#
#
# Indices 1 2 3 4 5 6 
#
# 1 89.2721 3.8922 39.1856 5.6649 6.0915 -4.8232
# 2 3.8922 75.4222 23.8212 -11.2449 -5.6201 -21.7047
# 3 39.1856 23.8212 215.1642 -35.7039 4.3109 -10.1768
# 4 5.6649 -11.2449 -35.7039 44.5343 -4.2515 6.1086
# 5 6.0915 -5.6201 4.3109 -4.2515 38.2780 -3.9453
# 6 -4.8232 -21.7047 -10.1768 6.1086 -3.9453 35.3696
#
#
#
# Elastic Compliance Matrix: (Units=1/GPa)
#
#
# Indices 1 2 3 4 5 6 
#
# 1 0.013024 -0.000165 -0.002991 -0.004484 -0.002119 0.001352
# 2 -0.000165 0.017225 -0.001058 0.002498 0.004009 0.010259
# 3 -0.002991 -0.001058 0.006141 0.005074 0.000178 -0.000146
# 4 -0.004484 0.002498 0.005074 0.028344 0.003438 -0.002131
# 5 -0.002119 0.004009 0.000178 0.003438 0.027901 0.004741
# 6 0.001352 0.010259 -0.000146 -0.002131 0.004741 0.035607
#
#
# Mechanical properties :
#
#
# Convention : Reuss Voigt Hill
#
# Bulk Modulus (GPa) = 35.76206 57.07293 46.41750
# Shear Modulus (GPa) = 34.24890 44.50035 39.37462
#
# Velocity S-wave (km/s) = 3.72589 4.24706 3.99499
# Velocity P-wave (km/s) = 5.74503 6.86904 6.33202
#
# Compressibility (1/GPa) = 0.02796259
#
# Stress axis : x y z
#
# Youngs Moduli (GPa) = 76.78037 58.05625 162.84097
#
# Poissons Ratio (x) = 0.00955 0.48713
# Poissons Ratio (y) = 0.01263 0.17222
# Poissons Ratio (z) = 0.22968 0.06140
#
# Static dielectric constant tensor:
#      x y z
#    x 2.020120 0.049510 -0.076410 
#    y 0.049510 2.124510 -0.021330 
#    z -0.076410 -0.021330 2.099490 
# 
# From -- ./inp_files/533674.got.cif
#   From: 2010.05.17/outbox.cif.g08.bks.cpg/sg2_267_cif.got.tgz:533674.got - 2010.06.03 11:33:40.
