data_PCOD9008418
_publ_section_title
;
Structure prediction by ZEFSAII (Michael W. Deem and Ramdas Pophale) SiO2 
 PCOD9008418
Probable space group: P -1
;
_chemical_formula_sum "Si O2"
_cell_formula_units_Z 16
_cell_length_a 11.211527
_cell_length_b 19.565047
_cell_length_c 6.009699
_cell_angle_alpha 97.475381
_cell_angle_beta 101.547181
_cell_angle_gamma 35.492211
_cell_volume 748.622150
_symmetry_space_group_name_H-M "P -1"
_symmetry_group_IT_number 2
_symmetry_cell_setting 'triclinic'
loop_
_space_group_symop_operation_xyz
x,y,z
-x,-y,-z
loop_
_atom_site_type_symbol
_atom_site_label
_atom_site_fract_x
_atom_site_fract_y
_atom_site_fract_z
Si Si1 0.736175 0.811667 0.441449
Si Si2 0.727148 0.185453 0.510493
Si Si3 0.866331 0.999486 0.176354
Si Si4 0.443777 0.580794 0.200629
Si Si5 0.539036 0.187552 0.813945
Si Si6 0.463558 0.357485 0.108095
Si Si7 0.202659 0.583257 0.360916
Si Si8 0.442066 0.976841 0.768180
O O1 0.594771 0.819876 0.265477
O O2 0.684869 0.913551 0.394093
O O3 0.973086 0.686269 0.419662
O O4 0.649195 0.851208 0.677291
O O5 0.560992 0.217237 0.601569
O O6 0.616692 0.290355 0.351042
O O7 0.903139 0.129582 0.725006
O O8 0.832592 0.085508 0.332840
O O9 0.706797 0.016225 0.214578
O O10 0.774778 0.058001 0.922427
O O11 0.248781 0.634962 0.275863
O O12 0.633095 0.496609 0.409657
O O13 0.500000 0.500000 0.000000
O O14 0.439968 0.650958 0.078682
O O15 0.444949 0.285762 0.997773
O O16 0.263171 0.493127 0.174539
O O17 0.500000 0.000000 0.000000
#
# Coordination Sequence:
#
# PCOD9008418 Si02
#       8
#     2   2   2   2   2   2   2   2
#     4  11  25  41  65  93 129 176 212 261 324 387
#     4  10  21  39  64  96 128 168 214 267 324 382
#     4  10  21  39  65  90 128 170 215 267 323 376
#     4   9  20  41  65  92 129 161 216 268 313 382
#     4  11  21  40  64  94 135 168 211 265 320 392
#     4  10  22  39  66  97 130 166 211 271 322 382
#     4  10  22  43  66  95 131 165 214 265 321 389
#     4  11  23  43  63  91 130 170 219 267 318 384
#
# _framework density 21.372598
#
# number of rings (size 3 to 8) (size 9 to 14) (size 15 to 20)
#    0.000    1.750    2.500    1.125    0.000    6.500 
#    0.000    6.250    0.000    0.000    0.000    0.000 
#    0.000    0.000    0.000    0.000    0.000    0.000 
#
# Total GULP energy -89213.790646 kJ/mol
# GULP energy per Si atom -5575.861915 kJ/mol
# Density = 2.132395 g / cm^3
# Si number density = 21.372598 Si / 1000 Ang^3
#
#
#
# Elastic Constant Matrix: (Units=GPa)
#
#
# Indices 1 2 3 4 5 6 
#
# 1 82.5358 42.7010 37.6948 -1.7177 -8.9320 -8.0374
# 2 42.7010 113.0779 38.5473 25.5469 -0.2719 -8.6901
# 3 37.6948 38.5473 81.6608 2.9450 -7.1966 -4.1398
# 4 -1.7177 25.5469 2.9450 38.6470 11.3796 -4.3786
# 5 -8.9320 -0.2719 -7.1966 11.3796 36.5037 -1.4937
# 6 -8.0374 -8.6901 -4.1398 -4.3786 -1.4937 33.2444
#
#
#
# Elastic Compliance Matrix: (Units=1/GPa)
#
#
# Indices 1 2 3 4 5 6 
#
# 1 0.018282 -0.005902 -0.005511 0.004895 0.001937 0.002923
# 2 -0.005902 0.014616 -0.003693 -0.009872 0.001042 0.000681
# 3 -0.005511 -0.003693 0.016672 0.000390 0.001786 -0.000090
# 4 0.004895 -0.009872 0.000390 0.035820 -0.009846 0.002927
# 5 0.001937 0.001042 0.001786 -0.009846 0.031341 0.001074
# 6 0.002923 0.000681 -0.000090 0.002927 0.001074 0.031387
#
#
# Mechanical properties :
#
#
# Convention : Reuss Voigt Hill
#
# Bulk Modulus (GPa) = 51.65547 57.24007 54.44777
# Shear Modulus (GPa) = 27.05886 32.23445 29.64665
#
# Velocity S-wave (km/s) = 3.56203 3.88779 3.72847
# Velocity P-wave (km/s) = 6.41396 6.85517 6.63823
#
# Compressibility (1/GPa) = 0.01935903
#
# Stress axis : x y z
#
# Youngs Moduli (GPa) = 54.69779 68.41740 59.98250
#
# Poissons Ratio (x) = 0.40378 0.33056
# Poissons Ratio (y) = 0.32281 0.22150
# Poissons Ratio (z) = 0.30144 0.25265
#
# Static dielectric constant tensor:
#      x y z
#    x 1.777570 0.049110 -0.022440 
#    y 0.049110 1.817860 -0.016860 
#    z -0.022440 -0.016860 1.819000 
# 
# From -- ./inp_files/78629.got.cif
#   From: 2010.05.17/outbox.cif.g08.bks.cpg/sg2_40_cif.got.tgz:78629.got - 2010.06.03 11:33:40.
