data_PCOD9008348
_publ_section_title
;
Structure prediction by ZEFSAII (Michael W. Deem and Ramdas Pophale) SiO2 
 PCOD9008348
Probable space group: P -1
;
_chemical_formula_sum "Si O2"
_cell_formula_units_Z 15
_cell_length_a 11.801011
_cell_length_b 11.990313
_cell_length_c 9.142703
_cell_angle_alpha 53.288871
_cell_angle_beta 129.469193
_cell_angle_gamma 93.512474
_cell_volume 686.253040
_symmetry_space_group_name_H-M "P -1"
_symmetry_group_IT_number 2
_symmetry_cell_setting 'triclinic'
loop_
_space_group_symop_operation_xyz
x,y,z
-x,-y,-z
loop_
_atom_site_type_symbol
_atom_site_label
_atom_site_fract_x
_atom_site_fract_y
_atom_site_fract_z
Si Si1 0.000000 0.500000 0.500000
Si Si2 0.116745 0.261599 0.506536
Si Si3 0.774456 0.290264 0.213176
Si Si4 0.600988 0.037213 0.431294
Si Si5 0.645465 0.625176 0.931868
Si Si6 0.377293 0.225924 0.521330
Si Si7 0.726360 0.122084 0.033109
Si Si8 0.047903 0.007476 0.199020
O O1 0.906478 0.646629 0.432649
O O2 0.816412 0.568254 0.209114
O O3 0.220072 0.303492 0.442548
O O4 0.929541 0.307058 0.259591
O O5 0.217116 0.066544 0.761629
O O6 0.723742 0.198083 0.127857
O O7 0.866137 0.170069 0.518472
O O8 0.633115 0.468346 0.007474
O O9 0.512181 0.230254 0.222345
O O10 0.802606 0.951279 0.698585
O O11 0.500000 0.000000 0.500000
O O12 0.579457 0.958488 0.329476
O O13 0.659715 0.692295 0.732171
O O14 0.543657 0.217409 0.731274
O O15 0.876347 0.120289 0.061028
O O16 0.000000 0.000000 0.000000
#
# Coordination Sequence:
#
# PCOD9008348 Si02
#       8
#     1   2   2   2   2   2   2   2
#     4  10  22  38  60  88 130 162 200 266 320 366
#     4  10  21  41  64  93 123 164 213 260 314 369
#     4  10  23  40  60  87 129 167 206 259 313 374
#     4  10  21  39  64  94 124 157 211 265 304 366
#     4  10  23  41  59  93 131 165 207 260 318 370
#     4  11  22  39  69  94 123 168 218 260 304 375
#     4  11  22  41  63  92 126 164 213 260 310 371
#     4  11  22  40  65  91 123 168 210 256 315 375
#
# _framework density 21.857825999999999
#
# number of rings (size 3 to 8) (size 9 to 14) (size 15 to 20)
#    0.000    1.600    0.000    6.000    0.000    9.600 
#    0.000    6.667    0.000    0.000    0.000    0.000 
#    0.000    0.000    0.000    0.000    0.000    0.000 
#
# Total GULP energy -83560.666482 kJ/mol
# GULP energy per Si atom -5570.711099 kJ/mol
# Density = 2.180808 g / cm^3
# Si number density = 21.857826 Si / 1000 Ang^3
#
#
#
# Elastic Constant Matrix: (Units=GPa)
#
#
# Indices 1 2 3 4 5 6 
#
# 1 116.5954 41.1688 33.5079 8.4680 14.7061 -3.5073
# 2 41.1688 184.3489 58.5954 11.9012 -9.6907 -29.3213
# 3 33.5079 58.5954 71.5673 26.7486 12.9189 -6.1891
# 4 8.4680 11.9012 26.7486 30.5826 -0.0625 0.2353
# 5 14.7061 -9.6907 12.9189 -0.0625 26.3707 6.4266
# 6 -3.5073 -29.3213 -6.1891 0.2353 6.4266 29.0068
#
#
#
# Elastic Compliance Matrix: (Units=1/GPa)
#
#
# Indices 1 2 3 4 5 6 
#
# 1 0.010630 -0.001876 -0.002400 -0.000126 -0.005463 0.000088
# 2 -0.001876 0.010306 -0.010863 0.005982 0.008734 0.005889
# 3 -0.002400 -0.010863 0.039313 -0.029557 -0.022556 0.002355
# 4 -0.000126 0.005982 -0.029557 0.056330 0.018034 -0.004727
# 5 -0.005463 0.008734 -0.022556 0.018034 0.057598 -0.009552
# 6 0.000088 0.005889 0.002355 -0.004727 -0.009552 0.043096
#
#
# Mechanical properties :
#
#
# Convention : Reuss Voigt Hill
#
# Bulk Modulus (GPa) = 33.36580 71.00622 52.18601
# Shear Modulus (GPa) = 19.41454 33.14131 26.27793
#
# Velocity S-wave (km/s) = 2.98353 3.89809 3.47107
# Velocity P-wave (km/s) = 5.21217 7.26747 6.32388
#
# Compressibility (1/GPa) = 0.02997081
#
# Stress axis : x y z
#
# Youngs Moduli (GPa) = 94.07636 97.03278 25.43718
#
# Poissons Ratio (x) = 0.18204 0.06105
# Poissons Ratio (y) = 0.17649 0.27632
# Poissons Ratio (z) = 0.22577 1.05404
#
# Static dielectric constant tensor:
#      x y z
#    x 1.913180 0.054900 0.005820 
#    y 0.054900 1.815030 -0.053420 
#    z 0.005820 -0.053420 1.784500 
# 
# From -- ./inp_files/262139.got.cif
#   From: 2010.05.17/outbox.cif.g08.bks.cpg/sg2_132_cif.got.tgz:262139.got - 2010.06.03 11:33:40.
