data_PCOD9008440
_publ_section_title
;
Structure prediction by ZEFSAII (Michael W. Deem and Ramdas Pophale) SiO2 
 PCOD9008440
Probable space group: P -1
;
_chemical_formula_sum "Si O2"
_cell_formula_units_Z 14
_cell_length_a 7.040383
_cell_length_b 11.215148
_cell_length_c 12.029157
_cell_angle_alpha 99.736555
_cell_angle_beta 93.764400
_cell_angle_gamma 39.331989
_cell_volume 590.093722
_symmetry_space_group_name_H-M "P -1"
_symmetry_group_IT_number 2
_symmetry_cell_setting 'triclinic'
loop_
_space_group_symop_operation_xyz
x,y,z
-x,-y,-z
loop_
_atom_site_type_symbol
_atom_site_label
_atom_site_fract_x
_atom_site_fract_y
_atom_site_fract_z
Si Si1 0.315565 0.838033 0.733492
Si Si2 0.608455 0.563853 0.086861
Si Si3 0.344439 0.884449 0.982792
Si Si4 0.092485 0.187152 0.183629
Si Si5 0.752208 0.872582 0.581646
Si Si6 0.740748 0.161388 0.667089
Si Si7 0.654681 0.553747 0.507628
O O1 0.569673 0.666807 0.633142
O O2 0.149084 0.796740 0.774100
O O3 0.398830 0.867451 0.852395
O O4 0.086136 0.031622 0.679848
O O5 0.596737 0.673276 0.011189
O O6 0.400663 0.726195 0.202457
O O7 0.899465 0.377825 0.136430
O O8 0.500000 0.500000 0.000000
O O9 0.316633 0.013241 0.079706
O O10 0.000000 0.000000 0.000000
O O11 0.271131 0.144313 0.291301
O O12 0.816336 0.985066 0.611003
O O13 0.500000 0.000000 0.500000
O O14 0.997984 0.652797 0.518841
O O15 0.506918 0.314781 0.587685
O O16 0.500000 0.500000 0.500000
#
# Coordination Sequence:
#
# PCOD9008440 Si02
#       7
#     2   2   2   2   2   2   2
#     4  10  18  32  51  82 115 142 176 229 289 335
#     4  12  17  27  53  82 115 145 176 231 293 332
#     4  10  17  29  47  79 114 138 179 226 283 332
#     4  10  18  34  49  81 113 142 186 233 272 329
#     4  11  24  40  57  80 116 159 195 231 276 333
#     4  11  21  35  55  86 116 150 187 236 282 338
#     4  12  22  37  57  83 119 147 188 237 289 338
#
# _framework density 23.725045000000001
#
# number of rings (size 3 to 8) (size 9 to 14) (size 15 to 20)
#    0.000    1.143   11.429    0.429    0.000    0.571 
#    0.000    0.000    0.000    0.857    0.000    2.000 
#    0.000    0.000    0.000    0.000    0.000    0.000 
#
# Total GULP energy -78029.597950 kJ/mol
# GULP energy per Si atom -5573.542711 kJ/mol
# Density = 2.367105 g / cm^3
# Si number density = 23.725045 Si / 1000 Ang^3
#
#
#
# Elastic Constant Matrix: (Units=GPa)
#
#
# Indices 1 2 3 4 5 6 
#
# 1 36.2404 15.3962 30.6445 -1.7557 -0.9106 -2.4555
# 2 15.3962 205.5818 110.5092 -28.3328 2.5397 13.2724
# 3 30.6445 110.5092 260.9401 2.4754 18.7381 -16.0556
# 4 -1.7557 -28.3328 2.4754 62.9215 7.3099 5.0535
# 5 -0.9106 2.5397 18.7381 7.3099 33.8753 -0.1161
# 6 -2.4555 13.2724 -16.0556 5.0535 -0.1161 13.9890
#
#
#
# Elastic Compliance Matrix: (Units=1/GPa)
#
#
# Indices 1 2 3 4 5 6 
#
# 1 0.030990 -0.000570 -0.003481 0.000272 0.002749 0.001910
# 2 -0.000570 0.009579 -0.005161 0.005787 0.000814 -0.017196
# 3 -0.003481 -0.005161 0.007555 -0.003500 -0.003082 0.014196
# 4 0.000272 0.005787 -0.003500 0.020337 -0.002936 -0.016831
# 5 0.002749 0.000814 -0.003082 -0.002936 0.031863 -0.002501
# 6 0.001910 -0.017196 0.014196 -0.016831 -0.002501 0.110487
#
#
# Mechanical properties :
#
#
# Convention : Reuss Voigt Hill
#
# Bulk Modulus (GPa) = 33.66870 90.65133 62.16002
# Shear Modulus (GPa) = 20.90877 45.23799 33.07338
#
# Velocity S-wave (km/s) = 2.97188 4.37138 3.73772
# Velocity P-wave (km/s) = 5.09884 7.98566 6.69958
#
# Compressibility (1/GPa) = 0.02970118
#
# Stress axis : x y z
#
# Youngs Moduli (GPa) = 32.26802 104.39602 132.36604
#
# Poissons Ratio (x) = 0.05946 0.46073
# Poissons Ratio (y) = 0.01838 0.68317
# Poissons Ratio (z) = 0.11232 0.53881
#
# Static dielectric constant tensor:
#      x y z
#    x 2.120870 -0.087290 0.026400 
#    y -0.087290 1.957410 -0.061630 
#    z 0.026400 -0.061630 1.877450 
# 
# From -- ./inp_files/435874.got.cif
#   From: 2010.05.17/outbox.cif.g08.bks.cpg/sg2_218_cif.got.tgz:435874.got - 2010.06.03 11:33:40.
