data_PCOD9008096
_publ_section_title
;
Structure prediction by ZEFSAII (Michael W. Deem and Ramdas Pophale) SiO2 
 PCOD9008096
Probable space group: P -1
;
_chemical_formula_sum "Si O2"
_cell_formula_units_Z 16
_cell_length_a 5.947640
_cell_length_b 13.103528
_cell_length_c 10.871208
_cell_angle_alpha 96.700734
_cell_angle_beta 103.369150
_cell_angle_gamma 118.263974
_cell_volume 700.266771
_symmetry_space_group_name_H-M "P -1"
_symmetry_group_IT_number 2
_symmetry_cell_setting 'triclinic'
loop_
_space_group_symop_operation_xyz
x,y,z
-x,-y,-z
loop_
_atom_site_type_symbol
_atom_site_label
_atom_site_fract_x
_atom_site_fract_y
_atom_site_fract_z
Si Si1 0.418932 0.555034 0.608592
Si Si2 0.118203 0.190854 0.902036
Si Si3 0.432742 0.096732 0.550597
Si Si4 0.951720 0.017148 0.295962
Si Si5 0.026409 0.234712 0.176776
Si Si6 0.064270 0.408530 0.868966
Si Si7 0.285283 0.662762 0.943174
Si Si8 0.865406 0.361379 0.600349
O O1 0.500000 0.500000 0.500000
O O2 0.674390 0.657354 0.730317
O O3 0.267325 0.612886 0.527724
O O4 0.187276 0.438399 0.633976
O O5 0.983333 0.065586 0.794926
O O6 0.113368 0.298342 0.843533
O O7 0.019016 0.191020 0.028814
O O8 0.429349 0.230573 0.963003
O O9 0.317362 0.068893 0.670689
O O10 0.704188 0.220801 0.577712
O O11 0.500000 0.000000 0.500000
O O12 0.192686 0.086166 0.434398
O O13 0.934799 0.118907 0.233130
O O14 0.832257 0.289836 0.169593
O O15 0.308323 0.545737 0.907435
O O16 0.848918 0.404634 0.742161
O O17 0.933596 0.382180 0.982764
#
# Coordination Sequence:
#
# PCOD9008096 Si02
#       8
#     2   2   2   2   2   2   2   2
#     4  11  25  41  68  99 135 174 220 288 348 404
#     4  11  23  41  68  95 139 187 226 283 342 410
#     4  11  25  44  70  98 137 183 232 285 338 408
#     4  11  25  44  67 103 139 184 233 284 338 411
#     4  11  24  44  65 103 145 177 231 283 347 415
#     4  10  21  39  63  98 131 171 237 281 340 405
#     4  10  22  39  66  96 135 182 224 283 343 406
#     4  11  23  42  66  96 129 172 224 276 346 406
#
# _framework density 22.848436
#
# number of rings (size 3 to 8) (size 9 to 14) (size 15 to 20)
#    0.000    1.250    1.250    3.750    1.750    7.500 
#    0.000    0.000    0.000    0.000    0.000    0.000 
#    0.000    0.000    0.000    0.000    0.000    0.000 
#
# Total GULP energy -89326.774714 kJ/mol
# GULP energy per Si atom -5582.923420 kJ/mol
# Density = 2.279643 g / cm^3
# Si number density = 22.848436 Si / 1000 Ang^3
#
#
#
# Elastic Constant Matrix: (Units=GPa)
#
#
# Indices 1 2 3 4 5 6 
#
# 1 49.2224 37.0277 17.4108 -12.2434 4.5603 -5.6515
# 2 37.0277 163.5809 50.5140 -15.5000 -1.9144 5.6906
# 3 17.4108 50.5140 98.5048 -10.6046 0.3915 -0.2083
# 4 -12.2434 -15.5000 -10.6046 38.4821 -3.4500 5.0923
# 5 4.5603 -1.9144 0.3915 -3.4500 37.7684 0.9848
# 6 -5.6515 5.6906 -0.2083 5.0923 0.9848 24.4479
#
#
#
# Elastic Compliance Matrix: (Units=1/GPa)
#
#
# Indices 1 2 3 4 5 6 
#
# 1 0.027277 -0.005544 -0.001427 0.004870 -0.003290 0.006702
# 2 -0.005544 0.008675 -0.003329 0.001423 0.001370 -0.003681
# 3 -0.001427 -0.003329 0.012279 0.001561 0.000013 0.000224
# 4 0.004870 0.001423 0.001561 0.029462 0.002301 -0.005422
# 5 -0.003290 0.001370 0.000013 0.002301 0.027223 -0.002655
# 6 0.006702 -0.003681 0.000224 -0.005422 -0.002655 0.044547
#
#
# Mechanical properties :
#
#
# Convention : Reuss Voigt Hill
#
# Bulk Modulus (GPa) = 36.18934 57.91257 47.05096
# Shear Modulus (GPa) = 27.89043 33.89673 30.89358
#
# Velocity S-wave (km/s) = 3.49760 3.85586 3.68109
# Velocity P-wave (km/s) = 5.67311 6.72495 6.22130
#
# Compressibility (1/GPa) = 0.02763244
#
# Stress axis : x y z
#
# Youngs Moduli (GPa) = 36.66141 115.27546 81.43731
#
# Poissons Ratio (x) = 0.63907 0.11618
# Poissons Ratio (y) = 0.20325 0.27108
# Poissons Ratio (z) = 0.05230 0.38372
#
# Static dielectric constant tensor:
#      x y z
#    x 1.875180 -0.022520 -0.006560 
#    y -0.022520 1.856940 -0.011920 
#    z -0.006560 -0.011920 1.891060 
# 
# From -- ./inp_files/364581.got.cif
#   From: 2010.05.17/outbox.cif.g08.bks.cpg/sg2_183_cif.got.tgz:364581.got - 2010.06.03 11:33:40.
