data_PCOD9008353
_publ_section_title
;
Structure prediction by ZEFSAII (Michael W. Deem and Ramdas Pophale) SiO2 
 PCOD9008353
Probable space group: P -1
;
_chemical_formula_sum "Si O2"
_cell_formula_units_Z 16
_cell_length_a 9.467240
_cell_length_b 20.995057
_cell_length_c 10.770308
_cell_angle_alpha 147.150919
_cell_angle_beta 45.881310
_cell_angle_gamma 145.084566
_cell_volume 664.455956
_symmetry_space_group_name_H-M "P -1"
_symmetry_group_IT_number 2
_symmetry_cell_setting 'triclinic'
loop_
_space_group_symop_operation_xyz
x,y,z
-x,-y,-z
loop_
_atom_site_type_symbol
_atom_site_label
_atom_site_fract_x
_atom_site_fract_y
_atom_site_fract_z
Si Si1 0.758990 0.333005 0.898314
Si Si2 0.663971 0.147637 0.223927
Si Si3 0.000894 0.877888 0.867505
Si Si4 0.912775 0.677159 0.940106
Si Si5 0.507931 0.342924 0.576603
Si Si6 0.069688 0.818766 0.317098
Si Si7 0.276232 0.153494 0.757818
Si Si8 0.522959 0.637805 0.659974
O O1 0.564844 0.267154 0.797099
O O2 0.817558 0.218808 0.704582
O O3 0.613554 0.331047 0.104094
O O4 0.000000 0.500000 0.000000
O O5 0.525370 0.221852 0.432823
O O6 0.755979 0.108391 0.223780
O O7 0.916297 0.274078 0.205222
O O8 0.500000 0.000000 0.000000
O O9 0.817673 0.749046 0.675198
O O10 0.871685 0.863145 0.053583
O O11 0.000000 0.000000 0.000000
O O12 0.699639 0.503020 0.783469
O O13 0.092425 0.748048 0.063534
O O14 0.797456 0.766443 0.154835
O O15 0.224510 0.279869 0.646733
O O16 0.567656 0.365532 0.428536
O O17 0.188433 0.990555 0.511827
O O18 0.500000 0.500000 0.500000
#
# Coordination Sequence:
#
# PCOD9008353 Si02
#       8
#     2   2   2   2   2   2   2   2
#     4  11  24  42  65  97 132 168 215 266 323 393
#     4  11  23  41  65  95 130 169 216 270 326 395
#     4  10  21  39  64  94 126 162 209 265 322 385
#     4  11  24  44  64  91 129 170 219 273 325 387
#     4  12  24  43  66  96 131 171 218 272 329 390
#     4  12  24  42  66  93 128 174 217 270 329 387
#     4  10  22  42  64  92 128 167 216 270 322 386
#     4  11  22  41  67  94 127 169 212 266 324 383
#
# _framework density 24.079851000000001
#
# number of rings (size 3 to 8) (size 9 to 14) (size 15 to 20)
#    0.000    1.000    0.000    9.000    0.000    2.000 
#    0.000    6.250    0.000    0.000    0.000    0.000 
#    0.000    0.000    0.000    0.000    0.000    0.000 
#
# Total GULP energy -89448.719337 kJ/mol
# GULP energy per Si atom -5590.544959 kJ/mol
# Density = 2.402504 g / cm^3
# Si number density = 24.079851 Si / 1000 Ang^3
#
#
#
# Elastic Constant Matrix: (Units=GPa)
#
#
# Indices 1 2 3 4 5 6 
#
# 1 120.7848 -2.7207 15.0148 4.4523 -18.0762 -7.6098
# 2 -2.7207 35.7101 6.7812 7.2650 -0.9517 0.1910
# 3 15.0148 6.7812 91.9730 18.3070 -9.7871 -2.3804
# 4 4.4523 7.2650 18.3070 56.1243 0.9123 2.4671
# 5 -18.0762 -0.9517 -9.7871 0.9123 52.6752 0.6526
# 6 -7.6098 0.1910 -2.3804 2.4671 0.6526 32.9533
#
#
#
# Elastic Compliance Matrix: (Units=1/GPa)
#
#
# Indices 1 2 3 4 5 6 
#
# 1 0.009020 0.001087 -0.001064 -0.000644 0.002904 0.001990
# 2 0.001087 0.029085 -0.001578 -0.003356 0.000661 0.000207
# 3 -0.001064 -0.001578 0.012134 -0.003739 0.001915 0.000882
# 4 -0.000644 -0.003356 -0.003739 0.019625 -0.001293 -0.001843
# 5 0.002904 0.000661 0.001915 -0.001293 0.020365 0.000499
# 6 0.001990 0.000207 0.000882 -0.001843 0.000499 0.030996
#
#
# Mechanical properties :
#
#
# Convention : Reuss Voigt Hill
#
# Bulk Modulus (GPa) = 21.21885 31.84650 26.53267
# Shear Modulus (GPa) = 35.70316 43.64340 39.67328
#
# Velocity S-wave (km/s) = 3.85476 4.26190 4.06343
# Velocity P-wave (km/s) = 5.35194 6.12148 5.74960
#
# Compressibility (1/GPa) = 0.04712791
#
# Stress axis : x y z
#
# Youngs Moduli (GPa) = 110.86948 34.38187 82.41570
#
# Poissons Ratio (x) = -0.03737 0.08769
# Poissons Ratio (y) = -0.12051 0.13007
# Poissons Ratio (z) = 0.11796 0.05426
#
# Static dielectric constant tensor:
#      x y z
#    x 2.114210 -0.206670 -0.059990 
#    y -0.206670 2.084090 -0.023720 
#    z -0.059990 -0.023720 1.915900 
# 
# From -- ./inp_files/187708.got.cif
#   From: 2010.05.17/outbox.cif.g08.bks.cpg/sg2_94_cif.got.tgz:187708.got - 2010.06.03 11:33:40.
