data_PCOD9008624
_publ_section_title
;
Structure prediction by ZEFSAII (Michael W. Deem and Ramdas Pophale) SiO2 
 PCOD9008624
Probable space group: P -1
;
_chemical_formula_sum "Si O2"
_cell_formula_units_Z 16
_cell_length_a 8.612702
_cell_length_b 18.620270
_cell_length_c 15.036717
_cell_angle_alpha 27.360087
_cell_angle_beta 109.273088
_cell_angle_gamma 88.062571
_cell_volume 687.595415
_symmetry_space_group_name_H-M "P -1"
_symmetry_group_IT_number 2
_symmetry_cell_setting 'triclinic'
loop_
_space_group_symop_operation_xyz
x,y,z
-x,-y,-z
loop_
_atom_site_type_symbol
_atom_site_label
_atom_site_fract_x
_atom_site_fract_y
_atom_site_fract_z
Si Si1 0.554138 0.785472 0.780023
Si Si2 0.725519 0.129324 0.191802
Si Si3 0.652322 0.767167 0.105520
Si Si4 0.700869 0.312683 0.493656
Si Si5 0.797936 0.953040 0.042085
Si Si6 0.755082 0.146452 0.487710
Si Si7 0.066652 0.333906 0.907809
Si Si8 0.599218 0.601362 0.423284
O O1 0.361358 0.879687 0.719756
O O2 0.500000 0.000000 0.500000
O O3 0.496719 0.699288 0.787963
O O4 0.833657 0.609409 0.065384
O O5 0.015529 0.951106 0.420981
O O6 0.616366 0.088256 0.143179
O O7 0.558636 0.408583 0.845603
O O8 0.808083 0.700967 0.121627
O O9 0.738677 0.556445 0.410899
O O10 0.682097 0.884281 0.052002
O O11 0.756053 0.118002 0.777396
O O12 0.720537 0.257163 0.453773
O O13 0.927586 0.256971 0.633022
O O14 0.641056 0.122630 0.910013
O O15 0.833405 0.911240 0.782988
O O16 0.776897 0.512913 0.636796
O O17 0.500000 0.500000 0.500000
#
# Coordination Sequence:
#
# PCOD9008624 Si02
#       8
#     2   2   2   2   2   2   2   2
#     4   9  22  42  69  93 126 170 214 273 330 375
#     4  11  24  41  70  99 124 171 219 264 325 390
#     4  11  23  39  61  91 130 174 206 256 329 385
#     4  11  24  40  66  98 134 167 216 268 323 386
#     4  11  24  40  59  97 137 172 209 263 322 388
#     4  11  21  44  68  90 128 168 216 273 327 377
#     4  10  21  39  65  92 127 171 214 262 328 383
#     4  12  24  38  63  96 133 173 218 263 314 390
#
# _framework density 23.269496
#
# number of rings (size 3 to 8) (size 9 to 14) (size 15 to 20)
#    0.000    1.250    1.250    4.875    7.000    0.500 
#    0.000    0.625    2.750    3.750    0.000    0.000 
#    0.000    0.000    0.000    0.000    0.000    0.000 
#
# Total GULP energy -89361.431624 kJ/mol
# GULP energy per Si atom -5585.089477 kJ/mol
# Density = 2.321653 g / cm^3
# Si number density = 23.269496 Si / 1000 Ang^3
#
#
#
# Elastic Constant Matrix: (Units=GPa)
#
#
# Indices 1 2 3 4 5 6 
#
# 1 127.6775 48.0992 29.0911 13.8481 -11.7893 20.1709
# 2 48.0992 167.1644 21.8829 19.4527 18.7432 24.3113
# 3 29.0911 21.8829 40.3317 12.5340 6.1923 6.6116
# 4 13.8481 19.4527 12.5340 35.3529 -0.5563 2.4369
# 5 -11.7893 18.7432 6.1923 -0.5563 44.7652 11.8188
# 6 20.1709 24.3113 6.6116 2.4369 11.8188 41.2721
#
#
#
# Elastic Compliance Matrix: (Units=1/GPa)
#
#
# Indices 1 2 3 4 5 6 
#
# 1 0.011822 -0.002407 -0.007305 -0.000268 0.006455 -0.005022
# 2 -0.002407 0.007801 -0.000703 -0.003000 -0.003261 -0.002195
# 3 -0.007305 -0.000703 0.034121 -0.009021 -0.006719 0.000975
# 4 -0.000268 -0.003000 -0.009021 0.033241 0.002685 0.000612
# 5 0.006455 -0.003261 -0.006719 0.002685 0.028613 -0.008510
# 6 -0.005022 -0.002195 0.000975 0.000612 -0.008510 0.030221
#
#
# Mechanical properties :
#
#
# Convention : Reuss Voigt Hill
#
# Bulk Modulus (GPa) = 30.38457 59.25778 44.82117
# Shear Modulus (GPa) = 28.14969 40.01807 34.08388
#
# Velocity S-wave (km/s) = 3.48188 4.15150 3.83135
# Velocity P-wave (km/s) = 5.40839 6.96427 6.23506
#
# Compressibility (1/GPa) = 0.03291144
#
# Stress axis : x y z
#
# Youngs Moduli (GPa) = 84.58652 128.19128 29.30772
#
# Poissons Ratio (x) = 0.30862 0.21411
# Poissons Ratio (y) = 0.20364 0.02061
# Poissons Ratio (z) = 0.61794 0.09015
#
# Static dielectric constant tensor:
#      x y z
#    x 1.923930 -0.007140 -0.002300 
#    y -0.007140 1.863360 0.051930 
#    z -0.002300 0.051930 1.973310 
# 
# From -- ./inp_files/507259.got.cif
#   From: 2010.05.17/outbox.cif.g08.bks.cpg/sg2_254_cif.got.tgz:507259.got - 2010.06.03 11:33:40.
