data_PCOD9008325
_publ_section_title
;
Structure prediction by ZEFSAII (Michael W. Deem and Ramdas Pophale) SiO2 
 PCOD9008325
Probable space group: P -1
;
_chemical_formula_sum "Si O2"
_cell_formula_units_Z 16
_cell_length_a 11.884966
_cell_length_b 5.761302
_cell_length_c 16.702903
_cell_angle_alpha 53.795649
_cell_angle_beta 52.657051
_cell_angle_gamma 63.036795
_cell_volume 725.584304
_symmetry_space_group_name_H-M "P -1"
_symmetry_group_IT_number 2
_symmetry_cell_setting 'triclinic'
loop_
_space_group_symop_operation_xyz
x,y,z
-x,-y,-z
loop_
_atom_site_type_symbol
_atom_site_label
_atom_site_fract_x
_atom_site_fract_y
_atom_site_fract_z
Si Si1 0.663394 0.898397 0.934689
Si Si2 0.127721 0.844942 0.812953
Si Si3 0.905023 0.411684 0.958452
Si Si4 0.599061 0.893001 0.402938
Si Si5 0.961483 0.846379 0.462105
Si Si6 0.674722 0.222069 0.542251
Si Si7 0.882425 0.313607 0.798745
Si Si8 0.780451 0.924365 0.712593
O O1 0.751480 0.148896 0.871433
O O2 0.754843 0.626161 0.995531
O O3 0.678888 0.858920 0.840678
O O4 0.500000 0.000000 0.000000
O O5 0.045833 0.572485 0.878181
O O6 0.289252 0.886863 0.712197
O O7 0.102085 0.838613 0.921818
O O8 0.033797 0.123173 0.756310
O O9 0.892912 0.358681 0.880626
O O10 0.676459 0.560079 0.451995
O O11 0.480732 0.859478 0.393212
O O12 0.500000 0.000000 0.500000
O O13 0.000000 0.500000 0.500000
O O14 0.799294 0.003008 0.486934
O O15 0.000000 0.000000 0.500000
O O16 0.079814 0.970710 0.331478
O O17 0.707199 0.157794 0.634520
O O18 0.842359 0.616725 0.708860
#
# Coordination Sequence:
#
# PCOD9008325 Si02
#       8
#     2   2   2   2   2   2   2   2
#     4  10  23  38  60  96 131 166 216 275 339 408
#     4  10  21  41  66  89 127 171 222 276 338 398
#     4   9  21  40  62  96 120 168 222 276 331 402
#     4  11  26  42  65  94 136 180 223 286 338 421
#     4  10  23  41  69 100 132 176 232 284 334 412
#     4  10  25  44  61  99 133 178 231 272 355 413
#     4  10  21  39  64  93 127 165 222 275 338 401
#     4  10  23  40  65  92 129 174 218 277 339 409
#
# _framework density 22.051193000000001
#
# number of rings (size 3 to 8) (size 9 to 14) (size 15 to 20)
#    0.000    2.000    0.000    1.125    7.000   10.000 
#    0.000    0.000    0.000    0.000    0.000    0.000 
#    0.000    0.000    0.000    0.000    0.000    0.000 
#
# Total GULP energy -89148.471443 kJ/mol
# GULP energy per Si atom -5571.779465 kJ/mol
# Density = 2.200100 g / cm^3
# Si number density = 22.051193 Si / 1000 Ang^3
#
#
#
# Elastic Constant Matrix: (Units=GPa)
#
#
# Indices 1 2 3 4 5 6 
#
# 1 107.7397 24.4814 38.6563 3.2986 -6.5439 -17.5899
# 2 24.4814 101.6762 29.7958 -6.5226 -9.6628 -20.0019
# 3 38.6563 29.7958 82.9507 16.0560 -16.5295 -21.6636
# 4 3.2986 -6.5226 16.0560 27.1770 -3.9956 8.4829
# 5 -6.5439 -9.6628 -16.5295 -3.9956 40.2107 7.1733
# 6 -17.5899 -20.0019 -21.6636 8.4829 7.1733 37.6484
#
#
#
# Elastic Compliance Matrix: (Units=1/GPa)
#
#
# Indices 1 2 3 4 5 6 
#
# 1 0.011474 -0.001024 -0.004570 0.000267 -0.000632 0.002247
# 2 -0.001024 0.012128 -0.003950 0.004796 0.001175 0.002388
# 3 -0.004570 -0.003950 0.022801 -0.017042 0.003847 0.011994
# 4 0.000267 0.004796 -0.017042 0.054721 0.003209 -0.020075
# 5 -0.000632 0.001175 0.003847 0.003209 0.027561 -0.003432
# 6 0.002247 0.002388 0.011994 -0.020075 -0.003432 0.040959
#
#
# Mechanical properties :
#
#
# Convention : Reuss Voigt Hill
#
# Bulk Modulus (GPa) = 36.60866 53.13708 44.87287
# Shear Modulus (GPa) = 25.27321 34.30275 29.78798
#
# Velocity S-wave (km/s) = 3.38911 3.94838 3.67939
# Velocity P-wave (km/s) = 5.65265 6.70341 6.20033
#
# Compressibility (1/GPa) = 0.02731594
#
# Stress axis : x y z
#
# Youngs Moduli (GPa) = 87.15029 82.45193 43.85687
#
# Poissons Ratio (x) = 0.08446 0.20042
# Poissons Ratio (y) = 0.08928 0.17322
# Poissons Ratio (z) = 0.39827 0.32567
#
# Static dielectric constant tensor:
#      x y z
#    x 1.872610 -0.093200 0.012160 
#    y -0.093200 2.208840 0.083530 
#    z 0.012160 0.083530 1.885200 
# 
# From -- ./inp_files/70882.got.cif
#   From: 2010.05.17/outbox.cif.g08.bks.cpg/sg2_36_cif.got.tgz:70882.got - 2010.06.03 11:33:40.
