data_PCOD9008397
_publ_section_title
;
Structure prediction by ZEFSAII (Michael W. Deem and Ramdas Pophale) SiO2 
 PCOD9008397
Probable space group: P -1
;
_chemical_formula_sum "Si O2"
_cell_formula_units_Z 16
_cell_length_a 15.465055
_cell_length_b 14.794410
_cell_length_c 7.241477
_cell_angle_alpha 51.005334
_cell_angle_beta 45.557894
_cell_angle_gamma 33.556285
_cell_volume 649.447937
_symmetry_space_group_name_H-M "P -1"
_symmetry_group_IT_number 2
_symmetry_cell_setting 'triclinic'
loop_
_space_group_symop_operation_xyz
x,y,z
-x,-y,-z
loop_
_atom_site_type_symbol
_atom_site_label
_atom_site_fract_x
_atom_site_fract_y
_atom_site_fract_z
Si Si1 0.979539 0.002781 0.752181
Si Si2 0.604329 0.453710 0.708932
Si Si3 0.346608 0.792448 0.529857
Si Si4 0.342893 0.844523 0.073173
Si Si5 0.268028 0.203271 0.243660
Si Si6 0.075242 0.702432 0.391832
Si Si7 0.739330 0.614365 0.682765
Si Si8 0.440401 0.164031 0.657612
O O1 0.167727 0.847795 0.746165
O O2 0.000000 0.000000 0.500000
O O3 0.825683 0.012696 0.980369
O O4 0.945762 0.145183 0.734253
O O5 0.485408 0.597954 0.556746
O O6 0.666477 0.288847 0.754239
O O7 0.768133 0.424300 0.536128
O O8 0.500000 0.500000 0.000000
O O9 0.325453 0.887525 0.258990
O O10 0.431369 0.812749 0.536421
O O11 0.535983 0.737443 0.867803
O O12 0.193203 0.355159 0.289403
O O13 0.111463 0.225219 0.397746
O O14 0.424152 0.030884 0.337704
O O15 0.354769 0.195262 0.941834
O O16 0.159674 0.574672 0.257249
O O17 0.716134 0.706313 0.413653
#
# Coordination Sequence:
#
# PCOD9008397 Si02
#       8
#     2   2   2   2   2   2   2   2
#     4   9  21  38  65  98 128 167 217 268 320 391
#     4  11  21  39  62  93 129 163 207 266 317 389
#     4  11  19  41  65  93 127 172 214 258 332 384
#     4  10  21  39  64  95 132 163 211 270 322 389
#     4  11  25  44  66  91 134 171 219 272 319 378
#     4  11  22  40  65  91 133 166 217 269 317 389
#     4  12  23  43  66  98 131 169 218 266 327 386
#     4  11  23  42  68  92 124 176 218 267 325 385
#
# _framework density 24.636308
#
# number of rings (size 3 to 8) (size 9 to 14) (size 15 to 20)
#    0.000    1.250    5.000    1.125    0.000    0.500 
#    2.250    1.875    2.750    0.000    0.000    0.000 
#    0.000    0.000    0.000    0.000    0.000    0.000 
#
# Total GULP energy -89212.551495 kJ/mol
# GULP energy per Si atom -5575.784468 kJ/mol
# Density = 2.458023 g / cm^3
# Si number density = 24.636308 Si / 1000 Ang^3
#
#
#
# Elastic Constant Matrix: (Units=GPa)
#
#
# Indices 1 2 3 4 5 6 
#
# 1 113.1900 20.5537 23.5914 9.6012 -8.4121 3.6537
# 2 20.5537 85.9681 -8.1539 8.7855 0.1530 8.8615
# 3 23.5914 -8.1539 45.5331 15.9528 1.0091 -1.0746
# 4 9.6012 8.7855 15.9528 25.4024 0.7566 -8.9147
# 5 -8.4121 0.1530 1.0091 0.7566 24.9884 12.5999
# 6 3.6537 8.8615 -1.0746 -8.9147 12.5999 51.9093
#
#
#
# Elastic Compliance Matrix: (Units=1/GPa)
#
#
# Indices 1 2 3 4 5 6 
#
# 1 0.011167 -0.003197 -0.006638 0.000395 0.004776 -0.001469
# 2 -0.003197 0.014576 0.007695 -0.010114 0.000874 -0.004053
# 3 -0.006638 0.007695 0.034914 -0.023416 -0.001017 -0.003898
# 4 0.000395 -0.010114 -0.023416 0.062501 -0.007721 0.013822
# 5 0.004776 0.000874 -0.001017 -0.007721 0.048791 -0.013675
# 6 -0.001469 -0.004053 -0.003898 0.013822 -0.013675 0.025672
#
#
# Mechanical properties :
#
#
# Convention : Reuss Voigt Hill
#
# Bulk Modulus (GPa) = 17.73726 35.18593 26.46160
# Shear Modulus (GPa) = 22.65582 34.37334 28.51458
#
# Velocity S-wave (km/s) = 3.03580 3.73933 3.40578
# Velocity P-wave (km/s) = 4.41626 5.74079 5.12152
#
# Compressibility (1/GPa) = 0.05637848
#
# Stress axis : x y z
#
# Youngs Moduli (GPa) = 89.54584 68.60472 28.64200
#
# Poissons Ratio (x) = 0.21933 0.19011
# Poissons Ratio (y) = 0.28628 -0.22040
# Poissons Ratio (z) = 0.59437 -0.52792
#
# Static dielectric constant tensor:
#      x y z
#    x 2.030720 -0.049620 0.049240 
#    y -0.049620 2.049280 -0.011850 
#    z 0.049240 -0.011850 2.058060 
# 
# From -- ./inp_files/314590.got.cif
#   From: 2010.05.17/outbox.cif.g08.bks.cpg/sg2_158_cif.got.tgz:314590.got - 2010.06.03 11:33:40.
