data_PCOD9008775
_publ_section_title
;
Structure prediction by ZEFSAII (Michael W. Deem and Ramdas Pophale) SiO2 
 PCOD9008775
Probable space group: P -1
;
_chemical_formula_sum "Si O2"
_cell_formula_units_Z 13
_cell_length_a 11.745248
_cell_length_b 6.660048
_cell_length_c 7.622360
_cell_angle_alpha 100.595037
_cell_angle_beta 113.604449
_cell_angle_gamma 109.362536
_cell_volume 479.645242
_symmetry_space_group_name_H-M "P -1"
_symmetry_group_IT_number 2
_symmetry_cell_setting 'triclinic'
loop_
_space_group_symop_operation_xyz
x,y,z
-x,-y,-z
loop_
_atom_site_type_symbol
_atom_site_label
_atom_site_fract_x
_atom_site_fract_y
_atom_site_fract_z
Si Si1 0.903176 0.157906 0.214996
Si Si2 0.583463 0.520086 0.230544
Si Si3 0.388406 0.030744 0.055617
Si Si4 0.500000 0.500000 0.500000
Si Si5 0.888635 0.636682 0.330095
Si Si6 0.933774 0.239490 0.855207
Si Si7 0.649069 0.213861 0.659672
O O1 0.906428 0.407565 0.281581
O O2 0.025278 0.202615 0.431815
O O3 0.912792 0.111536 0.007355
O O4 0.743006 0.983769 0.135557
O O5 0.473520 0.285840 0.234873
O O6 0.594104 0.676607 0.424654
O O7 0.729006 0.546993 0.265051
O O8 0.500000 0.500000 0.000000
O O9 0.336697 0.827999 0.131297
O O10 0.500000 0.000000 0.000000
O O11 0.636603 0.440299 0.634198
O O12 0.953670 0.769125 0.210371
O O13 0.787491 0.202334 0.668933
O O14 0.000000 0.500000 0.000000
O O15 0.500000 0.000000 0.500000
#
# Coordination Sequence:
#
# PCOD9008775 Si02
#       7
#     2   2   2   1   2   2   2
#     4   9  20  35  64  97 124 171 234 277 336 411
#     4  12  27  44  68 104 144 183 229 292 347 410
#     4  11  21  41  69 100 135 179 235 285 340 411
#     4  12  28  44  70 106 146 174 238 286 346 420
#     4  10  21  39  65  97 133 180 228 277 347 414
#     4   9  21  37  66  97 132 173 233 277 337 415
#     4  11  24  44  72 102 132 184 230 285 347 404
#
# _framework density 27.103366999999999
#
# number of rings (size 3 to 8) (size 9 to 14) (size 15 to 20)
#    0.000    1.538    3.077    0.923   12.923    0.000 
#    0.000    0.769    0.000    3.692    0.000    0.000 
#    0.000    0.000    0.000    0.000    0.000    0.000 
#
# Total GULP energy -72440.774010 kJ/mol
# GULP energy per Si atom -5572.367232 kJ/mol
# Density = 2.704168 g / cm^3
# Si number density = 27.103367 Si / 1000 Ang^3
#
#
#
# Elastic Constant Matrix: (Units=GPa)
#
#
# Indices 1 2 3 4 5 6 
#
# 1 148.4571 21.3343 49.1971 -7.9331 2.1906 32.4066
# 2 21.3343 90.5119 32.4539 0.3830 5.2580 -6.9923
# 3 49.1971 32.4539 145.5124 -1.9212 29.4309 19.4239
# 4 -7.9331 0.3830 -1.9212 58.2729 11.4354 -7.0621
# 5 2.1906 5.2580 29.4309 11.4354 32.0108 4.1198
# 6 32.4066 -6.9923 19.4239 -7.0621 4.1198 53.3464
#
#
#
# Elastic Compliance Matrix: (Units=1/GPa)
#
#
# Indices 1 2 3 4 5 6 
#
# 1 0.008832 -0.001724 -0.002467 0.000037 0.002563 -0.004886
# 2 -0.001724 0.012730 -0.002770 0.000024 0.000086 0.003721
# 3 -0.002467 -0.002770 0.010474 0.001657 -0.009374 -0.001735
# 4 0.000037 0.000024 0.001657 0.019251 -0.008742 0.002601
# 5 0.002563 0.000086 -0.009374 -0.008742 0.043129 -0.002620
# 6 -0.004886 0.003721 -0.001735 0.002601 -0.002620 0.023379
#
#
# Mechanical properties :
#
#
# Convention : Reuss Voigt Hill
#
# Bulk Modulus (GPa) = 55.20720 65.60578 60.40649
# Shear Modulus (GPa) = 36.29628 47.49243 41.89435
#
# Velocity S-wave (km/s) = 3.66345 4.19055 3.93584
# Velocity P-wave (km/s) = 6.18933 6.90454 6.55669
#
# Compressibility (1/GPa) = 0.01811358
#
# Stress axis : x y z
#
# Youngs Moduli (GPa) = 113.22540 78.55344 95.47644
#
# Poissons Ratio (x) = 0.13539 0.23557
# Poissons Ratio (y) = 0.19515 0.26450
# Poissons Ratio (z) = 0.27936 0.21762
#
# Static dielectric constant tensor:
#      x y z
#    x 1.942260 0.063920 0.327830 
#    y 0.063920 2.329580 -0.220510 
#    z 0.327830 -0.220510 1.912900 
# 
# From -- ./inp_files/234915.got.cif
#   From: 2010.05.17/outbox.cif.g08.bks.cpg/sg2_118_cif.got.tgz:234915.got - 2010.06.03 11:33:40.
