data_PCOD9008605
_publ_section_title
;
Structure prediction by ZEFSAII (Michael W. Deem and Ramdas Pophale) SiO2 
 PCOD9008605
Probable space group: P -1
;
_chemical_formula_sum "Si O2"
_cell_formula_units_Z 14
_cell_length_a 9.265743
_cell_length_b 7.702783
_cell_length_c 10.671473
_cell_angle_alpha 47.959693
_cell_angle_beta 117.820839
_cell_angle_gamma 106.680321
_cell_volume 499.893126
_symmetry_space_group_name_H-M "P -1"
_symmetry_group_IT_number 2
_symmetry_cell_setting 'triclinic'
loop_
_space_group_symop_operation_xyz
x,y,z
-x,-y,-z
loop_
_atom_site_type_symbol
_atom_site_label
_atom_site_fract_x
_atom_site_fract_y
_atom_site_fract_z
Si Si1 0.419917 0.057746 0.803423
Si Si2 0.811360 0.589404 0.710688
Si Si3 0.023538 0.700320 0.307046
Si Si4 0.834402 0.319683 0.170188
Si Si5 0.308534 0.243703 0.998843
Si Si6 0.522886 0.499015 0.276516
Si Si7 0.238121 0.900383 0.493157
O O1 0.389348 0.336086 0.664955
O O2 0.264422 0.897857 0.812436
O O3 0.500000 0.000000 0.000000
O O4 0.568397 0.971243 0.814419
O O5 0.871987 0.421366 0.703656
O O6 0.665368 0.469148 0.779672
O O7 0.982625 0.653811 0.812008
O O8 0.736712 0.856399 0.542729
O O9 0.119325 0.896409 0.326442
O O10 0.000000 0.500000 0.500000
O O11 0.853400 0.799088 0.128535
O O12 0.749752 0.578114 0.003797
O O13 0.841449 0.256795 0.353176
O O14 0.425681 0.399360 0.885512
O O15 0.600595 0.239655 0.422723
#
# Coordination Sequence:
#
# PCOD9008605 Si02
#       7
#     2   2   2   2   2   2   2
#     4  10  22  39  67  88 123 168 214 252 306 374
#     4  11  24  38  63  96 133 161 204 265 317 359
#     4  11  21  41  65  96 125 163 213 254 307 382
#     4  10  21  39  65  92 120 168 215 248 309 378
#     4   9  20  41  65  87 126 167 211 253 306 380
#     4  10  22  41  57  97 130 160 208 262 312 363
#     4  11  23  39  66  89 133 167 209 250 314 384
#
# _framework density 28.005987999999999
#
# number of rings (size 3 to 8) (size 9 to 14) (size 15 to 20)
#    0.000    1.714    4.286    1.286    6.000    0.571 
#    5.143    5.714    0.000    0.000    0.000    0.000 
#    0.000    0.000    0.000    0.000    0.000    0.000 
#
# Total GULP energy -78299.630302 kJ/mol
# GULP energy per Si atom -5592.830736 kJ/mol
# Density = 2.794225 g / cm^3
# Si number density = 28.005988 Si / 1000 Ang^3
#
#
#
# Elastic Constant Matrix: (Units=GPa)
#
#
# Indices 1 2 3 4 5 6 
#
# 1 201.0499 45.4664 40.4717 4.9860 28.4018 1.2563
# 2 45.4664 167.1018 19.8896 14.2405 4.4752 -16.9004
# 3 40.4717 19.8896 63.1712 2.4744 13.5897 -10.2800
# 4 4.9860 14.2405 2.4744 53.2933 -0.2447 18.6119
# 5 28.4018 4.4752 13.5897 -0.2447 40.2802 -3.7857
# 6 1.2563 -16.9004 -10.2800 18.6119 -3.7857 42.5340
#
#
#
# Elastic Compliance Matrix: (Units=1/GPa)
#
#
# Indices 1 2 3 4 5 6 
#
# 1 0.006482 -0.001566 -0.003303 0.000733 -0.003488 -0.002243
# 2 -0.001566 0.007162 -0.000632 -0.003209 0.000899 0.004224
# 3 -0.003303 -0.000632 0.019931 -0.002331 -0.003837 0.005342
# 4 0.000733 -0.003209 -0.002331 0.023987 -0.000393 -0.012391
# 5 -0.003488 0.000899 -0.003837 -0.000393 0.028690 0.002258
# 6 -0.002243 0.004224 0.005342 -0.012391 0.002258 0.032169
#
#
# Mechanical properties :
#
#
# Convention : Reuss Voigt Hill
#
# Bulk Modulus (GPa) = 44.30117 71.44200 57.87159
# Shear Modulus (GPa) = 36.51034 48.92120 42.71577
#
# Velocity S-wave (km/s) = 3.61454 4.18402 3.90967
# Velocity P-wave (km/s) = 5.76825 6.99330 6.41011
#
# Compressibility (1/GPa) = 0.02257277
#
# Stress axis : x y z
#
# Youngs Moduli (GPa) = 154.28355 139.61949 50.17295
#
# Poissons Ratio (x) = 0.21869 0.16571
# Poissons Ratio (y) = 0.24166 0.03171
# Poissons Ratio (z) = 0.50955 0.08825
#
# Static dielectric constant tensor:
#      x y z
#    x 2.130110 -0.032590 0.003500 
#    y -0.032590 2.275920 -0.021080 
#    z 0.003500 -0.021080 2.455240 
# 
# From -- ./inp_files/490484.got.cif
#   From: 2010.05.17/outbox.cif.g08.bks.cpg/sg2_246_cif.got.tgz:490484.got - 2010.06.03 11:33:40.
