data_PCOD9008476
_publ_section_title
;
Structure prediction by ZEFSAII (Michael W. Deem and Ramdas Pophale) SiO2 
 PCOD9008476
Probable space group: P -1
;
_chemical_formula_sum "Si O2"
_cell_formula_units_Z 16
_cell_length_a 14.756919
_cell_length_b 14.665438
_cell_length_c 6.954273
_cell_angle_alpha 67.082179
_cell_angle_beta 49.668703
_cell_angle_gamma 40.245668
_cell_volume 724.324794
_symmetry_space_group_name_H-M "P -1"
_symmetry_group_IT_number 2
_symmetry_cell_setting 'triclinic'
loop_
_space_group_symop_operation_xyz
x,y,z
-x,-y,-z
loop_
_atom_site_type_symbol
_atom_site_label
_atom_site_fract_x
_atom_site_fract_y
_atom_site_fract_z
Si Si1 0.271429 0.215657 0.763976
Si Si2 0.233135 0.935956 0.747662
Si Si3 0.593067 0.647593 0.631060
Si Si4 0.123594 0.331641 0.247093
Si Si5 0.059464 0.905771 0.685327
Si Si6 0.811964 0.490912 0.821195
Si Si7 0.313176 0.574660 0.621522
Si Si8 0.360039 0.071814 0.379606
O O1 0.325826 0.297013 0.595212
O O2 0.244189 0.189275 0.613207
O O3 0.438241 0.050768 0.741305
O O4 0.115840 0.311346 0.049661
O O5 0.389864 0.781282 0.757633
O O6 0.147631 0.925318 0.703661
O O7 0.306222 0.991073 0.506769
O O8 0.101238 0.040123 0.015796
O O9 0.644535 0.605601 0.818053
O O10 0.661231 0.517443 0.512426
O O11 0.142331 0.435736 0.187451
O O12 0.303449 0.172116 0.197558
O O13 0.965531 0.383635 0.542967
O O14 0.194434 0.738092 0.588319
O O15 0.000000 0.000000 0.500000
O O16 0.777131 0.426626 0.074115
O O17 0.500000 0.500000 0.500000
#
# Coordination Sequence:
#
# PCOD9008476 Si02
#       8
#     2   2   2   2   2   2   2   2
#     4  10  21  39  65 100 135 181 229 276 349 414
#     4  10  24  44  68  99 143 175 232 294 339 417
#     4  11  23  44  71  99 138 188 228 287 350 415
#     4  11  22  41  64 100 142 181 225 285 340 422
#     4  11  26  47  71 101 132 181 235 292 353 409
#     4  11  26  40  68 100 142 182 230 283 352 412
#     4  12  26  47  72 104 138 182 239 295 349 419
#     4  10  21  39  66  98 137 179 224 283 347 416
#
# _framework density 22.089538000000001
#
# number of rings (size 3 to 8) (size 9 to 14) (size 15 to 20)
#    0.000    1.250    3.750    1.125    1.750    7.000 
#    0.000    0.000    0.000    0.000    0.000    0.000 
#    0.000    0.000    0.000    0.000    0.000    0.000 
#
# Total GULP energy -89489.331596 kJ/mol
# GULP energy per Si atom -5593.083225 kJ/mol
# Density = 2.203926 g / cm^3
# Si number density = 22.089538 Si / 1000 Ang^3
#
#
#
# Elastic Constant Matrix: (Units=GPa)
#
#
# Indices 1 2 3 4 5 6 
#
# 1 56.9698 18.4380 20.9115 6.4538 9.2854 -3.6971
# 2 18.4380 124.4687 19.7871 3.7063 8.1430 -3.1906
# 3 20.9115 19.7871 80.1846 10.4021 9.2670 3.0736
# 4 6.4538 3.7063 10.4021 27.5798 6.8745 10.2008
# 5 9.2854 8.1430 9.2670 6.8745 31.4783 3.4903
# 6 -3.6971 -3.1906 3.0736 10.2008 3.4903 33.3043
#
#
#
# Elastic Compliance Matrix: (Units=1/GPa)
#
#
# Indices 1 2 3 4 5 6 
#
# 1 0.021083 -0.001970 -0.004230 -0.003544 -0.004141 0.004061
# 2 -0.001970 0.008677 -0.001492 -0.000167 -0.001291 0.000937
# 3 -0.004230 -0.001492 0.014649 -0.003639 -0.001811 -0.000660
# 4 -0.003544 -0.000167 -0.003639 0.044898 -0.006184 -0.013177
# 5 -0.004141 -0.001291 -0.001811 -0.006184 0.035455 -0.002238
# 6 0.004061 0.000937 -0.000660 -0.013177 -0.002238 0.034898
#
#
# Mechanical properties :
#
#
# Convention : Reuss Voigt Hill
#
# Bulk Modulus (GPa) = 34.45320 42.21069 38.33194
# Shear Modulus (GPa) = 27.06800 31.97157 29.51979
#
# Velocity S-wave (km/s) = 3.50434 3.80855 3.65960
# Velocity P-wave (km/s) = 5.65727 6.20407 5.93697
#
# Compressibility (1/GPa) = 0.02902488
#
# Stress axis : x y z
#
# Youngs Moduli (GPa) = 47.43104 115.25105 68.26285
#
# Poissons Ratio (x) = 0.22707 0.28872
# Poissons Ratio (y) = 0.09345 0.10187
# Poissons Ratio (z) = 0.20061 0.17200
#
# Static dielectric constant tensor:
#      x y z
#    x 1.811860 -0.048700 0.035420 
#    y -0.048700 1.814010 -0.000520 
#    z 0.035420 -0.000520 1.877550 
# 
# From -- ./inp_files/97660.got.cif
#   From: 2010.05.17/outbox.cif.g08.bks.cpg/sg2_49_cif.got.tgz:97660.got - 2010.06.03 11:33:40.
