data_PCOD9008074
_publ_section_title
;
Structure prediction by ZEFSAII (Michael W. Deem and Ramdas Pophale) SiO2 
 PCOD9008074
Probable space group: P -1
;
_chemical_formula_sum "Si O2"
_cell_formula_units_Z 16
_cell_length_a 12.654786
_cell_length_b 11.199414
_cell_length_c 5.899266
_cell_angle_alpha 69.034538
_cell_angle_beta 74.445526
_cell_angle_gamma 81.650969
_cell_volume 751.007114
_symmetry_space_group_name_H-M "P -1"
_symmetry_group_IT_number 2
_symmetry_cell_setting 'triclinic'
loop_
_space_group_symop_operation_xyz
x,y,z
-x,-y,-z
loop_
_atom_site_type_symbol
_atom_site_label
_atom_site_fract_x
_atom_site_fract_y
_atom_site_fract_z
Si Si1 0.290378 0.700969 0.486920
Si Si2 0.821480 0.513807 0.584112
Si Si3 0.800968 0.022652 0.627335
Si Si4 0.996588 0.907305 0.851132
Si Si5 0.448119 0.050625 0.246884
Si Si6 0.008038 0.389971 0.876001
Si Si7 0.341424 0.531379 0.953642
Si Si8 0.502627 0.328926 0.881978
O O1 0.239744 0.590204 0.449768
O O2 0.231031 0.834451 0.363383
O O3 0.278800 0.650133 0.782882
O O4 0.419118 0.707131 0.350293
O O5 0.873894 0.610142 0.316538
O O6 0.919576 0.437895 0.709616
O O7 0.736716 0.557408 0.797991
O O8 0.898437 0.045181 0.378524
O O9 0.682235 0.975291 0.655464
O O10 0.871003 0.931911 0.818713
O O11 0.013942 0.754082 0.949850
O O12 0.000000 0.000000 0.000000
O O13 0.500000 0.000000 0.500000
O O14 0.463526 0.201914 0.109424
O O15 0.500000 0.000000 0.000000
O O16 0.000000 0.500000 0.000000
O O17 0.406498 0.435397 0.809496
O O18 0.422860 0.599286 0.029319
#
# Coordination Sequence:
#
# PCOD9008074 Si02
#       8
#     2   2   2   2   2   2   2   2
#     4  11  20  41  66  92 134 177 228 281 357 426
#     4  10  22  36  63  96 125 171 224 279 356 422
#     4  11  25  43  70 100 138 188 239 294 359 441
#     4  11  26  45  69 102 139 187 240 300 362 432
#     4  12  27  47  72 106 143 193 243 299 361 440
#     4  11  23  42  66  94 132 171 224 290 353 425
#     4  10  21  39  63  96 131 176 222 293 349 429
#     4  10  23  40  63  98 134 174 238 280 358 423
#
# _framework density 21.304727
#
# number of rings (size 3 to 8) (size 9 to 14) (size 15 to 20)
#    0.000    1.250    1.250    4.125    1.750    8.000 
#    0.000    0.000    0.000    0.000    0.000    0.000 
#    0.000    0.000    0.000    0.000    0.000    0.000 
#
# Total GULP energy -89094.339899 kJ/mol
# GULP energy per Si atom -5568.396244 kJ/mol
# Density = 2.125624 g / cm^3
# Si number density = 21.304727 Si / 1000 Ang^3
#
#
#
# Elastic Constant Matrix: (Units=GPa)
#
#
# Indices 1 2 3 4 5 6 
#
# 1 127.4163 26.5623 42.3618 -4.8481 -10.1113 3.9987
# 2 26.5623 64.8395 27.3540 -6.8623 0.2183 -12.9698
# 3 42.3618 27.3540 76.8347 -8.8527 -8.1050 5.8001
# 4 -4.8481 -6.8623 -8.8527 28.1545 -4.8184 -7.4352
# 5 -10.1113 0.2183 -8.1050 -4.8184 35.6965 -2.7815
# 6 3.9987 -12.9698 5.8001 -7.4352 -2.7815 26.5125
#
#
#
# Elastic Compliance Matrix: (Units=1/GPa)
#
#
# Indices 1 2 3 4 5 6 
#
# 1 0.010015 -0.002724 -0.004292 -0.000497 0.001666 -0.001869
# 2 -0.002724 0.023392 -0.007229 0.006937 -0.000425 0.015336
# 3 -0.004292 -0.007229 0.019003 0.002385 0.002993 -0.006064
# 4 -0.000497 0.006937 0.002385 0.043342 0.007446 0.015883
# 5 0.001666 -0.000425 0.002993 0.007446 0.030498 0.004174
# 6 -0.001869 0.015336 -0.006064 0.015883 0.004174 0.051721
#
#
# Mechanical properties :
#
#
# Convention : Reuss Voigt Hill
#
# Bulk Modulus (GPa) = 41.80767 51.29406 46.55087
# Shear Modulus (GPa) = 23.31705 29.59355 26.45530
#
# Velocity S-wave (km/s) = 3.31184 3.73105 3.52768
# Velocity P-wave (km/s) = 5.85582 6.53373 6.20404
#
# Compressibility (1/GPa) = 0.02391905
#
# Stress axis : x y z
#
# Youngs Moduli (GPa) = 99.84819 42.75036 52.62229
#
# Poissons Ratio (x) = 0.11645 0.22588
# Poissons Ratio (y) = 0.27199 0.38041
# Poissons Ratio (z) = 0.42859 0.30905
#
# Static dielectric constant tensor:
#      x y z
#    x 1.510820 -0.316500 -0.208270 
#    y -0.316500 1.428470 -0.154400 
#    z -0.208270 -0.154400 1.769450 
# 
# From -- ./inp_files/69026.got.cif
#   From: 2010.05.17/outbox.cif.g08.bks.cpg/sg2_35_cif.got.tgz:69026.got - 2010.06.03 11:33:40.
