data_PCOD9008604
_publ_section_title
;
Structure prediction by ZEFSAII (Michael W. Deem and Ramdas Pophale) SiO2 
 PCOD9008604
Probable space group: P -1
;
_chemical_formula_sum "Si O2"
_cell_formula_units_Z 14
_cell_length_a 11.360439
_cell_length_b 17.712943
_cell_length_c 17.605583
_cell_angle_alpha 22.410813
_cell_angle_beta 30.701350
_cell_angle_gamma 29.143590
_cell_volume 631.020208
_symmetry_space_group_name_H-M "P -1"
_symmetry_group_IT_number 2
_symmetry_cell_setting 'triclinic'
loop_
_space_group_symop_operation_xyz
x,y,z
-x,-y,-z
loop_
_atom_site_type_symbol
_atom_site_label
_atom_site_fract_x
_atom_site_fract_y
_atom_site_fract_z
Si Si1 0.383414 0.568850 0.333727
Si Si2 0.539006 0.630985 0.928565
Si Si3 0.258878 0.068415 0.513646
Si Si4 0.295110 0.707783 0.714430
Si Si5 0.305673 0.253237 0.781946
Si Si6 0.987904 0.007330 0.136382
Si Si7 0.253096 0.199216 0.035416
O O1 0.529316 0.367669 0.385423
O O2 0.310752 0.467018 0.542880
O O3 0.144267 0.764099 0.246772
O O4 0.574753 0.681955 0.140043
O O5 0.595766 0.484564 0.106306
O O6 0.500000 0.500000 0.000000
O O7 0.764469 0.701447 0.716731
O O8 0.285678 0.848220 0.879140
O O9 0.052217 0.040290 0.708236
O O10 0.500000 0.000000 0.500000
O O11 0.300594 0.914735 0.561679
O O12 0.005653 0.745087 0.828210
O O13 0.206009 0.269258 0.908267
O O14 0.142103 0.157709 0.910740
O O15 0.583527 0.058660 0.812176
#
# Coordination Sequence:
#
# PCOD9008604 Si02
#       7
#     2   2   2   2   2   2   2
#     4  11  26  39  65  99 136 168 206 270 334 364
#     4  11  22  40  69  94 125 169 219 267 312 377
#     4  10  21  39  65  92 120 167 223 255 305 387
#     4  12  24  42  65  99 132 169 214 268 322 376
#     4  10  21  42  68  93 131 169 215 268 315 376
#     4  10  22  40  64  97 128 165 223 259 310 398
#     4  10  22  42  65  96 127 171 226 252 309 402
#
# _framework density 22.186292999999999
#
# number of rings (size 3 to 8) (size 9 to 14) (size 15 to 20)
#    0.000    1.429    4.286    0.857    4.000    4.571 
#    0.000    5.000    0.000    0.000    0.000    0.000 
#    0.000    0.000    0.000    0.000    0.000    0.000 
#
# Total GULP energy -78226.327259 kJ/mol
# GULP energy per Si atom -5587.594804 kJ/mol
# Density = 2.213580 g / cm^3
# Si number density = 22.186293 Si / 1000 Ang^3
#
#
#
# Elastic Constant Matrix: (Units=GPa)
#
#
# Indices 1 2 3 4 5 6 
#
# 1 11.1721 2.3497 17.9728 -0.6506 -2.1101 -9.0186
# 2 2.3497 101.1889 10.3010 -2.9025 -8.1917 -10.6899
# 3 17.9728 10.3010 87.9471 -15.4677 -17.1759 -10.1215
# 4 -0.6506 -2.9025 -15.4677 28.6985 -0.2499 3.2420
# 5 -2.1101 -8.1917 -17.1759 -0.2499 24.7720 -5.8063
# 6 -9.0186 -10.6899 -10.1215 3.2420 -5.8063 35.9616
#
#
#
# Elastic Compliance Matrix: (Units=1/GPa)
#
#
# Indices 1 2 3 4 5 6 
#
# 1 0.172940 0.002782 -0.034853 -0.018655 -0.000257 0.036029
# 2 0.002782 0.010713 -0.000314 0.000510 0.004620 0.004494
# 3 -0.034853 -0.000314 0.022899 0.011790 0.012591 -0.001419
# 4 -0.018655 0.000510 0.011790 0.041326 0.006251 -0.003925
# 5 -0.000257 0.004620 0.012591 0.006251 0.053705 0.012960
# 6 0.036029 0.004494 -0.001419 -0.003925 0.012960 0.040226
#
#
# Mechanical properties :
#
#
# Convention : Reuss Voigt Hill
#
# Bulk Modulus (GPa) = 7.05300 29.06168 18.05734
# Shear Modulus (GPa) = 11.01712 29.19874 20.10793
#
# Velocity S-wave (km/s) = 2.23081 3.63170 3.01378
# Velocity P-wave (km/s) = 3.13389 5.54194 4.50191
#
# Compressibility (1/GPa) = 0.14178365
#
# Stress axis : x y z
#
# Youngs Moduli (GPa) = 5.78235 93.34189 43.67013
#
# Poissons Ratio (x) = -0.25972 1.52202
# Poissons Ratio (y) = -0.01609 0.01372
# Poissons Ratio (z) = 0.20153 0.02933
#
# Static dielectric constant tensor:
#      x y z
#    x 1.663030 -0.046730 -0.005590 
#    y -0.046730 1.872850 0.009900 
#    z -0.005590 0.009900 1.802030 
# 
# From -- ./inp_files/427310.got.cif
#   From: 2010.05.17/outbox.cif.g08.bks.cpg/sg2_214_cif.got.tgz:427310.got - 2010.06.03 11:33:40.
