data_PCOD9008039
_publ_section_title
;
Structure prediction by ZEFSAII (Michael W. Deem and Ramdas Pophale) SiO2 
 PCOD9008039
Probable space group: P -1
;
_chemical_formula_sum "Si O2"
_cell_formula_units_Z 12
_cell_length_a 5.569566
_cell_length_b 6.296930
_cell_length_c 21.320442
_cell_angle_alpha 131.031656
_cell_angle_beta 77.957638
_cell_angle_gamma 77.822102
_cell_volume 486.444607
_symmetry_space_group_name_H-M "P -1"
_symmetry_group_IT_number 2
_symmetry_cell_setting 'triclinic'
loop_
_space_group_symop_operation_xyz
x,y,z
-x,-y,-z
loop_
_atom_site_type_symbol
_atom_site_label
_atom_site_fract_x
_atom_site_fract_y
_atom_site_fract_z
Si Si1 0.627085 0.305335 0.731262
Si Si2 0.559186 0.154778 0.375361
Si Si3 0.609954 0.932251 0.873589
Si Si4 0.018066 0.912861 0.208251
Si Si5 0.873404 0.170403 0.474979
Si Si6 0.106157 0.268743 0.045825
O O1 0.561349 0.661574 0.789007
O O2 0.728470 0.240549 0.784700
O O3 0.397719 0.200258 0.706984
O O4 0.883288 0.048011 0.627696
O O5 0.617779 0.170950 0.449318
O O6 0.254635 0.448853 0.435510
O O7 0.766461 0.173192 0.314983
O O8 0.736942 0.808235 0.911132
O O9 0.838599 0.985044 0.834169
O O10 0.310215 0.212692 0.964706
O O11 0.931421 0.653066 0.135235
O O12 0.000000 0.000000 0.500000
O O13 0.000000 0.000000 0.000000
#
# Coordination Sequence:
#
# PCOD9008039 Si02
#       6
#     2   2   2   2   2   2
#     4  10  22  41  63  93 135 169 222 280 323 399
#     4  10  22  44  67  96 137 175 224 281 331 399
#     4  10  22  39  62  94 131 173 217 274 335 392
#     4  10  22  40  63  96 132 173 222 275 332 394
#     4  10  23  43  66 100 131 178 225 278 336 399
#     4  10  21  39  63  94 131 171 220 272 329 402
#
# _framework density 24.668790000000001
#
# number of rings (size 3 to 8) (size 9 to 14) (size 15 to 20)
#    0.000    2.000    0.000    2.000    2.333    2.667 
#    9.000    0.000    0.000    0.000    0.000    0.000 
#    0.000    0.000    0.000    0.000    0.000    0.000 
#
# Total GULP energy -66849.568413 kJ/mol
# GULP energy per Si atom -5570.797368 kJ/mol
# Density = 2.461264 g / cm^3
# Si number density = 24.668790 Si / 1000 Ang^3
#
#
#
# Elastic Constant Matrix: (Units=GPa)
#
#
# Indices 1 2 3 4 5 6 
#
# 1 36.3899 26.1809 40.2536 -5.1992 4.4049 3.5640
# 2 26.1809 94.2251 67.2941 -14.9379 4.7244 -7.6841
# 3 40.2536 67.2941 154.8999 4.1338 0.2281 15.1150
# 4 -5.1992 -14.9379 4.1338 37.8352 4.9505 3.5298
# 5 4.4049 4.7244 0.2281 4.9505 51.0153 -1.3633
# 6 3.5640 -7.6841 15.1150 3.5298 -1.3633 32.3087
#
#
#
# Elastic Compliance Matrix: (Units=1/GPa)
#
#
# Indices 1 2 3 4 5 6 
#
# 1 0.042025 -0.004374 -0.008946 0.005736 -0.003801 -0.002278
# 2 -0.004374 0.019901 -0.008519 0.007670 -0.001950 0.008281
# 3 -0.008946 -0.008519 0.013269 -0.005678 0.001878 -0.006548
# 4 0.005736 0.007670 -0.005678 0.031397 -0.004220 0.000239
# 5 -0.003801 -0.001950 0.001878 -0.004220 0.020523 0.000404
# 6 -0.002278 0.008281 -0.006548 0.000239 0.000404 0.036226
#
#
# Mechanical properties :
#
#
# Convention : Reuss Voigt Hill
#
# Bulk Modulus (GPa) = 31.72776 61.44135 46.58456
# Shear Modulus (GPa) = 22.98572 34.35093 28.66833
#
# Velocity S-wave (km/s) = 3.05581 3.73565 3.41270
# Velocity P-wave (km/s) = 5.03389 6.60056 5.86973
#
# Compressibility (1/GPa) = 0.03151814
#
# Stress axis : x y z
#
# Youngs Moduli (GPa) = 23.79509 50.24762 75.36167
#
# Poissons Ratio (x) = 0.21976 0.67420
# Poissons Ratio (y) = 0.10407 0.64202
# Poissons Ratio (z) = 0.21288 0.42807
#
# Static dielectric constant tensor:
#      x y z
#    x 2.192710 0.007020 0.058770 
#    y 0.007020 1.990420 0.067050 
#    z 0.058770 0.067050 2.001720 
# 
# From -- ./inp_files/5647.got.cif
#   From: 2010.05.17/outbox.cif.g08.bks.cpg/sg2_3_cif.got.tgz:5647.got - 2010.06.03 11:33:40.
