data_PCOD9008451
_publ_section_title
;
Structure prediction by ZEFSAII (Michael W. Deem and Ramdas Pophale) SiO2 
 PCOD9008451
Probable space group: P -1
;
_chemical_formula_sum "Si O2"
_cell_formula_units_Z 13
_cell_length_a 12.870497
_cell_length_b 10.012550
_cell_length_c 8.935052
_cell_angle_alpha 100.379356
_cell_angle_beta 76.353890
_cell_angle_gamma 36.900207
_cell_volume 520.576947
_symmetry_space_group_name_H-M "P -1"
_symmetry_group_IT_number 2
_symmetry_cell_setting 'triclinic'
loop_
_space_group_symop_operation_xyz
x,y,z
-x,-y,-z
loop_
_atom_site_type_symbol
_atom_site_label
_atom_site_fract_x
_atom_site_fract_y
_atom_site_fract_z
Si Si1 0.282030 0.354041 0.501176
Si Si2 0.663688 0.481605 0.695404
Si Si3 0.561320 0.797297 0.241661
Si Si4 0.000000 0.500000 0.500000
Si Si5 0.077748 0.594406 0.203640
Si Si6 0.648081 0.396667 0.120004
Si Si7 0.870417 0.077707 0.285783
O O1 0.417271 0.315685 0.357211
O O2 0.346182 0.286957 0.638026
O O3 0.024431 0.634214 0.595497
O O4 0.338363 0.140048 0.365385
O O5 0.796957 0.425767 0.753077
O O6 0.489896 0.583428 0.865332
O O7 0.807476 0.218485 0.490595
O O8 0.525626 0.678567 0.204607
O O9 0.751465 0.638633 0.032744
O O10 0.027331 0.533842 0.323766
O O11 0.874777 0.909416 0.265082
O O12 0.699964 0.317152 0.263422
O O13 0.887092 0.143517 0.904400
#
# Coordination Sequence:
#
# PCOD9008451 Si02
#       7
#     2   2   2   1   2   2   2
#     4  10  23  42  64  94 128 167 218 258 326 376
#     4  11  22  41  65  97 132 169 211 270 318 387
#     4  10  22  43  65  92 128 169 215 260 313 405
#     4  10  24  42  60  92 126 168 208 270 314 374
#     4  10  24  43  62  96 130 168 218 261 330 373
#     4  10  22  40  68  98 130 168 215 261 328 376
#     4  10  21  39  64  98 129 165 216 266 310 395
#
# _framework density 24.972294000000002
#
# number of rings (size 3 to 8) (size 9 to 14) (size 15 to 20)
#    0.000    1.846    1.538    0.923    2.154    6.769 
#   11.077    0.000    0.000    0.000    0.000    0.000 
#    0.000    0.000    0.000    0.000    0.000    0.000 
#
# Total GULP energy -72495.894652 kJ/mol
# GULP energy per Si atom -5576.607281 kJ/mol
# Density = 2.491546 g / cm^3
# Si number density = 24.972294 Si / 1000 Ang^3
#
#
#
# Elastic Constant Matrix: (Units=GPa)
#
#
# Indices 1 2 3 4 5 6 
#
# 1 107.8246 24.9323 19.8550 -1.6014 -24.5387 20.1220
# 2 24.9323 101.4001 61.0272 -21.5912 -21.2112 26.1661
# 3 19.8550 61.0272 102.5574 -28.7512 -7.1652 18.8682
# 4 -1.6014 -21.5912 -28.7512 45.5900 14.1017 -5.4471
# 5 -24.5387 -21.2112 -7.1652 14.1017 31.5799 -17.8054
# 6 20.1220 26.1661 18.8682 -5.4471 -17.8054 36.1613
#
#
#
# Elastic Compliance Matrix: (Units=1/GPa)
#
#
# Indices 1 2 3 4 5 6 
#
# 1 0.012275 0.000172 -0.002875 -0.004678 0.010545 -0.000967
# 2 0.000172 0.018399 -0.009711 -0.000394 0.007928 -0.004498
# 3 -0.002875 -0.009711 0.019292 0.010616 -0.012500 -0.005995
# 4 -0.004678 -0.000394 0.010616 0.033851 -0.021078 -0.007931
# 5 0.010545 0.007928 -0.012500 -0.021078 0.065208 0.023851
# 6 -0.000967 -0.004498 -0.005995 -0.007931 0.023851 0.045124
#
#
# Mechanical properties :
#
#
# Convention : Reuss Voigt Hill
#
# Bulk Modulus (GPa) = 39.78289 58.15681 48.96985
# Shear Modulus (GPa) = 21.99185 36.39741 29.19463
#
# Velocity S-wave (km/s) = 2.97079 3.82188 3.42289
# Velocity P-wave (km/s) = 5.26620 6.54330 5.93918
#
# Compressibility (1/GPa) = 0.02513644
#
# Stress axis : x y z
#
# Youngs Moduli (GPa) = 81.46760 54.34949 51.83581
#
# Poissons Ratio (x) = -0.00932 0.14905
# Poissons Ratio (y) = -0.01397 0.50337
# Poissons Ratio (z) = 0.23425 0.52778
#
# Static dielectric constant tensor:
#      x y z
#    x -80.013120 69.894120 27.165710 
#    y 69.894120 -57.477550 -23.134500 
#    z 27.165710 -23.134500 -7.057150 
# 
# From -- ./inp_files/150383.got.cif
#   From: 2010.05.17/outbox.cif.g08.bks.cpg/sg2_76_cif.got.tgz:150383.got - 2010.06.03 11:33:40.
