data_PCOD9008046
_publ_section_title
;
Structure prediction by ZEFSAII (Michael W. Deem and Ramdas Pophale) SiO2 
 PCOD9008046
Probable space group: P -1
;
_chemical_formula_sum "Si O2"
_cell_formula_units_Z 13
_cell_length_a 8.595613
_cell_length_b 10.230683
_cell_length_c 7.151239
_cell_angle_alpha 70.256050
_cell_angle_beta 69.310166
_cell_angle_gamma 99.570837
_cell_volume 523.786614
_symmetry_space_group_name_H-M "P -1"
_symmetry_group_IT_number 2
_symmetry_cell_setting 'triclinic'
loop_
_space_group_symop_operation_xyz
x,y,z
-x,-y,-z
loop_
_atom_site_type_symbol
_atom_site_label
_atom_site_fract_x
_atom_site_fract_y
_atom_site_fract_z
Si Si1 0.305169 0.890479 0.108792
Si Si2 0.202214 0.558708 0.828707
Si Si3 0.461895 0.659773 0.215265
Si Si4 0.285524 0.363050 0.565248
Si Si5 0.028431 0.051770 0.746104
Si Si6 0.500000 0.500000 0.000000
Si Si7 0.298778 0.895082 0.667177
O O1 0.315711 0.735371 0.246987
O O2 0.164940 0.954000 0.230339
O O3 0.273134 0.874378 0.910509
O O4 0.500000 0.000000 0.000000
O O5 0.222154 0.466011 0.682259
O O6 0.262014 0.732788 0.681800
O O7 0.324813 0.529037 0.952464
O O8 0.000000 0.500000 0.000000
O O9 0.386749 0.478430 0.305286
O O10 0.578936 0.686519 0.338247
O O11 0.566405 0.680112 0.969393
O O12 0.140892 0.223534 0.617911
O O13 0.147340 0.965493 0.644832
O O14 0.000000 0.000000 0.000000
O O15 0.500000 0.000000 0.500000
#
# Coordination Sequence:
#
# PCOD9008046 Si02
#       7
#     2   2   2   2   2   1   2
#     4  11  23  41  67  90 131 175 220 271 336 403
#     4  11  23  44  68  95 134 180 219 282 346 403
#     4  10  21  39  63  95 125 166 221 272 331 392
#     4  10  23  38  69  92 126 168 226 268 333 404
#     4  10  22  42  64  93 128 177 221 265 334 410
#     4  10  22  40  64  96 128 166 226 276 336 398
#     4  11  25  43  68  97 134 173 223 279 344 397
#
# _framework density 24.819264
#
# number of rings (size 3 to 8) (size 9 to 14) (size 15 to 20)
#    0.000    1.538    1.538    3.692    8.615    1.846 
#    0.000    0.769    0.000    0.000    0.000    0.000 
#    0.000    0.000    0.000    0.000    0.000    0.000 
#
# Total GULP energy -72536.583190 kJ/mol
# GULP energy per Si atom -5579.737168 kJ/mol
# Density = 2.476277 g / cm^3
# Si number density = 24.819264 Si / 1000 Ang^3
#
#
#
# Elastic Constant Matrix: (Units=GPa)
#
#
# Indices 1 2 3 4 5 6 
#
# 1 188.1404 89.3707 58.2250 -5.0228 -18.3572 -56.6240
# 2 89.3707 121.9984 45.1027 6.9647 4.5754 -31.0116
# 3 58.2250 45.1027 88.9789 13.7381 -6.5209 -6.8337
# 4 -5.0228 6.9647 13.7381 45.1549 11.7939 -3.2920
# 5 -18.3572 4.5754 -6.5209 11.7939 39.6678 2.8109
# 6 -56.6240 -31.0116 -6.8337 -3.2920 2.8109 52.3726
#
#
#
# Elastic Compliance Matrix: (Units=1/GPa)
#
#
# Indices 1 2 3 4 5 6 
#
# 1 0.013099 -0.005364 -0.005326 0.003611 0.004002 0.010304
# 2 -0.005364 0.014403 -0.003938 -0.000155 -0.004920 0.002470
# 3 -0.005326 -0.003938 0.017493 -0.006634 0.003291 -0.006401
# 4 0.003611 -0.000155 -0.006634 0.026992 -0.007785 0.005061
# 5 0.004002 -0.004920 0.003291 -0.007785 0.030505 -0.000284
# 6 0.010304 0.002470 -0.006401 0.005061 -0.000284 0.031195
#
#
# Mechanical properties :
#
#
# Convention : Reuss Voigt Hill
#
# Bulk Modulus (GPa) = 63.52852 87.16827 75.34840
# Shear Modulus (GPa) = 29.72841 41.20033 35.46437
#
# Velocity S-wave (km/s) = 3.46467 4.07875 3.78419
# Velocity P-wave (km/s) = 6.45425 7.57489 7.03691
#
# Compressibility (1/GPa) = 0.01574096
#
# Stress axis : x y z
#
# Youngs Moduli (GPa) = 76.33971 69.42864 57.16464
#
# Poissons Ratio (x) = 0.37243 0.30444
# Poissons Ratio (y) = 0.40950 0.22510
# Poissons Ratio (z) = 0.40656 0.27339
#
# Static dielectric constant tensor:
#      x y z
#    x 1.940040 0.086390 0.077360 
#    y 0.086390 1.038530 -0.470100 
#    z 0.077360 -0.470100 1.966990 
# 
# From -- ./inp_files/152844.got.cif
#   From: 2010.05.17/outbox.cif.g08.bks.cpg/sg2_77_cif.got.tgz:152844.got - 2010.06.03 11:33:40.
