data_PCOD9008097
_publ_section_title
;
Structure prediction by ZEFSAII (Michael W. Deem and Ramdas Pophale) SiO2 
 PCOD9008097
Probable space group: P -1
;
_chemical_formula_sum "Si O2"
_cell_formula_units_Z 12
_cell_length_a 9.218753
_cell_length_b 13.144040
_cell_length_c 9.138531
_cell_angle_alpha 125.862227
_cell_angle_beta 133.676713
_cell_angle_gamma 31.406213
_cell_volume 417.318816
_symmetry_space_group_name_H-M "P -1"
_symmetry_group_IT_number 2
_symmetry_cell_setting 'triclinic'
loop_
_space_group_symop_operation_xyz
x,y,z
-x,-y,-z
loop_
_atom_site_type_symbol
_atom_site_label
_atom_site_fract_x
_atom_site_fract_y
_atom_site_fract_z
Si Si1 0.029994 0.436620 0.657595
Si Si2 0.401942 0.671644 0.992614
Si Si3 0.728423 0.216124 0.332107
Si Si4 0.034920 0.268617 0.778018
Si Si5 0.842802 0.885784 0.648833
Si Si6 0.617693 0.836553 0.792449
O O1 0.965301 0.428401 0.774802
O O2 0.975247 0.331381 0.451242
O O3 0.790036 0.664480 0.651362
O O4 0.379987 0.321730 0.790999
O O5 0.450183 0.656825 0.834865
O O6 0.022374 0.850421 0.886180
O O7 0.500000 0.500000 0.000000
O O8 0.602599 0.148936 0.251676
O O9 0.782846 0.287960 0.563231
O O10 0.075370 0.048597 0.360719
O O11 0.379494 0.061908 0.780549
O O12 0.106597 0.247442 0.980061
O O13 0.500000 0.000000 0.500000
#
# Coordination Sequence:
#
# PCOD9008097 Si02
#       6
#     2   2   2   2   2   2
#     4  11  23  42  68  96 136 170 218 277 328 395
#     4  10  23  42  64  97 129 175 228 269 327 387
#     4   9  21  40  64  96 133 168 218 274 325 393
#     4  10  21  39  63  98 134 172 211 262 334 397
#     4   9  22  43  67  91 131 178 220 273 324 385
#     4  11  22  39  69  99 134 172 210 270 342 396
#
# _framework density 28.754994
#
# number of rings (size 3 to 8) (size 9 to 14) (size 15 to 20)
#    1.000    1.000    1.667    1.000    0.000    8.000 
#    0.000    3.333    0.000    0.000    0.000    0.000 
#    0.000    0.000    0.000    0.000    0.000    0.000 
#
# Total GULP energy -67071.454086 kJ/mol
# GULP energy per Si atom -5589.287840 kJ/mol
# Density = 2.868955 g / cm^3
# Si number density = 28.754994 Si / 1000 Ang^3
#
#
#
# Elastic Constant Matrix: (Units=GPa)
#
#
# Indices 1 2 3 4 5 6 
#
# 1 138.7627 -3.8943 32.9125 -6.3783 8.8512 16.9886
# 2 -3.8943 115.8724 19.0318 -7.9608 6.8544 -4.7273
# 3 32.9125 19.0318 163.2895 4.5130 22.8767 13.1177
# 4 -6.3783 -7.9608 4.5130 43.9567 0.4030 7.4474
# 5 8.8512 6.8544 22.8767 0.4030 54.1057 -13.6988
# 6 16.9886 -4.7273 13.1177 7.4474 -13.6988 41.9947
#
#
#
# Elastic Compliance Matrix: (Units=1/GPa)
#
#
# Indices 1 2 3 4 5 6 
#
# 1 0.008198 0.000571 -0.001200 0.002089 -0.001901 -0.003868
# 2 0.000571 0.009025 -0.001186 0.001733 -0.000581 0.000659
# 3 -0.001200 -0.001186 0.007240 -0.000604 -0.003451 -0.002928
# 4 0.002089 0.001733 -0.000604 0.024358 -0.001850 -0.005384
# 5 -0.001901 -0.000581 -0.003451 -0.001850 0.022753 0.009532
# 6 -0.003868 0.000659 -0.002928 -0.005384 0.009532 0.030430
#
#
# Mechanical properties :
#
#
# Convention : Reuss Voigt Hill
#
# Bulk Modulus (GPa) = 48.00326 57.11383 52.55855
# Shear Modulus (GPa) = 44.41366 52.66972 48.54169
#
# Velocity S-wave (km/s) = 3.93435 4.28445 4.11312
# Velocity P-wave (km/s) = 6.11301 6.66188 6.39334
#
# Compressibility (1/GPa) = 0.02083192
#
# Stress axis : x y z
#
# Youngs Moduli (GPa) = 121.98217 110.80945 138.12873
#
# Poissons Ratio (x) = -0.06324 0.16569
# Poissons Ratio (y) = -0.06962 0.16385
# Poissons Ratio (z) = 0.14632 0.13145
#
# Static dielectric constant tensor:
#      x y z
#    x 2.299410 -0.170450 -0.078320 
#    y -0.170450 2.347540 -0.041010 
#    z -0.078320 -0.041010 2.214660 
# 
# From -- ./inp_files/433255.got.cif
#   From: 2010.05.17/outbox.cif.g08.bks.cpg/sg2_217_cif.got.tgz:433255.got - 2010.06.03 11:33:40.
