data_PCOD9008748
_publ_section_title
;
Structure prediction by ZEFSAII (Michael W. Deem and Ramdas Pophale) SiO2 
 PCOD9008748
Probable space group: P -1
;
_chemical_formula_sum "Si O2"
_cell_formula_units_Z 15
_cell_length_a 12.260563
_cell_length_b 10.980738
_cell_length_c 7.028720
_cell_angle_alpha 60.395325
_cell_angle_beta 83.316463
_cell_angle_gamma 47.127326
_cell_volume 565.979211
_symmetry_space_group_name_H-M "P -1"
_symmetry_group_IT_number 2
_symmetry_cell_setting 'triclinic'
loop_
_space_group_symop_operation_xyz
x,y,z
-x,-y,-z
loop_
_atom_site_type_symbol
_atom_site_label
_atom_site_fract_x
_atom_site_fract_y
_atom_site_fract_z
Si Si1 0.137021 0.405540 0.401955
Si Si2 0.028666 0.196312 0.019236
Si Si3 0.203106 0.618788 0.739167
Si Si4 0.796608 0.701411 0.936524
Si Si5 0.500000 0.500000 0.000000
Si Si6 0.542796 0.933330 0.261809
Si Si7 0.509948 0.327405 0.418783
Si Si8 0.257871 0.753878 0.263641
O O1 0.103456 0.387149 0.208970
O O2 0.284615 0.181350 0.623552
O O3 0.000000 0.500000 0.500000
O O4 0.114410 0.594511 0.224383
O O5 0.158193 0.198364 0.040772
O O6 0.945474 0.218275 0.213587
O O7 0.121008 0.987257 0.056573
O O8 0.362867 0.528703 0.877405
O O9 0.195987 0.698056 0.473217
O O10 0.205041 0.447949 0.846630
O O11 0.616812 0.870808 0.757622
O O12 0.413526 0.726309 0.759225
O O13 0.558693 0.755166 0.446226
O O14 0.500000 0.000000 0.000000
O O15 0.374688 0.575478 0.218947
O O16 0.618733 0.272011 0.612480
#
# Coordination Sequence:
#
# PCOD9008748 Si02
#       8
#     2   2   2   2   1   2   2   2
#     4  11  25  42  62 101 142 176 226 293 345 412
#     4  11  22  44  69 100 137 178 229 287 350 409
#     4  10  21  40  67  96 135 177 223 281 342 411
#     4  11  23  44  73 101 138 185 233 285 353 414
#     4  10  22  42  62  90 140 176 222 274 346 400
#     4  12  24  43  71 101 135 186 240 284 348 418
#     4  10  21  40  65  94 132 177 225 284 332 412
#     4  10  21  39  65  96 130 176 227 273 341 412
#
# _framework density 26.502742000000001
#
# number of rings (size 3 to 8) (size 9 to 14) (size 15 to 20)
#    0.000    1.333    1.333    5.600    0.000    1.067 
#    2.400    2.667    0.000    0.000    0.000    0.000 
#    0.000    0.000    0.000    0.000    0.000    0.000 
#
# Total GULP energy -83613.030490 kJ/mol
# GULP energy per Si atom -5574.202033 kJ/mol
# Density = 2.644242 g / cm^3
# Si number density = 26.502742 Si / 1000 Ang^3
#
#
#
# Elastic Constant Matrix: (Units=GPa)
#
#
# Indices 1 2 3 4 5 6 
#
# 1 117.7912 19.6177 22.8470 -2.3049 -3.2288 0.6088
# 2 19.6177 69.9446 24.4078 -15.0380 -9.8680 -4.6372
# 3 22.8470 24.4078 110.3231 -8.9063 -3.4263 14.2218
# 4 -2.3049 -15.0380 -8.9063 53.8897 -1.9631 -2.4512
# 5 -3.2288 -9.8680 -3.4263 -1.9631 45.5725 9.6075
# 6 0.6088 -4.6372 14.2218 -2.4512 9.6075 27.5921
#
#
#
# Elastic Compliance Matrix: (Units=1/GPa)
#
#
# Indices 1 2 3 4 5 6 
#
# 1 0.009120 -0.002125 -0.001473 -0.000438 0.000024 0.000154
# 2 -0.002125 0.017809 -0.003608 0.004579 0.002712 0.004362
# 3 -0.001473 -0.003608 0.011122 0.000512 0.001395 -0.006747
# 4 -0.000438 0.004579 0.000512 0.020035 0.001487 0.001777
# 5 0.000024 0.002712 0.001395 0.001487 0.024529 -0.008673
# 6 0.000154 0.004362 -0.006747 0.001777 -0.008673 0.043627
#
#
# Mechanical properties :
#
#
# Convention : Reuss Voigt Hill
#
# Bulk Modulus (GPa) = 42.30353 47.97822 45.14087
# Shear Modulus (GPa) = 33.66220 40.82331 37.24275
#
# Velocity S-wave (km/s) = 3.56777 3.92898 3.75272
# Velocity P-wave (km/s) = 5.74183 6.22293 5.98721
#
# Compressibility (1/GPa) = 0.02363869
#
# Stress axis : x y z
#
# Youngs Moduli (GPa) = 109.64341 56.15292 89.91130
#
# Poissons Ratio (x) = 0.11931 0.13245
# Poissons Ratio (y) = 0.23295 0.32443
# Poissons Ratio (z) = 0.16152 0.20262
#
# Static dielectric constant tensor:
#      x y z
#    x 2.200620 0.028580 0.183270 
#    y 0.028580 1.984390 -0.372860 
#    z 0.183270 -0.372860 1.762410 
# 
# From -- ./inp_files/256323.got.cif
#   From: 2010.05.17/outbox.cif.g08.bks.cpg/sg2_129_cif.got.tgz:256323.got - 2010.06.03 11:33:40.
