data_PCOD9008288
_publ_section_title
;
Structure prediction by ZEFSAII (Michael W. Deem and Ramdas Pophale) SiO2 
 PCOD9008288
Probable space group: P -1
;
_chemical_formula_sum "Si O2"
_cell_formula_units_Z 16
_cell_length_a 9.149023
_cell_length_b 10.657589
_cell_length_c 10.001636
_cell_angle_alpha 125.754181
_cell_angle_beta 65.269765
_cell_angle_gamma 104.435317
_cell_volume 718.826392
_symmetry_space_group_name_H-M "P -1"
_symmetry_group_IT_number 2
_symmetry_cell_setting 'triclinic'
loop_
_space_group_symop_operation_xyz
x,y,z
-x,-y,-z
loop_
_atom_site_type_symbol
_atom_site_label
_atom_site_fract_x
_atom_site_fract_y
_atom_site_fract_z
Si Si1 0.441292 0.336965 0.276807
Si Si2 0.237968 0.048649 0.132927
Si Si3 0.174393 0.838418 0.256557
Si Si4 0.906153 0.202910 0.439816
Si Si5 0.629038 0.476235 0.048429
Si Si6 0.734600 0.225779 0.258120
Si Si7 0.875433 0.541308 0.395407
Si Si8 0.895594 0.652739 0.164895
O O1 0.561864 0.293741 0.324039
O O2 0.280482 0.423644 0.435124
O O3 0.625066 0.822533 0.860568
O O4 0.543577 0.436701 0.196025
O O5 0.265785 0.966423 0.215226
O O6 0.064543 0.128894 0.266534
O O7 0.238601 0.921507 0.937839
O O8 0.269096 0.676810 0.119437
O O9 0.133019 0.870890 0.446637
O O10 0.011993 0.799461 0.209421
O O11 0.963480 0.380910 0.558219
O O12 0.762439 0.192773 0.382865
O O13 0.500000 0.500000 0.000000
O O14 0.742300 0.627013 0.115179
O O15 0.868799 0.359112 0.257356
O O16 0.847588 0.633169 0.325596
O O17 0.000000 0.500000 0.000000
#
# Coordination Sequence:
#
# PCOD9008288 Si02
#       8
#     2   2   2   2   2   2   2   2
#     4  11  24  41  65  94 130 173 206 259 324 387
#     4  11  23  45  64  89 131 176 211 250 324 387
#     4  10  21  42  66  87 129 171 212 256 322 378
#     4  10  24  39  63  98 124 164 218 272 305 370
#     4  11  23  39  63  95 130 163 216 265 320 375
#     4  12  21  39  65  93 129 163 217 258 317 376
#     4  10  21  39  64  92 128 164 212 261 318 369
#     4   9  18  38  59  90 118 168 204 252 313 369
#
# _framework density 22.258505
#
# number of rings (size 3 to 8) (size 9 to 14) (size 15 to 20)
#    0.000    1.500    2.500    2.625    1.750    0.000 
#   13.500    0.625    0.000    0.000    0.000    0.000 
#    0.000    0.000    0.000    0.000    0.000    0.000 
#
# Total GULP energy -89432.638681 kJ/mol
# GULP energy per Si atom -5589.539918 kJ/mol
# Density = 2.220784 g / cm^3
# Si number density = 22.258505 Si / 1000 Ang^3
#
#
#
# Elastic Constant Matrix: (Units=GPa)
#
#
# Indices 1 2 3 4 5 6 
#
# 1 109.0375 10.0257 37.8312 -11.9811 26.8948 -8.2334
# 2 10.0257 40.9957 5.5846 13.2856 8.9405 8.3809
# 3 37.8312 5.5846 79.3663 3.5399 14.4528 6.1937
# 4 -11.9811 13.2856 3.5399 25.5987 2.1058 4.0085
# 5 26.8948 8.9405 14.4528 2.1058 39.3959 -5.6634
# 6 -8.2334 8.3809 6.1937 4.0085 -5.6634 24.7734
#
#
#
# Elastic Compliance Matrix: (Units=1/GPa)
#
#
# Indices 1 2 3 4 5 6 
#
# 1 0.015184 -0.006070 -0.006567 0.010821 -0.006362 0.005536
# 2 -0.006070 0.035679 0.003376 -0.019259 -0.006060 -0.013201
# 3 -0.006567 0.003376 0.016913 -0.005745 -0.003239 -0.007364
# 4 0.010821 -0.019259 -0.005745 0.054925 -0.003580 0.001843
# 5 -0.006362 -0.006060 -0.003239 -0.003580 0.033782 0.009048
# 6 0.005536 -0.013201 -0.007364 0.001843 0.009048 0.050283
#
#
# Mechanical properties :
#
#
# Convention : Reuss Voigt Hill
#
# Bulk Modulus (GPa) = 20.30311 37.36471 28.83391
# Shear Modulus (GPa) = 20.68620 29.68414 25.18517
#
# Velocity S-wave (km/s) = 3.05185 3.65582 3.36741
# Velocity P-wave (km/s) = 4.64324 5.88585 5.30108
#
# Compressibility (1/GPa) = 0.04925354
#
# Stress axis : x y z
#
# Youngs Moduli (GPa) = 65.85918 28.02760 59.12531
#
# Poissons Ratio (x) = 0.17013 0.38826
# Poissons Ratio (y) = 0.39977 -0.19958
# Poissons Ratio (z) = 0.43248 -0.09461
#
# Static dielectric constant tensor:
#      x y z
#    x 1.827630 -0.003900 0.000240 
#    y -0.003900 1.837890 0.016640 
#    z 0.000240 0.016640 1.846330 
# 
# From -- ./inp_files/182415.got.cif
#   From: 2010.05.17/outbox.cif.g08.bks.cpg/sg2_92_cif.got.tgz:182415.got - 2010.06.03 11:33:40.
