data_PCOD9008458
_publ_section_title
;
Structure prediction by ZEFSAII (Michael W. Deem and Ramdas Pophale) SiO2 
 PCOD9008458
Probable space group: P -1
;
_chemical_formula_sum "Si O2"
_cell_formula_units_Z 16
_cell_length_a 19.008377
_cell_length_b 6.025252
_cell_length_c 8.746152
_cell_angle_alpha 101.937054
_cell_angle_beta 39.720642
_cell_angle_gamma 90.357358
_cell_volume 607.282968
_symmetry_space_group_name_H-M "P -1"
_symmetry_group_IT_number 2
_symmetry_cell_setting 'triclinic'
loop_
_space_group_symop_operation_xyz
x,y,z
-x,-y,-z
loop_
_atom_site_type_symbol
_atom_site_label
_atom_site_fract_x
_atom_site_fract_y
_atom_site_fract_z
Si Si1 0.006860 0.273210 0.072144
Si Si2 0.762973 0.639875 0.294723
Si Si3 0.944561 0.305985 0.498970
Si Si4 0.670961 0.345225 0.605397
Si Si5 0.831040 0.032063 0.830638
Si Si6 0.273582 0.030172 0.304325
Si Si7 0.371336 0.154229 0.733906
Si Si8 0.555844 0.758585 0.071499
O O1 0.920511 0.347989 0.366954
O O2 0.127906 0.288437 0.944086
O O3 0.000000 0.500000 0.000000
O O4 0.000000 0.000000 0.000000
O O5 0.757213 0.387976 0.337246
O O6 0.750539 0.786270 0.493063
O O7 0.664618 0.711437 0.344427
O O8 0.000000 0.500000 0.500000
O O9 0.049689 0.073895 0.301410
O O10 0.844900 0.279265 0.777028
O O11 0.576913 0.216701 0.681470
O O12 0.725074 0.202042 0.640637
O O13 0.597220 0.584259 0.836718
O O14 0.816982 0.911975 0.671753
O O15 0.721149 0.996461 0.097110
O O16 0.397950 0.017580 0.023503
O O17 0.376067 0.319707 0.896855
O O18 0.500000 0.000000 0.500000
#
# Coordination Sequence:
#
# PCOD9008458 Si02
#       8
#     2   2   2   2   2   2   2   2
#     4  12  30  52  82 119 160 203 260 336 412 470
#     4  11  25  43  68 107 147 186 252 311 390 467
#     4  11  26  48  77 106 147 201 262 329 397 470
#     4  10  21  39  64  98 134 186 241 308 364 460
#     4  10  24  45  69 103 143 190 261 316 387 470
#     4  10  21  40  69  93 134 189 240 304 380 458
#     4  11  23  45  68 102 146 200 242 314 382 459
#     4   9  21  40  63  92 134 183 252 289 367 443
#
# _framework density 26.346861000000001
#
# number of rings (size 3 to 8) (size 9 to 14) (size 15 to 20)
#    0.000    1.500    1.250    1.875    8.750    7.500 
#    2.250    1.250    0.000    0.000    0.000    0.000 
#    0.000    0.000    0.000    0.000    0.000    0.000 
#
# Total GULP energy -89227.496558 kJ/mol
# GULP energy per Si atom -5576.718535 kJ/mol
# Density = 2.628689 g / cm^3
# Si number density = 26.346861 Si / 1000 Ang^3
#
#
#
# Elastic Constant Matrix: (Units=GPa)
#
#
# Indices 1 2 3 4 5 6 
#
# 1 126.7872 35.4608 28.6838 -20.1126 3.5073 -4.2652
# 2 35.4608 94.8643 46.2633 -34.8247 -0.2998 0.1190
# 3 28.6838 46.2633 100.5428 -49.0776 -16.2722 1.3056
# 4 -20.1126 -34.8247 -49.0776 46.2202 4.6078 3.0932
# 5 3.5073 -0.2998 -16.2722 4.6078 48.1877 -9.5149
# 6 -4.2652 0.1190 1.3056 3.0932 -9.5149 48.4593
#
#
#
# Elastic Compliance Matrix: (Units=1/GPa)
#
#
# Indices 1 2 3 4 5 6 
#
# 1 0.009036 -0.002485 -0.001190 0.000861 -0.001044 0.000573
# 2 -0.002485 0.015821 -0.002955 0.007936 -0.001678 -0.001014
# 3 -0.001190 -0.002955 0.022794 0.020967 0.005572 -0.000956
# 4 0.000861 0.007936 0.020967 0.050324 0.001582 -0.003410
# 5 -0.001044 -0.001678 0.005572 0.001582 0.023388 0.004253
# 6 0.000573 -0.001014 -0.000956 -0.003410 0.004253 0.021767
#
#
# Mechanical properties :
#
#
# Convention : Reuss Voigt Hill
#
# Bulk Modulus (GPa) = 29.07844 60.33447 44.70646
# Shear Modulus (GPa) = 29.78741 42.69254 36.23997
#
# Velocity S-wave (km/s) = 3.36607 4.02979 3.71279
# Velocity P-wave (km/s) = 5.11546 6.67848 5.94853
#
# Compressibility (1/GPa) = 0.03438974
#
# Stress axis : x y z
#
# Youngs Moduli (GPa) = 110.66303 63.20778 43.87032
#
# Poissons Ratio (x) = 0.15708 0.05223
# Poissons Ratio (y) = 0.27501 0.12966
# Poissons Ratio (z) = 0.13174 0.18681
#
# Static dielectric constant tensor:
#      x y z
#    x 2.116310 0.022890 -0.045960 
#    y 0.022890 2.266490 -0.052860 
#    z -0.045960 -0.052860 2.177900 
# 
# From -- ./inp_files/340386.got.cif
#   From: 2010.05.17/outbox.cif.g08.bks.cpg/sg2_171_cif.got.tgz:340386.got - 2010.06.03 11:33:40.
