data_PCOD9008947
_publ_section_title
;
Structure prediction by ZEFSAII (Michael W. Deem and Ramdas Pophale) SiO2 
 PCOD9008947
Probable space group: P -1
;
_chemical_formula_sum "Si O2"
_cell_formula_units_Z 16
_cell_length_a 9.567520
_cell_length_b 17.072274
_cell_length_c 14.213740
_cell_angle_alpha 138.959448
_cell_angle_beta 133.304763
_cell_angle_gamma 30.433791
_cell_volume 767.741331
_symmetry_space_group_name_H-M "P -1"
_symmetry_group_IT_number 2
_symmetry_cell_setting 'triclinic'
loop_
_space_group_symop_operation_xyz
x,y,z
-x,-y,-z
loop_
_atom_site_type_symbol
_atom_site_label
_atom_site_fract_x
_atom_site_fract_y
_atom_site_fract_z
Si Si1 0.694409 0.474496 0.929519
Si Si2 0.728261 0.514711 0.202695
Si Si3 0.413537 0.850710 0.770332
Si Si4 0.863473 0.951999 0.657877
Si Si5 0.320852 0.160376 0.931126
Si Si6 0.689203 0.135235 0.937319
Si Si7 0.198114 0.330320 0.371349
Si Si8 0.649432 0.813586 0.497996
O O1 0.720631 0.489833 0.067326
O O2 0.493526 0.661772 0.958714
O O3 0.540336 0.416306 0.806136
O O4 0.007532 0.329441 0.907658
O O5 0.746877 0.646698 0.345397
O O6 0.994360 0.341507 0.222953
O O7 0.600815 0.703064 0.643476
O O8 0.144260 0.893263 0.708013
O O9 0.336652 0.015515 0.840758
O O10 0.585555 0.803136 0.901457
O O11 0.874579 0.814147 0.580223
O O12 0.718890 0.091625 0.801299
O O13 0.651341 0.031041 0.545300
O O14 0.525402 0.108929 0.896350
O O15 0.000000 0.000000 0.000000
O O16 0.375399 0.186378 0.401965
O O17 0.000000 0.500000 0.500000
#
# Coordination Sequence:
#
# PCOD9008947 Si02
#       8
#     2   2   2   2   2   2   2   2
#     4  11  23  39  69  97 136 172 220 281 342 397
#     4  10  21  39  66  94 128 173 221 272 332 392
#     4  11  23  40  68  99 135 172 232 272 340 399
#     4  11  23  41  66  95 132 180 222 281 326 401
#     4  11  24  40  66 104 139 172 216 289 336 406
#     4  12  25  41  67 102 133 177 221 280 349 400
#     4  10  22  41  65  92 132 180 222 276 323 398
#     4  10  22  42  63  91 131 178 226 267 326 393
#
# _framework density 20.840353
#
# number of rings (size 3 to 8) (size 9 to 14) (size 15 to 20)
#    0.000    1.250    3.750    1.875    5.250    0.500 
#    0.000    7.500    0.000    0.000    0.000    0.000 
#    0.000    0.000    0.000    0.000    0.000    0.000 
#
# Total GULP energy -89278.061161 kJ/mol
# GULP energy per Si atom -5579.878823 kJ/mol
# Density = 2.079292 g / cm^3
# Si number density = 20.840353 Si / 1000 Ang^3
#
#
#
# Elastic Constant Matrix: (Units=GPa)
#
#
# Indices 1 2 3 4 5 6 
#
# 1 111.4266 24.8658 26.4128 -10.7788 7.5343 -46.1795
# 2 24.8658 87.1508 14.9654 -15.6270 5.3939 -21.9865
# 3 26.4128 14.9654 35.9325 -0.0024 11.4049 -11.8854
# 4 -10.7788 -15.6270 -0.0024 36.4097 1.9188 -1.7524
# 5 7.5343 5.3939 11.4049 1.9188 42.1930 -12.3027
# 6 -46.1795 -21.9865 -11.8854 -1.7524 -12.3027 37.0014
#
#
#
# Elastic Compliance Matrix: (Units=1/GPa)
#
#
# Indices 1 2 3 4 5 6 
#
# 1 0.024928 0.004679 -0.011637 0.010596 0.007256 0.033068
# 2 0.004679 0.016417 -0.006191 0.009008 0.002681 0.014924
# 3 -0.011637 -0.006191 0.039105 -0.006013 -0.010138 -0.009297
# 4 0.010596 0.009008 -0.006013 0.035255 0.002568 0.019169
# 5 0.007256 0.002681 -0.010138 0.002568 0.029762 0.017410
# 6 0.033068 0.014924 -0.009297 0.019169 0.017410 0.080875
#
#
# Mechanical properties :
#
#
# Convention : Reuss Voigt Hill
#
# Bulk Modulus (GPa) = 18.46650 40.77757 29.62203
# Shear Modulus (GPa) = 18.47141 34.33855 26.40498
#
# Velocity S-wave (km/s) = 2.98036 4.06359 3.56337
# Velocity P-wave (km/s) = 4.55231 6.45183 5.58344
#
# Compressibility (1/GPa) = 0.05415211
#
# Stress axis : x y z
#
# Youngs Moduli (GPa) = 40.11594 60.91342 25.57248
#
# Poissons Ratio (x) = -0.28503 0.29758
# Poissons Ratio (y) = -0.18771 0.15831
# Poissons Ratio (z) = 0.46683 0.37710
#
# Static dielectric constant tensor:
#      x y z
#    x 1.741080 0.034240 0.002520 
#    y 0.034240 1.862820 0.018260 
#    z 0.002520 0.018260 1.753360 
# 
# From -- ./inp_files/507308.got.cif
#   From: 2010.05.17/outbox.cif.g08.bks.cpg/sg2_254_cif.got.tgz:507308.got - 2010.06.03 11:33:40.
