data_PCOD9008872
_publ_section_title
;
Structure prediction by ZEFSAII (Michael W. Deem and Ramdas Pophale) SiO2 
 PCOD9008872
Probable space group: P -1
;
_chemical_formula_sum "Si O2"
_cell_formula_units_Z 16
_cell_length_a 25.521728
_cell_length_b 8.468229
_cell_length_c 21.939782
_cell_angle_alpha 44.653910
_cell_angle_beta 164.285860
_cell_angle_gamma 142.476837
_cell_volume 742.168959
_symmetry_space_group_name_H-M "P -1"
_symmetry_group_IT_number 2
_symmetry_cell_setting 'triclinic'
loop_
_space_group_symop_operation_xyz
x,y,z
-x,-y,-z
loop_
_atom_site_type_symbol
_atom_site_label
_atom_site_fract_x
_atom_site_fract_y
_atom_site_fract_z
Si Si1 0.403354 0.288106 0.893362
Si Si2 0.078975 0.487175 0.895649
Si Si3 0.501622 0.602357 0.262108
Si Si4 0.467880 0.972580 0.278412
Si Si5 0.001258 0.302588 0.370919
Si Si6 0.393720 0.837169 0.487365
Si Si7 0.343613 0.382119 0.016071
Si Si8 0.147621 0.871079 0.421631
O O1 0.198269 0.263587 0.627587
O O2 0.626099 0.431170 0.057992
O O3 0.500000 0.500000 0.000000
O O4 0.261427 0.974587 0.842094
O O5 0.978213 0.604999 0.702078
O O6 0.862717 0.244921 0.757490
O O7 0.246132 0.445850 0.051418
O O8 0.254536 0.704337 0.082354
O O9 0.616473 0.440403 0.453011
O O10 0.469405 0.573836 0.162075
O O11 0.653152 0.914542 0.367705
O O12 0.453495 0.994272 0.328526
O O13 0.460026 0.219574 0.174728
O O14 0.711173 0.019173 0.514558
O O15 0.045542 0.551678 0.393533
O O16 0.500000 0.000000 0.500000
O O17 0.083490 0.147035 0.812861
#
# Coordination Sequence:
#
# PCOD9008872 Si02
#       8
#     2   2   2   2   2   2   2   2
#     4  11  25  39  61  94 129 167 208 262 319 362
#     4  11  21  42  67  86 124 169 206 258 310 369
#     4  10  23  39  66  93 119 164 213 251 309 376
#     4  10  21  39  66  89 125 168 204 250 313 370
#     4  11  22  40  63  88 124 165 212 257 308 367
#     4  11  23  41  64  98 130 158 203 258 312 377
#     4  11  20  39  62  88 120 163 210 256 304 365
#     4  11  21  39  64  92 116 163 215 252 299 371
#
# _framework density 21.558433999999998
#
# number of rings (size 3 to 8) (size 9 to 14) (size 15 to 20)
#    0.000    1.250    3.750    2.250    1.750    3.500 
#    0.000    3.750    0.000    0.000    0.000    0.000 
#    0.000    0.000    0.000    0.000    0.000    0.000 
#
# Total GULP energy -89202.608597 kJ/mol
# GULP energy per Si atom -5575.163037 kJ/mol
# Density = 2.150937 g / cm^3
# Si number density = 21.558434 Si / 1000 Ang^3
#
#
#
# Elastic Constant Matrix: (Units=GPa)
#
#
# Indices 1 2 3 4 5 6 
#
# 1 119.2860 37.2847 31.8707 27.4675 11.5674 12.7749
# 2 37.2847 41.1687 15.0222 23.6457 -1.5118 2.4975
# 3 31.8707 15.0222 83.4905 20.1993 8.1990 0.2871
# 4 27.4675 23.6457 20.1993 25.7358 -8.6680 0.7058
# 5 11.5674 -1.5118 8.1990 -8.6680 28.5842 3.7563
# 6 12.7749 2.4975 0.2871 0.7058 3.7563 31.1708
#
#
#
# Elastic Compliance Matrix: (Units=1/GPa)
#
#
# Indices 1 2 3 4 5 6 
#
# 1 0.014687 -0.005590 -0.000412 -0.013346 -0.009629 -0.004105
# 2 -0.005590 0.061282 0.007456 -0.061365 -0.015316 0.000547
# 3 -0.000412 0.007456 0.017964 -0.024681 -0.012266 0.001443
# 4 -0.013346 -0.061365 -0.024681 0.146909 0.053677 0.000819
# 5 -0.009629 -0.015316 -0.012266 0.053677 0.058254 -0.002949
# 6 -0.004105 0.000547 0.001443 0.000819 -0.002949 0.034043
#
#
# Mechanical properties :
#
#
# Convention : Reuss Voigt Hill
#
# Bulk Modulus (GPa) = 10.32621 45.81117 28.06869
# Shear Modulus (GPa) = 13.79263 27.74931 20.77097
#
# Velocity S-wave (km/s) = 2.53213 3.59160 3.10735
# Velocity P-wave (km/s) = 3.65365 6.20446 5.09139
#
# Compressibility (1/GPa) = 0.09684095
#
# Stress axis : x y z
#
# Youngs Moduli (GPa) = 68.08678 16.31797 55.66728
#
# Poissons Ratio (x) = 0.09122 0.02294
# Poissons Ratio (y) = 0.38061 -0.41505
# Poissons Ratio (z) = 0.02805 -0.12167
#
# Static dielectric constant tensor:
#      x y z
#    x 1.767570 0.003350 0.044290 
#    y 0.003350 1.813040 -0.000940 
#    z 0.044290 -0.000940 1.887630 
# 
# From -- ./inp_files/601857.got.cif
#   From: 2010.05.17/outbox.cif.g08.bks.cpg/sg2_301_cif.got.tgz:601857.got - 2010.06.03 11:33:40.
