data_PCOD9008542
_publ_section_title
;
Structure prediction by ZEFSAII (Michael W. Deem and Ramdas Pophale) SiO2 
 PCOD9008542
Probable space group: P -1
;
_chemical_formula_sum "Si O2"
_cell_formula_units_Z 16
_cell_length_a 18.434852
_cell_length_b 7.401142
_cell_length_c 6.269812
_cell_angle_alpha 71.413640
_cell_angle_beta 83.188130
_cell_angle_gamma 119.467199
_cell_volume 665.466985
_symmetry_space_group_name_H-M "P -1"
_symmetry_group_IT_number 2
_symmetry_cell_setting 'triclinic'
loop_
_space_group_symop_operation_xyz
x,y,z
-x,-y,-z
loop_
_atom_site_type_symbol
_atom_site_label
_atom_site_fract_x
_atom_site_fract_y
_atom_site_fract_z
Si Si1 0.104824 0.125405 0.382835
Si Si2 0.062827 0.664145 0.601898
Si Si3 0.253401 0.951521 0.965509
Si Si4 0.746846 0.650330 0.425340
Si Si5 0.656954 0.216269 0.326526
Si Si6 0.596024 0.355207 0.907514
Si Si7 0.592743 0.935022 0.845829
Si Si8 0.106110 0.495062 0.025459
O O1 0.160356 0.248097 0.528581
O O2 0.119752 0.925775 0.403231
O O3 0.135700 0.322370 0.122083
O O4 0.000000 0.000000 0.500000
O O5 0.114461 0.582229 0.749346
O O6 0.000000 0.500000 0.500000
O O7 0.996460 0.648907 0.813844
O O8 0.296910 0.867873 0.811543
O O9 0.157431 0.710346 0.090398
O O10 0.248616 0.154819 0.794057
O O11 0.317887 0.034880 0.115650
O O12 0.717992 0.421277 0.392635
O O13 0.672904 0.572905 0.667712
O O14 0.618228 0.328241 0.151290
O O15 0.592745 0.991177 0.576763
O O16 0.497716 0.297169 0.959283
O O17 0.591852 0.141443 0.878599
#
# Coordination Sequence:
#
# PCOD9008542 Si02
#       8
#     2   2   2   2   2   2   2   2
#     4  10  21  41  64  87 126 161 202 265 316 368
#     4  10  22  40  63  92 117 161 208 253 318 383
#     4  11  23  40  62  93 131 167 211 264 316 376
#     4  11  23  42  61  92 129 164 214 268 310 384
#     4  10  21  39  65  89 121 174 211 255 326 377
#     4   9  19  38  62  92 126 164 215 260 316 376
#     4   9  19  37  62  92 126 166 208 268 314 372
#     4  10  21  41  60  86 130 157 202 268 306 370
#
# _framework density 24.043267
#
# number of rings (size 3 to 8) (size 9 to 14) (size 15 to 20)
#    0.000    2.000    1.250    2.625    0.000    6.000 
#    4.500    1.250    0.000    0.000    0.000    0.000 
#    0.000    0.000    0.000    0.000    0.000    0.000 
#
# Total GULP energy -89350.272568 kJ/mol
# GULP energy per Si atom -5584.392035 kJ/mol
# Density = 2.398854 g / cm^3
# Si number density = 24.043267 Si / 1000 Ang^3
#
#
#
# Elastic Constant Matrix: (Units=GPa)
#
#
# Indices 1 2 3 4 5 6 
#
# 1 58.3513 26.6225 41.5820 -18.7190 19.5407 11.3402
# 2 26.6225 25.2482 9.0148 0.3588 -14.7491 -14.2569
# 3 41.5820 9.0148 107.2219 -19.4172 23.9509 -4.4103
# 4 -18.7190 0.3588 -19.4172 40.3106 -0.0772 3.1510
# 5 19.5407 -14.7491 23.9509 -0.0772 38.0261 -15.6085
# 6 11.3402 -14.2569 -4.4103 3.1510 -15.6085 37.1326
#
#
#
# Elastic Compliance Matrix: (Units=1/GPa)
#
#
# Indices 1 2 3 4 5 6 
#
# 1 0.000309 0.022667 -0.006497 -0.004432 0.019442 0.016386
# 2 0.022667 -0.011624 -0.001044 0.011876 -0.024912 -0.022989
# 3 -0.006497 -0.001044 0.013848 0.003606 -0.005537 0.000595
# 4 -0.004432 0.011876 0.003606 0.023802 0.007777 0.007590
# 5 0.019442 -0.024912 -0.005537 0.007777 0.003920 -0.015172
# 6 0.016386 -0.022989 0.000595 0.007590 -0.015172 0.006149
#
#
# Mechanical properties :
#
#
# Convention : Reuss Voigt Hill
#
# Bulk Modulus (GPa) = 30.50088 38.36221 34.43154
# Shear Modulus (GPa) = 292.78436 30.66734 161.72585
#
# Velocity S-wave (km/s) = 11.04710 3.57530 8.21039
# Velocity P-wave (km/s) = 13.24504 5.74750 10.20943
#
# Compressibility (1/GPa) = 0.03278594
#
# Stress axis : x y z
#
# Youngs Moduli (GPa) = 3240.90483 -86.02571 72.21253
#
# Poissons Ratio (x) = 1.94998 0.46916
# Poissons Ratio (y) = -73.46282 0.07536
# Poissons Ratio (z) = 21.05602 -0.08977
#
# Static dielectric constant tensor:
#      x y z
#    x 1.990490 0.017580 -0.022130 
#    y 0.017580 1.916040 -0.019380 
#    z -0.022130 -0.019380 1.980110 
# 
# From -- ./inp_files/116683.got.cif
#   From: 2010.05.17/outbox.cif.g08.bks.cpg/sg2_59_cif.got.tgz:116683.got - 2010.06.03 11:33:40.
