data_PCOD9008016
_publ_section_title
;
Structure prediction by ZEFSAII (Michael W. Deem and Ramdas Pophale) SiO2 
 PCOD9008016
Probable space group: P -1
;
_chemical_formula_sum "Si O2"
_cell_formula_units_Z 12
_cell_length_a 9.436354
_cell_length_b 8.415715
_cell_length_c 11.745958
_cell_angle_alpha 138.131670
_cell_angle_beta 114.575912
_cell_angle_gamma 61.791744
_cell_volume 545.376892
_symmetry_space_group_name_H-M "P -1"
_symmetry_group_IT_number 2
_symmetry_cell_setting 'triclinic'
loop_
_space_group_symop_operation_xyz
x,y,z
-x,-y,-z
loop_
_atom_site_type_symbol
_atom_site_label
_atom_site_fract_x
_atom_site_fract_y
_atom_site_fract_z
Si Si1 0.927313 0.697963 0.408606
Si Si2 0.315351 0.001856 0.947708
Si Si3 0.035106 0.173668 0.770867
Si Si4 0.879396 0.847043 0.825586
Si Si5 0.724860 0.302712 0.877359
Si Si6 0.633092 0.532397 0.218603
O O1 0.025688 0.421205 0.327131
O O2 0.950567 0.718708 0.291105
O O3 0.740699 0.715555 0.382728
O O4 0.991971 0.912704 0.598225
O O5 0.313432 0.721617 0.827922
O O6 0.203565 0.106095 0.858796
O O7 0.500000 0.000000 0.000000
O O8 0.236625 0.169028 0.117525
O O9 0.882676 0.331284 0.878232
O O10 0.775528 0.022310 0.789850
O O11 0.000000 0.000000 0.000000
O O12 0.559856 0.365262 0.784471
O O13 0.681431 0.458921 0.063224
#
# Coordination Sequence:
#
# PCOD9008016 Si02
#       6
#     2   2   2   2   2   2
#     4  11  24  42  62  89 132 163 208 247 309 376
#     4  11  24  39  64  96 120 159 212 256 308 360
#     4  11  25  41  61  93 127 171 198 253 312 366
#     4  11  20  41  63  94 116 162 212 254 308 360
#     4  10  21  39  63  94 120 158 210 251 311 355
#     4  10  22  40  63  95 121 161 206 260 303 364
#
# _framework density 22.003131
#
# number of rings (size 3 to 8) (size 9 to 14) (size 15 to 20)
#    0.000    1.333    5.000    0.000    9.333    4.667 
#    0.000    0.833    0.000    0.000    0.000    0.000 
#    0.000    0.000    0.000    0.000    0.000    0.000 
#
# Total GULP energy -67133.914539 kJ/mol
# GULP energy per Si atom -5594.492878 kJ/mol
# Density = 2.195305 g / cm^3
# Si number density = 22.003131 Si / 1000 Ang^3
#
#
#
# Elastic Constant Matrix: (Units=GPa)
#
#
# Indices 1 2 3 4 5 6 
#
# 1 136.1067 13.0144 29.3803 -9.0589 12.4424 -27.0790
# 2 13.0144 111.2506 28.0106 4.3007 7.1774 -27.5748
# 3 29.3803 28.0106 65.0624 2.1966 9.0438 -7.0623
# 4 -9.0589 4.3007 2.1966 27.3579 9.1087 5.8434
# 5 12.4424 7.1774 9.0438 9.1087 32.3826 -3.7416
# 6 -27.0790 -27.5748 -7.0623 5.8434 -3.7416 37.9862
#
#
#
# Elastic Compliance Matrix: (Units=1/GPa)
#
#
# Indices 1 2 3 4 5 6 
#
# 1 0.009890 0.001626 -0.004111 0.002935 -0.003062 0.006713
# 2 0.001626 0.012627 -0.004991 -0.003157 0.000000 0.009883
# 3 -0.004111 -0.004991 0.019463 -0.000472 -0.002982 -0.003156
# 4 0.002935 -0.003157 -0.000472 0.044459 -0.013782 -0.008484
# 5 -0.003062 0.000000 -0.002982 -0.013782 0.037118 0.003039
# 6 0.006713 0.009883 -0.003156 -0.008484 0.003039 0.039303
#
#
# Mechanical properties :
#
#
# Convention : Reuss Voigt Hill
#
# Bulk Modulus (GPa) = 36.99874 50.35889 43.67882
# Shear Modulus (GPa) = 26.76366 35.67961 31.22164
#
# Velocity S-wave (km/s) = 3.49141 4.03124 3.77100
# Velocity P-wave (km/s) = 5.75370 6.67868 6.23337
#
# Compressibility (1/GPa) = 0.02702795
#
# Stress axis : x y z
#
# Youngs Moduli (GPa) = 101.11242 79.19687 51.38013
#
# Poissons Ratio (x) = -0.12879 0.21122
# Poissons Ratio (y) = -0.16442 0.25644
# Poissons Ratio (z) = 0.41566 0.39528
#
# Static dielectric constant tensor:
#      x y z
#    x 1.840460 0.002090 0.004780 
#    y 0.002090 1.801170 0.001410 
#    z 0.004780 0.001410 1.835720 
# 
# From -- ./inp_files/144852.got.cif
#   From: 2010.05.17/outbox.cif.g08.bks.cpg/sg2_73_cif.got.tgz:144852.got - 2010.06.03 11:33:40.
