data_PCOD9008774
_publ_section_title
;
Structure prediction by ZEFSAII (Michael W. Deem and Ramdas Pophale) SiO2 
 PCOD9008774
Probable space group: P -1
;
_chemical_formula_sum "Si O2"
_cell_formula_units_Z 14
_cell_length_a 8.863961
_cell_length_b 14.008508
_cell_length_c 14.204701
_cell_angle_alpha 21.541068
_cell_angle_beta 93.038484
_cell_angle_gamma 96.041193
_cell_volume 639.133323
_symmetry_space_group_name_H-M "P -1"
_symmetry_group_IT_number 2
_symmetry_cell_setting 'triclinic'
loop_
_space_group_symop_operation_xyz
x,y,z
-x,-y,-z
loop_
_atom_site_type_symbol
_atom_site_label
_atom_site_fract_x
_atom_site_fract_y
_atom_site_fract_z
Si Si1 0.548420 0.294555 0.267905
Si Si2 0.157363 0.735431 0.108202
Si Si3 0.013547 0.987334 0.306749
Si Si4 0.712708 0.640702 0.681867
Si Si5 0.818733 0.944967 0.020740
Si Si6 0.159393 0.421976 0.048974
Si Si7 0.126704 0.598916 0.538277
O O1 0.461294 0.318809 0.341659
O O2 0.500000 0.000000 0.500000
O O3 0.500000 0.500000 0.000000
O O4 0.730071 0.373740 0.198240
O O5 0.262970 0.590916 0.176544
O O6 0.056276 0.520674 0.370876
O O7 0.027917 0.841248 0.941761
O O8 0.245722 0.969462 0.959909
O O9 0.115588 0.158214 0.229724
O O10 0.101940 0.750980 0.494820
O O11 0.841765 0.879887 0.435169
O O12 0.765112 0.593990 0.832353
O O13 0.787263 0.650029 0.250146
O O14 0.798370 0.164814 0.742240
O O15 0.000000 0.000000 0.000000
O O16 0.000000 0.500000 0.000000
#
# Coordination Sequence:
#
# PCOD9008774 Si02
#       7
#     2   2   2   2   2   2   2
#     4  10  23  42  59  78 110 155 195 232 276 334
#     4  10  19  30  52  80 112 145 185 229 283 329
#     4  11  20  32  55  85 115 146 188 235 284 330
#     4  10  22  36  56  81 118 152 192 232 278 339
#     4  10  17  29  48  73 113 146 177 227 286 327
#     4  11  21  38  59  84 115 153 188 235 285 332
#     4  10  19  31  47  77 117 142 179 229 287 328
#
# _framework density 21.904662999999999
#
# number of rings (size 3 to 8) (size 9 to 14) (size 15 to 20)
#    0.000    1.714    4.286    3.000    4.000    1.143 
#    0.000    0.000    0.000    0.000    0.000    2.000 
#    0.000    5.857    0.000    0.143    0.000    0.000 
#
# Total GULP energy -77958.951779 kJ/mol
# GULP energy per Si atom -5568.496556 kJ/mol
# Density = 2.185481 g / cm^3
# Si number density = 21.904663 Si / 1000 Ang^3
#
#
#
# Elastic Constant Matrix: (Units=GPa)
#
#
# Indices 1 2 3 4 5 6 
#
# 1 65.9824 52.1920 32.4349 -12.7920 -16.1524 -20.3077
# 2 52.1920 142.7317 57.1438 -46.5628 -10.0895 -45.4646
# 3 32.4349 57.1438 127.5600 -30.7576 -4.1598 -20.0137
# 4 -12.7920 -46.5628 -30.7576 50.3520 1.0058 9.3054
# 5 -16.1524 -10.0895 -4.1598 1.0058 16.1379 1.9835
# 6 -20.3077 -45.4646 -20.0137 9.3054 1.9835 18.1366
#
#
#
# Elastic Compliance Matrix: (Units=1/GPa)
#
#
# Indices 1 2 3 4 5 6 
#
# 1 0.034163 0.009279 -0.002175 0.005539 0.032611 0.052703
# 2 0.009279 0.068785 0.002244 0.036567 0.030533 0.163194
# 3 -0.002175 0.002244 0.010674 0.005830 0.000144 0.011963
# 4 0.005539 0.036567 0.005830 0.043497 0.017355 0.080087
# 5 0.032611 0.030533 0.000144 0.017355 0.101190 0.093242
# 6 0.052703 0.163194 0.011963 0.080087 0.093242 0.485154
#
#
# Mechanical properties :
#
#
# Convention : Reuss Voigt Hill
#
# Bulk Modulus (GPa) = 7.55758 68.86839 38.21298
# Shear Modulus (GPa) = 6.50301 29.89221 18.19761
#
# Velocity S-wave (km/s) = 1.72488 3.69813 2.88542
# Velocity P-wave (km/s) = 2.72482 7.05288 5.34639
#
# Compressibility (1/GPa) = 0.13231756
#
# Stress axis : x y z
#
# Youngs Moduli (GPa) = 29.27122 14.53809 93.68190
#
# Poissons Ratio (x) = -0.13489 0.20378
# Poissons Ratio (y) = -0.27159 -0.21024
# Poissons Ratio (z) = 0.06367 -0.03263
#
# Static dielectric constant tensor:
#      x y z
#    x 1.878600 -0.041050 0.013470 
#    y -0.041050 1.969950 0.018640 
#    z 0.013470 0.018640 1.926930 
# 
# From -- ./inp_files/217796.got.cif
#   From: 2010.05.17/outbox.cif.g08.bks.cpg/sg2_109_cif.got.tgz:217796.got - 2010.06.03 11:33:40.
