data_PCOD9008695
_publ_section_title
;
Structure prediction by ZEFSAII (Michael W. Deem and Ramdas Pophale) SiO2 
 PCOD9008695
Probable space group: P -1
;
_chemical_formula_sum "Si O2"
_cell_formula_units_Z 14
_cell_length_a 12.469556
_cell_length_b 8.690850
_cell_length_c 8.768288
_cell_angle_alpha 119.600043
_cell_angle_beta 74.045460
_cell_angle_gamma 67.500015
_cell_volume 623.180988
_symmetry_space_group_name_H-M "P -1"
_symmetry_group_IT_number 2
_symmetry_cell_setting 'triclinic'
loop_
_space_group_symop_operation_xyz
x,y,z
-x,-y,-z
loop_
_atom_site_type_symbol
_atom_site_label
_atom_site_fract_x
_atom_site_fract_y
_atom_site_fract_z
Si Si1 0.863741 0.643320 0.018075
Si Si2 0.069453 0.605072 0.442625
Si Si3 0.349163 0.368511 0.742664
Si Si4 0.820456 0.122988 0.797710
Si Si5 0.148242 0.968555 0.934453
Si Si6 0.672911 0.497882 0.522055
Si Si7 0.592140 0.345625 0.747901
O O1 0.883062 0.497118 0.793982
O O2 0.723299 0.733830 0.212010
O O3 0.000000 0.500000 0.000000
O O4 0.870108 0.833053 0.046169
O O5 0.204279 0.516402 0.449002
O O6 0.000000 0.500000 0.500000
O O7 0.977149 0.878652 0.596953
O O8 0.363374 0.362973 0.551005
O O9 0.506534 0.258340 0.684768
O O10 0.236426 0.630602 0.987063
O O11 0.743402 0.173362 0.689420
O O12 0.790532 0.045677 0.928947
O O13 0.262556 0.743714 0.690964
O O14 0.000000 0.000000 0.000000
O O15 0.579528 0.507677 0.700317
O O16 0.500000 0.500000 0.000000
#
# Coordination Sequence:
#
# PCOD9008695 Si02
#       7
#     2   2   2   2   2   2   2
#     4  12  25  39  65  98 136 168 211 278 327 385
#     4  12  22  38  65 101 129 166 217 269 334 385
#     4  10  23  43  64  93 132 171 222 267 321 387
#     4  10  21  39  65  94 132 169 211 269 323 387
#     4  11  21  42  62 100 136 168 208 263 334 391
#     4  11  23  40  72  91 129 176 215 269 331 387
#     4  10  22  42  66  94 125 174 228 264 317 394
#
# _framework density 22.465384
#
# number of rings (size 3 to 8) (size 9 to 14) (size 15 to 20)
#    0.000    1.143    2.857    4.714    2.000    1.143 
#    0.000    1.429    6.286    0.000    0.000    0.000 
#    0.000    0.000    0.000    0.000    0.000    0.000 
#
# Total GULP energy -77939.076203 kJ/mol
# GULP energy per Si atom -5567.076872 kJ/mol
# Density = 2.241425 g / cm^3
# Si number density = 22.465384 Si / 1000 Ang^3
#
#
#
# Elastic Constant Matrix: (Units=GPa)
#
#
# Indices 1 2 3 4 5 6 
#
# 1 122.6765 34.7961 27.9393 -35.3239 10.5302 -4.5645
# 2 34.7961 109.0147 32.0094 -39.1050 -2.6341 9.1143
# 3 27.9393 32.0094 95.0321 -42.4012 6.1100 0.7171
# 4 -35.3239 -39.1050 -42.4012 46.3817 -3.1288 1.0375
# 5 10.5302 -2.6341 6.1100 -3.1288 33.4322 -19.4821
# 6 -4.5645 9.1143 0.7171 1.0375 -19.4821 36.7407
#
#
#
# Elastic Compliance Matrix: (Units=1/GPa)
#
#
# Indices 1 2 3 4 5 6 
#
# 1 0.010776 -0.000832 0.000965 0.008188 -0.003061 -0.000328
# 2 -0.000832 0.013761 0.000962 0.011936 0.000045 -0.003849
# 3 0.000965 0.000962 0.018199 0.018008 -0.003533 -0.002856
# 4 0.008188 0.011936 0.018008 0.054241 -0.003015 -0.005426
# 5 -0.003061 0.000045 -0.003533 -0.003015 0.045013 0.023631
# 6 -0.000328 -0.003849 -0.002856 -0.005426 0.023631 0.040872
#
#
# Mechanical properties :
#
#
# Convention : Reuss Voigt Hill
#
# Bulk Modulus (GPa) = 22.25976 57.35696 39.80836
# Shear Modulus (GPa) = 25.55614 38.77614 32.16614
#
# Velocity S-wave (km/s) = 3.37646 4.15907 3.78803
# Velocity P-wave (km/s) = 5.01305 6.97499 6.07376
#
# Compressibility (1/GPa) = 0.04492411
#
# Stress axis : x y z
#
# Youngs Moduli (GPa) = 92.79788 72.66886 54.94915
#
# Poissons Ratio (x) = 0.06048 -0.05302
# Poissons Ratio (y) = 0.07723 -0.05284
# Poissons Ratio (z) = -0.08953 -0.06987
#
# Static dielectric constant tensor:
#      x y z
#    x 1.953800 0.243890 -0.275990 
#    y 0.243890 2.780780 -0.848910 
#    z -0.275990 -0.848910 2.756950 
# 
# From -- ./inp_files/240884.got.cif
#   From: 2010.05.17/outbox.cif.g08.bks.cpg/sg2_121_cif.got.tgz:240884.got - 2010.06.03 11:33:40.
