data_PCOD9008880
_publ_section_title
;
Structure prediction by ZEFSAII (Michael W. Deem and Ramdas Pophale) SiO2 
 PCOD9008880
Probable space group: P -1
;
_chemical_formula_sum "Si O2"
_cell_formula_units_Z 14
_cell_length_a 7.265658
_cell_length_b 7.957399
_cell_length_c 19.392374
_cell_angle_alpha 123.692588
_cell_angle_beta 144.340773
_cell_angle_gamma 62.942783
_cell_volume 543.799833
_symmetry_space_group_name_H-M "P -1"
_symmetry_group_IT_number 2
_symmetry_cell_setting 'triclinic'
loop_
_space_group_symop_operation_xyz
x,y,z
-x,-y,-z
loop_
_atom_site_type_symbol
_atom_site_label
_atom_site_fract_x
_atom_site_fract_y
_atom_site_fract_z
Si Si1 0.222060 0.236703 0.920282
Si Si2 0.682012 0.332027 0.675136
Si Si3 0.360162 0.284862 0.426375
Si Si4 0.145628 0.260710 0.138465
Si Si5 0.342614 0.760472 0.831495
Si Si6 0.336472 0.098984 0.631565
Si Si7 0.258665 0.805394 0.113231
O O1 0.025985 0.280417 0.800721
O O2 0.955895 0.271958 0.906805
O O3 0.301100 0.000472 0.882416
O O4 0.531801 0.321546 0.074606
O O5 0.538393 0.234175 0.541026
O O6 0.725719 0.571779 0.733097
O O7 0.429957 0.267772 0.642787
O O8 0.500000 0.500000 0.500000
O O9 0.984462 0.315266 0.316015
O O10 0.432481 0.091597 0.356693
O O11 0.390044 0.269082 0.151148
O O12 0.150785 0.037495 0.119560
O O13 0.814533 0.300155 0.005841
O O14 0.398456 0.184883 0.746372
O O15 0.000000 0.000000 0.500000
#
# Coordination Sequence:
#
# PCOD9008880 Si02
#       7
#     2   2   2   2   2   2   2
#     4   9  20  41  67  87 124 167 212 264 313 364
#     4  11  24  42  65  95 128 168 209 267 313 374
#     4  12  26  44  64  90 133 171 210 259 320 383
#     4  10  22  37  68  94 124 165 214 257 311 373
#     4  10  21  39  66  90 123 169 211 251 318 374
#     4  11  25  42  65  92 128 164 213 265 319 372
#     4   9  19  41  62  92 127 163 206 263 308 376
#
# _framework density 25.744765999999998
#
# number of rings (size 3 to 8) (size 9 to 14) (size 15 to 20)
#    0.000    1.714    2.857    1.286    4.000    5.714 
#    0.000    0.714    0.000    0.000    0.000    0.000 
#    0.000    0.000    0.000    0.000    0.000    0.000 
#
# Total GULP energy -78225.349561 kJ/mol
# GULP energy per Si atom -5587.524969 kJ/mol
# Density = 2.568617 g / cm^3
# Si number density = 25.744766 Si / 1000 Ang^3
#
#
#
# Elastic Constant Matrix: (Units=GPa)
#
#
# Indices 1 2 3 4 5 6 
#
# 1 44.6118 12.5010 37.4510 -8.1927 -15.6908 6.0753
# 2 12.5010 64.5514 26.0941 -1.3476 3.5134 17.3902
# 3 37.4510 26.0941 234.6851 -21.8215 -11.7835 5.3680
# 4 -8.1927 -1.3476 -21.8215 51.5867 5.7498 0.5384
# 5 -15.6908 3.5134 -11.7835 5.7498 44.6305 -3.1021
# 6 6.0753 17.3902 5.3680 0.5384 -3.1021 21.8089
#
#
#
# Elastic Compliance Matrix: (Units=1/GPa)
#
#
# Indices 1 2 3 4 5 6 
#
# 1 0.030935 -0.004147 -0.003714 0.002181 0.009728 -0.003067
# 2 -0.004147 0.021603 -0.001610 -0.000080 -0.004709 -0.016342
# 3 -0.003714 -0.001610 0.005155 0.001532 0.000055 0.001020
# 4 0.002181 -0.000080 0.001532 0.020571 -0.001588 -0.001655
# 5 0.009728 -0.004709 0.000055 -0.001588 0.026755 0.004877
# 6 -0.003067 -0.016342 0.001020 -0.001655 0.004877 0.060222
#
#
# Mechanical properties :
#
#
# Convention : Reuss Voigt Hill
#
# Bulk Modulus (GPa) = 25.80681 55.10452 40.45566
# Shear Modulus (GPa) = 25.36771 41.45867 33.41319
#
# Velocity S-wave (km/s) = 3.14244 4.01730 3.60650
# Velocity P-wave (km/s) = 4.81793 6.55507 5.75245
#
# Compressibility (1/GPa) = 0.03874946
#
# Stress axis : x y z
#
# Youngs Moduli (GPa) = 32.32553 46.29011 193.99975
#
# Poissons Ratio (x) = 0.19198 0.72054
# Poissons Ratio (y) = 0.13406 0.31239
# Poissons Ratio (z) = 0.12006 0.07454
#
# Static dielectric constant tensor:
#      x y z
#    x 2.086590 0.020520 -0.039420 
#    y 0.020520 2.061090 -0.070940 
#    z -0.039420 -0.070940 2.134350 
# 
# From -- ./inp_files/175526.got.cif
#   From: 2010.05.17/outbox.cif.g08.bks.cpg/sg2_88_cif.got.tgz:175526.got - 2010.06.03 11:33:40.
