data_PCOD9008520
_publ_section_title
;
Structure prediction by ZEFSAII (Michael W. Deem and Ramdas Pophale) SiO2 
 PCOD9008520
Probable space group: P -1
;
_chemical_formula_sum "Si O2"
_cell_formula_units_Z 14
_cell_length_a 11.873661
_cell_length_b 23.960668
_cell_length_c 15.197335
_cell_angle_alpha 19.426834
_cell_angle_beta 35.992970
_cell_angle_gamma 29.162144
_cell_volume 697.955501
_symmetry_space_group_name_H-M "P -1"
_symmetry_group_IT_number 2
_symmetry_cell_setting 'triclinic'
loop_
_space_group_symop_operation_xyz
x,y,z
-x,-y,-z
loop_
_atom_site_type_symbol
_atom_site_label
_atom_site_fract_x
_atom_site_fract_y
_atom_site_fract_z
Si Si1 0.132900 0.444239 0.091012
Si Si2 0.038400 0.259556 0.083912
Si Si3 0.028401 0.137325 0.650771
Si Si4 0.898990 0.561139 0.570539
Si Si5 0.639951 0.351951 0.426934
Si Si6 0.637602 0.195718 0.478101
Si Si7 0.833167 0.283029 0.749613
O O1 0.184651 0.227707 0.407087
O O2 0.974902 0.604309 0.029219
O O3 0.327230 0.487089 0.885362
O O4 0.000000 0.500000 0.000000
O O5 0.812591 0.250677 0.248849
O O6 0.023541 0.367669 0.842686
O O7 0.259408 0.030423 0.284068
O O8 0.850972 0.219285 0.558653
O O9 0.878369 0.234135 0.690686
O O10 0.168677 0.896889 0.934171
O O11 0.627123 0.655253 0.603798
O O12 0.000000 0.500000 0.500000
O O13 0.955177 0.715825 0.344639
O O14 0.643580 0.211222 0.557456
O O15 0.397454 0.495313 0.416452
#
# Coordination Sequence:
#
# PCOD9008520 Si02
#       7
#     2   2   2   2   2   2   2
#     4   9  19  41  64  89 116 156 206 253 295 353
#     4  10  22  43  65  89 123 160 206 252 303 356
#     4  10  22  41  60  85 123 159 208 247 295 360
#     4  12  24  40  62  92 130 159 200 249 305 369
#     4  10  21  39  65  87 120 158 202 253 303 352
#     4  10  23  41  65  93 118 162 204 251 306 360
#     4  11  23  40  59  90 124 162 199 247 306 361
#
# _framework density 20.058586999999999
#
# number of rings (size 3 to 8) (size 9 to 14) (size 15 to 20)
#    0.000    1.714    2.857    0.857    2.000    2.286 
#   10.286    0.000    0.000    0.000    0.000    0.000 
#    0.000    0.000    0.000    0.000    0.000    0.000 
#
# Total GULP energy -78133.131687 kJ/mol
# GULP energy per Si atom -5580.937978 kJ/mol
# Density = 2.001293 g / cm^3
# Si number density = 20.058587 Si / 1000 Ang^3
#
#
#
# Elastic Constant Matrix: (Units=GPa)
#
#
# Indices 1 2 3 4 5 6 
#
# 1 48.7983 -14.9680 6.1319 -0.5878 -2.4650 18.1651
# 2 -14.9680 43.4317 -6.0373 -3.1820 8.7539 6.0512
# 3 6.1319 -6.0373 84.7150 7.3587 4.0164 9.9454
# 4 -0.5878 -3.1820 7.3587 14.7362 10.4734 4.0813
# 5 -2.4650 8.7539 4.0164 10.4734 22.1159 4.5591
# 6 18.1651 6.0512 9.9454 4.0813 4.5591 28.4443
#
#
#
# Elastic Compliance Matrix: (Units=1/GPa)
#
#
# Indices 1 2 3 4 5 6 
#
# 1 0.037605 0.019866 0.000961 0.018059 -0.006178 -0.030179
# 2 0.019866 0.040858 0.002527 0.032541 -0.025105 -0.022908
# 3 0.000961 0.002527 0.012889 -0.004372 -0.000131 -0.005010
# 4 0.018059 0.032541 -0.004372 0.132990 -0.067873 -0.025130
# 5 -0.006178 -0.025105 -0.000131 -0.067873 0.085526 0.005362
# 6 -0.030179 -0.022908 -0.005010 -0.025130 0.005362 0.063801
#
#
# Mechanical properties :
#
#
# Convention : Reuss Voigt Hill
#
# Bulk Modulus (GPa) = 7.24319 16.35536 11.79927
# Shear Modulus (GPa) = 13.40552 25.84716 19.62634
#
# Velocity S-wave (km/s) = 2.58799 3.59358 3.13141
# Velocity P-wave (km/s) = 3.54247 5.03884 4.35540
#
# Compressibility (1/GPa) = 0.13806070
#
# Stress axis : x y z
#
# Youngs Moduli (GPa) = 26.59225 24.47474 77.58635
#
# Poissons Ratio (x) = -0.48623 -0.07456
# Poissons Ratio (y) = -0.52829 -0.19605
# Poissons Ratio (z) = -0.02555 -0.06184
#
# Static dielectric constant tensor:
#      x y z
#    x 1.734820 -0.015940 -0.043430 
#    y -0.015940 1.695130 0.036400 
#    z -0.043430 0.036400 1.720950 
# 
# From -- ./inp_files/52730.got.cif
#   From: 2010.05.17/outbox.cif.g08.bks.cpg/sg2_27_cif.got.tgz:52730.got - 2010.06.03 11:33:40.
