data_PCOD9008957
_publ_section_title
;
Structure prediction by ZEFSAII (Michael W. Deem and Ramdas Pophale) SiO2 
 PCOD9008957
Probable space group: P -1
;
_chemical_formula_sum "Si O2"
_cell_formula_units_Z 14
_cell_length_a 9.322330
_cell_length_b 20.893144
_cell_length_c 24.065868
_cell_angle_alpha 17.893833
_cell_angle_beta 152.451982
_cell_angle_gamma 151.458608
_cell_volume 645.880412
_symmetry_space_group_name_H-M "P -1"
_symmetry_group_IT_number 2
_symmetry_cell_setting 'triclinic'
loop_
_space_group_symop_operation_xyz
x,y,z
-x,-y,-z
loop_
_atom_site_type_symbol
_atom_site_label
_atom_site_fract_x
_atom_site_fract_y
_atom_site_fract_z
Si Si1 0.139978 0.521008 0.903097
Si Si2 0.742332 0.791141 0.603126
Si Si3 0.941879 0.425717 0.479141
Si Si4 0.651698 0.836128 0.223020
Si Si5 0.507730 0.776328 0.658649
Si Si6 0.185886 0.212919 0.085499
Si Si7 0.001323 0.623682 0.223651
O O1 0.436376 0.726423 0.824346
O O2 0.872999 0.592782 0.787631
O O3 0.304494 0.359280 0.126673
O O4 0.046678 0.399460 0.913213
O O5 0.386712 0.758748 0.483605
O O6 0.697653 0.799741 0.646461
O O7 0.000000 0.000000 0.500000
O O8 0.000000 0.500000 0.500000
O O9 0.238542 0.336592 0.634235
O O10 0.909616 0.600728 0.276124
O O11 0.381433 0.715825 0.271748
O O12 0.986577 0.995236 0.224628
O O13 0.500000 0.000000 0.000000
O O14 0.160536 0.615744 0.657801
O O15 0.500000 0.000000 0.500000
O O16 0.138565 0.228090 0.990125
#
# Coordination Sequence:
#
# PCOD9008957 Si02
#       7
#     2   2   2   2   2   2   2
#     4  10  21  39  66  94 134 165 209 271 330 380
#     4  11  25  41  65  95 134 167 215 269 331 381
#     4  11  25  42  61  92 133 167 211 270 323 379
#     4  10  21  40  65  88 120 168 216 258 317 387
#     4  10  23  40  66  98 129 168 216 264 325 388
#     4   9  20  37  68  96 122 163 218 264 322 386
#     4   9  21  41  63  90 129 162 212 264 316 381
#
# _framework density 21.675840000000001
#
# number of rings (size 3 to 8) (size 9 to 14) (size 15 to 20)
#    0.000    2.000    0.000    1.714   14.000    0.000 
#    2.571    2.857    0.000    0.000    0.000    0.000 
#    0.000    0.000    0.000    0.000    0.000    0.000 
#
# Total GULP energy -78105.620316 kJ/mol
# GULP energy per Si atom -5578.972880 kJ/mol
# Density = 2.162650 g / cm^3
# Si number density = 21.675840 Si / 1000 Ang^3
#
#
#
# Elastic Constant Matrix: (Units=GPa)
#
#
# Indices 1 2 3 4 5 6 
#
# 1 151.7704 49.3304 30.2864 -5.2092 -9.4800 0.3250
# 2 49.3304 92.8413 6.7513 -10.3419 -21.3575 21.3773
# 3 30.2864 6.7513 74.5639 1.8316 -5.5962 2.1330
# 4 -5.2092 -10.3419 1.8316 23.2280 5.3254 -9.9729
# 5 -9.4800 -21.3575 -5.5962 5.3254 43.9182 0.7596
# 6 0.3250 21.3773 2.1330 -9.9729 0.7596 43.0551
#
#
#
# Elastic Compliance Matrix: (Units=1/GPa)
#
#
# Indices 1 2 3 4 5 6 
#
# 1 0.008979 -0.005392 -0.003389 0.001548 -0.001358 0.003160
# 2 -0.005392 0.017329 0.001400 0.001023 0.007465 -0.008527
# 3 -0.003389 0.001400 0.014954 -0.002718 0.002220 -0.002079
# 4 0.001548 0.001023 -0.002718 0.050279 -0.005808 0.011364
# 5 -0.001358 0.007465 0.002220 -0.005808 0.027191 -0.005631
# 6 0.003160 -0.008527 -0.002079 0.011364 -0.005631 0.030271
#
#
# Mechanical properties :
#
#
# Convention : Reuss Voigt Hill
#
# Bulk Modulus (GPa) = 37.73603 54.65685 46.19644
# Shear Modulus (GPa) = 28.96871 37.56076 33.26474
#
# Velocity S-wave (km/s) = 3.65972 4.16726 3.92171
# Velocity P-wave (km/s) = 5.94181 6.95881 6.47032
#
# Compressibility (1/GPa) = 0.02649987
#
# Stress axis : x y z
#
# Youngs Moduli (GPa) = 111.36484 57.70620 66.87112
#
# Poissons Ratio (x) = 0.31117 0.22666
# Poissons Ratio (y) = 0.60052 -0.09364
# Poissons Ratio (z) = 0.37746 -0.08081
#
# Static dielectric constant tensor:
#      x y z
#    x 1.814830 -0.017590 -0.010150 
#    y -0.017590 1.874470 0.005430 
#    z -0.010150 0.005430 1.846280 
# 
# From -- ./inp_files/608646.got.cif
#   From: 2010.05.17/outbox.cif.g08.bks.cpg/sg2_305_cif.got.tgz:608646.got - 2010.06.03 11:33:40.
