data_PCOD9008864
_publ_section_title
;
Structure prediction by ZEFSAII (Michael W. Deem and Ramdas Pophale) SiO2 
 PCOD9008864
Probable space group: P -1
;
_chemical_formula_sum "Si O2"
_cell_formula_units_Z 16
_cell_length_a 21.365619
_cell_length_b 18.881655
_cell_length_c 8.713610
_cell_angle_alpha 41.119333
_cell_angle_beta 139.491285
_cell_angle_gamma 161.002905
_cell_volume 733.353337
_symmetry_space_group_name_H-M "P -1"
_symmetry_group_IT_number 2
_symmetry_cell_setting 'triclinic'
loop_
_space_group_symop_operation_xyz
x,y,z
-x,-y,-z
loop_
_atom_site_type_symbol
_atom_site_label
_atom_site_fract_x
_atom_site_fract_y
_atom_site_fract_z
Si Si1 0.093709 0.743995 0.977313
Si Si2 0.810342 0.879855 0.160613
Si Si3 0.346911 0.936563 0.884380
Si Si4 0.696161 0.399736 0.950466
Si Si5 0.466485 0.574910 0.562674
Si Si6 0.358858 0.104722 0.378185
Si Si7 0.131821 0.019938 0.535218
Si Si8 0.517825 0.888670 0.699485
O O1 0.886458 0.524906 0.033421
O O2 0.179337 0.744619 0.009334
O O3 0.073954 0.839164 0.697306
O O4 0.266630 0.925053 0.129921
O O5 0.609251 0.615075 0.219520
O O6 0.846193 0.946668 0.294825
O O7 0.789726 0.962209 0.879201
O O8 0.975739 0.956045 0.294613
O O9 0.497105 0.159054 0.896262
O O10 0.263203 0.923592 0.608402
O O11 0.500000 0.000000 0.000000
O O12 0.693377 0.520662 0.690147
O O13 0.651877 0.335004 0.151256
O O14 0.507431 0.688490 0.602242
O O15 0.663625 0.760125 0.528108
O O16 0.480185 0.155643 0.395254
O O17 0.500000 0.000000 0.500000
#
# Coordination Sequence:
#
# PCOD9008864 Si02
#       8
#     2   2   2   2   2   2   2   2
#     4  11  20  42  65  85 123 163 208 252 301 374
#     4  11  23  37  62  90 126 161 210 250 304 374
#     4  10  22  42  65  89 122 166 204 255 313 365
#     4  10  21  39  66  87 118 164 208 248 300 374
#     4  11  21  39  61  90 127 163 204 248 311 373
#     4  11  21  39  61  94 128 159 201 259 317 360
#     4  11  21  40  62  88 120 170 205 246 304 374
#     4  11  23  42  64  90 126 161 208 263 308 357
#
# _framework density 21.817587
#
# number of rings (size 3 to 8) (size 9 to 14) (size 15 to 20)
#    0.000    1.250    6.250    2.250    0.000    1.500 
#    0.000    3.750    0.000    0.000    0.000    0.000 
#    0.000    0.000    0.000    0.000    0.000    0.000 
#
# Total GULP energy -89329.788894 kJ/mol
# GULP energy per Si atom -5583.111806 kJ/mol
# Density = 2.176793 g / cm^3
# Si number density = 21.817587 Si / 1000 Ang^3
#
#
#
# Elastic Constant Matrix: (Units=GPa)
#
#
# Indices 1 2 3 4 5 6 
#
# 1 91.1345 16.0338 20.6913 5.6475 -8.6652 24.7908
# 2 16.0338 77.7960 7.5458 4.1790 -9.7469 34.4526
# 3 20.6913 7.5458 79.7301 9.7378 1.8666 9.2405
# 4 5.6475 4.1790 9.7378 10.7508 8.3595 3.0128
# 5 -8.6652 -9.7469 1.8666 8.3595 37.1014 -4.7040
# 6 24.7908 34.4526 9.2405 3.0128 -4.7040 35.7987
#
#
#
# Elastic Compliance Matrix: (Units=1/GPa)
#
#
# Indices 1 2 3 4 5 6 
#
# 1 0.014976 0.003337 -0.002004 -0.007711 0.004717 -0.011797
# 2 0.003337 0.024020 0.000695 -0.009856 0.006238 -0.023958
# 3 -0.002004 0.000695 0.014809 -0.013550 0.001804 -0.001726
# 4 -0.007711 -0.009856 -0.013550 0.139804 -0.034960 0.001963
# 5 0.004717 0.006238 0.001804 -0.034960 0.037239 -0.001900
# 6 -0.011797 -0.023958 -0.001726 0.001963 -0.001900 0.059191
#
#
# Mechanical properties :
#
#
# Convention : Reuss Voigt Hill
#
# Bulk Modulus (GPa) = 17.28243 37.46692 27.37467
# Shear Modulus (GPa) = 16.37893 30.35617 23.36755
#
# Velocity S-wave (km/s) = 2.74290 3.73414 3.27623
# Velocity P-wave (km/s) = 4.23909 5.98347 5.18516
#
# Compressibility (1/GPa) = 0.05786224
#
# Stress axis : x y z
#
# Youngs Moduli (GPa) = 66.77379 41.63216 67.52477
#
# Poissons Ratio (x) = -0.13894 0.13530
# Poissons Ratio (y) = -0.22284 -0.04693
# Poissons Ratio (z) = 0.13380 -0.02893
#
# Static dielectric constant tensor:
#      x y z
#    x 1.844070 -0.009590 0.024180 
#    y -0.009590 1.793950 -0.007230 
#    z 0.024180 -0.007230 1.853440 
# 
# From -- ./inp_files/313000.got.cif
#   From: 2010.05.17/outbox.cif.g08.bks.cpg/sg2_157_cif.got.tgz:313000.got - 2010.06.03 11:33:40.
