data_PCOD9008223
_publ_section_title
;
Structure prediction by ZEFSAII (Michael W. Deem and Ramdas Pophale) SiO2 
 PCOD9008223
Probable space group: P -1
;
_chemical_formula_sum "Si O2"
_cell_formula_units_Z 14
_cell_length_a 4.933497
_cell_length_b 25.148364
_cell_length_c 12.869014
_cell_angle_alpha 23.035344
_cell_angle_beta 124.165841
_cell_angle_gamma 126.818503
_cell_volume 499.890458
_symmetry_space_group_name_H-M "P -1"
_symmetry_group_IT_number 2
_symmetry_cell_setting 'triclinic'
loop_
_space_group_symop_operation_xyz
x,y,z
-x,-y,-z
loop_
_atom_site_type_symbol
_atom_site_label
_atom_site_fract_x
_atom_site_fract_y
_atom_site_fract_z
Si Si1 0.386481 0.813420 0.080983
Si Si2 0.448902 0.455858 0.448816
Si Si3 0.241592 0.929053 0.418181
Si Si4 0.762418 0.523379 0.171703
Si Si5 0.792105 0.873144 0.754937
Si Si6 0.833630 0.851503 0.286472
Si Si7 0.274069 0.627788 0.770592
O O1 0.605329 0.713082 0.260668
O O2 0.465169 0.806677 0.232432
O O3 0.019714 0.769040 0.025313
O O4 0.516108 0.976833 0.785268
O O5 0.500000 0.500000 0.500000
O O6 0.693731 0.492825 0.333893
O O7 0.144198 0.522736 0.234606
O O8 0.431249 0.826593 0.702623
O O9 0.889370 0.873429 0.382533
O O10 0.244470 0.047691 0.289770
O O11 0.607122 0.411529 0.246927
O O12 0.602815 0.650389 0.875627
O O13 0.000000 0.000000 0.500000
O O14 0.070047 0.745973 0.503214
O O15 0.000000 0.000000 0.000000
O O16 0.000000 0.500000 0.000000
#
# Coordination Sequence:
#
# PCOD9008223 Si02
#       7
#     2   2   2   2   2   2   2
#     4  10  21  39  64  90 133 172 222 296 356 406
#     4  12  26  45  69 105 139 184 245 301 358 428
#     4   9  20  39  62  91 131 172 227 279 352 423
#     4  11  24  46  71 101 140 189 238 293 363 431
#     4   9  19  38  58  87 128 177 217 273 353 423
#     4  10  21  40  69 103 135 176 236 295 354 418
#     4  11  22  45  73 100 147 191 235 298 364 433
#
# _framework density 28.006135
#
# number of rings (size 3 to 8) (size 9 to 14) (size 15 to 20)
#    0.000    1.714    2.857    0.429    2.000    1.714 
#    7.714   11.429    0.000    0.000    0.000    0.000 
#    0.000    0.000    0.000    0.000    0.000    0.000 
#
# Total GULP energy -78150.193722 kJ/mol
# GULP energy per Si atom -5582.156694 kJ/mol
# Density = 2.794239 g / cm^3
# Si number density = 28.006135 Si / 1000 Ang^3
#
#
#
# Elastic Constant Matrix: (Units=GPa)
#
#
# Indices 1 2 3 4 5 6 
#
# 1 94.3701 13.7789 57.0902 2.2454 10.2681 -21.7520
# 2 13.7789 157.5018 75.8451 41.4587 2.5225 -18.3710
# 3 57.0902 75.8451 218.3307 30.6805 23.1894 9.1747
# 4 2.2454 41.4587 30.6805 59.8696 3.4141 7.5414
# 5 10.2681 2.5225 23.1894 3.4141 52.5069 13.5285
# 6 -21.7520 -18.3710 9.1747 7.5414 13.5285 40.8120
#
#
#
# Elastic Compliance Matrix: (Units=1/GPa)
#
#
# Indices 1 2 3 4 5 6 
#
# 1 0.017061 0.003167 -0.005445 -0.001488 -0.004465 0.013498
# 2 0.003167 0.010771 -0.003874 -0.006660 -0.001332 0.009080
# 3 -0.005445 -0.003874 0.007702 -0.000254 -0.000550 -0.006148
# 4 -0.001488 -0.006660 -0.000254 0.022473 0.001415 -0.008356
# 5 -0.004465 -0.001332 -0.000550 0.001415 0.022891 -0.010705
# 6 0.013498 0.009080 -0.006148 -0.008356 -0.010705 0.042258
#
#
# Mechanical properties :
#
#
# Convention : Reuss Voigt Hill
#
# Bulk Modulus (GPa) = 43.04775 84.84790 63.94782
# Shear Modulus (GPa) = 34.91518 52.20362 43.55940
#
# Velocity S-wave (km/s) = 3.53469 4.32210 3.94807
# Velocity P-wave (km/s) = 5.66241 7.43433 6.60803
#
# Compressibility (1/GPa) = 0.02323002
#
# Stress axis : x y z
#
# Youngs Moduli (GPa) = 58.61449 92.84084 129.82987
#
# Poissons Ratio (x) = -0.29405 0.70695
# Poissons Ratio (y) = -0.18565 0.50297
# Poissons Ratio (z) = 0.31917 0.35967
#
# Static dielectric constant tensor:
#      x y z
#    x 2.365060 0.065280 -0.051080 
#    y 0.065280 2.405120 0.067580 
#    z -0.051080 0.067580 2.246670 
# 
# From -- ./inp_files/371015.got.cif
#   From: 2010.05.17/outbox.cif.g08.bks.cpg/sg2_186_cif.got.tgz:371015.got - 2010.06.03 11:33:40.
