data_PCOD9008209
_publ_section_title
;
Structure prediction by ZEFSAII (Michael W. Deem and Ramdas Pophale) SiO2 
 PCOD9008209
Probable space group: P -1
;
_chemical_formula_sum "Si O2"
_cell_formula_units_Z 12
_cell_length_a 7.018060
_cell_length_b 14.299003
_cell_length_c 7.242555
_cell_angle_alpha 66.417612
_cell_angle_beta 114.960521
_cell_angle_gamma 141.134954
_cell_volume 410.183749
_symmetry_space_group_name_H-M "P -1"
_symmetry_group_IT_number 2
_symmetry_cell_setting 'triclinic'
loop_
_space_group_symop_operation_xyz
x,y,z
-x,-y,-z
loop_
_atom_site_type_symbol
_atom_site_label
_atom_site_fract_x
_atom_site_fract_y
_atom_site_fract_z
Si Si1 0.350030 0.509454 0.215885
Si Si2 0.721264 0.132162 0.141026
Si Si3 0.946005 0.596127 0.466203
Si Si4 0.403996 0.108392 0.554976
Si Si5 0.312878 0.260899 0.117621
Si Si6 0.663330 0.818322 0.162057
O O1 0.486106 0.653462 0.280919
O O2 0.619161 0.522121 0.320564
O O3 0.064700 0.383879 0.332359
O O4 0.385498 0.576995 0.977709
O O5 0.078690 0.254785 0.126036
O O6 0.696451 0.045499 0.372577
O O7 0.577235 0.192231 0.028078
O O8 0.500000 0.000000 0.000000
O O9 0.227178 0.759413 0.363439
O O10 0.000000 0.500000 0.500000
O O11 0.382970 0.189388 0.329901
O O12 0.228090 0.090333 0.679096
O O13 0.133523 0.151877 0.947687
#
# Coordination Sequence:
#
# PCOD9008209 Si02
#       6
#     2   2   2   2   2   2
#     4   9  21  38  62  86 114 162 198 241 301 348
#     4  10  21  39  64  90 123 161 196 244 303 360
#     4  11  20  40  65  83 122 158 204 247 295 357
#     4  11  22  39  62  93 120 162 199 246 301 353
#     4  10  22  41  59  91 128 147 207 248 293 364
#     4   9  21  41  60  89 120 162 192 245 303 349
#
# _framework density 29.255181
#
# number of rings (size 3 to 8) (size 9 to 14) (size 15 to 20)
#    1.000    1.000    1.667    2.500    0.000    4.000 
#    3.000    0.833    0.000    0.000    0.000    0.000 
#    0.000    0.000    0.000    0.000    0.000    0.000 
#
# Total GULP energy -67116.510725 kJ/mol
# GULP energy per Si atom -5593.042560 kJ/mol
# Density = 2.918859 g / cm^3
# Si number density = 29.255181 Si / 1000 Ang^3
#
#
#
# Elastic Constant Matrix: (Units=GPa)
#
#
# Indices 1 2 3 4 5 6 
#
# 1 185.0703 13.1147 74.9035 -13.0426 -12.8198 -6.3160
# 2 13.1147 56.3769 12.1689 -12.7117 -0.7519 14.0425
# 3 74.9035 12.1689 215.3010 -27.6271 1.8879 -6.2905
# 4 -13.0426 -12.7117 -27.6271 54.5530 -12.9315 -3.9935
# 5 -12.8198 -0.7519 1.8879 -12.9315 72.4207 -4.2567
# 6 -6.3160 14.0425 -6.2905 -3.9935 -4.2567 52.2978
#
#
#
# Elastic Compliance Matrix: (Units=1/GPa)
#
#
# Indices 1 2 3 4 5 6 
#
# 1 0.006508 -0.001152 -0.002102 0.000620 0.001364 0.001001
# 2 -0.001152 0.020312 -0.000397 0.003967 0.000414 -0.005304
# 3 -0.002102 -0.000397 0.005720 0.002338 -0.000066 0.000714
# 4 0.000620 0.003967 0.002338 0.021635 0.004028 0.001271
# 5 0.001364 0.000414 -0.000066 0.004028 0.014867 0.001563
# 6 0.001001 -0.005304 0.000714 0.001271 0.001563 0.020977
#
#
# Mechanical properties :
#
#
# Convention : Reuss Voigt Hill
#
# Bulk Modulus (GPa) = 39.62165 73.01360 56.31763
# Shear Modulus (GPa) = 47.28852 59.62504 53.45678
#
# Velocity S-wave (km/s) = 4.02483 4.51943 4.27928
# Velocity P-wave (km/s) = 5.93059 7.22810 6.61125
#
# Compressibility (1/GPa) = 0.02523873
#
# Stress axis : x y z
#
# Youngs Moduli (GPa) = 153.65326 49.23093 174.82579
#
# Poissons Ratio (x) = 0.05669 0.36754
# Poissons Ratio (y) = 0.17694 0.06942
# Poissons Ratio (z) = 0.32303 0.01955
#
# Static dielectric constant tensor:
#      x y z
#    x 2.208900 -0.044810 -0.054210 
#    y -0.044810 2.488800 0.108160 
#    z -0.054210 0.108160 2.308990 
# 
# From -- ./inp_files/136531.got.cif
#   From: 2010.05.17/outbox.cif.g08.bks.cpg/sg2_69_cif.got.tgz:136531.got - 2010.06.03 11:33:40.
