data_PCOD9008144
_publ_section_title
;
Structure prediction by ZEFSAII (Michael W. Deem and Ramdas Pophale) SiO2 
 PCOD9008144
Probable space group: P -1
;
_chemical_formula_sum "Si O2"
_cell_formula_units_Z 16
_cell_length_a 21.883594
_cell_length_b 22.465552
_cell_length_c 9.108397
_cell_angle_alpha 30.491111
_cell_angle_beta 39.527166
_cell_angle_gamma 20.414890
_cell_volume 775.739827
_symmetry_space_group_name_H-M "P -1"
_symmetry_group_IT_number 2
_symmetry_cell_setting 'triclinic'
loop_
_space_group_symop_operation_xyz
x,y,z
-x,-y,-z
loop_
_atom_site_type_symbol
_atom_site_label
_atom_site_fract_x
_atom_site_fract_y
_atom_site_fract_z
Si Si1 0.453298 0.097102 0.221499
Si Si2 0.684079 0.837637 0.084688
Si Si3 0.786586 0.125385 0.479436
Si Si4 0.106557 0.622058 0.341360
Si Si5 0.158504 0.245731 0.287628
Si Si6 0.176153 0.687058 0.780273
Si Si7 0.190560 0.758626 0.096113
Si Si8 0.575886 0.605848 0.323456
O O1 0.309391 0.159681 0.280284
O O2 0.500000 0.000000 0.500000
O O3 0.635183 0.912506 0.182105
O O4 0.378655 0.305902 0.913063
O O5 0.790058 0.607440 0.361292
O O6 0.768572 0.856302 0.794150
O O7 0.500000 0.000000 0.000000
O O8 0.794526 0.222076 0.379494
O O9 0.634275 0.196834 0.672846
O O10 0.741232 0.220514 0.198691
O O11 0.994727 0.872112 0.626503
O O12 0.171407 0.656661 0.257220
O O13 0.911952 0.787293 0.413078
O O14 0.132489 0.641483 0.088090
O O15 0.000000 0.500000 0.000000
O O16 0.348392 0.489120 0.779645
O O17 0.321210 0.592820 0.340627
O O18 0.000000 0.000000 0.000000
#
# Coordination Sequence:
#
# PCOD9008144 Si02
#       8
#     2   2   2   2   2   2   2   2
#     4  11  24  39  60  98 132 155 212 271 312 375
#     4   9  18  38  59  83 122 166 211 252 298 381
#     4  10  23  42  64  90 125 171 212 248 317 388
#     4  10  21  39  64  86 122 169 207 250 321 369
#     4   9  19  39  61  84 118 171 214 245 304 383
#     4  10  22  42  62  89 129 164 211 256 306 394
#     4  11  22  41  63  96 128 160 211 271 307 373
#     4  12  23  41  66  92 132 164 203 268 328 352
#
# _framework density 20.625471999999998
#
# number of rings (size 3 to 8) (size 9 to 14) (size 15 to 20)
#    0.000    1.750    1.250    3.750    1.750    1.000 
#    4.500    5.625    0.000    0.000    0.000    0.000 
#    0.000    0.000    0.000    0.000    0.000    0.000 
#
# Total GULP energy -89168.904573 kJ/mol
# GULP energy per Si atom -5573.056536 kJ/mol
# Density = 2.057853 g / cm^3
# Si number density = 20.625472 Si / 1000 Ang^3
#
#
#
# Elastic Constant Matrix: (Units=GPa)
#
#
# Indices 1 2 3 4 5 6 
#
# 1 33.7188 16.1356 20.3194 16.9896 12.2870 9.0138
# 2 16.1356 94.7602 21.1056 37.9925 7.9724 16.8968
# 3 20.3194 21.1056 75.4906 27.8449 15.1416 3.1373
# 4 16.9896 37.9925 27.8449 46.8909 6.4278 1.1244
# 5 12.2870 7.9724 15.1416 6.4278 29.7428 3.3333
# 6 9.0138 16.8968 3.1373 1.1244 3.3333 36.5681
#
#
#
# Elastic Compliance Matrix: (Units=1/GPa)
#
#
# Indices 1 2 3 4 5 6 
#
# 1 0.045760 0.001206 -0.005031 -0.012572 -0.012845 -0.009848
# 2 0.001206 0.017654 0.000860 -0.014847 -0.001571 -0.007929
# 3 -0.005031 0.000860 0.018968 -0.009344 -0.005792 0.000031
# 4 -0.012572 -0.014847 -0.009344 0.042737 0.003673 0.009112
# 5 -0.012845 -0.001571 -0.005792 0.003673 0.041448 0.000498
# 6 -0.009848 -0.007929 0.000031 0.009112 0.000498 0.033109
#
#
# Mechanical properties :
#
#
# Convention : Reuss Voigt Hill
#
# Bulk Modulus (GPa) = 13.08000 35.45453 24.26726
# Shear Modulus (GPa) = 21.63660 32.40096 27.01878
#
# Velocity S-wave (km/s) = 3.24238 3.96778 3.62328
# Velocity P-wave (km/s) = 4.51362 6.18208 5.41252
#
# Compressibility (1/GPa) = 0.07645259
#
# Stress axis : x y z
#
# Youngs Moduli (GPa) = 21.85330 56.64284 52.72164
#
# Poissons Ratio (x) = -0.06831 0.26525
# Poissons Ratio (y) = -0.02636 -0.04537
# Poissons Ratio (z) = 0.10995 -0.04874
#
# Static dielectric constant tensor:
#      x y z
#    x 1.715360 0.019310 0.007570 
#    y 0.019310 1.811180 0.012300 
#    z 0.007570 0.012300 1.769200 
# 
# From -- ./inp_files/355554.got.cif
#   From: 2010.05.17/outbox.cif.g08.bks.cpg/sg2_178_cif.got.tgz:355554.got - 2010.06.03 11:33:40.
