data_PCOD9008917
_publ_section_title
;
Structure prediction by ZEFSAII (Michael W. Deem and Ramdas Pophale) SiO2 
 PCOD9008917
Probable space group: P -1
;
_chemical_formula_sum "Si O2"
_cell_formula_units_Z 14
_cell_length_a 12.227520
_cell_length_b 13.583145
_cell_length_c 11.682899
_cell_angle_alpha 145.414603
_cell_angle_beta 136.146620
_cell_angle_gamma 32.282400
_cell_volume 586.248460
_symmetry_space_group_name_H-M "P -1"
_symmetry_group_IT_number 2
_symmetry_cell_setting 'triclinic'
loop_
_space_group_symop_operation_xyz
x,y,z
-x,-y,-z
loop_
_atom_site_type_symbol
_atom_site_label
_atom_site_fract_x
_atom_site_fract_y
_atom_site_fract_z
Si Si1 0.735677 0.594055 0.921020
Si Si2 0.817903 0.707217 0.486317
Si Si3 0.886277 0.860222 0.289156
Si Si4 0.364546 0.650314 0.800583
Si Si5 0.937423 0.924119 0.634912
Si Si6 0.583458 0.214296 0.802629
Si Si7 0.528818 0.661930 0.612181
O O1 0.531201 0.668437 0.895660
O O2 0.693565 0.640784 0.796729
O O3 0.918072 0.327350 0.818628
O O4 0.804320 0.731272 0.146615
O O5 0.645959 0.687961 0.304019
O O6 0.000000 0.500000 0.500000
O O7 0.917226 0.737778 0.482758
O O8 0.694815 0.957816 0.689753
O O9 0.959272 0.914921 0.507295
O O10 0.686118 0.089831 0.307536
O O11 0.135017 0.858810 0.786369
O O12 0.386493 0.656425 0.958416
O O13 0.409411 0.436582 0.564069
O O14 0.725279 0.152973 0.740371
O O15 0.500000 0.500000 0.500000
#
# Coordination Sequence:
#
# PCOD9008917 Si02
#       7
#     2   2   2   2   2   2   2
#     4  10  23  42  65  95 128 170 228 267 327 386
#     4   9  20  41  65  91 126 171 218 265 316 389
#     4  11  22  43  69  93 128 177 219 275 323 386
#     4  11  21  42  62  95 137 167 213 270 329 392
#     4  10  21  39  66  92 132 169 215 264 329 389
#     4   9  21  41  63  91 131 168 213 265 320 388
#     4  10  23  42  64  95 131 168 217 271 327 387
#
# _framework density 23.880659999999999
#
# number of rings (size 3 to 8) (size 9 to 14) (size 15 to 20)
#    0.857    1.143    1.429    1.714    0.000    3.429 
#    2.571    4.286    0.000    0.000    0.000    0.000 
#    0.000    0.000    0.000    0.000    0.000    0.000 
#
# Total GULP energy -78225.235553 kJ/mol
# GULP energy per Si atom -5587.516825 kJ/mol
# Density = 2.382631 g / cm^3
# Si number density = 23.880660 Si / 1000 Ang^3
#
#
#
# Elastic Constant Matrix: (Units=GPa)
#
#
# Indices 1 2 3 4 5 6 
#
# 1 51.5572 10.5533 14.0862 1.6209 5.3428 -22.6924
# 2 10.5533 160.6405 39.8029 10.9738 -3.0434 -24.6285
# 3 14.0862 39.8029 92.6866 -3.1089 -1.6622 -2.0550
# 4 1.6209 10.9738 -3.1089 39.5000 0.6153 7.4756
# 5 5.3428 -3.0434 -1.6622 0.6153 32.0837 -14.2563
# 6 -22.6924 -24.6285 -2.0550 7.4756 -14.2563 37.0640
#
#
#
# Elastic Compliance Matrix: (Units=1/GPa)
#
#
# Indices 1 2 3 4 5 6 
#
# 1 0.030892 0.003955 -0.005982 -0.007698 0.006252 0.025167
# 2 0.003955 0.009266 -0.004414 -0.005320 0.005155 0.011390
# 3 -0.005982 -0.004414 0.013524 0.003981 -0.002114 -0.007461
# 4 -0.007698 -0.005320 0.003981 0.030749 -0.007151 -0.016980
# 5 0.006252 0.005155 -0.002114 -0.007151 0.041559 0.024563
# 6 0.025167 0.011390 -0.007461 -0.016980 0.024563 0.062416
#
#
# Mechanical properties :
#
#
# Convention : Reuss Voigt Hill
#
# Bulk Modulus (GPa) = 24.50862 48.19659 36.35261
# Shear Modulus (GPa) = 23.26817 37.75901 30.51359
#
# Velocity S-wave (km/s) = 3.12485 3.98069 3.57845
# Velocity P-wave (km/s) = 4.82750 6.43070 5.68589
#
# Compressibility (1/GPa) = 0.04080197
#
# Stress axis : x y z
#
# Youngs Moduli (GPa) = 32.37099 107.91929 73.94397
#
# Poissons Ratio (x) = -0.42687 0.44230
# Poissons Ratio (y) = -0.12804 0.32638
# Poissons Ratio (z) = 0.19363 0.47634
#
# Static dielectric constant tensor:
#      x y z
#    x 1.932490 0.045590 -0.034260 
#    y 0.045590 1.926310 0.015100 
#    z -0.034260 0.015100 1.941080 
# 
# From -- ./inp_files/210707.got.cif
#   From: 2010.05.17/outbox.cif.g08.bks.cpg/sg2_106_cif.got.tgz:210707.got - 2010.06.03 11:33:40.
