data_PCOD9008993
_publ_section_title
;
Structure prediction by ZEFSAII (Michael W. Deem and Ramdas Pophale) SiO2 
 PCOD9008993
Probable space group: P -1
;
_chemical_formula_sum "Si O2"
_cell_formula_units_Z 14
_cell_length_a 14.553058
_cell_length_b 9.076069
_cell_length_c 23.177831
_cell_angle_alpha 137.688626
_cell_angle_beta 18.385363
_cell_angle_gamma 135.709936
_cell_volume 648.572900
_symmetry_space_group_name_H-M "P -1"
_symmetry_group_IT_number 2
_symmetry_cell_setting 'triclinic'
loop_
_space_group_symop_operation_xyz
x,y,z
-x,-y,-z
loop_
_atom_site_type_symbol
_atom_site_label
_atom_site_fract_x
_atom_site_fract_y
_atom_site_fract_z
Si Si1 0.345695 0.767417 0.505704
Si Si2 0.957852 0.999919 0.092725
Si Si3 0.982708 0.989209 0.696467
Si Si4 0.266007 0.297084 0.086377
Si Si5 0.328839 0.654065 0.801452
Si Si6 0.553161 0.742660 0.564768
Si Si7 0.577311 0.124693 0.068001
O O1 0.591264 0.595303 0.315020
O O2 0.061232 0.675686 0.686026
O O3 0.500000 0.000000 0.500000
O O4 0.196412 0.822322 0.549690
O O5 0.195446 0.162978 0.030545
O O6 0.652633 0.109366 0.308665
O O7 0.011406 0.756038 0.013055
O O8 0.000000 0.000000 0.000000
O O9 0.131240 0.144898 0.604351
O O10 0.706127 0.852520 0.794714
O O11 0.862572 0.149056 0.864171
O O12 0.500000 0.500000 0.000000
O O13 0.408807 0.128365 0.995099
O O14 0.482277 0.739585 0.674509
O O15 0.428157 0.746760 0.831710
O O16 0.500000 0.500000 0.500000
#
# Coordination Sequence:
#
# PCOD9008993 Si02
#       7
#     2   2   2   2   2   2   2
#     4  11  23  43  67  95 131 177 227 275 340 409
#     4   9  20  40  59  98 136 164 220 282 333 385
#     4  10  22  42  65  91 136 175 218 268 336 408
#     4  10  21  39  66  96 130 176 223 277 334 408
#     4  10  22  42  68  97 131 174 226 281 329 392
#     4  11  22  39  68 100 128 174 225 275 326 398
#     4   9  22  43  64  94 136 174 216 272 343 400
#
# _framework density 21.585854999999999
#
# number of rings (size 3 to 8) (size 9 to 14) (size 15 to 20)
#    0.000    2.000    0.000    2.571    4.000    1.143 
#    5.143   22.143    0.000    0.000    0.000    0.000 
#    0.000    0.000    0.000    0.000    0.000    0.000 
#
# Total GULP energy -77999.526049 kJ/mol
# GULP energy per Si atom -5571.394718 kJ/mol
# Density = 2.153672 g / cm^3
# Si number density = 21.585855 Si / 1000 Ang^3
#
#
#
# Elastic Constant Matrix: (Units=GPa)
#
#
# Indices 1 2 3 4 5 6 
#
# 1 144.6264 23.7523 43.9126 5.4421 0.5281 -5.9099
# 2 23.7523 87.8132 74.5610 12.3845 2.4861 -14.4931
# 3 43.9126 74.5610 94.1463 11.8001 -6.4987 -14.7536
# 4 5.4421 12.3845 11.8001 44.8266 -16.1143 -0.2244
# 5 0.5281 2.4861 -6.4987 -16.1143 53.5064 0.9933
# 6 -5.9099 -14.4931 -14.7536 -0.2244 0.9933 21.1545
#
#
#
# Elastic Compliance Matrix: (Units=1/GPa)
#
#
# Indices 1 2 3 4 5 6 
#
# 1 0.008416 0.003661 -0.006799 -0.000708 -0.001295 0.000171
# 2 0.003661 0.039367 -0.031733 -0.005645 -0.007534 0.006156
# 3 -0.006799 -0.031733 0.039792 0.001573 0.006778 0.003811
# 4 -0.000708 -0.005645 0.001573 0.026589 0.008525 -0.003086
# 5 -0.001295 -0.007534 0.006778 0.008525 0.022476 -0.001761
# 6 0.000171 0.006156 0.003811 -0.003086 -0.001761 0.054244
#
#
# Mechanical properties :
#
#
# Convention : Reuss Voigt Hill
#
# Bulk Modulus (GPa) = 56.07278 67.89307 61.98293
# Shear Modulus (GPa) = 18.75688 36.18817 27.47253
#
# Velocity S-wave (km/s) = 2.95098 4.09892 3.57138
# Velocity P-wave (km/s) = 6.13548 7.34319 6.76633
#
# Compressibility (1/GPa) = 0.01783397
#
# Stress axis : x y z
#
# Youngs Moduli (GPa) = 118.82508 25.40206 25.13055
#
# Poissons Ratio (x) = -0.09300 0.17085
# Poissons Ratio (y) = -0.43504 0.79746
# Poissons Ratio (z) = 0.80785 0.80608
#
# Static dielectric constant tensor:
#      x y z
#    x 1.779440 -0.018600 0.020850 
#    y -0.018600 1.777290 0.007800 
#    z 0.020850 0.007800 1.910650 
# 
# From -- ./inp_files/611700.got.cif
#   From: 2010.05.17/outbox.cif.g08.bks.cpg/sg2_306_cif.got.tgz:611700.got - 2010.06.03 11:33:40.
