data_PCOD9008988
_publ_section_title
;
Structure prediction by ZEFSAII (Michael W. Deem and Ramdas Pophale) SiO2 
 PCOD9008988
Probable space group: P -1
;
_chemical_formula_sum "Si O2"
_cell_formula_units_Z 16
_cell_length_a 24.198055
_cell_length_b 11.842766
_cell_length_c 8.922024
_cell_angle_alpha 40.487281
_cell_angle_beta 47.571547
_cell_angle_gamma 27.474831
_cell_volume 765.891771
_symmetry_space_group_name_H-M "P -1"
_symmetry_group_IT_number 2
_symmetry_cell_setting 'triclinic'
loop_
_space_group_symop_operation_xyz
x,y,z
-x,-y,-z
loop_
_atom_site_type_symbol
_atom_site_label
_atom_site_fract_x
_atom_site_fract_y
_atom_site_fract_z
Si Si1 0.602457 0.955626 0.886871
Si Si2 0.851633 0.462240 0.101741
Si Si3 0.032099 0.449846 0.697058
Si Si4 0.761954 0.089741 0.327143
Si Si5 0.628603 0.233472 0.732694
Si Si6 0.928218 0.018183 0.232360
Si Si7 0.772891 0.805268 0.163328
Si Si8 0.398803 0.839587 0.619822
O O1 0.558147 0.190811 0.842088
O O2 0.631905 0.981538 0.644099
O O3 0.727161 0.679912 0.016432
O O4 0.500000 0.000000 0.000000
O O5 0.912326 0.169495 0.251252
O O6 0.819924 0.553949 0.239767
O O7 0.934876 0.473204 0.881476
O O8 0.118821 0.309900 0.824278
O O9 0.122151 0.229923 0.619898
O O10 0.019185 0.263937 0.529200
O O11 0.700952 0.150083 0.535016
O O12 0.808797 0.193569 0.177472
O O13 0.669098 0.218347 0.235763
O O14 0.538034 0.541495 0.650424
O O15 0.721450 0.018402 0.909502
O O16 0.000000 0.000000 0.000000
O O17 0.660604 0.980564 0.303246
#
# Coordination Sequence:
#
# PCOD9008988 Si02
#       8
#     2   2   2   2   2   2   2   2
#     4  10  22  39  65  94 126 162 207 274 318 365
#     4  11  25  43  66  96 131 169 213 258 324 380
#     4  11  23  44  64  93 133 169 211 265 320 374
#     4  10  21  39  66  96 124 164 211 272 317 372
#     4  10  21  40  65  94 120 169 218 256 322 382
#     4  12  25  36  68  97 127 165 217 265 316 381
#     4  10  23  41  65  87 132 171 209 258 322 382
#     4  10  21  39  68  92 123 169 213 260 323 381
#
# _framework density 20.89068
#
# number of rings (size 3 to 8) (size 9 to 14) (size 15 to 20)
#    0.000    1.500    1.250    4.875   10.500    0.500 
#    0.000    2.500    5.500    0.000    0.000    0.000 
#    0.000    0.000    0.000    0.000    0.000    0.000 
#
# Total GULP energy -89189.693805 kJ/mol
# GULP energy per Si atom -5574.355863 kJ/mol
# Density = 2.084313 g / cm^3
# Si number density = 20.890680 Si / 1000 Ang^3
#
#
#
# Elastic Constant Matrix: (Units=GPa)
#
#
# Indices 1 2 3 4 5 6 
#
# 1 145.0667 61.9473 50.7774 11.5045 -2.8088 11.2150
# 2 61.9473 117.2132 29.0788 21.1495 -1.1097 28.2397
# 3 50.7774 29.0788 47.5310 12.8684 -5.4612 6.9705
# 4 11.5045 21.1495 12.8684 21.2424 -3.0068 1.5191
# 5 -2.8088 -1.1097 -5.4612 -3.0068 35.5060 7.2674
# 6 11.2150 28.2397 6.9705 1.5191 7.2674 49.4070
#
#
#
# Elastic Compliance Matrix: (Units=1/GPa)
#
#
# Indices 1 2 3 4 5 6 
#
# 1 0.012839 -0.005103 -0.012416 0.005391 -0.000951 0.001728
# 2 -0.005103 0.014960 0.000658 -0.011925 0.000631 -0.007212
# 3 -0.012416 0.000658 0.039476 -0.017000 0.004334 -0.003242
# 4 0.005391 -0.011925 -0.017000 0.066187 0.001882 0.005679
# 5 -0.000951 0.000631 0.004334 0.001882 0.030005 -0.005228
# 6 0.001728 -0.007212 -0.003242 0.005679 -0.005228 0.025021
#
#
# Mechanical properties :
#
#
# Convention : Reuss Voigt Hill
#
# Bulk Modulus (GPa) = 29.80381 65.93532 47.86957
# Shear Modulus (GPa) = 21.42280 32.43158 26.92719
#
# Velocity S-wave (km/s) = 3.20577 3.94438 3.59410
# Velocity P-wave (km/s) = 5.29152 7.23704 6.33936
#
# Compressibility (1/GPa) = 0.03355276
#
# Stress axis : x y z
#
# Youngs Moduli (GPa) = 77.88742 66.84304 25.33162
#
# Poissons Ratio (x) = 0.34112 0.31452
# Poissons Ratio (y) = 0.39748 -0.01666
# Poissons Ratio (z) = 0.96705 -0.04397
#
# Static dielectric constant tensor:
#      x y z
#    x 1.881210 -0.089630 -0.103230 
#    y -0.089630 1.914070 0.057270 
#    z -0.103230 0.057270 1.831040 
# 
# From -- ./inp_files/345057.got.cif
#   From: 2010.05.17/outbox.cif.g08.bks.cpg/sg2_173_cif.got.tgz:345057.got - 2010.06.03 11:33:40.
