data_PCOD9008461
_publ_section_title
;
Structure prediction by ZEFSAII (Michael W. Deem and Ramdas Pophale) SiO2 
 PCOD9008461
Probable space group: P -1
;
_chemical_formula_sum "Si O2"
_cell_formula_units_Z 16
_cell_length_a 11.855203
_cell_length_b 6.473474
_cell_length_c 10.587631
_cell_angle_alpha 114.349429
_cell_angle_beta 68.754604
_cell_angle_gamma 103.360929
_cell_volume 686.753457
_symmetry_space_group_name_H-M "P -1"
_symmetry_group_IT_number 2
_symmetry_cell_setting 'triclinic'
loop_
_space_group_symop_operation_xyz
x,y,z
-x,-y,-z
loop_
_atom_site_type_symbol
_atom_site_label
_atom_site_fract_x
_atom_site_fract_y
_atom_site_fract_z
Si Si1 0.500370 0.906351 0.162940
Si Si2 0.869775 0.469820 0.418437
Si Si3 0.305949 0.146552 0.425451
Si Si4 0.860672 0.033956 0.183245
Si Si5 0.667704 0.238500 0.023426
Si Si6 0.081765 0.790088 0.412405
Si Si7 0.356560 0.290123 0.731858
Si Si8 0.939091 0.244397 0.936226
O O1 0.532143 0.787716 0.250950
O O2 0.423253 0.115316 0.286251
O O3 0.616641 0.009871 0.060749
O O4 0.417892 0.747577 0.060150
O O5 0.775076 0.651744 0.528685
O O6 0.908742 0.342735 0.494461
O O7 0.989772 0.594571 0.329113
O O8 0.807494 0.256577 0.314502
O O9 0.342967 0.198787 0.570536
O O10 0.217506 0.914903 0.377577
O O11 0.759357 0.826613 0.174725
O O12 0.905109 0.125684 0.053903
O O13 0.968203 0.932367 0.195441
O O14 0.652985 0.443956 0.177675
O O15 0.808081 0.244278 0.924831
O O16 0.000000 0.000000 0.500000
O O17 0.000000 0.500000 0.000000
#
# Coordination Sequence:
#
# PCOD9008461 Si02
#       8
#     2   2   2   2   2   2   2   2
#     4  11  27  47  67  98 140 189 239 286 344 423
#     4  10  21  39  64  98 142 179 220 287 350 421
#     4  11  24  41  70 103 136 186 234 287 351 414
#     4  11  23  39  67 103 137 173 227 290 357 412
#     4  11  25  47  70  96 139 184 231 294 352 412
#     4   9  20  38  61  94 136 179 220 274 348 413
#     4  12  23  45  71  98 139 178 239 296 345 415
#     4  11  23  41  69 102 131 178 230 288 352 423
#
# _framework density 23.298027000000001
#
# number of rings (size 3 to 8) (size 9 to 14) (size 15 to 20)
#    0.000    1.250    3.750    1.500    0.000    5.500 
#    0.000    0.000    0.000    0.000    0.000    0.000 
#    0.000    0.000    0.000    0.000    0.000    0.000 
#
# Total GULP energy -89208.076212 kJ/mol
# GULP energy per Si atom -5575.504763 kJ/mol
# Density = 2.324500 g / cm^3
# Si number density = 23.298027 Si / 1000 Ang^3
#
#
#
# Elastic Constant Matrix: (Units=GPa)
#
#
# Indices 1 2 3 4 5 6 
#
# 1 119.5716 38.5313 25.9270 1.2556 5.5407 3.3509
# 2 38.5313 87.1881 12.0272 5.6045 7.3762 8.3677
# 3 25.9270 12.0272 58.3020 6.1337 12.1590 -9.4554
# 4 1.2556 5.6045 6.1337 27.9286 -5.9729 2.6018
# 5 5.5407 7.3762 12.1590 -5.9729 32.4405 -4.9534
# 6 3.3509 8.3677 -9.4554 2.6018 -4.9534 34.1606
#
#
#
# Elastic Compliance Matrix: (Units=1/GPa)
#
#
# Indices 1 2 3 4 5 6 
#
# 1 0.010639 -0.004151 -0.004438 0.001638 0.000901 -0.001249
# 2 -0.004151 0.014201 -0.000649 -0.002909 -0.003349 -0.003515
# 3 -0.004438 -0.000649 0.022648 -0.006916 -0.007903 0.006244
# 4 0.001638 -0.002909 -0.006916 0.040236 0.009926 -0.002988
# 5 0.000901 -0.003349 -0.007903 0.009926 0.036698 0.003110
# 6 -0.001249 -0.003515 0.006244 -0.002988 0.003110 0.032664
#
#
# Mechanical properties :
#
#
# Convention : Reuss Voigt Hill
#
# Bulk Modulus (GPa) = 34.46831 46.44809 40.45820
# Shear Modulus (GPa) = 26.99304 31.47767 29.23536
#
# Velocity S-wave (km/s) = 3.40751 3.67970 3.54622
# Velocity P-wave (km/s) = 5.50528 6.16712 5.84558
#
# Compressibility (1/GPa) = 0.02901215
#
# Stress axis : x y z
#
# Youngs Moduli (GPa) = 93.99161 70.41603 44.15423
#
# Poissons Ratio (x) = 0.29232 0.19595
# Poissons Ratio (y) = 0.39019 0.02866
# Poissons Ratio (z) = 0.41712 0.04570
#
# Static dielectric constant tensor:
#      x y z
#    x 1.991820 0.022870 0.008210 
#    y 0.022870 1.883630 -0.037800 
#    z 0.008210 -0.037800 1.952310 
# 
# From -- ./inp_files/411022.got.cif
#   From: 2010.05.17/outbox.cif.g08.bks.cpg/sg2_206_cif.got.tgz:411022.got - 2010.06.03 11:33:40.
