data_PCOD9008589
_publ_section_title
;
Structure prediction by ZEFSAII (Michael W. Deem and Ramdas Pophale) SiO2 
 PCOD9008589
Probable space group: P -1
;
_chemical_formula_sum "Si O2"
_cell_formula_units_Z 14
_cell_length_a 7.485087
_cell_length_b 5.293510
_cell_length_c 20.337173
_cell_angle_alpha 76.542056
_cell_angle_beta 131.438839
_cell_angle_gamma 100.079118
_cell_volume 587.252724
_symmetry_space_group_name_H-M "P -1"
_symmetry_group_IT_number 2
_symmetry_cell_setting 'triclinic'
loop_
_space_group_symop_operation_xyz
x,y,z
-x,-y,-z
loop_
_atom_site_type_symbol
_atom_site_label
_atom_site_fract_x
_atom_site_fract_y
_atom_site_fract_z
Si Si1 0.964477 0.055776 0.307710
Si Si2 0.926120 0.212139 0.522393
Si Si3 0.426974 0.386988 0.419317
Si Si4 0.838638 0.236428 0.751334
Si Si5 0.988123 0.827481 0.072585
Si Si6 0.670813 0.425783 0.148524
Si Si7 0.712183 0.293488 0.020028
O O1 0.956000 0.836335 0.374393
O O2 0.171135 0.247376 0.374236
O O3 0.073053 0.967948 0.269094
O O4 0.719188 0.201577 0.226036
O O5 0.638503 0.205407 0.459705
O O6 0.000000 0.500000 0.500000
O O7 0.000000 0.000000 0.500000
O O8 0.500000 0.500000 0.500000
O O9 0.380283 0.613565 0.341698
O O10 0.801286 0.158596 0.822884
O O11 0.071744 0.429851 0.800718
O O12 0.912250 0.530820 0.054612
O O13 0.796335 0.001623 0.053288
O O14 0.000000 0.000000 0.000000
O O15 0.616839 0.308147 0.070651
O O16 0.461971 0.631444 0.087152
#
# Coordination Sequence:
#
# PCOD9008589 Si02
#       7
#     2   2   2   2   2   2   2
#     4  11  22  43  73  94 133 181 238 274 328 424
#     4  12  28  46  66 100 143 172 217 293 357 395
#     4  11  23  45  74  99 128 188 241 275 337 424
#     4  10  22  39  70  93 127 170 240 274 317 412
#     4  11  23  42  61  94 136 175 217 271 336 396
#     4   9  21  37  65  97 121 161 226 280 319 376
#     4  10  21  39  65  91 128 170 212 274 329 388
#
# _framework density 23.839821000000001
#
# number of rings (size 3 to 8) (size 9 to 14) (size 15 to 20)
#    0.000    1.429    2.857    1.714    6.000    1.714 
#    5.143    0.000    0.000    0.000    0.000    0.000 
#    0.000    0.000    0.000    0.000    0.000    0.000 
#
# Total GULP energy -78147.909196 kJ/mol
# GULP energy per Si atom -5581.993514 kJ/mol
# Density = 2.378556 g / cm^3
# Si number density = 23.839821 Si / 1000 Ang^3
#
#
#
# Elastic Constant Matrix: (Units=GPa)
#
#
# Indices 1 2 3 4 5 6 
#
# 1 28.9059 14.6778 27.5518 0.5953 -12.2655 -1.0961
# 2 14.6778 104.8576 41.2608 3.0537 -1.4612 -0.0669
# 3 27.5518 41.2608 227.8414 -23.0536 -16.1850 0.8112
# 4 0.5953 3.0537 -23.0536 48.7137 -3.0094 -1.3031
# 5 -12.2655 -1.4612 -16.1850 -3.0094 39.7863 -12.6608
# 6 -1.0961 -0.0669 0.8112 -1.3031 -12.6608 36.6482
#
#
#
# Elastic Compliance Matrix: (Units=1/GPa)
#
#
# Indices 1 2 3 4 5 6 
#
# 1 0.047366 -0.004845 -0.003924 -0.001039 0.014845 0.006586
# 2 -0.004845 0.010899 -0.001701 -0.001589 -0.002192 -0.000901
# 3 -0.003924 -0.001701 0.005554 0.002872 0.001302 0.000309
# 4 -0.001039 -0.001589 0.002872 0.022233 0.003024 0.001738
# 5 0.014845 -0.002192 0.001302 0.003024 0.034328 0.012378
# 6 0.006586 -0.000901 0.000309 0.001738 0.012378 0.031813
#
#
# Mechanical properties :
#
#
# Convention : Reuss Voigt Hill
#
# Bulk Modulus (GPa) = 23.32179 58.73175 41.02677
# Shear Modulus (GPa) = 26.67724 43.57060 35.12392
#
# Velocity S-wave (km/s) = 3.34880 4.27973 3.84256
# Velocity P-wave (km/s) = 4.97560 7.00792 6.07731
#
# Compressibility (1/GPa) = 0.04287836
#
# Stress axis : x y z
#
# Youngs Moduli (GPa) = 21.11220 91.74764 180.06227
#
# Poissons Ratio (x) = 0.44448 0.70665
# Poissons Ratio (y) = 0.10228 0.30633
# Poissons Ratio (z) = 0.08285 0.15609
#
# Static dielectric constant tensor:
#      x y z
#    x 2.041420 -0.024980 -0.029230 
#    y -0.024980 1.979980 -0.075650 
#    z -0.029230 -0.075650 1.995290 
# 
# From -- ./inp_files/584636.got.cif
#   From: 2010.05.17/outbox.cif.g08.bks.cpg/sg2_293_cif.got.tgz:584636.got - 2010.06.03 11:33:40.
