data_PCOD9008860
_publ_section_title
;
Structure prediction by ZEFSAII (Michael W. Deem and Ramdas Pophale) SiO2 
 PCOD9008860
Probable space group: P -1
;
_chemical_formula_sum "Si O2"
_cell_formula_units_Z 14
_cell_length_a 12.038083
_cell_length_b 9.361006
_cell_length_c 12.413617
_cell_angle_alpha 143.175962
_cell_angle_beta 121.097291
_cell_angle_gamma 50.876400
_cell_volume 650.245591
_symmetry_space_group_name_H-M "P -1"
_symmetry_group_IT_number 2
_symmetry_cell_setting 'triclinic'
loop_
_space_group_symop_operation_xyz
x,y,z
-x,-y,-z
loop_
_atom_site_type_symbol
_atom_site_label
_atom_site_fract_x
_atom_site_fract_y
_atom_site_fract_z
Si Si1 0.313782 0.427255 0.486955
Si Si2 0.730746 0.151043 0.605285
Si Si3 0.544786 0.612654 0.245890
Si Si4 0.487775 0.872074 0.141821
Si Si5 0.999325 0.281677 0.447996
Si Si6 0.308355 0.927630 0.694356
Si Si7 0.997975 0.226661 0.806142
O O1 0.356714 0.357125 0.591728
O O2 0.143676 0.561959 0.462307
O O3 0.359786 0.663935 0.630069
O O4 0.378175 0.169810 0.291060
O O5 0.617689 0.256164 0.708331
O O6 0.651419 0.167943 0.465313
O O7 0.837911 0.290008 0.724734
O O8 0.846747 0.850411 0.498548
O O9 0.547974 0.744514 0.212624
O O10 0.579293 0.310627 0.054894
O O11 0.611147 0.886313 0.135978
O O12 0.000000 0.500000 0.500000
O O13 0.984579 0.010257 0.242366
O O14 0.136767 0.083197 0.713530
O O15 0.000000 0.500000 0.000000
#
# Coordination Sequence:
#
# PCOD9008860 Si02
#       7
#     2   2   2   2   2   2   2
#     4  11  23  42  62  93 128 160 209 260 316 365
#     4  10  21  39  66  86 126 168 209 251 318 374
#     4  11  24  41  64  93 122 169 206 263 308 377
#     4  11  24  40  65  91 127 161 216 249 323 375
#     4   9  21  37  63  90 122 167 210 251 316 373
#     4  11  22  40  61  96 122 167 209 255 310 385
#     4   9  20  37  60  88 124 164 209 254 312 369
#
# _framework density 21.530328000000001
#
# number of rings (size 3 to 8) (size 9 to 14) (size 15 to 20)
#    0.857    0.857    1.429    3.000    2.000    0.571 
#    5.143    0.000    0.000    3.429    0.000    0.000 
#    0.000    0.000    0.000    0.000    0.000    0.000 
#
# Total GULP energy -77944.636997 kJ/mol
# GULP energy per Si atom -5567.474071 kJ/mol
# Density = 2.148132 g / cm^3
# Si number density = 21.530328 Si / 1000 Ang^3
#
#
#
# Elastic Constant Matrix: (Units=GPa)
#
#
# Indices 1 2 3 4 5 6 
#
# 1 94.5772 21.8748 27.4531 23.8744 0.9584 -0.2312
# 2 21.8748 62.5824 22.4614 21.7588 -5.1885 4.2542
# 3 27.4531 22.4614 72.1527 26.3706 2.4428 3.0214
# 4 23.8744 21.7588 26.3706 29.0415 8.0880 5.4557
# 5 0.9584 -5.1885 2.4428 8.0880 26.6443 12.1144
# 6 -0.2312 4.2542 3.0214 5.4557 12.1144 45.1452
#
#
#
# Elastic Compliance Matrix: (Units=1/GPa)
#
#
# Indices 1 2 3 4 5 6 
#
# 1 0.013703 -0.000545 -0.001342 -0.010440 0.002305 0.000855
# 2 -0.000545 0.024748 -0.000166 -0.020863 0.012639 -0.003194
# 3 -0.001342 -0.000166 0.021310 -0.019196 0.003962 -0.000161
# 4 -0.010440 -0.020863 -0.019196 0.083658 -0.027539 0.000477
# 5 0.002305 0.012639 0.003962 -0.027539 0.053588 -0.012496
# 6 0.000855 -0.003194 -0.000161 0.000477 -0.012496 0.025763
#
#
# Mechanical properties :
#
#
# Convention : Reuss Voigt Hill
#
# Bulk Modulus (GPa) = 17.96782 41.43233 29.70007
# Shear Modulus (GPa) = 20.37261 30.66774 25.52018
#
# Velocity S-wave (km/s) = 3.07942 3.77821 3.44657
# Velocity P-wave (km/s) = 4.58337 6.19021 5.44637
#
# Compressibility (1/GPa) = 0.05565505
#
# Stress axis : x y z
#
# Youngs Moduli (GPa) = 72.97517 40.40783 46.92583
#
# Poissons Ratio (x) = 0.02203 0.06299
# Poissons Ratio (y) = 0.03978 0.00777
# Poissons Ratio (z) = 0.09795 0.00669
#
# Static dielectric constant tensor:
#      x y z
#    x 1.897780 0.017960 0.107510 
#    y 0.017960 1.838050 0.056060 
#    z 0.107510 0.056060 1.905340 
# 
# From -- ./inp_files/445372.got.cif
#   From: 2010.05.17/outbox.cif.g08.bks.cpg/sg2_223_cif.got.tgz:445372.got - 2010.06.03 11:33:40.
