data_PCOD9008115
_publ_section_title
;
Structure prediction by ZEFSAII (Michael W. Deem and Ramdas Pophale) SiO2 
 PCOD9008115
Probable space group: P -1
;
_chemical_formula_sum "Si O2"
_cell_formula_units_Z 16
_cell_length_a 15.815043
_cell_length_b 18.624226
_cell_length_c 8.924135
_cell_angle_alpha 138.506772
_cell_angle_beta 28.607234
_cell_angle_gamma 146.707193
_cell_volume 689.685764
_symmetry_space_group_name_H-M "P -1"
_symmetry_group_IT_number 2
_symmetry_cell_setting 'triclinic'
loop_
_space_group_symop_operation_xyz
x,y,z
-x,-y,-z
loop_
_atom_site_type_symbol
_atom_site_label
_atom_site_fract_x
_atom_site_fract_y
_atom_site_fract_z
Si Si1 0.578099 0.861648 0.742792
Si Si2 0.307463 0.343473 0.726035
Si Si3 0.544062 0.274149 0.748879
Si Si4 0.906423 0.354472 0.860599
Si Si5 0.219539 0.011808 0.662524
Si Si6 0.608215 0.117758 0.634345
Si Si7 0.276390 0.369031 0.471436
Si Si8 0.915694 0.548714 0.576890
O O1 0.690868 0.783235 0.445929
O O2 0.707138 0.979358 0.609163
O O3 0.336198 0.757173 0.899968
O O4 0.551013 0.898852 0.010807
O O5 0.224988 0.336895 0.675895
O O6 0.550358 0.473429 0.559050
O O7 0.174609 0.371591 0.089684
O O8 0.400363 0.151426 0.673297
O O9 0.658952 0.235822 0.631429
O O10 0.712915 0.408992 0.612686
O O11 0.395249 0.304333 0.122435
O O12 0.070608 0.323839 0.622866
O O13 0.923669 0.373149 0.684270
O O14 0.000000 0.500000 0.000000
O O15 0.221098 0.899519 0.573852
O O16 0.000000 0.000000 0.000000
O O17 0.500000 0.000000 0.500000
O O18 0.000000 0.500000 0.500000
#
# Coordination Sequence:
#
# PCOD9008115 Si02
#       8
#     2   2   2   2   2   2   2   2
#     4  12  24  44  72  98 135 182 217 290 353 393
#     4  10  22  40  66  98 142 180 220 261 341 425
#     4  10  22  43  69  95 137 183 216 280 340 396
#     4  12  24  39  66 105 145 177 220 263 339 431
#     4  11  27  46  70  98 129 171 245 296 337 391
#     4  10  23  48  71  92 130 180 238 292 337 394
#     4  10  21  39  64 100 141 178 217 264 329 430
#     4  11  24  39  68 108 146 179 219 266 339 431
#
# _framework density 23.198971
#
# number of rings (size 3 to 8) (size 9 to 14) (size 15 to 20)
#    0.000    1.250    2.500    2.625    5.250    2.000 
#    0.000    5.000    0.000    0.000    0.000    0.000 
#    0.000    0.000    0.000    0.000    0.000    0.000 
#
# Total GULP energy -89573.925980 kJ/mol
# GULP energy per Si atom -5598.370374 kJ/mol
# Density = 2.314617 g / cm^3
# Si number density = 23.198971 Si / 1000 Ang^3
#
#
#
# Elastic Constant Matrix: (Units=GPa)
#
#
# Indices 1 2 3 4 5 6 
#
# 1 102.1703 28.8374 31.6830 -5.1718 -8.4611 -8.6090
# 2 28.8374 84.0988 37.1783 4.7618 1.6285 -11.0486
# 3 31.6830 37.1783 99.3263 8.0020 -11.5962 -11.6183
# 4 -5.1718 4.7618 8.0020 43.8685 -3.0177 5.2597
# 5 -8.4611 1.6285 -11.5962 -3.0177 45.8489 10.6161
# 6 -8.6090 -11.0486 -11.6183 5.2597 10.6161 31.0510
#
#
#
# Elastic Compliance Matrix: (Units=1/GPa)
#
#
# Indices 1 2 3 4 5 6 
#
# 1 0.011709 -0.003011 -0.002561 0.002262 0.001711 0.000248
# 2 -0.003011 0.015759 -0.004649 -0.002004 -0.003480 0.004562
# 3 -0.002561 -0.004649 0.013351 -0.002331 0.002406 0.002204
# 4 0.002262 -0.002004 -0.002331 0.024643 0.002942 -0.006138
# 5 0.001711 -0.003480 0.002406 0.002942 0.025125 -0.008952
# 6 0.000248 0.004562 0.002204 -0.006138 -0.008952 0.038822
#
#
# Mechanical properties :
#
#
# Convention : Reuss Voigt Hill
#
# Bulk Modulus (GPa) = 49.07805 53.44364 51.26085
# Shear Modulus (GPa) = 31.91931 36.68013 34.29972
#
# Velocity S-wave (km/s) = 3.71333 3.98063 3.84930
# Velocity P-wave (km/s) = 6.29176 6.64938 6.47304
#
# Compressibility (1/GPa) = 0.02037571
#
# Stress axis : x y z
#
# Youngs Moduli (GPa) = 85.40508 63.45637 74.89815
#
# Poissons Ratio (x) = 0.19109 0.19182
# Poissons Ratio (y) = 0.25719 0.34822
# Poissons Ratio (z) = 0.21873 0.29502
#
# Static dielectric constant tensor:
#      x y z
#    x 1.886880 0.048330 0.000810 
#    y 0.048330 1.895130 0.027820 
#    z 0.000810 0.027820 1.836220 
# 
# From -- ./inp_files/318122.got.cif
#   From: 2010.05.17/outbox.cif.g08.bks.cpg/sg2_160_cif.got.tgz:318122.got - 2010.06.03 11:33:40.
