data_PCOD9008819
_publ_section_title
;
Structure prediction by ZEFSAII (Michael W. Deem and Ramdas Pophale) SiO2 
 PCOD9008819
Probable space group: P -1
;
_chemical_formula_sum "Si O2"
_cell_formula_units_Z 15
_cell_length_a 9.445330
_cell_length_b 14.372832
_cell_length_c 10.981709
_cell_angle_alpha 50.843653
_cell_angle_beta 136.035856
_cell_angle_gamma 129.252265
_cell_volume 757.255637
_symmetry_space_group_name_H-M "P -1"
_symmetry_group_IT_number 2
_symmetry_cell_setting 'triclinic'
loop_
_space_group_symop_operation_xyz
x,y,z
-x,-y,-z
loop_
_atom_site_type_symbol
_atom_site_label
_atom_site_fract_x
_atom_site_fract_y
_atom_site_fract_z
Si Si1 0.794179 0.653144 0.649464
Si Si2 0.265230 0.506092 0.815742
Si Si3 0.149532 0.757175 0.583915
Si Si4 0.588952 0.353210 0.744812
Si Si5 0.854143 0.889833 0.913695
Si Si6 0.000130 0.711502 0.988342
Si Si7 0.500000 0.000000 0.500000
Si Si8 0.750984 0.684524 0.221945
O O1 0.729105 0.502791 0.705112
O O2 0.586112 0.683307 0.442826
O O3 0.846586 0.681356 0.799781
O O4 0.009471 0.725518 0.646715
O O5 0.242339 0.642890 0.705870
O O6 0.234545 0.449030 0.707675
O O7 0.500000 0.500000 0.000000
O O8 0.092596 0.406579 0.878343
O O9 0.971287 0.751407 0.374926
O O10 0.334773 0.890818 0.578255
O O11 0.448054 0.334356 0.795661
O O12 0.758967 0.279441 0.906661
O O13 0.990871 0.835351 0.950120
O O14 0.691186 0.940626 0.697837
O O15 0.737947 0.770849 0.028521
O O16 0.000000 0.000000 0.000000
#
# Coordination Sequence:
#
# PCOD9008819 Si02
#       8
#     2   2   2   2   2   2   1   2
#     4  10  22  38  64 100 138 163 216 260 335 395
#     4  11  22  37  62 104 130 168 218 270 330 385
#     4  11  22  41  64  95 132 175 218 269 321 391
#     4  10  21  39  66 100 134 172 200 271 337 388
#     4  11  25  48  66  93 127 172 228 274 320 388
#     4  11  23  40  68  97 130 169 214 271 328 390
#     4  12  26  42  70  88 128 184 216 266 324 382
#     4  10  22  41  69  95 132 165 220 274 328 387
#
# _framework density 19.80837
#
# number of rings (size 3 to 8) (size 9 to 14) (size 15 to 20)
#    0.000    1.333    2.667    3.200    3.733    1.067 
#    4.800    1.333    0.000    0.000    0.000    0.000 
#    0.000    0.000    0.000    0.000    0.000    0.000 
#
# Total GULP energy -83533.828115 kJ/mol
# GULP energy per Si atom -5568.921874 kJ/mol
# Density = 1.976329 g / cm^3
# Si number density = 19.808370 Si / 1000 Ang^3
#
#
#
# Elastic Constant Matrix: (Units=GPa)
#
#
# Indices 1 2 3 4 5 6 
#
# 1 105.9323 39.4714 48.3711 9.6052 2.3059 -0.7605
# 2 39.4714 65.7711 21.9996 -2.9047 5.5865 6.8650
# 3 48.3711 21.9996 83.5904 -14.2935 3.5880 -18.4136
# 4 9.6052 -2.9047 -14.2935 28.1462 4.5537 -4.4166
# 5 2.3059 5.5865 3.5880 4.5537 13.8449 4.1643
# 6 -0.7605 6.8650 -18.4136 -4.4166 4.1643 28.9394
#
#
#
# Elastic Compliance Matrix: (Units=1/GPa)
#
#
# Indices 1 2 3 4 5 6 
#
# 1 0.023138 -0.008165 -0.019640 -0.024036 0.017281 -0.016106
# 2 -0.008165 0.021561 -0.000481 0.005473 -0.007915 -0.003661
# 3 -0.019640 -0.000481 0.038158 0.035847 -0.028265 0.033415
# 4 -0.024036 0.005473 0.035847 0.075713 -0.044060 0.038774
# 5 0.017281 -0.007915 -0.028265 -0.044060 0.105665 -0.037582
# 6 -0.016106 -0.003661 0.033415 0.038774 -0.037582 0.067587
#
#
# Mechanical properties :
#
#
# Convention : Reuss Voigt Hill
#
# Bulk Modulus (GPa) = 38.04236 52.77531 45.40884
# Shear Modulus (GPa) = 12.58955 23.88288 18.23621
#
# Velocity S-wave (km/s) = 2.52378 3.47608 3.03748
# Velocity P-wave (km/s) = 5.26683 6.54306 5.93932
#
# Compressibility (1/GPa) = 0.02628648
#
# Stress axis : x y z
#
# Youngs Moduli (GPa) = 43.21927 46.38007 26.20652
#
# Poissons Ratio (x) = 0.37867 0.51470
# Poissons Ratio (y) = 0.35287 0.01260
# Poissons Ratio (z) = 0.84883 0.02230
#
# Static dielectric constant tensor:
#      x y z
#    x 1.691190 -0.003260 -0.025550 
#    y -0.003260 1.710330 0.013520 
#    z -0.025550 0.013520 1.713880 
# 
# From -- ./inp_files/253590.got.cif
#   From: 2010.05.17/outbox.cif.g08.bks.cpg/sg2_127_cif.got.tgz:253590.got - 2010.06.03 11:33:40.
