data_PCOD9008510
_publ_section_title
;
Structure prediction by ZEFSAII (Michael W. Deem and Ramdas Pophale) SiO2 
 PCOD9008510
Probable space group: P -1
;
_chemical_formula_sum "Si O2"
_cell_formula_units_Z 14
_cell_length_a 11.510648
_cell_length_b 7.971246
_cell_length_c 9.558222
_cell_angle_alpha 106.095267
_cell_angle_beta 40.795029
_cell_angle_gamma 97.009264
_cell_volume 545.118683
_symmetry_space_group_name_H-M "P -1"
_symmetry_group_IT_number 2
_symmetry_cell_setting 'triclinic'
loop_
_space_group_symop_operation_xyz
x,y,z
-x,-y,-z
loop_
_atom_site_type_symbol
_atom_site_label
_atom_site_fract_x
_atom_site_fract_y
_atom_site_fract_z
Si Si1 0.143590 0.553328 0.988665
Si Si2 0.402532 0.848573 0.124060
Si Si3 0.976131 0.202486 0.469248
Si Si4 0.124483 0.472640 0.546411
Si Si5 0.995196 0.942779 0.151957
Si Si6 0.425240 0.033874 0.420245
Si Si7 0.503965 0.617692 0.718765
O O1 0.063033 0.494333 0.193196
O O2 0.116829 0.764013 0.042585
O O3 0.355560 0.501151 0.775307
O O4 0.000000 0.500000 0.000000
O O5 0.182787 0.881478 0.328724
O O6 0.453026 0.868786 0.247004
O O7 0.459854 0.677601 0.934949
O O8 0.500000 0.000000 0.000000
O O9 0.872087 0.385983 0.544524
O O10 0.126829 0.273708 0.441730
O O11 0.042900 0.092265 0.247475
O O12 0.294431 0.481139 0.490842
O O13 0.789674 0.918539 0.362437
O O14 0.000000 0.000000 0.000000
O O15 0.498495 0.201736 0.324021
O O16 0.500000 0.000000 0.500000
#
# Coordination Sequence:
#
# PCOD9008510 Si02
#       7
#     2   2   2   2   2   2   2
#     4  12  26  46  69  99 143 186 237 295 366 422
#     4   9  20  40  69 102 138 180 238 290 351 424
#     4  10  23  45  71 103 147 183 235 300 353 432
#     4  11  24  45  71 106 143 184 236 292 363 426
#     4  11  23  43  69  99 140 187 235 290 357 421
#     4  10  21  39  65 106 142 179 234 294 352 426
#     4  11  23  44  71 101 139 187 237 289 358 428
#
# _framework density 25.682483000000001
#
# number of rings (size 3 to 8) (size 9 to 14) (size 15 to 20)
#    0.000    1.429    2.857    1.714    0.000    7.429 
#    5.143    0.000    0.000    0.000    0.000    0.000 
#    0.000    0.000    0.000    0.000    0.000    0.000 
#
# Total GULP energy -78382.308593 kJ/mol
# GULP energy per Si atom -5598.736328 kJ/mol
# Density = 2.562403 g / cm^3
# Si number density = 25.682483 Si / 1000 Ang^3
#
#
#
# Elastic Constant Matrix: (Units=GPa)
#
#
# Indices 1 2 3 4 5 6 
#
# 1 144.8731 17.2792 41.6191 -21.6989 2.5896 23.0251
# 2 17.2792 60.9684 19.4283 -12.9535 -0.8819 14.0538
# 3 41.6191 19.4283 105.7998 -29.5606 0.6256 12.6253
# 4 -21.6989 -12.9535 -29.5606 29.4358 7.4850 1.3655
# 5 2.5896 -0.8819 0.6256 7.4850 60.9544 -7.5896
# 6 23.0251 14.0538 12.6253 1.3655 -7.5896 45.1236
#
#
#
# Elastic Compliance Matrix: (Units=1/GPa)
#
#
# Indices 1 2 3 4 5 6 
#
# 1 0.008934 0.000230 -0.001295 0.006038 -0.001694 -0.004736
# 2 0.000230 0.019983 -0.000305 0.009413 -0.001724 -0.006831
# 3 -0.001295 -0.000305 0.014515 0.014282 -0.002367 -0.004136
# 4 0.006038 0.009413 0.014282 0.059890 -0.009288 -0.013383
# 5 -0.001694 -0.001724 -0.002367 -0.009288 0.018293 0.005421
# 6 -0.004736 -0.006831 -0.004136 -0.013383 0.005421 0.029180
#
#
# Mechanical properties :
#
#
# Convention : Reuss Voigt Hill
#
# Bulk Modulus (GPa) = 24.57364 52.03272 38.30318
# Shear Modulus (GPa) = 29.92262 42.65708 36.28985
#
# Velocity S-wave (km/s) = 3.41706 4.07989 3.76309
# Velocity P-wave (km/s) = 5.01571 6.51904 5.81616
#
# Compressibility (1/GPa) = 0.04069402
#
# Stress axis : x y z
#
# Youngs Moduli (GPa) = 111.92723 50.04181 68.89434
#
# Poissons Ratio (x) = -0.01153 0.08920
# Poissons Ratio (y) = -0.02579 0.02101
# Poissons Ratio (z) = 0.14492 0.01526
#
# Static dielectric constant tensor:
#      x y z
#    x 2.164300 0.051400 -0.034050 
#    y 0.051400 2.049440 0.043020 
#    z -0.034050 0.043020 2.069840 
# 
# From -- ./inp_files/244315.got.cif
#   From: 2010.05.17/outbox.cif.g08.bks.cpg/sg2_123_cif.got.tgz:244315.got - 2010.06.03 11:33:40.
