data_PCOD9008911
_publ_section_title
;
Structure prediction by ZEFSAII (Michael W. Deem and Ramdas Pophale) SiO2 
 PCOD9008911
Probable space group: P -1
;
_chemical_formula_sum "Si O2"
_cell_formula_units_Z 14
_cell_length_a 10.886681
_cell_length_b 11.404404
_cell_length_c 12.986841
_cell_angle_alpha 72.192562
_cell_angle_beta 41.024238
_cell_angle_gamma 41.493073
_cell_volume 562.924600
_symmetry_space_group_name_H-M "P -1"
_symmetry_group_IT_number 2
_symmetry_cell_setting 'triclinic'
loop_
_space_group_symop_operation_xyz
x,y,z
-x,-y,-z
loop_
_atom_site_type_symbol
_atom_site_label
_atom_site_fract_x
_atom_site_fract_y
_atom_site_fract_z
Si Si1 0.696291 0.995698 0.942605
Si Si2 0.560510 0.221484 0.778010
Si Si3 0.898918 0.582131 0.662394
Si Si4 0.101435 0.811854 0.026336
Si Si5 0.128603 0.267913 0.933774
Si Si6 0.121910 0.195379 0.650036
Si Si7 0.792513 0.354729 0.603762
O O1 0.464599 0.180860 0.129459
O O2 0.962865 0.767123 0.898135
O O3 0.745567 0.071315 0.803556
O O4 0.500000 0.000000 0.000000
O O5 0.456987 0.167197 0.781735
O O6 0.742725 0.246052 0.618763
O O7 0.178439 0.477445 0.973598
O O8 0.972333 0.411537 0.712573
O O9 0.117940 0.584318 0.547225
O O10 0.000000 0.500000 0.500000
O O11 0.842686 0.850481 0.139026
O O12 0.076052 0.804823 0.165474
O O13 0.455911 0.580039 0.816642
O O14 0.000000 0.000000 0.000000
O O15 0.064959 0.204590 0.562900
O O16 0.500000 0.000000 0.500000
#
# Coordination Sequence:
#
# PCOD9008911 Si02
#       7
#     2   2   2   2   2   2   2
#     4  10  21  39  66  92 126 178 219 265 337 400
#     4   9  19  41  62  92 122 172 218 273 311 404
#     4  10  22  39  62  90 133 168 211 274 333 392
#     4  11  23  36  63  95 128 169 218 274 328 403
#     4   9  20  35  64  89 126 163 222 255 337 379
#     4  11  24  39  61  94 134 175 213 271 346 393
#     4  10  22  39  62  93 127 166 219 275 329 389
#
# _framework density 24.870114000000001
#
# number of rings (size 3 to 8) (size 9 to 14) (size 15 to 20)
#    0.000    2.000    0.000    3.000   10.000    0.000 
#    0.000    2.857    0.000   22.286    0.000    0.000 
#    0.000    0.000    0.000    0.000    0.000    0.000 
#
# Total GULP energy -78137.245743 kJ/mol
# GULP energy per Si atom -5581.231839 kJ/mol
# Density = 2.481351 g / cm^3
# Si number density = 24.870114 Si / 1000 Ang^3
#
#
#
# Elastic Constant Matrix: (Units=GPa)
#
#
# Indices 1 2 3 4 5 6 
#
# 1 106.0726 31.1728 25.8722 4.1724 -13.1758 21.8819
# 2 31.1728 149.8831 41.7340 -11.3913 7.2012 19.6216
# 3 25.8722 41.7340 96.7988 -6.7586 1.8562 7.4605
# 4 4.1724 -11.3913 -6.7586 37.9017 9.4894 -10.4551
# 5 -13.1758 7.2012 1.8562 9.4894 41.1024 -6.2082
# 6 21.8819 19.6216 7.4605 -10.4551 -6.2082 45.0833
#
#
#
# Elastic Compliance Matrix: (Units=1/GPa)
#
#
# Indices 1 2 3 4 5 6 
#
# 1 0.012487 -0.001785 -0.002599 -0.005054 0.004789 -0.005366
# 2 -0.001785 0.008409 -0.002764 0.002327 -0.002787 -0.002180
# 3 -0.002599 -0.002764 0.012337 0.002187 -0.001297 0.000752
# 4 -0.005054 0.002327 0.002187 0.032179 -0.008441 0.007378
# 5 0.004789 -0.002787 -0.001297 -0.008441 0.028523 0.001073
# 6 -0.005366 -0.002180 0.000752 0.007378 0.001073 0.027469
#
#
# Mechanical properties :
#
#
# Convention : Reuss Voigt Hill
#
# Bulk Modulus (GPa) = 52.80994 61.14584 56.97789
# Shear Modulus (GPa) = 35.20841 41.74918 38.47880
#
# Velocity S-wave (km/s) = 3.76665 4.10163 3.93770
# Velocity P-wave (km/s) = 6.34013 6.86080 6.60560
#
# Compressibility (1/GPa) = 0.01893583
#
# Stress axis : x y z
#
# Youngs Moduli (GPa) = 80.08547 118.91937 81.05780
#
# Poissons Ratio (x) = 0.21227 0.21066
# Poissons Ratio (y) = 0.14295 0.22408
# Poissons Ratio (z) = 0.20814 0.32874
#
# Static dielectric constant tensor:
#      x y z
#    x 2.052750 -0.011080 0.014830 
#    y -0.011080 2.131210 -0.052350 
#    z 0.014830 -0.052350 2.026930 
# 
# From -- ./inp_files/189027.got.cif
#   From: 2010.05.17/outbox.cif.g08.bks.cpg/sg2_95_cif.got.tgz:189027.got - 2010.06.03 11:33:40.
