data_PCOD9008419
_publ_section_title
;
Structure prediction by ZEFSAII (Michael W. Deem and Ramdas Pophale) SiO2 
 PCOD9008419
Probable space group: P -1
;
_chemical_formula_sum "Si O2"
_cell_formula_units_Z 15
_cell_length_a 16.078751
_cell_length_b 13.172352
_cell_length_c 12.048214
_cell_angle_alpha 26.888438
_cell_angle_beta 38.815876
_cell_angle_gamma 35.811855
_cell_volume 660.024675
_symmetry_space_group_name_H-M "P -1"
_symmetry_group_IT_number 2
_symmetry_cell_setting 'triclinic'
loop_
_space_group_symop_operation_xyz
x,y,z
-x,-y,-z
loop_
_atom_site_type_symbol
_atom_site_label
_atom_site_fract_x
_atom_site_fract_y
_atom_site_fract_z
Si Si1 0.499970 0.834761 0.492591
Si Si2 0.414786 0.503413 0.473901
Si Si3 0.192275 0.967621 0.730541
Si Si4 0.724580 0.053300 0.968444
Si Si5 0.000000 0.500000 0.500000
Si Si6 0.112877 0.607468 0.739763
Si Si7 0.027381 0.936910 0.712694
Si Si8 0.725194 0.436494 0.779732
O O1 0.497349 0.667747 0.552243
O O2 0.335077 0.018635 0.507518
O O3 0.572909 0.661836 0.691231
O O4 0.611741 0.952448 0.230028
O O5 0.500000 0.500000 0.500000
O O6 0.344153 0.781235 0.229559
O O7 0.278055 0.433111 0.709317
O O8 0.119607 0.927418 0.733469
O O9 0.252451 0.712439 0.984135
O O10 0.075172 0.199433 0.689461
O O11 0.741378 0.239364 0.859754
O O12 0.890607 0.869393 0.949293
O O13 0.145383 0.474281 0.444225
O O14 0.120495 0.769067 0.679975
O O15 0.044302 0.789172 0.530790
O O16 0.000000 0.500000 0.000000
#
# Coordination Sequence:
#
# PCOD9008419 Si02
#       8
#     2   2   2   2   1   2   2   2
#     4  11  25  43  70  97 139 184 221 276 355 400
#     4  10  22  40  64  97 136 176 223 279 336 405
#     4  12  26  44  67 103 134 180 232 285 330 412
#     4  10  22  43  65  94 137 179 223 280 334 404
#     4  12  26  42  70  96 130 180 234 276 344 394
#     4  10  21  39  64  96 128 175 220 276 337 402
#     4  10  22  40  65  94 135 171 225 278 332 401
#     4  11  25  44  67  97 137 178 226 285 337 404
#
# _framework density 22.726423
#
# number of rings (size 3 to 8) (size 9 to 14) (size 15 to 20)
#    0.000    1.333    1.333    3.200    1.867    6.933 
#    0.000    0.000    0.000    0.000    0.000    0.000 
#    0.000    0.000    0.000    0.000    0.000    0.000 
#
# Total GULP energy -83648.723398 kJ/mol
# GULP energy per Si atom -5576.581560 kJ/mol
# Density = 2.267470 g / cm^3
# Si number density = 22.726423 Si / 1000 Ang^3
#
#
#
# Elastic Constant Matrix: (Units=GPa)
#
#
# Indices 1 2 3 4 5 6 
#
# 1 177.4064 16.5530 47.4115 -12.9255 16.6234 -29.9311
# 2 16.5530 63.5286 14.6685 7.6791 -0.3901 -20.3492
# 3 47.4115 14.6685 93.9960 12.5593 12.3404 -15.6813
# 4 -12.9255 7.6791 12.5593 23.8725 -2.2440 -4.2044
# 5 16.6234 -0.3901 12.3404 -2.2440 26.8500 -2.3191
# 6 -29.9311 -20.3492 -15.6813 -4.2044 -2.3191 28.9883
#
#
#
# Elastic Compliance Matrix: (Units=1/GPa)
#
#
# Indices 1 2 3 4 5 6 
#
# 1 0.008825 0.000229 -0.003892 0.007969 -0.002303 0.008139
# 2 0.000229 0.020783 -0.000725 -0.003577 0.001406 0.014027
# 3 -0.003892 -0.000725 0.015015 -0.009955 -0.005184 0.001737
# 4 0.007969 -0.003577 -0.009955 0.054574 0.004897 0.008639
# 5 -0.002303 0.001406 -0.005184 0.004897 0.041468 -0.000167
# 6 0.008139 0.014027 0.001737 0.008639 -0.000167 0.054926
#
#
# Mechanical properties :
#
#
# Convention : Reuss Voigt Hill
#
# Bulk Modulus (GPa) = 27.89639 54.68854 41.29247
# Shear Modulus (GPa) = 23.11439 33.02870 28.07154
#
# Velocity S-wave (km/s) = 3.19262 3.81638 3.51835
# Velocity P-wave (km/s) = 5.08841 6.59816 5.89184
#
# Compressibility (1/GPa) = 0.03584693
#
# Stress axis : x y z
#
# Youngs Moduli (GPa) = 113.31426 48.11681 66.59846
#
# Poissons Ratio (x) = -0.01101 0.25918
# Poissons Ratio (y) = -0.02592 0.04830
# Poissons Ratio (z) = 0.44098 0.03489
#
# Static dielectric constant tensor:
#      x y z
#    x 1.763430 -0.034340 -0.027230 
#    y -0.034340 1.765310 -0.005340 
#    z -0.027230 -0.005340 1.896530 
# 
# From -- ./inp_files/538970.got.cif
#   From: 2010.05.17/outbox.cif.g08.bks.cpg/sg2_270_cif.got.tgz:538970.got - 2010.06.03 11:33:40.
