data_PCOD9008803
_publ_section_title
;
Structure prediction by ZEFSAII (Michael W. Deem and Ramdas Pophale) SiO2 
 PCOD9008803
Probable space group: P -1
;
_chemical_formula_sum "Si O2"
_cell_formula_units_Z 14
_cell_length_a 11.885889
_cell_length_b 11.381407
_cell_length_c 5.296531
_cell_angle_alpha 117.373906
_cell_angle_beta 102.830019
_cell_angle_gamma 114.901802
_cell_volume 494.336287
_symmetry_space_group_name_H-M "P -1"
_symmetry_group_IT_number 2
_symmetry_cell_setting 'triclinic'
loop_
_space_group_symop_operation_xyz
x,y,z
-x,-y,-z
loop_
_atom_site_type_symbol
_atom_site_label
_atom_site_fract_x
_atom_site_fract_y
_atom_site_fract_z
Si Si1 0.114913 0.002089 0.236915
Si Si2 0.125806 0.578702 0.440163
Si Si3 0.966063 0.701841 0.224225
Si Si4 0.676220 0.960779 0.981431
Si Si5 0.368690 0.830716 0.554940
Si Si6 0.678178 0.464110 0.025596
Si Si7 0.620362 0.688881 0.010410
O O1 0.256218 0.176365 0.592548
O O2 0.181432 0.934985 0.016589
O O3 0.035574 0.880631 0.319555
O O4 0.000000 0.000000 0.000000
O O5 0.295319 0.730955 0.686181
O O6 0.000000 0.500000 0.500000
O O7 0.079391 0.665629 0.312821
O O8 0.117414 0.427279 0.173354
O O9 0.845110 0.625257 0.307452
O O10 0.659435 0.796694 0.887346
O O11 0.661639 0.034527 0.308346
O O12 0.537929 0.918181 0.721772
O O13 0.308252 0.680883 0.183480
O O14 0.543370 0.388983 0.069882
O O15 0.631697 0.538542 0.859858
#
# Coordination Sequence:
#
# PCOD9008803 Si02
#       7
#     2   2   2   2   2   2   2
#     4  12  26  47  71 102 140 189 238 294 345 423
#     4  10  21  39  65  98 137 177 219 281 348 414
#     4  10  23  41  64  99 135 175 230 281 344 404
#     4  11  24  43  70 104 137 185 233 290 350 417
#     4  10  22  43  66 104 140 179 232 286 350 418
#     4  10  23  46  66 102 137 186 229 292 347 421
#     4  11  25  45  70  98 140 185 238 285 352 419
#
# _framework density 28.320803999999999
#
# number of rings (size 3 to 8) (size 9 to 14) (size 15 to 20)
#    0.000    1.429    1.429    2.571    2.000    5.714 
#   15.429    0.000    0.000    0.000    0.000    0.000 
#    0.000    0.000    0.000    0.000    0.000    0.000 
#
# Total GULP energy -78221.276537 kJ/mol
# GULP energy per Si atom -5587.234038 kJ/mol
# Density = 2.825634 g / cm^3
# Si number density = 28.320804 Si / 1000 Ang^3
#
#
#
# Elastic Constant Matrix: (Units=GPa)
#
#
# Indices 1 2 3 4 5 6 
#
# 1 180.3193 32.4058 41.2810 5.5453 15.3675 17.7511
# 2 32.4058 115.1878 53.7144 1.5680 12.9190 13.7468
# 3 41.2810 53.7144 58.9781 1.5467 -0.5671 4.6379
# 4 5.5453 1.5680 1.5467 30.6020 2.3687 5.5039
# 5 15.3675 12.9190 -0.5671 2.3687 37.9891 10.9492
# 6 17.7511 13.7468 4.6379 5.5039 10.9492 61.0485
#
#
#
# Elastic Compliance Matrix: (Units=1/GPa)
#
#
# Indices 1 2 3 4 5 6 
#
# 1 0.007107 0.001358 -0.006122 -0.000578 -0.003013 -0.001315
# 2 0.001358 0.016675 -0.016057 0.000515 -0.005941 -0.001911
# 3 -0.006122 -0.016057 0.035862 -0.000741 0.008151 0.001276
# 4 -0.000578 0.000515 -0.000741 0.033372 -0.001262 -0.002674
# 5 -0.003013 -0.005941 0.008151 -0.001262 0.030866 -0.003827
# 6 -0.001315 -0.001911 0.001276 -0.002674 -0.003827 0.018023
#
#
# Mechanical properties :
#
#
# Convention : Reuss Voigt Hill
#
# Bulk Modulus (GPa) = 55.55085 67.69862 61.62474
# Shear Modulus (GPa) = 26.37852 41.06685 33.72268
#
# Velocity S-wave (km/s) = 3.05523 3.81210 3.45445
# Velocity P-wave (km/s) = 5.66598 6.58272 6.14148
#
# Compressibility (1/GPa) = 0.01800152
#
# Stress axis : x y z
#
# Youngs Moduli (GPa) = 140.70325 59.97133 27.88470
#
# Poissons Ratio (x) = -0.08144 0.17070
# Poissons Ratio (y) = -0.19107 0.44775
# Poissons Ratio (z) = 0.86135 0.96298
#
# Static dielectric constant tensor:
#      x y z
#    x 2.193590 -0.000830 0.064260 
#    y -0.000830 2.229750 0.013080 
#    z 0.064260 0.013080 2.345830 
# 
# From -- ./inp_files/72410.got.cif
#   From: 2010.05.17/outbox.cif.g08.bks.cpg/sg2_37_cif.got.tgz:72410.got - 2010.06.03 11:33:40.
