data_PCOD9008677
_publ_section_title
;
Structure prediction by ZEFSAII (Michael W. Deem and Ramdas Pophale) SiO2 
 PCOD9008677
Probable space group: P -1
;
_chemical_formula_sum "Si O2"
_cell_formula_units_Z 16
_cell_length_a 16.399958
_cell_length_b 11.079534
_cell_length_c 17.064018
_cell_angle_alpha 39.272846
_cell_angle_beta 41.905488
_cell_angle_gamma 21.420163
_cell_volume 713.056727
_symmetry_space_group_name_H-M "P -1"
_symmetry_group_IT_number 2
_symmetry_cell_setting 'triclinic'
loop_
_space_group_symop_operation_xyz
x,y,z
-x,-y,-z
loop_
_atom_site_type_symbol
_atom_site_label
_atom_site_fract_x
_atom_site_fract_y
_atom_site_fract_z
Si Si1 0.409566 0.519051 0.262959
Si Si2 0.234589 0.120157 0.233919
Si Si3 0.167750 0.608623 0.101461
Si Si4 0.469887 0.332828 0.145334
Si Si5 0.266627 0.665130 0.463464
Si Si6 0.763425 0.602449 0.262356
Si Si7 0.631157 0.597624 0.094493
Si Si8 0.973760 0.306031 0.110409
O O1 0.496994 0.289834 0.240869
O O2 0.318738 0.548796 0.393634
O O3 0.604134 0.404351 0.212529
O O4 0.205048 0.904050 0.173517
O O5 0.137310 0.421974 0.203027
O O6 0.019602 0.314189 0.246471
O O7 0.331257 0.801176 0.365633
O O8 0.417101 0.942215 0.126687
O O9 0.235266 0.561414 0.165601
O O10 0.371921 0.367679 0.014135
O O11 0.000000 0.000000 0.000000
O O12 0.646321 0.957958 0.170693
O O13 0.500000 0.500000 0.000000
O O14 0.354717 0.390156 0.598365
O O15 0.000000 0.000000 0.500000
O O16 0.784225 0.495551 0.214162
O O17 0.863609 0.377516 0.072578
O O18 0.000000 0.500000 0.000000
#
# Coordination Sequence:
#
# PCOD9008677 Si02
#       8
#     2   2   2   2   2   2   2   2
#     4  11  23  43  63  94 133 170 219 267 323 388
#     4  10  21  39  65  94 123 171 219 267 316 374
#     4  12  24  40  61  93 137 172 208 268 336 391
#     4  12  24  40  62  96 134 170 214 263 335 400
#     4   9  19  42  70  90 126 176 218 270 324 371
#     4  11  22  41  68  94 131 174 214 272 326 383
#     4  11  23  39  62  94 130 170 220 266 326 383
#     4  12  23  37  66  97 126 166 220 275 325 381
#
# _framework density 22.438607000000001
#
# number of rings (size 3 to 8) (size 9 to 14) (size 15 to 20)
#    0.000    1.000    5.000    4.125    1.750    0.500 
#    0.000    5.625    0.000    3.000    0.000    0.000 
#    0.000    0.000    0.000    0.000    0.000    0.000 
#
# Total GULP energy -89204.154700 kJ/mol
# GULP energy per Si atom -5575.259669 kJ/mol
# Density = 2.238754 g / cm^3
# Si number density = 22.438607 Si / 1000 Ang^3
#
#
#
# Elastic Constant Matrix: (Units=GPa)
#
#
# Indices 1 2 3 4 5 6 
#
# 1 121.3226 14.7274 19.8733 2.1668 2.3119 6.5181
# 2 14.7274 55.7426 9.6777 -7.5037 -9.3849 6.0574
# 3 19.8733 9.6777 111.2682 5.0996 -0.1078 2.9793
# 4 2.1668 -7.5037 5.0996 32.9614 7.2184 -1.5719
# 5 2.3119 -9.3849 -0.1078 7.2184 27.3302 0.6399
# 6 6.5181 6.0574 2.9793 -1.5719 0.6399 34.4468
#
#
#
# Elastic Compliance Matrix: (Units=1/GPa)
#
#
# Indices 1 2 3 4 5 6 
#
# 1 0.008837 -0.002294 -0.001319 -0.000661 -0.001339 -0.001160
# 2 -0.002294 0.020688 -0.001464 0.003534 0.006430 -0.003035
# 3 -0.001319 -0.001464 0.009441 -0.001752 0.000118 -0.000392
# 4 -0.000661 0.003534 -0.001752 0.033169 -0.007529 0.001309
# 5 -0.001339 0.006430 0.000118 -0.007529 0.040946 -0.001992
# 6 -0.001160 -0.003035 -0.000392 0.001309 -0.001992 0.029914
#
#
# Mechanical properties :
#
#
# Convention : Reuss Voigt Hill
#
# Bulk Modulus (GPa) = 34.70776 41.87667 38.29222
# Shear Modulus (GPa) = 30.72148 35.21801 32.96975
#
# Velocity S-wave (km/s) = 3.70420 3.96602 3.83734
# Velocity P-wave (km/s) = 5.81345 6.29887 6.06102
#
# Compressibility (1/GPa) = 0.02881200
#
# Stress axis : x y z
#
# Youngs Moduli (GPa) = 113.16556 48.33708 105.92043
#
# Poissons Ratio (x) = 0.11089 0.13968
# Poissons Ratio (y) = 0.25961 0.15508
# Poissons Ratio (z) = 0.14923 0.07077
#
# Static dielectric constant tensor:
#      x y z
#    x 1.880710 -0.001610 -0.016870 
#    y -0.001610 1.949170 -0.069050 
#    z -0.016870 -0.069050 1.949890 
# 
# From -- ./inp_files/575846.got.cif
#   From: 2010.05.17/outbox.cif.g08.bks.cpg/sg2_288_cif.got.tgz:575846.got - 2010.06.03 11:33:40.
