data_PCOD9008233
_publ_section_title
;
Structure prediction by ZEFSAII (Michael W. Deem and Ramdas Pophale) SiO2 
 PCOD9008233
Probable space group: P -1
;
_chemical_formula_sum "Si O2"
_cell_formula_units_Z 16
_cell_length_a 8.379486
_cell_length_b 19.273440
_cell_length_c 11.436378
_cell_angle_alpha 54.868704
_cell_angle_beta 60.298668
_cell_angle_gamma 32.950915
_cell_volume 821.281840
_symmetry_space_group_name_H-M "P -1"
_symmetry_group_IT_number 2
_symmetry_cell_setting 'triclinic'
loop_
_space_group_symop_operation_xyz
x,y,z
-x,-y,-z
loop_
_atom_site_type_symbol
_atom_site_label
_atom_site_fract_x
_atom_site_fract_y
_atom_site_fract_z
Si Si1 0.947129 0.148271 0.323381
Si Si2 0.702512 0.128544 0.648198
Si Si3 0.993006 0.931969 0.167850
Si Si4 0.507025 0.558955 0.830894
Si Si5 0.821621 0.384097 0.339033
Si Si6 0.272595 0.658595 0.344888
Si Si7 0.391431 0.106314 0.338359
Si Si8 0.985771 0.603970 0.367311
O O1 0.811619 0.154088 0.483393
O O2 0.674053 0.290887 0.220561
O O3 0.190224 0.126575 0.301790
O O4 0.118497 0.020031 0.306326
O O5 0.352938 0.247542 0.656043
O O6 0.792150 0.123391 0.749786
O O7 0.096996 0.800630 0.218557
O O8 0.671717 0.041753 0.234524
O O9 0.000000 0.000000 0.000000
O O10 0.321968 0.588336 0.759471
O O11 0.831892 0.455602 0.762004
O O12 0.500000 0.500000 0.000000
O O13 0.619440 0.534586 0.309778
O O14 0.766056 0.333162 0.509170
O O15 0.172752 0.256941 0.323392
O O16 0.143441 0.616075 0.383455
O O17 0.500000 0.000000 0.500000
O O18 0.000000 0.500000 0.500000
#
# Coordination Sequence:
#
# PCOD9008233 Si02
#       8
#     2   2   2   2   2   2   2   2
#     4  10  21  39  64  91 123 160 209 261 307 358
#     4  11  23  38  61  98 123 156 214 261 297 372
#     4  12  26  42  61  92 133 166 204 257 310 371
#     4  10  21  40  62  90 129 163 199 254 317 369
#     4   9  20  35  69  90 115 161 215 250 302 369
#     4  10  21  41  66  93 126 162 207 259 312 359
#     4  11  19  39  66  89 119 165 213 250 308 369
#     4  11  23  39  68  98 121 160 212 260 309 369
#
# _framework density 19.481741
#
# number of rings (size 3 to 8) (size 9 to 14) (size 15 to 20)
#    0.000    1.500    3.750    1.500    3.500    4.000 
#    0.000    2.500    0.000    0.000    0.000    0.000 
#    0.000    0.000    0.000    0.000    0.000    0.000 
#
# Total GULP energy -89252.839272 kJ/mol
# GULP energy per Si atom -5578.302455 kJ/mol
# Density = 1.943740 g / cm^3
# Si number density = 19.481741 Si / 1000 Ang^3
#
#
#
# Elastic Constant Matrix: (Units=GPa)
#
#
# Indices 1 2 3 4 5 6 
#
# 1 55.6883 21.4971 26.1893 -1.8404 0.9887 0.3472
# 2 21.4971 182.5789 70.3644 -5.1464 -6.1416 -13.7030
# 3 26.1893 70.3644 142.5213 1.5742 -8.1556 2.4971
# 4 -1.8404 -5.1464 1.5742 29.2254 -2.1055 -7.9845
# 5 0.9887 -6.1416 -8.1556 -2.1055 9.7152 -3.3808
# 6 0.3472 -13.7030 2.4971 -7.9845 -3.3808 30.8366
#
#
#
# Elastic Compliance Matrix: (Units=1/GPa)
#
#
# Indices 1 2 3 4 5 6 
#
# 1 0.020194 -0.001346 -0.003377 0.000487 -0.006013 -0.001086
# 2 -0.001346 0.007527 -0.003333 0.003087 0.004479 0.004920
# 3 -0.003377 -0.003333 0.009638 -0.001491 0.005298 -0.002029
# 4 0.000487 0.003087 -0.001491 0.039479 0.013807 0.013223
# 5 -0.006013 0.004479 0.005298 0.013807 0.120212 0.018384
# 6 -0.001086 0.004920 -0.002029 0.013223 0.018384 0.040231
#
#
# Mechanical properties :
#
#
# Convention : Reuss Voigt Hill
#
# Bulk Modulus (GPa) = 47.06447 68.54333 57.80390
# Shear Modulus (GPa) = 19.19571 31.47129 25.33350
#
# Velocity S-wave (km/s) = 3.14238 4.02360 3.60998
# Velocity P-wave (km/s) = 6.11366 7.53960 6.86376
#
# Compressibility (1/GPa) = 0.02124745
#
# Stress axis : x y z
#
# Youngs Moduli (GPa) = 49.51872 132.85553 103.76065
#
# Poissons Ratio (x) = 0.17888 0.35035
# Poissons Ratio (y) = 0.06667 0.34581
# Poissons Ratio (z) = 0.16720 0.44277
#
# Static dielectric constant tensor:
#      x y z
#    x 1.720410 0.062740 -0.020560 
#    y 0.062740 1.723490 -0.033130 
#    z -0.020560 -0.033130 1.653970 
# 
# From -- ./inp_files/333722.got.cif
#   From: 2010.05.17/outbox.cif.g08.bks.cpg/sg2_167_cif.got.tgz:333722.got - 2010.06.03 11:33:40.
