data_PCOD9008676
_publ_section_title
;
Structure prediction by ZEFSAII (Michael W. Deem and Ramdas Pophale) SiO2 
 PCOD9008676
Probable space group: P -1
;
_chemical_formula_sum "Si O2"
_cell_formula_units_Z 12
_cell_length_a 9.018615
_cell_length_b 15.070016
_cell_length_c 15.034749
_cell_angle_alpha 160.651231
_cell_angle_beta 53.617506
_cell_angle_gamma 121.085470
_cell_volume 537.795276
_symmetry_space_group_name_H-M "P -1"
_symmetry_group_IT_number 2
_symmetry_cell_setting 'triclinic'
loop_
_space_group_symop_operation_xyz
x,y,z
-x,-y,-z
loop_
_atom_site_type_symbol
_atom_site_label
_atom_site_fract_x
_atom_site_fract_y
_atom_site_fract_z
Si Si1 0.964284 0.286353 0.177394
Si Si2 0.196215 0.701363 0.563783
Si Si3 0.508543 0.946490 0.596018
Si Si4 0.325658 0.352235 0.906865
Si Si5 0.170258 0.898966 0.274705
Si Si6 0.090328 0.455712 0.744915
O O1 0.827453 0.334678 0.356497
O O2 0.875327 0.410153 0.234763
O O3 0.135783 0.444744 0.292703
O O4 0.045197 0.966833 0.841908
O O5 0.396213 0.770317 0.531254
O O6 0.658532 0.764899 0.308252
O O7 0.629641 0.143239 0.787777
O O8 0.357069 0.104375 0.730868
O O9 0.500000 0.500000 0.000000
O O10 0.132323 0.540012 0.169684
O O11 0.181533 0.150001 0.441521
O O12 0.000000 0.000000 0.500000
O O13 0.134139 0.645446 0.989816
#
# Coordination Sequence:
#
# PCOD9008676 Si02
#       6
#     2   2   2   2   2   2
#     4  10  21  40  65  92 123 158 207 260 316 353
#     4  10  21  39  65  94 121 157 209 266 302 362
#     4  11  24  39  60  95 121 163 209 257 309 360
#     4  11  23  37  65  89 124 157 214 264 298 367
#     4  12  26  42  60  90 134 170 198 250 315 381
#     4  12  24  42  63  90 126 169 205 247 318 373
#
# _framework density 22.313324000000001
#
# number of rings (size 3 to 8) (size 9 to 14) (size 15 to 20)
#    0.000    1.000    3.333    3.500    4.667    0.000 
#    0.000    1.667    0.000    0.000    0.000    0.000 
#    0.000    0.000    0.000    0.000    0.000    0.000 
#
# Total GULP energy -67181.412887 kJ/mol
# GULP energy per Si atom -5598.451074 kJ/mol
# Density = 2.226254 g / cm^3
# Si number density = 22.313324 Si / 1000 Ang^3
#
#
#
# Elastic Constant Matrix: (Units=GPa)
#
#
# Indices 1 2 3 4 5 6 
#
# 1 78.4135 37.1552 5.2115 2.7526 14.2437 -3.1520
# 2 37.1552 127.2976 1.2659 -1.7075 11.4977 -7.5509
# 3 5.2115 1.2659 58.1308 14.4084 6.7905 -5.6055
# 4 2.7526 -1.7075 14.4084 30.1831 0.1372 1.3646
# 5 14.2437 11.4977 6.7905 0.1372 33.6238 11.6856
# 6 -3.1520 -7.5509 -5.6055 1.3646 11.6856 36.8129
#
#
#
# Elastic Compliance Matrix: (Units=1/GPa)
#
#
# Indices 1 2 3 4 5 6 
#
# 1 0.015938 -0.003948 0.000103 -0.001817 -0.006336 0.002649
# 2 -0.003948 0.009380 0.000545 0.000532 -0.002496 0.002441
# 3 0.000103 0.000545 0.021026 -0.010246 -0.006430 0.005743
# 4 -0.001817 0.000532 -0.010246 0.038394 0.003994 -0.004298
# 5 -0.006336 -0.002496 -0.006430 0.003994 0.039698 -0.014783
# 6 0.002649 0.002441 0.005743 -0.004298 -0.014783 0.033619
#
#
# Mechanical properties :
#
#
# Convention : Reuss Voigt Hill
#
# Bulk Modulus (GPa) = 25.16119 39.01190 32.08654
# Shear Modulus (GPa) = 28.10525 34.80458 31.45492
#
# Velocity S-wave (km/s) = 3.55290 3.95373 3.75866
# Velocity P-wave (km/s) = 5.30392 6.19389 5.76610
#
# Compressibility (1/GPa) = 0.03974376
#
# Stress axis : x y z
#
# Youngs Moduli (GPa) = 62.74370 106.61135 47.55996
#
# Poissons Ratio (x) = 0.42089 -0.00490
# Poissons Ratio (y) = 0.24771 -0.02592
# Poissons Ratio (z) = -0.00646 -0.05809
#
# Static dielectric constant tensor:
#      x y z
#    x 1.812720 -0.038530 -0.016130 
#    y -0.038530 1.853190 0.016430 
#    z -0.016130 0.016430 1.841150 
# 
# From -- ./inp_files/19091.got.cif
#   From: 2010.05.17/outbox.cif.g08.bks.cpg/sg2_10_cif.got.tgz:19091.got - 2010.06.03 11:33:40.
