data_PCOD9008176
_publ_section_title
;
Structure prediction by ZEFSAII (Michael W. Deem and Ramdas Pophale) SiO2 
 PCOD9008176
Probable space group: P -1
;
_chemical_formula_sum "Si O2"
_cell_formula_units_Z 12
_cell_length_a 10.660277
_cell_length_b 9.244218
_cell_length_c 9.460497
_cell_angle_alpha 84.373217
_cell_angle_beta 50.348406
_cell_angle_gamma 49.338553
_cell_volume 456.881107
_symmetry_space_group_name_H-M "P -1"
_symmetry_group_IT_number 2
_symmetry_cell_setting 'triclinic'
loop_
_space_group_symop_operation_xyz
x,y,z
-x,-y,-z
loop_
_atom_site_type_symbol
_atom_site_label
_atom_site_fract_x
_atom_site_fract_y
_atom_site_fract_z
Si Si1 0.573980 0.312936 0.784877
Si Si2 0.745358 0.227831 0.370293
Si Si3 0.784119 0.481900 0.648183
Si Si4 0.865807 0.562972 0.884782
Si Si5 0.569511 0.796955 0.526241
Si Si6 0.186963 0.094118 0.160662
O O1 0.752214 0.170880 0.534033
O O2 0.614806 0.451674 0.785501
O O3 0.643740 0.149754 0.871750
O O4 0.293502 0.454497 0.923212
O O5 0.500000 0.500000 0.500000
O O6 0.667600 0.142718 0.346527
O O7 0.001322 0.142613 0.177404
O O8 0.883045 0.478726 0.723389
O O9 0.629823 0.711104 0.652136
O O10 0.010666 0.273945 0.401018
O O11 0.711547 0.821709 0.978196
O O12 0.153101 0.412635 0.729831
O O13 0.500000 0.000000 0.500000
#
# Coordination Sequence:
#
# PCOD9008176 Si02
#       6
#     2   2   2   2   2   2
#     4  11  23  38  64  90 117 156 193 249 296 335
#     4  11  20  41  61  83 121 153 202 237 286 358
#     4  10  21  41  61  86 120 158 199 235 286 358
#     4  11  23  40  59  92 123 148 197 249 292 341
#     4  11  24  39  62  87 115 162 197 237 292 353
#     4  10  21  39  64  89 111 163 199 234 287 355
#
# _framework density 26.265039000000002
#
# number of rings (size 3 to 8) (size 9 to 14) (size 15 to 20)
#    0.000    1.333    5.000    5.000    7.000    0.667 
#    0.000    0.833    0.000    0.000    0.000    0.000 
#    0.000    0.000    0.000    0.000    0.000    0.000 
#
# Total GULP energy -67061.785681 kJ/mol
# GULP energy per Si atom -5588.482140 kJ/mol
# Density = 2.620526 g / cm^3
# Si number density = 26.265039 Si / 1000 Ang^3
#
#
#
# Elastic Constant Matrix: (Units=GPa)
#
#
# Indices 1 2 3 4 5 6 
#
# 1 151.8878 22.6116 30.9106 -12.8053 -36.3217 21.4096
# 2 22.6116 147.6896 11.1369 -17.5870 -10.0539 10.2298
# 3 30.9106 11.1369 68.6331 -16.5606 -27.7028 19.7486
# 4 -12.8053 -17.5870 -16.5606 36.2284 14.8253 -12.5327
# 5 -36.3217 -10.0539 -27.7028 14.8253 44.2390 -9.7513
# 6 21.4096 10.2298 19.7486 -12.5327 -9.7513 36.6297
#
#
#
# Elastic Compliance Matrix: (Units=1/GPa)
#
#
# Indices 1 2 3 4 5 6 
#
# 1 0.008681 -0.000782 -0.000615 -0.001301 0.006273 -0.003299
# 2 -0.000782 0.007292 0.000031 0.003142 -0.000142 -0.000559
# 3 -0.000615 0.000031 0.022053 0.002844 0.010655 -0.007729
# 4 -0.001301 0.003142 0.002844 0.036566 -0.008959 0.008475
# 5 0.006273 -0.000142 0.010655 -0.008959 0.036816 -0.002636
# 6 -0.003299 -0.000559 -0.007729 0.008475 -0.002636 0.035750
#
#
# Mechanical properties :
#
#
# Convention : Reuss Voigt Hill
#
# Bulk Modulus (GPa) = 28.33486 55.28097 41.80792
# Shear Modulus (GPa) = 30.92999 43.65619 37.29309
#
# Velocity S-wave (km/s) = 3.43536 4.08136 3.77221
# Velocity P-wave (km/s) = 5.15238 6.58050 5.90974
#
# Compressibility (1/GPa) = 0.03529221
#
# Stress axis : x y z
#
# Youngs Moduli (GPa) = 115.19570 137.14463 45.34444
#
# Poissons Ratio (x) = 0.10725 0.02791
# Poissons Ratio (y) = 0.09009 -0.00139
# Poissons Ratio (z) = 0.07089 -0.00420
#
# Static dielectric constant tensor:
#      x y z
#    x 2.085140 -0.069910 0.021290 
#    y -0.069910 2.109890 0.082950 
#    z 0.021290 0.082950 2.163520 
# 
# From -- ./inp_files/412013.got.cif
#   From: 2010.05.17/outbox.cif.g08.bks.cpg/sg2_207_cif.got.tgz:412013.got - 2010.06.03 11:33:40.
