data_PCOD9008379
_publ_section_title
;
Structure prediction by ZEFSAII (Michael W. Deem and Ramdas Pophale) SiO2 
 PCOD9008379
Probable space group: P -1
;
_chemical_formula_sum "Si O2"
_cell_formula_units_Z 16
_cell_length_a 8.066944
_cell_length_b 11.573157
_cell_length_c 11.902013
_cell_angle_alpha 49.054722
_cell_angle_beta 112.016040
_cell_angle_gamma 105.637755
_cell_volume 777.651856
_symmetry_space_group_name_H-M "P -1"
_symmetry_group_IT_number 2
_symmetry_cell_setting 'triclinic'
loop_
_space_group_symop_operation_xyz
x,y,z
-x,-y,-z
loop_
_atom_site_type_symbol
_atom_site_label
_atom_site_fract_x
_atom_site_fract_y
_atom_site_fract_z
Si Si1 0.626880 0.353186 0.129103
Si Si2 0.833640 0.150489 0.708689
Si Si3 0.265656 0.424651 0.392026
Si Si4 0.195643 0.450703 0.103565
Si Si5 0.473145 0.747094 0.279567
Si Si6 0.143585 0.577340 0.634029
Si Si7 0.699881 0.831124 0.843162
Si Si8 0.231961 0.230312 0.839034
O O1 0.761351 0.379353 0.250463
O O2 0.512663 0.197132 0.209984
O O3 0.500000 0.500000 0.000000
O O4 0.705478 0.386242 0.005325
O O5 0.686769 0.158410 0.766761
O O6 0.811984 0.295454 0.529273
O O7 0.039736 0.157557 0.797682
O O8 0.784361 0.994766 0.729443
O O9 0.238298 0.395601 0.272604
O O10 0.373511 0.586232 0.325210
O O11 0.381933 0.296701 0.561176
O O12 0.070064 0.434622 0.392369
O O13 0.223945 0.308440 0.118790
O O14 0.000000 0.500000 0.000000
O O15 0.598017 0.809290 0.169652
O O16 0.211490 0.414677 0.712957
O O17 0.739036 0.807298 0.999617
#
# Coordination Sequence:
#
# PCOD9008379 Si02
#       8
#     2   2   2   2   2   2   2   2
#     4  10  21  39  64  95 124 176 222 267 324 391
#     4  12  27  44  64 103 141 177 219 275 352 388
#     4  11  21  40  64 104 130 166 238 277 325 386
#     4  11  21  41  70  96 126 173 228 272 321 403
#     4  11  25  38  69  99 130 177 223 285 321 399
#     4  12  21  42  70  95 137 178 223 281 325 399
#     4  11  26  45  65  99 140 177 214 281 343 397
#     4  12  22  47  70  97 135 176 234 273 328 404
#
# _framework density 20.574760000000001
#
# number of rings (size 3 to 8) (size 9 to 14) (size 15 to 20)
#    0.000    0.750    6.250    3.000    5.250    1.000 
#    2.250    0.625    0.000    0.000    0.000    0.000 
#    0.000    0.000    0.000    0.000    0.000    0.000 
#
# Total GULP energy -89288.584310 kJ/mol
# GULP energy per Si atom -5580.536519 kJ/mol
# Density = 2.052793 g / cm^3
# Si number density = 20.574760 Si / 1000 Ang^3
#
#
#
# Elastic Constant Matrix: (Units=GPa)
#
#
# Indices 1 2 3 4 5 6 
#
# 1 109.5936 27.6155 22.6643 -3.2740 -3.8140 0.6818
# 2 27.6155 84.2393 25.2193 -6.9365 -4.3552 11.5919
# 3 22.6643 25.2193 60.7581 19.8291 -8.2472 1.5307
# 4 -3.2740 -6.9365 19.8291 29.5409 1.6256 -5.6297
# 5 -3.8140 -4.3552 -8.2472 1.6256 24.6891 8.8426
# 6 0.6818 11.5919 1.5307 -5.6297 8.8426 30.1246
#
#
#
# Elastic Compliance Matrix: (Units=1/GPa)
#
#
# Indices 1 2 3 4 5 6 
#
# 1 0.010708 -0.002056 -0.004798 0.004378 -0.001315 0.001997
# 2 -0.002056 0.016499 -0.008665 0.008569 0.000738 -0.004477
# 3 -0.004798 -0.008665 0.032310 -0.026255 0.012699 -0.006833
# 4 0.004378 0.008569 -0.026255 0.057287 -0.015030 0.013056
# 5 -0.001315 0.000738 0.012699 -0.015030 0.052511 -0.019122
# 6 0.001997 -0.004477 -0.006833 0.013056 -0.019122 0.043273
#
#
# Mechanical properties :
#
#
# Convention : Reuss Voigt Hill
#
# Bulk Modulus (GPa) = 35.11501 45.06548 40.09024
# Shear Modulus (GPa) = 19.75360 28.81037 24.28199
#
# Velocity S-wave (km/s) = 3.10189 3.74609 3.43911
# Velocity P-wave (km/s) = 5.47111 6.37666 5.94116
#
# Compressibility (1/GPa) = 0.02847785
#
# Stress axis : x y z
#
# Youngs Moduli (GPa) = 93.39183 60.61045 30.95040
#
# Poissons Ratio (x) = 0.12461 0.14851
# Poissons Ratio (y) = 0.19201 0.26818
# Poissons Ratio (z) = 0.44812 0.52519
#
# Static dielectric constant tensor:
#      x y z
#    x 1.793880 -0.001570 -0.019500 
#    y -0.001570 1.718260 0.003680 
#    z -0.019500 0.003680 1.719000 
# 
# From -- ./inp_files/392181.got.cif
#   From: 2010.05.17/outbox.cif.g08.bks.cpg/sg2_197_cif.got.tgz:392181.got - 2010.06.03 11:33:40.
