data_PCOD9008945
_publ_section_title
;
Structure prediction by ZEFSAII (Michael W. Deem and Ramdas Pophale) SiO2 
 PCOD9008945
Probable space group: P -1
;
_chemical_formula_sum "Si O2"
_cell_formula_units_Z 16
_cell_length_a 13.260351
_cell_length_b 12.475089
_cell_length_c 11.746483
_cell_angle_alpha 137.699258
_cell_angle_beta 86.162117
_cell_angle_gamma 60.814327
_cell_volume 783.074304
_symmetry_space_group_name_H-M "P -1"
_symmetry_group_IT_number 2
_symmetry_cell_setting 'triclinic'
loop_
_space_group_symop_operation_xyz
x,y,z
-x,-y,-z
loop_
_atom_site_type_symbol
_atom_site_label
_atom_site_fract_x
_atom_site_fract_y
_atom_site_fract_z
Si Si1 0.112846 0.143846 0.482654
Si Si2 0.428941 0.189636 0.305445
Si Si3 0.818143 0.791030 0.708852
Si Si4 0.461859 0.674625 0.740001
Si Si5 0.651495 0.431918 0.948088
Si Si6 0.722419 0.636061 0.964242
Si Si7 0.502883 0.662405 0.377261
Si Si8 0.800710 0.778966 0.252135
O O1 0.160323 0.125422 0.336987
O O2 0.206499 0.155756 0.565846
O O3 0.913459 0.401892 0.722133
O O4 0.180300 0.884936 0.306447
O O5 0.292737 0.223613 0.327230
O O6 0.432143 0.302298 0.284226
O O7 0.419644 0.321653 0.517846
O O8 0.602979 0.878209 0.075796
O O9 0.000000 0.500000 0.500000
O O10 0.723523 0.015042 0.987954
O O11 0.500000 0.500000 0.500000
O O12 0.489667 0.530503 0.735187
O O13 0.661139 0.538928 0.926077
O O14 0.500000 0.500000 0.000000
O O15 0.607589 0.562713 0.176604
O O16 0.718482 0.728533 0.161112
O O17 0.306028 0.952511 0.597138
O O18 0.000000 0.500000 0.000000
#
# Coordination Sequence:
#
# PCOD9008945 Si02
#       8
#     2   2   2   2   2   2   2   2
#     4  11  22  40  61  94 131 167 211 264 321 381
#     4  10  23  42  68  92 123 171 220 264 323 381
#     4  12  25  43  68  96 128 166 225 277 320 381
#     4  10  22  44  67  92 129 172 217 264 326 386
#     4  12  22  37  62  97 134 168 208 257 326 380
#     4  10  23  39  64  94 130 168 211 259 319 391
#     4  10  21  39  66  94 128 173 211 260 318 391
#     4   9  20  38  61  96 130 167 205 259 319 381
#
# _framework density 20.432289000000001
#
# number of rings (size 3 to 8) (size 9 to 14) (size 15 to 20)
#    0.000    1.500    2.500    2.250    1.750    2.000 
#    0.000    2.500    2.750    0.000    0.000    0.000 
#    0.000    0.000    0.000    0.000    0.000    0.000 
#
# Total GULP energy -89193.397901 kJ/mol
# GULP energy per Si atom -5574.587369 kJ/mol
# Density = 2.038578 g / cm^3
# Si number density = 20.432289 Si / 1000 Ang^3
#
#
#
# Elastic Constant Matrix: (Units=GPa)
#
#
# Indices 1 2 3 4 5 6 
#
# 1 96.0703 37.5521 34.3908 10.9653 -2.6443 8.0948
# 2 37.5521 55.4956 32.8510 12.7175 1.8751 12.8512
# 3 34.3908 32.8510 118.0016 9.8854 7.3310 -6.2669
# 4 10.9653 12.7175 9.8854 45.8158 -5.0384 1.6340
# 5 -2.6443 1.8751 7.3310 -5.0384 21.7977 0.3885
# 6 8.0948 12.8512 -6.2669 1.6340 0.3885 44.3389
#
#
#
# Elastic Compliance Matrix: (Units=1/GPa)
#
#
# Indices 1 2 3 4 5 6 
#
# 1 0.014690 -0.008637 -0.002074 -0.000306 0.003160 -0.000488
# 2 -0.008637 0.030346 -0.005743 -0.005144 -0.002776 -0.007816
# 3 -0.002074 -0.005743 0.011181 -0.000870 -0.003785 0.003689
# 4 -0.000306 -0.005144 -0.000870 0.024189 0.006281 0.000477
# 5 0.003160 -0.002776 -0.003785 0.006281 0.049241 -0.000970
# 6 -0.000488 -0.007816 0.003689 0.000477 -0.000970 0.025420
#
#
# Mechanical properties :
#
#
# Convention : Reuss Voigt Hill
#
# Bulk Modulus (GPa) = 42.89707 53.23949 48.06828
# Shear Modulus (GPa) = 25.54361 33.37538 29.45949
#
# Velocity S-wave (km/s) = 3.53959 4.04600 3.80124
# Velocity P-wave (km/s) = 6.14372 6.92386 6.54543
#
# Compressibility (1/GPa) = 0.02331161
#
# Stress axis : x y z
#
# Youngs Moduli (GPa) = 68.07214 32.95376 89.43362
#
# Poissons Ratio (x) = 0.28461 0.18546
# Poissons Ratio (y) = 0.58791 0.51359
# Poissons Ratio (z) = 0.14116 0.18924
#
# Static dielectric constant tensor:
#      x y z
#    x 1.723580 -0.010950 0.039620 
#    y -0.010950 1.742410 -0.015900 
#    z 0.039620 -0.015900 1.774890 
# 
# From -- ./inp_files/378231.got.cif
#   From: 2010.05.17/outbox.cif.g08.bks.cpg/sg2_190_cif.got.tgz:378231.got - 2010.06.03 11:33:40.
