data_PCOD9008875
_publ_section_title
;
Structure prediction by ZEFSAII (Michael W. Deem and Ramdas Pophale) SiO2 
 PCOD9008875
Probable space group: P -1
;
_chemical_formula_sum "Si O2"
_cell_formula_units_Z 14
_cell_length_a 6.663887
_cell_length_b 21.774288
_cell_length_c 8.181775
_cell_angle_alpha 42.526107
_cell_angle_beta 84.724300
_cell_angle_gamma 106.347793
_cell_volume 683.072771
_symmetry_space_group_name_H-M "P -1"
_symmetry_group_IT_number 2
_symmetry_cell_setting 'triclinic'
loop_
_space_group_symop_operation_xyz
x,y,z
-x,-y,-z
loop_
_atom_site_type_symbol
_atom_site_label
_atom_site_fract_x
_atom_site_fract_y
_atom_site_fract_z
Si Si1 0.261941 0.417821 0.335228
Si Si2 0.232597 0.496729 0.841834
Si Si3 0.799480 0.126886 0.580010
Si Si4 0.250110 0.690675 0.902888
Si Si5 0.523880 0.883644 0.073287
Si Si6 0.227280 0.678717 0.295471
Si Si7 0.703614 0.764077 0.505055
O O1 0.521453 0.496436 0.231169
O O2 0.270748 0.322632 0.429372
O O3 0.051847 0.368102 0.576540
O O4 0.208418 0.476119 0.078632
O O5 0.270651 0.607391 0.559230
O O6 0.000929 0.402686 0.960687
O O7 0.764373 0.203032 0.311938
O O8 0.664984 0.126144 0.758290
O O9 0.071010 0.176554 0.510233
O O10 0.677500 0.005682 0.769632
O O11 0.463531 0.710188 0.732979
O O12 0.287546 0.666477 0.131385
O O13 0.379012 0.799216 0.108923
O O14 0.685592 0.846234 0.224660
#
# Coordination Sequence:
#
# PCOD9008875 Si02
#       7
#     2   2   2   2   2   2   2
#     4  11  23  38  69  86 113 159 210 243 288 347
#     4  11  24  41  60  91 120 158 200 248 290 354
#     4  10  21  41  64  89 118 157 199 249 293 351
#     4  11  26  39  59  88 131 156 190 242 310 349
#     4  10  21  39  66  90 116 153 207 247 289 346
#     4  12  24  41  59  91 123 160 193 245 296 361
#     4  11  20  42  62  92 114 156 202 249 293 347
#
# _framework density 20.495619000000001
#
# number of rings (size 3 to 8) (size 9 to 14) (size 15 to 20)
#    0.000    1.143    4.286    2.143    4.000    2.286 
#    0.000    0.714    0.000    0.000    0.000    0.000 
#    0.000    0.000    0.000    0.000    0.000    0.000 
#
# Total GULP energy -78292.898928 kJ/mol
# GULP energy per Si atom -5592.349923 kJ/mol
# Density = 2.044897 g / cm^3
# Si number density = 20.495619 Si / 1000 Ang^3
#
#
#
# Elastic Constant Matrix: (Units=GPa)
#
#
# Indices 1 2 3 4 5 6 
#
# 1 74.2593 19.2888 27.8072 -9.7478 4.6834 9.8582
# 2 19.2888 39.0422 36.9185 -15.3663 5.3061 1.7277
# 3 27.8072 36.9185 75.1307 -29.3002 5.6813 -5.1971
# 4 -9.7478 -15.3663 -29.3002 30.9810 -5.5324 -4.0791
# 5 4.6834 5.3061 5.6813 -5.5324 20.6673 -9.6245
# 6 9.8582 1.7277 -5.1971 -4.0791 -9.6245 25.7901
#
#
#
# Elastic Compliance Matrix: (Units=1/GPa)
#
#
# Indices 1 2 3 4 5 6 
#
# 1 0.018772 -0.001437 -0.009188 -0.006996 -0.009569 -0.013609
# 2 -0.001437 0.052520 -0.026772 -0.003949 -0.013365 -0.013976
# 3 -0.009188 -0.026772 0.041898 0.029742 0.016936 0.024773
# 4 -0.006996 -0.003949 0.029742 0.064435 0.024906 0.028418
# 5 -0.009569 -0.013365 0.016936 0.024906 0.074486 0.039702
# 6 -0.013609 -0.013976 0.024773 0.028418 0.039702 0.069216
#
#
# Mechanical properties :
#
#
# Convention : Reuss Voigt Hill
#
# Bulk Modulus (GPa) = 26.04473 39.60679 32.82576
# Shear Modulus (GPa) = 12.22736 22.44886 17.33811
#
# Velocity S-wave (km/s) = 2.44516 3.31312 2.91166
# Velocity P-wave (km/s) = 4.55047 5.83114 5.23015
#
# Compressibility (1/GPa) = 0.03839548
#
# Stress axis : x y z
#
# Youngs Moduli (GPa) = 53.27142 19.04054 23.86729
#
# Poissons Ratio (x) = 0.02736 0.21929
# Poissons Ratio (y) = 0.07654 0.63898
# Poissons Ratio (z) = 0.48946 0.50976
#
# Static dielectric constant tensor:
#      x y z
#    x 1.757850 -0.004220 0.014520 
#    y -0.004220 1.696190 -0.033210 
#    z 0.014520 -0.033210 1.717300 
# 
# From -- ./inp_files/51488.got.cif
#   From: 2010.05.17/outbox.cif.g08.bks.cpg/sg2_26_cif.got.tgz:51488.got - 2010.06.03 11:33:40.
