data_PCOD9008088
_publ_section_title
;
Structure prediction by ZEFSAII (Michael W. Deem and Ramdas Pophale) SiO2 
 PCOD9008088
Probable space group: P -1
;
_chemical_formula_sum "Si O2"
_cell_formula_units_Z 16
_cell_length_a 15.996843
_cell_length_b 6.206494
_cell_length_c 11.766758
_cell_angle_alpha 80.432726
_cell_angle_beta 85.446928
_cell_angle_gamma 140.331699
_cell_volume 694.343032
_symmetry_space_group_name_H-M "P -1"
_symmetry_group_IT_number 2
_symmetry_cell_setting 'triclinic'
loop_
_space_group_symop_operation_xyz
x,y,z
-x,-y,-z
loop_
_atom_site_type_symbol
_atom_site_label
_atom_site_fract_x
_atom_site_fract_y
_atom_site_fract_z
Si Si1 0.848953 0.357742 0.495542
Si Si2 0.037629 0.538114 0.759806
Si Si3 0.717328 0.660915 0.687703
Si Si4 0.558664 0.644266 0.852479
Si Si5 0.063772 0.883387 0.998051
Si Si6 0.657691 0.350241 0.477978
Si Si7 0.148134 0.482345 0.278642
Si Si8 0.709609 0.767063 0.225690
O O1 0.943915 0.478536 0.372295
O O2 0.738032 0.291511 0.459638
O O3 0.903500 0.600110 0.578008
O O4 0.780707 0.006553 0.592011
O O5 0.971516 0.644661 0.767382
O O6 0.186789 0.822256 0.781286
O O7 0.927095 0.158124 0.867516
O O8 0.606618 0.513757 0.803989
O O9 0.663080 0.423920 0.603092
O O10 0.823102 0.709386 0.725692
O O11 0.437829 0.480732 0.793735
O O12 0.701366 0.086064 0.795467
O O13 0.500000 0.500000 0.000000
O O14 0.203217 0.180219 0.884115
O O15 0.000000 0.500000 0.000000
O O16 0.000000 0.000000 0.000000
O O17 0.706682 0.628156 0.356232
O O18 0.500000 0.000000 0.500000
#
# Coordination Sequence:
#
# PCOD9008088 Si02
#       8
#     2   2   2   2   2   2   2   2
#     4  10  21  39  63  97 134 180 221 281 348 426
#     4  11  22  42  70 101 138 182 234 294 353 425
#     4  10  22  42  65  94 138 177 224 290 345 423
#     4  11  25  47  68  96 133 181 237 285 357 432
#     4  10  23  45  66 102 143 185 236 300 365 429
#     4  11  22  38  66 103 137 178 228 290 359 425
#     4  10  23  44  64 100 136 182 232 277 360 427
#     4  11  23  43  70 103 135 179 237 297 360 424
#
# _framework density 23.043364
#
# number of rings (size 3 to 8) (size 9 to 14) (size 15 to 20)
#    0.000    1.500    1.250    4.125    1.750    2.000 
#   22.500    0.000    0.000    0.000    0.000    0.000 
#    0.000    0.000    0.000    0.000    0.000    0.000 
#
# Total GULP energy -89143.062095 kJ/mol
# GULP energy per Si atom -5571.441381 kJ/mol
# Density = 2.299092 g / cm^3
# Si number density = 23.043364 Si / 1000 Ang^3
#
#
#
# Elastic Constant Matrix: (Units=GPa)
#
#
# Indices 1 2 3 4 5 6 
#
# 1 163.8312 26.9314 38.2181 23.6379 -4.9047 -13.0533
# 2 26.9314 79.8001 16.5899 14.3230 -4.2091 6.9924
# 3 38.2181 16.5899 157.9259 10.8425 -19.9391 -12.7332
# 4 23.6379 14.3230 10.8425 21.1785 -3.2251 0.9609
# 5 -4.9047 -4.2091 -19.9391 -3.2251 42.2588 7.0396
# 6 -13.0533 6.9924 -12.7332 0.9609 7.0396 38.2760
#
#
#
# Elastic Compliance Matrix: (Units=1/GPa)
#
#
# Indices 1 2 3 4 5 6 
#
# 1 0.007887 -0.001371 -0.001113 -0.007561 -0.000808 0.002908
# 2 -0.001371 0.014929 -0.000864 -0.007831 0.000897 -0.003451
# 3 -0.001113 -0.000864 0.007294 -0.001557 0.002820 0.001725
# 4 -0.007561 -0.007831 -0.001557 0.062378 0.002999 -0.003783
# 5 -0.000808 0.000897 0.002820 0.002999 0.025943 -0.004348
# 6 0.002908 -0.003451 0.001725 -0.003783 -0.004348 0.029217
#
#
# Mechanical properties :
#
#
# Convention : Reuss Voigt Hill
#
# Bulk Modulus (GPa) = 42.70768 62.78177 52.74472
# Shear Modulus (GPa) = 30.83582 41.66384 36.24983
#
# Velocity S-wave (km/s) = 3.66206 4.25674 3.97055
# Velocity P-wave (km/s) = 6.03778 7.17384 6.63019
#
# Compressibility (1/GPa) = 0.02341499
#
# Stress axis : x y z
#
# Youngs Moduli (GPa) = 126.78529 66.98499 137.09463
#
# Poissons Ratio (x) = 0.09182 0.15260
# Poissons Ratio (y) = 0.17379 0.11842
# Poissons Ratio (z) = 0.14113 0.05786
#
# Static dielectric constant tensor:
#      x y z
#    x 1.860240 -0.004690 -0.049080 
#    y -0.004690 1.928740 0.038250 
#    z -0.049080 0.038250 2.044230 
# 
# From -- ./inp_files/441827.got.cif
#   From: 2010.05.17/outbox.cif.g08.bks.cpg/sg2_221_cif.got.tgz:441827.got - 2010.06.03 11:33:40.
