data_PCOD9008746
_publ_section_title
;
Structure prediction by ZEFSAII (Michael W. Deem and Ramdas Pophale) SiO2 
 PCOD9008746
Probable space group: P -1
;
_chemical_formula_sum "Si O2"
_cell_formula_units_Z 14
_cell_length_a 15.907711
_cell_length_b 6.416940
_cell_length_c 8.677439
_cell_angle_alpha 51.537449
_cell_angle_beta 68.035476
_cell_angle_gamma 84.725432
_cell_volume 631.045120
_symmetry_space_group_name_H-M "P -1"
_symmetry_group_IT_number 2
_symmetry_cell_setting 'triclinic'
loop_
_space_group_symop_operation_xyz
x,y,z
-x,-y,-z
loop_
_atom_site_type_symbol
_atom_site_label
_atom_site_fract_x
_atom_site_fract_y
_atom_site_fract_z
Si Si1 0.901703 0.182288 0.040249
Si Si2 0.396229 0.836285 0.615742
Si Si3 0.977781 0.046805 0.727215
Si Si4 0.859420 0.721279 0.718284
Si Si5 0.613124 0.263586 0.681768
Si Si6 0.444172 0.368005 0.949986
Si Si7 0.254350 0.238949 0.515966
O O1 0.850181 0.432212 0.940701
O O2 0.952170 0.170934 0.847664
O O3 0.971384 0.191240 0.133186
O O4 0.830115 0.902836 0.253152
O O5 0.388306 0.705033 0.513547
O O6 0.379547 0.579405 0.857467
O O7 0.500000 0.000000 0.500000
O O8 0.329665 0.049951 0.571761
O O9 0.888588 0.938984 0.733626
O O10 0.948999 0.768301 0.519867
O O11 0.779637 0.761174 0.637232
O O12 0.522896 0.351737 0.776202
O O13 0.701118 0.457447 0.605237
O O14 0.606217 0.942544 0.857996
O O15 0.500000 0.500000 0.000000
#
# Coordination Sequence:
#
# PCOD9008746 Si02
#       7
#     2   2   2   2   2   2   2
#     4  10  21  39  65  96 129 169 211 260 319 380
#     4  12  24  44  66  89 128 171 220 271 321 388
#     4   9  20  40  68  93 123 172 216 250 314 393
#     4  10  21  40  64  95 132 167 210 263 314 384
#     4  11  24  42  66  92 123 169 219 270 331 380
#     4  11  23  42  69  92 115 165 227 268 323 389
#     4  11  26  40  60  98 137 166 214 274 323 377
#
# _framework density 22.185420000000001
#
# number of rings (size 3 to 8) (size 9 to 14) (size 15 to 20)
#    0.000    1.429    2.857    1.286    0.000    5.714 
#    0.000    2.857    0.000    0.000    0.000    0.000 
#    0.000    0.000    0.000    0.000    0.000    0.000 
#
# Total GULP energy -78207.070944 kJ/mol
# GULP energy per Si atom -5586.219353 kJ/mol
# Density = 2.213492 g / cm^3
# Si number density = 22.185420 Si / 1000 Ang^3
#
#
#
# Elastic Constant Matrix: (Units=GPa)
#
#
# Indices 1 2 3 4 5 6 
#
# 1 106.9925 38.3034 27.3838 -20.6446 23.2262 20.5897
# 2 38.3034 73.6457 32.3877 -16.3349 6.6813 15.4316
# 3 27.3838 32.3877 92.9038 -23.2918 21.3237 13.5987
# 4 -20.6446 -16.3349 -23.2918 49.2413 -4.9425 4.1071
# 5 23.2262 6.6813 21.3237 -4.9425 38.6059 0.8919
# 6 20.5897 15.4316 13.5987 4.1071 0.8919 36.1871
#
#
#
# Elastic Compliance Matrix: (Units=1/GPa)
#
#
# Indices 1 2 3 4 5 6 
#
# 1 0.014910 -0.005047 0.001589 0.005120 -0.008150 -0.007309
# 2 -0.005047 0.019458 -0.004621 0.002761 0.002669 -0.004069
# 3 0.001589 -0.004621 0.016207 0.006444 -0.008154 -0.005554
# 4 0.005120 0.002761 0.006444 0.026862 -0.003459 -0.009475
# 5 -0.008150 0.002669 -0.008154 -0.003459 0.034264 0.006112
# 6 -0.007309 -0.004069 -0.005554 -0.009475 0.006112 0.036540
#
#
# Mechanical properties :
#
#
# Convention : Reuss Voigt Hill
#
# Bulk Modulus (GPa) = 29.05540 52.18798 40.62169
# Shear Modulus (GPa) = 28.42989 36.50467 32.46728
#
# Velocity S-wave (km/s) = 3.58364 4.06080 3.82966
# Velocity P-wave (km/s) = 5.49985 6.74992 6.15669
#
# Compressibility (1/GPa) = 0.03441701
#
# Stress axis : x y z
#
# Youngs Moduli (GPa) = 67.06758 51.39173 61.70345
#
# Poissons Ratio (x) = 0.25938 -0.09803
# Poissons Ratio (y) = 0.33850 0.28511
# Poissons Ratio (z) = -0.10655 0.23746
#
# Static dielectric constant tensor:
#      x y z
#    x 1.845080 -0.039230 -0.020020 
#    y -0.039230 1.765890 -0.008320 
#    z -0.020020 -0.008320 1.819750 
# 
# From -- ./inp_files/322102.got.cif
#   From: 2010.05.17/outbox.cif.g08.bks.cpg/sg2_162_cif.got.tgz:322102.got - 2010.06.03 11:33:40.
