data_PCOD9008079
_publ_section_title
;
Structure prediction by ZEFSAII (Michael W. Deem and Ramdas Pophale) SiO2 
 PCOD9008079
Probable space group: P -1
;
_chemical_formula_sum "Si O2"
_cell_formula_units_Z 13
_cell_length_a 11.909273
_cell_length_b 7.830023
_cell_length_c 8.685321
_cell_angle_alpha 50.053541
_cell_angle_beta 98.600111
_cell_angle_gamma 113.221070
_cell_volume 564.404915
_symmetry_space_group_name_H-M "P -1"
_symmetry_group_IT_number 2
_symmetry_cell_setting 'triclinic'
loop_
_space_group_symop_operation_xyz
x,y,z
-x,-y,-z
loop_
_atom_site_type_symbol
_atom_site_label
_atom_site_fract_x
_atom_site_fract_y
_atom_site_fract_z
Si Si1 0.431152 0.112779 0.247565
Si Si2 0.000000 0.000000 0.000000
Si Si3 0.465064 0.403389 0.800711
Si Si4 0.318206 0.927877 0.626137
Si Si5 0.312341 0.415374 0.469329
Si Si6 0.038862 0.308600 0.530158
Si Si7 0.922911 0.460574 0.160730
O O1 0.482492 0.359599 0.217292
O O2 0.544229 0.028620 0.315578
O O3 0.323506 0.934077 0.436783
O O4 0.403190 0.179153 0.033531
O O5 0.016433 0.086671 0.768174
O O6 0.046653 0.284808 0.897307
O O7 0.370682 0.429044 0.642588
O O8 0.582172 0.404286 0.726092
O O9 0.223400 0.673749 0.815598
O O10 0.288752 0.147994 0.556390
O O11 0.182542 0.435811 0.439122
O O12 0.000000 0.500000 0.500000
O O13 0.958072 0.271405 0.381049
O O14 0.000000 0.500000 0.000000
#
# Coordination Sequence:
#
# PCOD9008079 Si02
#       7
#     2   1   2   2   2   2   2
#     4   9  20  40  63  97 130 172 226 265 347 398
#     4  10  24  46  66  96 132 180 234 274 342 404
#     4   9  20  38  66  94 127 176 217 279 334 401
#     4  10  22  39  63  96 136 174 216 283 330 409
#     4  10  21  39  63  96 135 169 222 278 338 399
#     4  10  24  44  66  99 135 178 232 279 341 410
#     4  11  25  44  69 101 137 183 231 285 343 406
#
# _framework density 23.033109
#
# number of rings (size 3 to 8) (size 9 to 14) (size 15 to 20)
#    0.000    2.154    0.000    0.923    6.462    4.308 
#    2.769    1.538    0.000    0.000    0.000    0.000 
#    0.000    0.000    0.000    0.000    0.000    0.000 
#
# Total GULP energy -72407.832030 kJ/mol
# GULP energy per Si atom -5569.833233 kJ/mol
# Density = 2.298068 g / cm^3
# Si number density = 23.033109 Si / 1000 Ang^3
#
#
#
# Elastic Constant Matrix: (Units=GPa)
#
#
# Indices 1 2 3 4 5 6 
#
# 1 94.2102 19.4136 -6.7183 1.1452 -18.0577 -13.1643
# 2 19.4136 80.3963 27.3462 -0.6324 -14.3295 -7.4096
# 3 -6.7183 27.3462 111.6393 7.7703 -14.3340 1.6815
# 4 1.1452 -0.6324 7.7703 32.2629 5.4645 1.5351
# 5 -18.0577 -14.3295 -14.3340 5.4645 19.1643 3.5881
# 6 -13.1643 -7.4096 1.6815 1.5351 3.5881 21.4642
#
#
#
# Elastic Compliance Matrix: (Units=1/GPa)
#
#
# Indices 1 2 3 4 5 6 
#
# 1 0.015131 -0.001491 0.003529 -0.004399 0.015885 0.006148
# 2 -0.001491 0.015431 -0.002949 -0.000349 0.007384 0.003434
# 3 0.003529 -0.002949 0.011737 -0.004902 0.011549 -0.001353
# 4 -0.004399 -0.000349 -0.004902 0.035435 -0.017803 -0.001993
# 5 0.015885 0.007384 0.011549 -0.017803 0.086729 -0.001838
# 6 0.006148 0.003434 -0.001353 -0.001993 -0.001838 0.052101
#
#
# Mechanical properties :
#
#
# Convention : Reuss Voigt Hill
#
# Bulk Modulus (GPa) = 24.70534 40.70321 32.70427
# Shear Modulus (GPa) = 21.56308 30.99190 26.27749
#
# Velocity S-wave (km/s) = 3.06302 3.67214 3.38132
# Velocity P-wave (km/s) = 4.82273 5.97406 5.42900
#
# Compressibility (1/GPa) = 0.04047708
#
# Stress axis : x y z
#
# Youngs Moduli (GPa) = 66.09065 64.80316 85.20366
#
# Poissons Ratio (x) = 0.09660 -0.30067
# Poissons Ratio (y) = 0.09852 0.25126
# Poissons Ratio (z) = -0.23323 0.19110
#
# Static dielectric constant tensor:
#      x y z
#    x 1.874270 0.008990 -0.010540 
#    y 0.008990 1.831020 0.080630 
#    z -0.010540 0.080630 1.794910 
# 
# From -- ./inp_files/230226.got.cif
#   From: 2010.05.17/outbox.cif.g08.bks.cpg/sg2_116_cif.got.tgz:230226.got - 2010.06.03 11:33:40.
