data_PCOD9008620
_publ_section_title
;
Structure prediction by ZEFSAII (Michael W. Deem and Ramdas Pophale) SiO2 
 PCOD9008620
Probable space group: P -1
;
_chemical_formula_sum "Si O2"
_cell_formula_units_Z 14
_cell_length_a 6.923591
_cell_length_b 10.237867
_cell_length_c 11.499435
_cell_angle_alpha 53.540097
_cell_angle_beta 107.427174
_cell_angle_gamma 106.417040
_cell_volume 619.636959
_symmetry_space_group_name_H-M "P -1"
_symmetry_group_IT_number 2
_symmetry_cell_setting 'triclinic'
loop_
_space_group_symop_operation_xyz
x,y,z
-x,-y,-z
loop_
_atom_site_type_symbol
_atom_site_label
_atom_site_fract_x
_atom_site_fract_y
_atom_site_fract_z
Si Si1 0.931980 0.656595 0.472649
Si Si2 0.608001 0.594936 0.787174
Si Si3 0.023405 0.184875 0.359719
Si Si4 0.494675 0.336133 0.706465
Si Si5 0.330521 0.679753 0.892890
Si Si6 0.891460 0.199840 0.789185
Si Si7 0.700590 0.843953 0.026844
O O1 0.687416 0.650277 0.422216
O O2 0.000000 0.500000 0.500000
O O3 0.993221 0.695627 0.595074
O O4 0.037293 0.802603 0.330292
O O5 0.523142 0.489858 0.716691
O O6 0.418924 0.627197 0.814682
O O7 0.757904 0.754074 0.691295
O O8 0.729473 0.476470 0.951454
O O9 0.848371 0.214163 0.221065
O O10 0.000000 0.000000 0.500000
O O11 0.714469 0.312322 0.710769
O O12 0.411393 0.180975 0.855898
O O13 0.529770 0.775494 0.940756
O O14 0.793326 0.024907 0.911836
O O15 0.100779 0.251660 0.871833
#
# Coordination Sequence:
#
# PCOD9008620 Si02
#       7
#     2   2   2   2   2   2   2
#     4  11  25  43  63  95 135 177 222 260 326 404
#     4  10  23  44  69  95 125 178 228 274 324 392
#     4  12  28  43  64 103 141 176 219 271 337 406
#     4  10  21  40  69  94 122 169 223 270 317 387
#     4  10  23  44  69  94 132 176 222 272 332 395
#     4  10  21  39  65  92 126 164 214 276 327 377
#     4   9  21  39  63  97 123 162 215 278 327 379
#
# _framework density 22.593875000000001
#
# number of rings (size 3 to 8) (size 9 to 14) (size 15 to 20)
#    0.000    1.714    0.000    2.571    4.000   10.857 
#    2.571    0.000    0.000    0.000    0.000    0.000 
#    0.000    0.000    0.000    0.000    0.000    0.000 
#
# Total GULP energy -78263.857259 kJ/mol
# GULP energy per Si atom -5590.275518 kJ/mol
# Density = 2.254245 g / cm^3
# Si number density = 22.593875 Si / 1000 Ang^3
#
#
#
# Elastic Constant Matrix: (Units=GPa)
#
#
# Indices 1 2 3 4 5 6 
#
# 1 83.8794 25.8874 28.2551 13.8186 8.0635 20.8987
# 2 25.8874 45.8287 25.3392 -2.3311 -4.1621 15.8149
# 3 28.2551 25.3392 97.0057 -9.6926 -5.4108 19.7134
# 4 13.8186 -2.3311 -9.6926 42.1076 9.8205 -6.8613
# 5 8.0635 -4.1621 -5.4108 9.8205 44.9746 -3.1572
# 6 20.8987 15.8149 19.7134 -6.8613 -3.1572 30.9211
#
#
#
# Elastic Compliance Matrix: (Units=1/GPa)
#
#
# Indices 1 2 3 4 5 6 
#
# 1 0.018962 -0.006463 -0.002825 -0.008072 -0.003265 -0.009834
# 2 -0.006463 0.030993 -0.004293 0.000861 0.002742 -0.008276
# 3 -0.002825 -0.004293 0.013338 0.002976 0.000808 -0.003656
# 4 -0.008072 0.000861 0.002976 0.029555 -0.003918 0.009276
# 5 -0.003265 0.002742 0.000808 -0.003918 0.024159 0.001887
# 6 -0.009834 -0.008276 -0.003656 0.009276 0.001887 0.047801
#
#
# Mechanical properties :
#
#
# Convention : Reuss Voigt Hill
#
# Bulk Modulus (GPa) = 27.67610 42.85304 35.26457
# Shear Modulus (GPa) = 24.50809 33.41613 28.96211
#
# Velocity S-wave (km/s) = 3.29709 3.84994 3.58419
# Velocity P-wave (km/s) = 5.17401 6.22660 5.72455
#
# Compressibility (1/GPa) = 0.03613226
#
# Stress axis : x y z
#
# Youngs Moduli (GPa) = 52.73748 32.26515 74.97270
#
# Poissons Ratio (x) = 0.20852 0.21181
# Poissons Ratio (y) = 0.34082 0.32183
# Poissons Ratio (z) = 0.14899 0.13850
#
# Static dielectric constant tensor:
#      x y z
#    x 1.845500 -0.022220 0.004760 
#    y -0.022220 1.850490 -0.041230 
#    z 0.004760 -0.041230 1.876180 
# 
# From -- ./inp_files/71612.got.cif
#   From: 2010.05.17/outbox.cif.g08.bks.cpg/sg2_36_cif.got.tgz:71612.got - 2010.06.03 11:33:40.
