data_PCOD9008355
_publ_section_title
;
Structure prediction by ZEFSAII (Michael W. Deem and Ramdas Pophale) SiO2 
 PCOD9008355
Probable space group: P -1
;
_chemical_formula_sum "Si O2"
_cell_formula_units_Z 14
_cell_length_a 6.628884
_cell_length_b 21.432310
_cell_length_c 8.735162
_cell_angle_alpha 144.254046
_cell_angle_beta 119.750906
_cell_angle_gamma 75.677004
_cell_volume 599.179015
_symmetry_space_group_name_H-M "P -1"
_symmetry_group_IT_number 2
_symmetry_cell_setting 'triclinic'
loop_
_space_group_symop_operation_xyz
x,y,z
-x,-y,-z
loop_
_atom_site_type_symbol
_atom_site_label
_atom_site_fract_x
_atom_site_fract_y
_atom_site_fract_z
Si Si1 0.704870 0.439822 0.940808
Si Si2 0.718985 0.709945 0.100847
Si Si3 0.976551 0.113493 0.023798
Si Si4 0.941343 0.340600 0.615325
Si Si5 0.778850 0.387657 0.199428
Si Si6 0.382532 0.092662 0.345892
Si Si7 0.080990 0.825337 0.204798
O O1 0.696953 0.374043 0.963561
O O2 0.942206 0.547613 0.217305
O O3 0.500000 0.500000 0.000000
O O4 0.697207 0.355891 0.629524
O O5 0.655905 0.806960 0.366446
O O6 0.890795 0.660351 0.172676
O O7 0.859330 0.771889 0.129175
O O8 0.456182 0.617268 0.797431
O O9 0.947028 0.230491 0.308347
O O10 0.231748 0.098363 0.147406
O O11 0.959157 0.105427 0.818235
O O12 0.761212 0.019252 0.839939
O O13 0.000000 0.500000 0.500000
O O14 0.871248 0.284311 0.069227
O O15 0.670679 0.110742 0.482929
#
# Coordination Sequence:
#
# PCOD9008355 Si02
#       7
#     2   2   2   2   2   2   2
#     4  11  21  39  66  90 125 175 213 266 326 385
#     4  10  21  41  65  93 133 173 216 269 336 382
#     4  10  21  43  69  98 134 170 223 270 325 400
#     4  10  21  39  64  94 126 172 218 261 330 390
#     4  11  23  40  61  93 131 170 221 273 323 392
#     4   9  22  43  68  95 135 171 218 276 325 390
#     4  11  22  42  66  95 136 174 211 280 332 382
#
# _framework density 23.365303000000001
#
# number of rings (size 3 to 8) (size 9 to 14) (size 15 to 20)
#    0.000    1.714    2.857    1.286    0.000    1.143 
#    0.000   22.143    0.000    0.000    0.000    0.000 
#    0.000    0.000    0.000    0.000    0.000    0.000 
#
# Total GULP energy -78231.739572 kJ/mol
# GULP energy per Si atom -5587.981398 kJ/mol
# Density = 2.331212 g / cm^3
# Si number density = 23.365303 Si / 1000 Ang^3
#
#
#
# Elastic Constant Matrix: (Units=GPa)
#
#
# Indices 1 2 3 4 5 6 
#
# 1 120.3591 48.0035 29.5183 -11.0012 22.5167 21.1583
# 2 48.0035 140.4372 28.3392 7.0821 8.7350 19.7949
# 3 29.5183 28.3392 72.8338 13.9528 20.3761 4.5446
# 4 -11.0012 7.0821 13.9528 26.3359 -1.2802 1.6934
# 5 22.5167 8.7350 20.3761 -1.2802 32.6658 9.5881
# 6 21.1583 19.7949 4.5446 1.6934 9.5881 20.0163
#
#
#
# Elastic Compliance Matrix: (Units=1/GPa)
#
#
# Indices 1 2 3 4 5 6 
#
# 1 0.013747 -0.002495 -0.005246 0.009786 -0.002000 -0.010743
# 2 -0.002495 0.009466 -0.002772 -0.001494 0.003038 -0.007423
# 3 -0.005246 -0.002772 0.022977 -0.014992 -0.013773 0.010935
# 4 0.009786 -0.001494 -0.014992 0.051769 0.009219 -0.014259
# 5 -0.002000 0.003038 -0.013773 0.009219 0.046200 -0.020674
# 6 -0.010743 -0.007423 0.010935 -0.014259 -0.020674 0.077282
#
#
# Mechanical properties :
#
#
# Convention : Reuss Voigt Hill
#
# Bulk Modulus (GPa) = 39.73987 60.59467 50.16727
# Shear Modulus (GPa) = 19.93180 30.98822 25.46001
#
# Velocity S-wave (km/s) = 2.92387 3.64572 3.30457
# Velocity P-wave (km/s) = 5.33326 6.61148 6.00647
#
# Compressibility (1/GPa) = 0.02516365
#
# Stress axis : x y z
#
# Youngs Moduli (GPa) = 72.74095 105.64520 43.52131
#
# Poissons Ratio (x) = 0.26363 0.22829
# Poissons Ratio (y) = 0.18152 0.12065
# Poissons Ratio (z) = 0.38157 0.29288
#
# Static dielectric constant tensor:
#      x y z
#    x 1.936390 0.003830 0.065040 
#    y 0.003830 1.918360 0.008180 
#    z 0.065040 0.008180 1.987300 
# 
# From -- ./inp_files/45833.got.cif
#   From: 2010.05.17/outbox.cif.g08.bks.cpg/sg2_23_cif.got.tgz:45833.got - 2010.06.03 11:33:40.
