data_PCOD9008143
_publ_section_title
;
Structure prediction by ZEFSAII (Michael W. Deem and Ramdas Pophale) SiO2 
 PCOD9008143
Probable space group: P -1
;
_chemical_formula_sum "Si O2"
_cell_formula_units_Z 14
_cell_length_a 9.832019
_cell_length_b 20.242450
_cell_length_c 8.826175
_cell_angle_alpha 41.879952
_cell_angle_beta 45.338324
_cell_angle_gamma 30.145498
_cell_volume 579.699073
_symmetry_space_group_name_H-M "P -1"
_symmetry_group_IT_number 2
_symmetry_cell_setting 'triclinic'
loop_
_space_group_symop_operation_xyz
x,y,z
-x,-y,-z
loop_
_atom_site_type_symbol
_atom_site_label
_atom_site_fract_x
_atom_site_fract_y
_atom_site_fract_z
Si Si1 0.184237 0.147485 0.450952
Si Si2 0.023939 0.570453 0.728984
Si Si3 0.260651 0.876253 0.613556
Si Si4 0.327982 0.554890 0.284380
Si Si5 0.462021 0.010928 0.188636
Si Si6 0.679105 0.558409 0.813417
Si Si7 0.028272 0.863522 0.095737
O O1 0.113112 0.280323 0.348767
O O2 0.193494 0.143337 0.268553
O O3 0.978205 0.148143 0.698006
O O4 0.500000 0.000000 0.500000
O O5 0.869489 0.571358 0.712512
O O6 0.311616 0.495394 0.551338
O O7 0.000000 0.500000 0.000000
O O8 0.402409 0.722753 0.708396
O O9 0.465660 0.892424 0.421207
O O10 0.000000 0.000000 0.500000
O O11 0.187849 0.882718 0.836246
O O12 0.226721 0.532322 0.255445
O O13 0.130420 0.720321 0.194532
O O14 0.604195 0.505593 0.092516
O O15 0.709282 0.987710 0.090827
O O16 0.500000 0.000000 0.000000
#
# Coordination Sequence:
#
# PCOD9008143 Si02
#       7
#     2   2   2   2   2   2   2
#     4   9  20  39  59  83 119 162 193 240 309 355
#     4  11  23  40  62  92 124 159 204 247 303 369
#     4  11  21  36  59  90 118 152 207 251 299 355
#     4   9  20  39  62  87 118 160 201 246 306 351
#     4  11  21  35  57  85 120 150 194 258 292 352
#     4  10  21  39  64  86 122 161 200 254 296 357
#     4   9  19  38  58  83 119 153 199 243 302 364
#
# _framework density 24.150461
#
# number of rings (size 3 to 8) (size 9 to 14) (size 15 to 20)
#    0.000    2.000    1.429    3.000    0.000    3.429 
#    2.571    4.286    0.000    0.000    0.000    0.000 
#    0.000    0.000    0.000    0.000    0.000    0.000 
#
# Total GULP energy -78053.792777 kJ/mol
# GULP energy per Si atom -5575.270913 kJ/mol
# Density = 2.409549 g / cm^3
# Si number density = 24.150461 Si / 1000 Ang^3
#
#
#
# Elastic Constant Matrix: (Units=GPa)
#
#
# Indices 1 2 3 4 5 6 
#
# 1 56.6395 22.5047 18.0654 6.7329 -2.3313 21.5604
# 2 22.5047 92.7554 54.7251 17.5344 12.4621 38.9212
# 3 18.0654 54.7251 234.1778 46.8777 -2.6963 17.9229
# 4 6.7329 17.5344 46.8777 46.2879 13.4955 8.7673
# 5 -2.3313 12.4621 -2.6963 13.4955 20.8749 1.6668
# 6 21.5604 38.9212 17.9229 8.7673 1.6668 45.1091
#
#
#
# Elastic Compliance Matrix: (Units=1/GPa)
#
#
# Indices 1 2 3 4 5 6 
#
# 1 0.022325 -0.002216 0.000051 -0.002666 0.006224 -0.008490
# 2 -0.002216 0.022501 -0.004910 0.004584 -0.015945 -0.016707
# 3 0.000051 -0.004910 0.006985 -0.008372 0.009034 0.002730
# 4 -0.002666 0.004584 -0.008372 0.038055 -0.028262 -0.005707
# 5 0.006224 -0.015945 0.009034 -0.028262 0.076770 0.009850
# 6 -0.008490 -0.016707 0.002730 -0.005707 0.009850 0.040302
#
#
# Mechanical properties :
#
#
# Convention : Reuss Voigt Hill
#
# Bulk Modulus (GPa) = 26.55321 63.79591 45.17456
# Shear Modulus (GPa) = 21.40027 41.67288 31.53657
#
# Velocity S-wave (km/s) = 2.98001 4.15848 3.61756
# Velocity P-wave (km/s) = 4.78115 7.03780 6.01623
#
# Compressibility (1/GPa) = 0.03766024
#
# Stress axis : x y z
#
# Youngs Moduli (GPa) = 44.79300 44.44150 143.16953
#
# Poissons Ratio (x) = 0.09849 -0.00727
# Poissons Ratio (y) = 0.09927 0.70296
# Poissons Ratio (z) = -0.00227 0.21821
#
# Static dielectric constant tensor:
#      x y z
#    x 2.029620 -0.032380 0.054560 
#    y -0.032380 1.933210 0.022010 
#    z 0.054560 0.022010 2.029640 
# 
# From -- ./inp_files/281458.got.cif
#   From: 2010.05.17/outbox.cif.g08.bks.cpg/sg2_141_cif.got.tgz:281458.got - 2010.06.03 11:33:40.
