data_PCOD9008119
_publ_section_title
;
Structure prediction by ZEFSAII (Michael W. Deem and Ramdas Pophale) SiO2 
 PCOD9008119
Probable space group: P -1
;
_chemical_formula_sum "Si O2"
_cell_formula_units_Z 14
_cell_length_a 15.074408
_cell_length_b 9.285991
_cell_length_c 7.997065
_cell_angle_alpha 71.387537
_cell_angle_beta 40.932969
_cell_angle_gamma 87.411819
_cell_volume 659.542434
_symmetry_space_group_name_H-M "P -1"
_symmetry_group_IT_number 2
_symmetry_cell_setting 'triclinic'
loop_
_space_group_symop_operation_xyz
x,y,z
-x,-y,-z
loop_
_atom_site_type_symbol
_atom_site_label
_atom_site_fract_x
_atom_site_fract_y
_atom_site_fract_z
Si Si1 0.234034 0.480806 0.104188
Si Si2 0.926013 0.244804 0.175862
Si Si3 0.543292 0.549309 0.727427
Si Si4 0.896376 0.837072 0.778364
Si Si5 0.178719 0.522752 0.558122
Si Si6 0.611374 0.865150 0.301372
Si Si7 0.305451 0.823960 0.716814
O O1 0.121879 0.323593 0.243576
O O2 0.204907 0.506901 0.330566
O O3 0.395451 0.468676 0.868704
O O4 0.237724 0.642330 0.943596
O O5 0.845279 0.314471 0.407090
O O6 0.802157 0.139017 0.273864
O O7 0.034232 0.171507 0.138162
O O8 0.032332 0.388227 0.865619
O O9 0.687586 0.502014 0.519558
O O10 0.580552 0.735150 0.546650
O O11 0.500000 0.500000 0.000000
O O12 0.738218 0.843667 0.021445
O O13 0.000000 0.000000 0.500000
O O14 0.463512 0.836158 0.424539
O O15 0.663111 0.045248 0.230677
#
# Coordination Sequence:
#
# PCOD9008119 Si02
#       7
#     2   2   2   2   2   2   2
#     4  10  23  41  70  94 131 181 222 264 335 394
#     4  11  24  39  64  96 132 172 216 273 334 379
#     4   9  19  39  69  98 128 169 223 271 326 387
#     4  12  28  44  64 101 135 174 222 274 329 393
#     4  10  21  39  64 101 131 165 226 273 318 397
#     4  10  23  45  67  98 137 171 223 271 327 394
#     4  10  24  43  72  95 130 179 215 274 334 389
#
# _framework density 21.226835999999999
#
# number of rings (size 3 to 8) (size 9 to 14) (size 15 to 20)
#    0.000    1.714    1.429    1.714    6.000    5.143 
#    0.000    0.714    0.000    0.000    0.000    0.000 
#    0.000    0.000    0.000    0.000    0.000    0.000 
#
# Total GULP energy -78130.342569 kJ/mol
# GULP energy per Si atom -5580.738755 kJ/mol
# Density = 2.117852 g / cm^3
# Si number density = 21.226836 Si / 1000 Ang^3
#
#
#
# Elastic Constant Matrix: (Units=GPa)
#
#
# Indices 1 2 3 4 5 6 
#
# 1 72.7235 -3.0301 22.2293 -4.7776 -29.1009 11.0855
# 2 -3.0301 51.5522 36.6247 -8.0690 -13.4441 9.5922
# 3 22.2293 36.6247 87.5426 -7.9815 -12.6639 14.6606
# 4 -4.7776 -8.0690 -7.9815 41.4441 -2.7431 -10.7741
# 5 -29.1009 -13.4441 -12.6639 -2.7431 20.4143 1.1250
# 6 11.0855 9.5922 14.6606 -10.7741 1.1250 20.6519
#
#
#
# Elastic Compliance Matrix: (Units=1/GPa)
#
#
# Indices 1 2 3 4 5 6 
#
# 1 -0.862412 -0.760986 0.159014 -0.141170 -1.690649 0.721951
# 2 -0.760986 -0.639077 0.130632 -0.120908 -1.475589 0.629887
# 3 0.159014 0.130632 -0.011753 0.025662 0.316663 -0.141550
# 4 -0.141170 -0.120908 0.025662 0.005435 -0.271455 0.131342
# 5 -1.690649 -1.475589 0.316663 -0.271455 -3.250206 1.403520
# 6 0.721951 0.629887 -0.141550 0.131342 1.403520 -0.539124
#
#
# Mechanical properties :
#
#
# Convention : Reuss Voigt Hill
#
# Bulk Modulus (GPa) = -0.40718 35.94068 17.76675
# Shear Modulus (GPa) = -0.96654 26.90168 12.96757
#
# Velocity S-wave (km/s) = -0.67552 3.56384 2.47433
# Velocity P-wave (km/s) = 0.89480 5.82263 4.06832
#
# Compressibility (1/GPa) = -2.45592219
#
# Stress axis : x y z
#
# Youngs Moduli (GPa) = -1.15954 -1.56476 -85.08285
#
# Poissons Ratio (x) = -1.19076 13.52934
# Poissons Ratio (y) = -0.88239 11.11457
# Poissons Ratio (z) = 0.18438 0.20441
#
# Static dielectric constant tensor:
#      x y z
#    x 1.746190 -0.012080 -0.043480 
#    y -0.012080 1.779350 0.024590 
#    z -0.043480 0.024590 1.729180 
# 
# From -- ./inp_files/196564.got.cif
#   From: 2010.05.17/outbox.cif.g08.bks.cpg/sg2_99_cif.got.tgz:196564.got - 2010.06.03 11:33:40.
