data_PCOD9008084
_publ_section_title
;
Structure prediction by ZEFSAII (Michael W. Deem and Ramdas Pophale) SiO2 
 PCOD9008084
Probable space group: P -1
;
_chemical_formula_sum "Si O2"
_cell_formula_units_Z 16
_cell_length_a 11.704502
_cell_length_b 19.126497
_cell_length_c 17.255351
_cell_angle_alpha 150.370135
_cell_angle_beta 139.616655
_cell_angle_gamma 22.568069
_cell_volume 715.669793
_symmetry_space_group_name_H-M "P -1"
_symmetry_group_IT_number 2
_symmetry_cell_setting 'triclinic'
loop_
_space_group_symop_operation_xyz
x,y,z
-x,-y,-z
loop_
_atom_site_type_symbol
_atom_site_label
_atom_site_fract_x
_atom_site_fract_y
_atom_site_fract_z
Si Si1 0.461030 0.191844 0.141835
Si Si2 0.542016 0.348399 0.049019
Si Si3 0.434783 0.157336 0.367420
Si Si4 0.584389 0.584551 0.517629
Si Si5 0.107487 0.771072 0.353537
Si Si6 0.761401 0.656375 0.232106
Si Si7 0.188429 0.038880 0.054410
Si Si8 0.760686 0.773093 0.501584
O O1 0.511016 0.263382 0.309814
O O2 0.107766 0.442692 0.176680
O O3 0.682193 0.083473 0.080846
O O4 0.500000 0.000000 0.000000
O O5 0.288815 0.597927 0.206109
O O6 0.398507 0.364171 0.916508
O O7 0.669440 0.150610 0.986259
O O8 0.827386 0.256438 0.083249
O O9 0.419083 0.308084 0.454116
O O10 0.251319 0.282164 0.472530
O O11 0.302855 0.119717 0.210687
O O12 0.791340 0.894776 0.318236
O O13 0.340538 0.625170 0.406387
O O14 0.946909 0.316296 0.450722
O O15 0.000000 0.000000 0.500000
O O16 0.780710 0.636799 0.316672
O O17 0.545150 0.934179 0.378876
#
# Coordination Sequence:
#
# PCOD9008084 Si02
#       8
#     2   2   2   2   2   2   2   2
#     4  11  23  43  67  94 130 171 218 264 329 383
#     4  11  24  43  66  97 135 164 220 268 321 388
#     4  11  20  39  68  95 129 170 217 261 323 387
#     4  10  22  41  65  91 135 168 213 272 317 388
#     4  10  24  40  63  98 129 168 214 269 318 386
#     4  10  23  40  64  94 131 168 212 270 315 389
#     4  11  24  40  70  99 125 176 213 270 324 384
#     4  10  21  39  63  97 127 169 216 258 328 379
#
# _framework density 22.356679
#
# number of rings (size 3 to 8) (size 9 to 14) (size 15 to 20)
#    0.000    1.500    2.500    1.875    5.250    3.000 
#    0.000    1.250    0.000    0.000    0.000    0.000 
#    0.000    0.000    0.000    0.000    0.000    0.000 
#
# Total GULP energy -89447.014709 kJ/mol
# GULP energy per Si atom -5590.438419 kJ/mol
# Density = 2.230579 g / cm^3
# Si number density = 22.356679 Si / 1000 Ang^3
#
#
#
# Elastic Constant Matrix: (Units=GPa)
#
#
# Indices 1 2 3 4 5 6 
#
# 1 36.4983 27.9040 10.5244 -4.0342 -24.0548 -10.9563
# 2 27.9040 136.2134 51.2695 -8.1452 -20.9089 -26.6328
# 3 10.5244 51.2695 98.6682 -8.4980 -29.3127 -14.2923
# 4 -4.0342 -8.1452 -8.4980 42.4882 5.6095 -3.1121
# 5 -24.0548 -20.9089 -29.3127 5.6095 41.2356 5.4900
# 6 -10.9563 -26.6328 -14.2923 -3.1121 5.4900 34.3710
#
#
#
# Elastic Compliance Matrix: (Units=1/GPa)
#
#
# Indices 1 2 3 4 5 6 
#
# 1 0.056765 -0.007857 0.010044 0.002128 0.034534 0.010859
# 2 -0.007857 0.011442 -0.005307 0.001180 -0.003354 0.004797
# 3 0.010044 -0.005307 0.016803 0.001689 0.014358 0.003936
# 4 0.002128 0.001180 0.001689 0.024772 -0.000953 0.004691
# 5 0.034534 -0.003354 0.014358 -0.000953 0.052240 0.005950
# 6 0.010859 0.004797 0.003936 0.004691 0.005950 0.037384
#
#
# Mechanical properties :
#
#
# Convention : Reuss Voigt Hill
#
# Bulk Modulus (GPa) = 12.69548 50.08617 31.39083
# Shear Modulus (GPa) = 21.56066 35.73109 28.64587
#
# Velocity S-wave (km/s) = 3.10884 4.00212 3.58342
# Velocity P-wave (km/s) = 4.31016 6.61875 5.58504
#
# Compressibility (1/GPa) = 0.07876820
#
# Stress axis : x y z
#
# Youngs Moduli (GPa) = 17.61652 87.39398 59.51425
#
# Poissons Ratio (x) = 0.68669 -0.59775
# Poissons Ratio (y) = 0.13842 0.31586
# Poissons Ratio (z) = -0.17694 0.46383
#
# Static dielectric constant tensor:
#      x y z
#    x 1.835780 0.025540 0.034380 
#    y 0.025540 1.922360 -0.024100 
#    z 0.034380 -0.024100 1.830110 
# 
# From -- ./inp_files/263207.got.cif
#   From: 2010.05.17/outbox.cif.g08.bks.cpg/sg2_132_cif.got.tgz:263207.got - 2010.06.03 11:33:40.
