data_PCOD9008736
_publ_section_title
;
Structure prediction by ZEFSAII (Michael W. Deem and Ramdas Pophale) SiO2 
 PCOD9008736
Probable space group: P -1
;
_chemical_formula_sum "Si O2"
_cell_formula_units_Z 16
_cell_length_a 7.909861
_cell_length_b 8.182987
_cell_length_c 17.234464
_cell_angle_alpha 36.294358
_cell_angle_beta 73.406670
_cell_angle_gamma 74.462387
_cell_volume 631.418460
_symmetry_space_group_name_H-M "P -1"
_symmetry_group_IT_number 2
_symmetry_cell_setting 'triclinic'
loop_
_space_group_symop_operation_xyz
x,y,z
-x,-y,-z
loop_
_atom_site_type_symbol
_atom_site_label
_atom_site_fract_x
_atom_site_fract_y
_atom_site_fract_z
Si Si1 0.045345 0.423558 0.316820
Si Si2 0.688757 0.049457 0.242134
Si Si3 0.761100 0.009657 0.783525
Si Si4 0.584875 0.374217 0.798194
Si Si5 0.826544 0.452879 0.195051
Si Si6 0.165909 0.553375 0.511941
Si Si7 0.976170 0.049292 0.098554
Si Si8 0.621120 0.556959 0.890282
O O1 0.253154 0.416337 0.316682
O O2 0.958711 0.300803 0.298888
O O3 0.921676 0.351604 0.431572
O O4 0.005933 0.748767 0.172447
O O5 0.789025 0.238671 0.215256
O O6 0.489842 0.170527 0.233640
O O7 0.769937 0.104914 0.123791
O O8 0.717079 0.727674 0.379396
O O9 0.631208 0.116857 0.831415
O O10 0.735247 0.232111 0.634211
O O11 0.943284 0.021609 0.800474
O O12 0.773177 0.706546 0.858662
O O13 0.375958 0.460211 0.781528
O O14 0.620479 0.347061 0.898054
O O15 0.914470 0.715738 0.043258
O O16 0.000000 0.500000 0.500000
O O17 0.500000 0.500000 0.000000
#
# Coordination Sequence:
#
# PCOD9008736 Si02
#       8
#     2   2   2   2   2   2   2   2
#     4  10  23  40  67  95 131 180 221 281 344 395
#     4  10  23  41  64  96 131 175 223 280 338 399
#     4  11  23  44  73  90 136 187 215 285 347 385
#     4  10  24  43  63 101 133 174 227 274 340 400
#     4  11  23  40  62 101 134 166 228 282 344 407
#     4  11  21  47  66  93 132 178 236 273 332 409
#     4  10  21  39  65  96 126 177 222 275 348 404
#     4  11  26  43  66 106 139 173 225 280 345 414
#
# _framework density 25.339773000000001
#
# number of rings (size 3 to 8) (size 9 to 14) (size 15 to 20)
#    0.000    1.500    3.750    2.250    7.000    5.000 
#    2.250    2.500    0.000    0.000    0.000    0.000 
#    0.000    0.000    0.000    0.000    0.000    0.000 
#
# Total GULP energy -89121.223798 kJ/mol
# GULP energy per Si atom -5570.076487 kJ/mol
# Density = 2.528210 g / cm^3
# Si number density = 25.339773 Si / 1000 Ang^3
#
#
#
# Elastic Constant Matrix: (Units=GPa)
#
#
# Indices 1 2 3 4 5 6 
#
# 1 55.1699 35.4457 -14.0319 2.5653 1.2012 -8.4352
# 2 35.4457 84.8380 59.3752 35.0888 -21.5964 -12.5143
# 3 -14.0319 59.3752 89.4052 11.1330 11.1689 11.6649
# 4 2.5653 35.0888 11.1330 33.7000 3.5189 2.2812
# 5 1.2012 -21.5964 11.1689 3.5189 12.3644 -1.5310
# 6 -8.4352 -12.5143 11.6649 2.2812 -1.5310 61.9324
#
#
#
# Elastic Compliance Matrix: (Units=1/GPa)
#
#
# Indices 1 2 3 4 5 6 
#
# 1 0.012995 0.007341 -0.004696 -0.009411 0.019094 0.004956
# 2 0.007341 -0.008214 0.009331 0.007868 -0.026143 -0.003353
# 3 -0.004696 0.009331 0.003433 -0.012406 0.017367 0.001486
# 4 -0.009411 0.007868 -0.012406 0.024133 0.019271 0.002232
# 5 0.019094 -0.026143 0.017367 0.019271 0.011397 -0.006381
# 6 0.004956 -0.003353 0.001486 0.002232 -0.006381 0.015624
#
#
# Mechanical properties :
#
#
# Convention : Reuss Voigt Hill
#
# Bulk Modulus (GPa) = 31.08935 43.44343 37.26639
# Shear Modulus (GPa) = 108.36906 31.50763 69.93835
#
# Velocity S-wave (km/s) = 6.54670 3.53002 5.25929
# Velocity P-wave (km/s) = 8.33314 5.81346 7.18462
#
# Compressibility (1/GPa) = 0.03216536
#
# Stress axis : x y z
#
# Youngs Moduli (GPa) = 76.95434 -121.74775 291.30693
#
# Poissons Ratio (x) = 0.89375 1.36793
# Poissons Ratio (y) = -0.56492 -2.71808
# Poissons Ratio (z) = 0.36136 1.13598
#
# Static dielectric constant tensor:
#      x y z
#    x 2.275430 -0.074350 -0.094330 
#    y -0.074350 2.080810 -0.009510 
#    z -0.094330 -0.009510 2.154220 
# 
# From -- ./inp_files/540218.got.cif
#   From: 2010.05.17/outbox.cif.g08.bks.cpg/sg2_271_cif.got.tgz:540218.got - 2010.06.03 11:33:40.
