data_PCOD9008121
_publ_section_title
;
Structure prediction by ZEFSAII (Michael W. Deem and Ramdas Pophale) SiO2 
 PCOD9008121
Probable space group: P -1
;
_chemical_formula_sum "Si O2"
_cell_formula_units_Z 16
_cell_length_a 9.922208
_cell_length_b 5.175032
_cell_length_c 14.670600
_cell_angle_alpha 80.350565
_cell_angle_beta 114.641047
_cell_angle_gamma 83.557401
_cell_volume 660.933007
_symmetry_space_group_name_H-M "P -1"
_symmetry_group_IT_number 2
_symmetry_cell_setting 'triclinic'
loop_
_space_group_symop_operation_xyz
x,y,z
-x,-y,-z
loop_
_atom_site_type_symbol
_atom_site_label
_atom_site_fract_x
_atom_site_fract_y
_atom_site_fract_z
Si Si1 0.865440 0.125420 0.811556
Si Si2 0.506137 0.778477 0.627166
Si Si3 0.397915 0.281760 0.988964
Si Si4 0.732109 0.613264 0.852521
Si Si5 0.977867 0.756604 0.595891
Si Si6 0.712139 0.153169 0.585876
Si Si7 0.869193 0.718980 0.217670
Si Si8 0.776950 0.919392 0.375734
O O1 0.835113 0.321350 0.878681
O O2 0.753755 0.257754 0.688800
O O3 0.034350 0.104066 0.822123
O O4 0.823169 0.840250 0.834217
O O5 0.588718 0.617247 0.744988
O O6 0.398973 0.671958 0.529189
O O7 0.628237 0.908755 0.599951
O O8 0.386439 0.011557 0.630526
O O9 0.331329 0.299096 0.071172
O O10 0.500000 0.500000 0.000000
O O11 0.254907 0.359116 0.877708
O O12 0.500000 0.000000 0.000000
O O13 0.880993 0.706204 0.483952
O O14 0.010221 0.530583 0.693874
O O15 0.872107 0.020558 0.594065
O O16 0.137227 0.830397 0.610628
O O17 0.784220 0.846754 0.276776
#
# Coordination Sequence:
#
# PCOD9008121 Si02
#       8
#     2   2   2   2   2   2   2   2
#     4  11  24  43  72 101 139 181 234 293 348 426
#     4   9  19  36  65  93 139 185 223 287 344 416
#     4  12  30  51  75 104 140 183 238 298 357 424
#     4  11  25  47  68 103 141 182 237 291 348 410
#     4  10  21  40  65 100 142 181 234 289 346 427
#     4   9  18  39  63  99 135 180 232 276 349 415
#     4  12  25  41  73  97 138 187 238 291 364 413
#     4  10  21  39  64 101 142 181 234 284 355 421
#
# _framework density 24.208203999999999
#
# number of rings (size 3 to 8) (size 9 to 14) (size 15 to 20)
#    0.000    1.500    1.250    3.375    3.500    2.500 
#    0.000    1.250    0.000    0.000    0.000    0.000 
#    0.000    0.000    0.000    0.000    0.000    0.000 
#
# Total GULP energy -89476.217866 kJ/mol
# GULP energy per Si atom -5592.263617 kJ/mol
# Density = 2.415311 g / cm^3
# Si number density = 24.208204 Si / 1000 Ang^3
#
#
#
# Elastic Constant Matrix: (Units=GPa)
#
#
# Indices 1 2 3 4 5 6 
#
# 1 66.8284 -17.2439 -83.3696 -4.8228 -38.6550 31.4092
# 2 -17.2439 2.3526 -215.4008 -12.8846 -60.6002 34.5593
# 3 -83.3696 -215.4008 -479.7352 -48.0970 -140.8453 106.4236
# 4 -4.8228 -12.8846 -48.0970 22.9036 -23.8608 5.9124
# 5 -38.6550 -60.6002 -140.8453 -23.8608 3.2545 39.0766
# 6 31.4092 34.5593 106.4236 5.9124 39.0766 22.5047
#
#
#
# Elastic Compliance Matrix: (Units=1/GPa)
#
#
# Indices 1 2 3 4 5 6 
#
# 1 0.015507 -0.004257 -0.004192 0.000492 0.006449 -0.006609
# 2 -0.004257 0.012042 -0.002111 -0.003713 -0.003736 0.004897
# 3 -0.004192 -0.002111 0.004467 -0.004800 -0.009993 0.006581
# 4 0.000492 -0.003713 -0.004800 0.040576 0.008980 0.001459
# 5 0.006449 -0.003736 -0.009993 0.008980 0.027823 -0.006676
# 6 -0.006609 0.004897 0.006581 0.001459 -0.006676 0.026225
#
#
# Mechanical properties :
#
#
# Convention : Reuss Voigt Hill
#
# Bulk Modulus (GPa) = 91.78883 -115.84254 -12.02686
# Shear Modulus (GPa) = 33.02660 3.42988 18.22824
#
# Velocity S-wave (km/s) = 3.69761 1.19160 2.74702
# Velocity P-wave (km/s) = 7.49857 6.78699 2.25447
#
# Compressibility (1/GPa) = 0.01089457
#
# Stress axis : x y z
#
# Youngs Moduli (GPa) = 64.48593 83.04612 223.86665
#
# Poissons Ratio (x) = 0.35357 0.93843
# Poissons Ratio (y) = 0.27455 0.47263
# Poissons Ratio (z) = 0.27032 0.17533
#
# Static dielectric constant tensor:
#      x y z
#    x 1.871770 -0.031990 -0.011560 
#    y -0.031990 1.963010 -0.007450 
#    z -0.011560 -0.007450 1.962910 
# 
# From -- ./inp_files/488309.got.cif
#   From: 2010.05.17/outbox.cif.g08.bks.cpg/sg2_245_cif.got.tgz:488309.got - 2010.06.03 11:33:40.
