data_PCOD9008073
_publ_section_title
;
Structure prediction by ZEFSAII (Michael W. Deem and Ramdas Pophale) SiO2 
 PCOD9008073
Probable space group: P -1
;
_chemical_formula_sum "Si O2"
_cell_formula_units_Z 14
_cell_length_a 11.823361
_cell_length_b 18.506098
_cell_length_c 11.801756
_cell_angle_alpha 149.652100
_cell_angle_beta 44.438424
_cell_angle_gamma 151.805630
_cell_volume 604.572031
_symmetry_space_group_name_H-M "P -1"
_symmetry_group_IT_number 2
_symmetry_cell_setting 'triclinic'
loop_
_space_group_symop_operation_xyz
x,y,z
-x,-y,-z
loop_
_atom_site_type_symbol
_atom_site_label
_atom_site_fract_x
_atom_site_fract_y
_atom_site_fract_z
Si Si1 0.508453 0.624659 0.069309
Si Si2 0.681395 0.717714 0.437725
Si Si3 0.709132 0.469606 0.359242
Si Si4 0.933335 0.510678 0.830250
Si Si5 0.889164 0.033497 0.218260
Si Si6 0.200286 0.943770 0.338855
Si Si7 0.388816 0.803143 0.152273
O O1 0.427007 0.492950 0.833085
O O2 0.500000 0.500000 0.000000
O O3 0.306967 0.607443 0.225289
O O4 0.763412 0.862401 0.177631
O O5 0.533763 0.645423 0.559297
O O6 0.965255 0.871206 0.457144
O O7 0.654127 0.837638 0.537165
O O8 0.866878 0.467593 0.324149
O O9 0.645873 0.337895 0.113472
O O10 0.897330 0.724520 0.560871
O O11 0.814831 0.367930 0.838222
O O12 0.079229 0.753127 0.077813
O O13 0.657632 0.965212 0.234997
O O14 0.000000 0.000000 0.000000
O O15 0.333667 0.922803 0.300715
#
# Coordination Sequence:
#
# PCOD9008073 Si02
#       7
#     2   2   2   2   2   2   2
#     4  10  22  42  62  89 136 178 213 269 334 389
#     4  10  21  39  63  96 131 173 225 266 322 402
#     4  11  22  42  70  96 129 176 213 279 332 374
#     4   9  21  41  62  96 130 166 226 267 319 408
#     4  11  24  46  64 100 136 161 228 282 314 395
#     4   9  19  40  61  88 130 170 214 265 324 386
#     4  10  23  43  67  95 131 175 216 268 333 395
#
# _framework density 23.156876
#
# number of rings (size 3 to 8) (size 9 to 14) (size 15 to 20)
#    0.000    2.000    1.429    1.714    0.000    8.571 
#   12.857    1.429    0.000    0.000    0.000    0.000 
#    0.000    0.000    0.000    0.000    0.000    0.000 
#
# Total GULP energy -78297.018153 kJ/mol
# GULP energy per Si atom -5592.644154 kJ/mol
# Density = 2.310417 g / cm^3
# Si number density = 23.156876 Si / 1000 Ang^3
#
#
#
# Elastic Constant Matrix: (Units=GPa)
#
#
# Indices 1 2 3 4 5 6 
#
# 1 117.4113 51.0334 43.3008 1.7486 -16.9552 -4.9115
# 2 51.0334 116.3608 41.1340 11.6890 -8.1765 12.6609
# 3 43.3008 41.1340 98.8763 16.6186 -5.1683 4.1832
# 4 1.7486 11.6890 16.6186 41.9755 2.0598 -11.9296
# 5 -16.9552 -8.1765 -5.1683 2.0598 34.2656 3.2137
# 6 -4.9115 12.6609 4.1832 -11.9296 3.2137 19.3821
#
#
#
# Elastic Compliance Matrix: (Units=1/GPa)
#
#
# Indices 1 2 3 4 5 6 
#
# 1 0.013801 -0.005998 -0.004932 0.006245 0.003172 0.011797
# 2 -0.005998 0.014324 -0.001227 -0.007858 0.002221 -0.015817
# 3 -0.004932 -0.001227 0.014446 -0.007577 0.000684 -0.008343
# 4 0.006245 -0.007858 -0.007577 0.038342 -0.005312 0.032831
# 5 0.003172 0.002221 0.000684 -0.005312 0.032594 -0.009468
# 6 0.011797 -0.015817 -0.008343 0.032831 -0.009468 0.088493
#
#
# Mechanical properties :
#
#
# Convention : Reuss Voigt Hill
#
# Bulk Modulus (GPa) = 54.76625 67.06498 60.91562
# Shear Modulus (GPa) = 21.51458 32.27000 26.89229
#
# Velocity S-wave (km/s) = 3.05139 3.73706 3.41150
# Velocity P-wave (km/s) = 6.00966 6.90253 6.47151
#
# Compressibility (1/GPa) = 0.01825942
#
# Stress axis : x y z
#
# Youngs Moduli (GPa) = 72.45623 69.81079 69.22335
#
# Poissons Ratio (x) = 0.41870 0.34140
# Poissons Ratio (y) = 0.43457 0.08492
# Poissons Ratio (z) = 0.35734 0.08564
#
# Static dielectric constant tensor:
#      x y z
#    x 1.967200 0.003840 0.002580 
#    y 0.003840 1.809350 0.006080 
#    z 0.002580 0.006080 1.887680 
# 
# From -- ./inp_files/437434.got.cif
#   From: 2010.05.17/outbox.cif.g08.bks.cpg/sg2_219_cif.got.tgz:437434.got - 2010.06.03 11:33:40.
