data_PCOD9008855
_publ_section_title
;
Structure prediction by ZEFSAII (Michael W. Deem and Ramdas Pophale) SiO2 
 PCOD9008855
Probable space group: P -1
;
_chemical_formula_sum "Si O2"
_cell_formula_units_Z 14
_cell_length_a 14.909607
_cell_length_b 15.000623
_cell_length_c 7.351058
_cell_angle_alpha 107.163678
_cell_angle_beta 129.434417
_cell_angle_gamma 32.563924
_cell_volume 557.787808
_symmetry_space_group_name_H-M "P -1"
_symmetry_group_IT_number 2
_symmetry_cell_setting 'triclinic'
loop_
_space_group_symop_operation_xyz
x,y,z
-x,-y,-z
loop_
_atom_site_type_symbol
_atom_site_label
_atom_site_fract_x
_atom_site_fract_y
_atom_site_fract_z
Si Si1 0.769155 0.800170 0.838534
Si Si2 0.745004 0.452562 0.832504
Si Si3 0.889522 0.202750 0.382601
Si Si4 0.788220 0.686490 0.475514
Si Si5 0.546352 0.201047 0.085023
Si Si6 0.415119 0.614532 0.231147
Si Si7 0.789997 0.854355 0.311092
O O1 0.863968 0.641167 0.755111
O O2 0.500000 0.000000 0.500000
O O3 0.771463 0.815369 0.067473
O O4 0.979759 0.722991 0.994258
O O5 0.645088 0.590284 0.947421
O O6 0.532617 0.613587 0.498238
O O7 0.732062 0.354688 0.817451
O O8 0.661011 0.382777 0.334126
O O9 0.960808 0.258088 0.439951
O O10 0.768268 0.232146 0.078772
O O11 0.163832 0.971509 0.662190
O O12 0.757994 0.808533 0.409175
O O13 0.000000 0.500000 0.500000
O O14 0.563451 0.771621 0.217481
O O15 0.578661 0.086582 0.186571
#
# Coordination Sequence:
#
# PCOD9008855 Si02
#       7
#     2   2   2   2   2   2   2
#     4  12  23  40  68  94 131 171 214 255 324 385
#     4  11  22  39  62  96 123 165 216 265 307 387
#     4   9  20  39  61  87 118 171 206 263 322 370
#     4  12  24  41  67  95 128 172 212 262 326 379
#     4  10  22  38  62  92 131 162 215 261 319 381
#     4  10  21  39  66  85 124 166 215 261 320 368
#     4  10  23  43  64  90 133 169 208 266 316 381
#
# _framework density 25.099150000000002
#
# number of rings (size 3 to 8) (size 9 to 14) (size 15 to 20)
#    0.857    0.571    4.286    1.286    0.000    1.714 
#    0.000    0.000    6.286    0.000    0.000    0.000 
#    0.000    0.000    0.000    0.000    0.000    0.000 
#
# Total GULP energy -78044.587867 kJ/mol
# GULP energy per Si atom -5574.613419 kJ/mol
# Density = 2.504202 g / cm^3
# Si number density = 25.099150 Si / 1000 Ang^3
#
#
#
# Elastic Constant Matrix: (Units=GPa)
#
#
# Indices 1 2 3 4 5 6 
#
# 1 87.9294 31.0662 59.4330 -6.7545 0.2234 -18.9280
# 2 31.0662 50.1626 14.6889 2.2746 -13.4633 -4.5724
# 3 59.4330 14.6889 170.6088 13.5147 4.9921 -20.0269
# 4 -6.7545 2.2746 13.5147 44.2176 -16.4642 2.8255
# 5 0.2234 -13.4633 4.9921 -16.4642 43.8907 -4.6777
# 6 -18.9280 -4.5724 -20.0269 2.8255 -4.6777 27.6401
#
#
#
# Elastic Compliance Matrix: (Units=1/GPa)
#
#
# Indices 1 2 3 4 5 6 
#
# 1 0.021431 -0.011034 -0.005986 0.005149 -0.000030 0.007982
# 2 -0.011034 0.028720 0.001076 -0.000259 0.008588 -0.000545
# 3 -0.005986 0.001076 0.008550 -0.004497 -0.002044 0.002388
# 4 0.005149 -0.000259 -0.004497 0.029014 0.011199 -0.000845
# 5 -0.000030 0.008588 -0.002044 0.011199 0.030267 0.003896
# 6 0.007982 -0.000545 0.002388 -0.000845 0.003896 0.044031
#
#
# Mechanical properties :
#
#
# Convention : Reuss Voigt Hill
#
# Bulk Modulus (GPa) = 37.29246 57.67524 47.48385
# Shear Modulus (GPa) = 24.65023 36.71721 30.68372
#
# Velocity S-wave (km/s) = 3.13727 3.82892 3.50022
# Velocity P-wave (km/s) = 5.29279 6.52506 5.94096
#
# Compressibility (1/GPa) = 0.02681507
#
# Stress axis : x y z
#
# Youngs Moduli (GPa) = 46.66200 34.81848 116.95660
#
# Poissons Ratio (x) = 0.38417 0.70006
# Poissons Ratio (y) = 0.51485 -0.12586
# Poissons Ratio (z) = 0.27930 -0.03747
#
# Static dielectric constant tensor:
#      x y z
#    x 2.022510 -0.013870 -0.012230 
#    y -0.013870 2.369360 -0.007600 
#    z -0.012230 -0.007600 2.128640 
# 
# From -- ./inp_files/336317.got.cif
#   From: 2010.05.17/outbox.cif.g08.bks.cpg/sg2_169_cif.got.tgz:336317.got - 2010.06.03 11:33:40.
