data_PCOD9008362
_publ_section_title
;
Structure prediction by ZEFSAII (Michael W. Deem and Ramdas Pophale) SiO2 
 PCOD9008362
Probable space group: P -1
;
_chemical_formula_sum "Si O2"
_cell_formula_units_Z 16
_cell_length_a 12.904060
_cell_length_b 9.443270
_cell_length_c 11.992080
_cell_angle_alpha 51.039545
_cell_angle_beta 36.947177
_cell_angle_gamma 50.704151
_cell_volume 655.704471
_symmetry_space_group_name_H-M "P -1"
_symmetry_group_IT_number 2
_symmetry_cell_setting 'triclinic'
loop_
_space_group_symop_operation_xyz
x,y,z
-x,-y,-z
loop_
_atom_site_type_symbol
_atom_site_label
_atom_site_fract_x
_atom_site_fract_y
_atom_site_fract_z
Si Si1 0.465103 0.816590 0.177116
Si Si2 0.655576 0.667403 0.313617
Si Si3 0.681432 0.153086 0.329815
Si Si4 0.594242 0.799195 0.645816
Si Si5 0.876816 0.259061 0.416019
Si Si6 0.878007 0.408018 0.575217
Si Si7 0.988314 0.720308 0.933228
Si Si8 0.568369 0.309740 0.963873
O O1 0.591660 0.713255 0.218869
O O2 0.258862 0.861215 0.374264
O O3 0.491778 0.674837 0.119436
O O4 0.500000 0.000000 0.000000
O O5 0.483626 0.743027 0.500168
O O6 0.742238 0.450545 0.383352
O O7 0.812056 0.772721 0.135462
O O8 0.590671 0.157848 0.285325
O O9 0.845040 0.241428 0.163479
O O10 0.717066 0.936722 0.446546
O O11 0.710250 0.593303 0.607841
O O12 0.528553 0.821477 0.819392
O O13 0.952912 0.318866 0.436294
O O14 0.013018 0.183466 0.235215
O O15 0.784035 0.267752 0.791149
O O16 0.000000 0.500000 0.500000
O O17 0.000000 0.500000 0.000000
O O18 0.500000 0.500000 0.000000
#
# Coordination Sequence:
#
# PCOD9008362 Si02
#       8
#     2   2   2   2   2   2   2   2
#     4  11  22  38  64  95 130 175 215 277 343 394
#     4  11  22  41  70  95 131 176 224 274 338 397
#     4  11  22  43  67  96 137 169 222 287 330 400
#     4  10  22  42  65  93 130 181 216 269 349 394
#     4  10  21  40  63  95 129 170 225 272 330 400
#     4  10  21  39  64  94 130 173 216 274 327 404
#     4  10  24  37  64 103 126 169 223 277 333 395
#     4   9  21  37  59  89 123 173 224 253 329 408
#
# _framework density 24.401236000000001
#
# number of rings (size 3 to 8) (size 9 to 14) (size 15 to 20)
#    0.000    1.750    2.500    1.125    1.750    4.000 
#    6.750    1.875    0.000    0.000    0.000    0.000 
#    0.000    0.000    0.000    0.000    0.000    0.000 
#
# Total GULP energy -89344.226599 kJ/mol
# GULP energy per Si atom -5584.014162 kJ/mol
# Density = 2.434570 g / cm^3
# Si number density = 24.401236 Si / 1000 Ang^3
#
#
#
# Elastic Constant Matrix: (Units=GPa)
#
#
# Indices 1 2 3 4 5 6 
#
# 1 124.3354 3.8065 45.7985 -4.9515 -12.9032 8.7729
# 2 3.8065 56.6456 11.9331 -9.8120 -5.6558 8.9361
# 3 45.7985 11.9331 137.1614 -9.0316 -19.3515 -1.3530
# 4 -4.9515 -9.8120 -9.0316 28.8658 5.1566 1.1530
# 5 -12.9032 -5.6558 -19.3515 5.1566 46.4551 -4.9921
# 6 8.7729 8.9361 -1.3530 1.1530 -4.9921 15.6934
#
#
#
# Elastic Compliance Matrix: (Units=1/GPa)
#
#
# Indices 1 2 3 4 5 6 
#
# 1 0.009774 0.001318 -0.003262 0.001234 0.000696 -0.006365
# 2 0.001318 0.021419 -0.001968 0.007464 -0.000146 -0.013697
# 3 -0.003262 -0.001968 0.009083 0.000886 0.003037 0.004628
# 4 0.001234 0.007464 0.000886 0.038670 -0.003624 -0.008858
# 5 0.000696 -0.000146 0.003037 -0.003624 0.024221 0.007927
# 6 -0.006365 -0.013697 0.004628 -0.008858 0.007927 0.078650
#
#
# Mechanical properties :
#
#
# Convention : Reuss Voigt Hill
#
# Bulk Modulus (GPa) = 30.81382 49.02429 39.91906
# Shear Modulus (GPa) = 24.94279 35.30982 30.12630
#
# Velocity S-wave (km/s) = 3.20064 3.80814 3.51753
# Velocity P-wave (km/s) = 5.12974 6.28255 5.73518
#
# Compressibility (1/GPa) = 0.03245297
#
# Stress axis : x y z
#
# Youngs Moduli (GPa) = 102.30948 46.68805 110.09006
#
# Poissons Ratio (x) = -0.06151 0.35908
# Poissons Ratio (y) = -0.13480 0.21662
# Poissons Ratio (z) = 0.33370 0.09187
#
# Static dielectric constant tensor:
#      x y z
#    x 1.962450 -0.007670 -0.010390 
#    y -0.007670 2.074590 -0.042080 
#    z -0.010390 -0.042080 2.050920 
# 
# From -- ./inp_files/427500.got.cif
#   From: 2010.05.17/outbox.cif.g08.bks.cpg/sg2_214_cif.got.tgz:427500.got - 2010.06.03 11:33:40.
