data_PCOD9008785
_publ_section_title
;
Structure prediction by ZEFSAII (Michael W. Deem and Ramdas Pophale) SiO2 
 PCOD9008785
Probable space group: P -1
;
_chemical_formula_sum "Si O2"
_cell_formula_units_Z 16
_cell_length_a 14.068629
_cell_length_b 14.105482
_cell_length_c 10.651205
_cell_angle_alpha 42.464915
_cell_angle_beta 29.338412
_cell_angle_gamma 36.516890
_cell_volume 611.256126
_symmetry_space_group_name_H-M "P -1"
_symmetry_group_IT_number 2
_symmetry_cell_setting 'triclinic'
loop_
_space_group_symop_operation_xyz
x,y,z
-x,-y,-z
loop_
_atom_site_type_symbol
_atom_site_label
_atom_site_fract_x
_atom_site_fract_y
_atom_site_fract_z
Si Si1 0.032186 0.774037 0.383526
Si Si2 0.709122 0.675208 0.711301
Si Si3 0.678110 0.378034 0.013261
Si Si4 0.487421 0.303922 0.721257
Si Si5 0.579574 0.062261 0.039471
Si Si6 0.361471 0.505553 0.458518
Si Si7 0.040511 0.904328 0.740371
Si Si8 0.673524 0.863212 0.339316
O O1 0.860149 0.726695 0.567137
O O2 0.170522 0.769211 0.103899
O O3 0.173010 0.639856 0.457359
O O4 0.931593 0.948496 0.385937
O O5 0.472786 0.802356 0.922373
O O6 0.713812 0.710438 0.523848
O O7 0.218812 0.509624 0.172233
O O8 0.500000 0.500000 0.000000
O O9 0.539046 0.368677 0.296438
O O10 0.305291 0.415823 0.720892
O O11 0.511363 0.413183 0.694844
O O12 0.729013 0.225983 0.453822
O O13 0.456777 0.164000 0.959476
O O14 0.558073 0.923991 0.275764
O O15 0.842168 0.976982 0.794807
O O16 0.912965 0.853679 0.043320
O O17 0.500000 0.000000 0.500000
#
# Coordination Sequence:
#
# PCOD9008785 Si02
#       8
#     2   2   2   2   2   2   2   2
#     4  11  23  38  62  99 136 166 215 271 327 393
#     4  11  20  39  61  95 137 169 205 271 338 380
#     4  10  21  40  64  90 127 167 216 267 324 385
#     4  11  20  39  72  89 128 174 232 261 309 388
#     4   9  18  38  62  91 121 168 214 265 315 373
#     4  10  22  40  62  95 123 178 226 264 314 380
#     4  10  21  39  65  98 125 167 221 264 323 381
#     4   8  19  34  60  93 129 161 207 266 330 380
#
# _framework density 26.175606999999999
#
# number of rings (size 3 to 8) (size 9 to 14) (size 15 to 20)
#    0.750    1.250    2.500    1.500    1.750    0.500 
#    0.000    2.500    0.000    0.000    0.000    0.000 
#    0.000    0.000    0.000    0.000    0.000    0.000 
#
# Total GULP energy -89270.044890 kJ/mol
# GULP energy per Si atom -5579.377806 kJ/mol
# Density = 2.611603 g / cm^3
# Si number density = 26.175607 Si / 1000 Ang^3
#
#
#
# Elastic Constant Matrix: (Units=GPa)
#
#
# Indices 1 2 3 4 5 6 
#
# 1 92.7066 33.4200 37.2364 -20.3419 15.7700 -11.3404
# 2 33.4200 89.6847 40.2420 -8.7903 15.7294 -1.7714
# 3 37.2364 40.2420 113.7233 -13.6091 31.9682 -17.2419
# 4 -20.3419 -8.7903 -13.6091 61.1278 -9.7601 16.0315
# 5 15.7700 15.7294 31.9682 -9.7601 38.9342 -15.7826
# 6 -11.3404 -1.7714 -17.2419 16.0315 -15.7826 42.6686
#
#
#
# Elastic Compliance Matrix: (Units=1/GPa)
#
#
# Indices 1 2 3 4 5 6 
#
# 1 0.014093 -0.003616 -0.002530 0.003186 -0.000957 0.001022
# 2 -0.003616 0.014562 -0.003660 0.000445 -0.002486 -0.002922
# 3 -0.002530 -0.003660 0.013356 -0.000091 -0.007786 0.001727
# 4 0.003186 0.000445 -0.000091 0.019199 0.000975 -0.006024
# 5 -0.000957 -0.002486 -0.007786 0.000975 0.037815 0.010117
# 6 0.001022 -0.002922 0.001727 -0.006024 0.010117 0.030290
#
#
# Mechanical properties :
#
#
# Convention : Reuss Voigt Hill
#
# Bulk Modulus (GPa) = 44.64202 57.54572 51.09387
# Shear Modulus (GPa) = 31.97065 40.89387 36.43226
#
# Velocity S-wave (km/s) = 3.49863 3.95687 3.73478
# Velocity P-wave (km/s) = 5.78035 6.55042 6.17739
#
# Compressibility (1/GPa) = 0.02240042
#
# Stress axis : x y z
#
# Youngs Moduli (GPa) = 70.95553 68.67262 74.87154
#
# Poissons Ratio (x) = 0.24834 0.18939
# Poissons Ratio (y) = 0.25660 0.27400
# Poissons Ratio (z) = 0.17948 0.25131
#
# Static dielectric constant tensor:
#      x y z
#    x 2.151420 -0.032720 -0.021470 
#    y -0.032720 2.112150 0.007920 
#    z -0.021470 0.007920 2.174670 
# 
# From -- ./inp_files/466298.got.cif
#   From: 2010.05.17/outbox.cif.g08.bks.cpg/sg2_234_cif.got.tgz:466298.got - 2010.06.03 11:33:40.
