data_PCOD9008797
_publ_section_title
;
Structure prediction by ZEFSAII (Michael W. Deem and Ramdas Pophale) SiO2 
 PCOD9008797
Probable space group: P -1
;
_chemical_formula_sum "Si O2"
_cell_formula_units_Z 15
_cell_length_a 16.796190
_cell_length_b 4.913596
_cell_length_c 14.309832
_cell_angle_alpha 93.421887
_cell_angle_beta 30.595073
_cell_angle_gamma 102.149494
_cell_volume 569.838849
_symmetry_space_group_name_H-M "P -1"
_symmetry_group_IT_number 2
_symmetry_cell_setting 'triclinic'
loop_
_space_group_symop_operation_xyz
x,y,z
-x,-y,-z
loop_
_atom_site_type_symbol
_atom_site_label
_atom_site_fract_x
_atom_site_fract_y
_atom_site_fract_z
Si Si1 0.000000 0.000000 0.500000
Si Si2 0.877056 0.797660 0.429799
Si Si3 0.492275 0.027683 0.296326
Si Si4 0.346247 0.438373 0.521659
Si Si5 0.799848 0.800186 0.970216
Si Si6 0.890656 0.685815 0.077552
Si Si7 0.361561 0.738651 0.239963
Si Si8 0.682790 0.523804 0.902499
O O1 0.107039 0.000023 0.490888
O O2 0.166268 0.227986 0.291840
O O3 0.775248 0.766148 0.436474
O O4 0.795671 0.486830 0.554427
O O5 0.060616 0.928498 0.209263
O O6 0.368840 0.760922 0.473154
O O7 0.653970 0.933049 0.137818
O O8 0.432146 0.998701 0.247221
O O9 0.499413 0.321809 0.345485
O O10 0.275261 0.389438 0.695350
O O11 0.863421 0.687070 0.995445
O O12 0.743256 0.539558 0.947609
O O13 0.000000 0.500000 0.000000
O O14 0.000000 0.000000 0.000000
O O15 0.332183 0.743252 0.157717
O O16 0.511263 0.595430 0.084457
#
# Coordination Sequence:
#
# PCOD9008797 Si02
#       8
#     1   2   2   2   2   2   2   2
#     4   8  14  26  56  92 134 172 224 276 328 388
#     4   9  17  34  62  91 131 175 223 273 332 402
#     4  10  23  41  67  99 135 174 221 279 338 408
#     4  11  23  43  67  95 132 180 221 277 341 406
#     4  10  21  39  65  98 133 175 230 285 339 402
#     4  12  26  45  71 100 132 177 228 287 344 405
#     4   8  15  31  60  94 137 179 221 268 339 404
#     4   8  14  29  58  94 137 178 224 275 333 401
#
# _framework density 26.323229999999999
#
# number of rings (size 3 to 8) (size 9 to 14) (size 15 to 20)
#    0.000    2.400    1.333    0.800    0.000    2.133 
#    0.000    0.000    2.933   75.200    0.000    0.000 
#    0.000    0.000    0.000    0.000    0.000    0.000 
#
# Total GULP energy -83570.515510 kJ/mol
# GULP energy per Si atom -5571.367701 kJ/mol
# Density = 2.626332 g / cm^3
# Si number density = 26.323230 Si / 1000 Ang^3
#
#
#
# Elastic Constant Matrix: (Units=GPa)
#
#
# Indices 1 2 3 4 5 6 
#
# 1 174.5649 44.4321 31.1804 3.0177 29.8558 15.2383
# 2 44.4321 119.7456 30.3263 3.2184 4.5136 -7.7320
# 3 31.1804 30.3263 105.6677 -12.7024 27.9536 3.5289
# 4 3.0177 3.2184 -12.7024 29.6887 14.2821 0.8861
# 5 29.8558 4.5136 27.9536 14.2821 42.5724 -2.5102
# 6 15.2383 -7.7320 3.5289 0.8861 -2.5102 26.1826
#
#
#
# Elastic Compliance Matrix: (Units=1/GPa)
#
#
# Indices 1 2 3 4 5 6 
#
# 1 0.008418 -0.003816 0.001675 0.004615 -0.008574 -0.007230
# 2 -0.003816 0.011484 -0.005317 -0.007082 0.007757 0.007312
# 3 0.001675 -0.005317 0.017616 0.016961 -0.018296 -0.007248
# 4 0.004615 -0.007082 0.016961 0.057839 -0.033749 -0.012256
# 5 -0.008574 0.007757 -0.018296 -0.033749 0.052956 0.015966
# 6 -0.007230 0.007312 -0.007248 -0.012256 0.015966 0.047483
#
#
# Mechanical properties :
#
#
# Convention : Reuss Voigt Hill
#
# Bulk Modulus (GPa) = 44.24211 67.98399 56.11305
# Shear Modulus (GPa) = 22.90999 39.29137 31.10068
#
# Velocity S-wave (km/s) = 2.95334 3.86767 3.44101
# Velocity P-wave (km/s) = 5.33604 6.76963 6.09513
#
# Compressibility (1/GPa) = 0.02260290
#
# Stress axis : x y z
#
# Youngs Moduli (GPa) = 118.79033 87.08103 56.76610
#
# Poissons Ratio (x) = 0.33227 -0.09511
# Poissons Ratio (y) = 0.45326 0.30184
# Poissons Ratio (z) = -0.19902 0.46303
#
# Static dielectric constant tensor:
#      x y z
#    x 2.214720 0.018880 -0.076400 
#    y 0.018880 2.056430 0.021390 
#    z -0.076400 0.021390 2.123940 
# 
# From -- ./inp_files/536343.got.cif
#   From: 2010.05.17/outbox.cif.g08.bks.cpg/sg2_269_cif.got.tgz:536343.got - 2010.06.03 11:33:40.
