data_PCOD9008924
_publ_section_title
;
Structure prediction by ZEFSAII (Michael W. Deem and Ramdas Pophale) SiO2 
 PCOD9008924
Probable space group: P -1
;
_chemical_formula_sum "Si O2"
_cell_formula_units_Z 16
_cell_length_a 8.660145
_cell_length_b 14.724165
_cell_length_c 11.165475
_cell_angle_alpha 77.994626
_cell_angle_beta 105.565701
_cell_angle_gamma 145.888002
_cell_volume 768.906106
_symmetry_space_group_name_H-M "P -1"
_symmetry_group_IT_number 2
_symmetry_cell_setting 'triclinic'
loop_
_space_group_symop_operation_xyz
x,y,z
-x,-y,-z
loop_
_atom_site_type_symbol
_atom_site_label
_atom_site_fract_x
_atom_site_fract_y
_atom_site_fract_z
Si Si1 0.192663 0.615502 0.890713
Si Si2 0.386505 0.231994 0.885096
Si Si3 0.291862 0.858796 0.724386
Si Si4 0.205639 0.321832 0.939148
Si Si5 0.162244 0.781631 0.303938
Si Si6 0.790942 0.586311 0.509214
Si Si7 0.258137 0.625390 0.321088
Si Si8 0.258309 0.955165 0.910304
O O1 0.264146 0.756920 0.836770
O O2 0.046880 0.515254 0.766407
O O3 0.463288 0.692366 0.973375
O O4 0.000000 0.500000 0.000000
O O5 0.208495 0.239943 0.863311
O O6 0.557061 0.319072 0.771341
O O7 0.295487 0.081762 0.905736
O O8 0.246458 0.927572 0.776414
O O9 0.042472 0.730662 0.613662
O O10 0.603676 0.025720 0.692262
O O11 0.995019 0.292106 0.836477
O O12 0.500000 0.500000 0.000000
O O13 0.033868 0.210004 0.048616
O O14 0.314223 0.753343 0.349941
O O15 0.923816 0.670995 0.385311
O O16 0.500000 0.500000 0.500000
O O17 0.735298 0.450746 0.557202
O O18 0.500000 0.000000 0.000000
#
# Coordination Sequence:
#
# PCOD9008924 Si02
#       8
#     2   2   2   2   2   2   2   2
#     4   9  19  33  62  95 131 170 211 254 322 390
#     4  11  20  38  60  95 139 168 209 272 327 378
#     4  11  23  42  69  94 126 178 221 265 320 400
#     4  12  27  37  65 104 137 168 212 273 332 382
#     4  12  23  45  67  96 129 174 227 262 325 405
#     4  11  26  45  68  94 130 168 219 283 334 378
#     4  10  21  39  66  93 126 171 219 266 321 398
#     4  12  22  41  65  95 134 174 219 256 328 405
#
# _framework density 20.808782999999998
#
# number of rings (size 3 to 8) (size 9 to 14) (size 15 to 20)
#    0.000    1.000    3.750    2.625    8.750    0.000 
#    0.000    0.625    2.750    0.000    0.000    0.000 
#    0.000    0.000    0.000    0.000    0.000    0.000 
#
# Total GULP energy -89093.583598 kJ/mol
# GULP energy per Si atom -5568.348975 kJ/mol
# Density = 2.076142 g / cm^3
# Si number density = 20.808783 Si / 1000 Ang^3
#
#
#
# Elastic Constant Matrix: (Units=GPa)
#
#
# Indices 1 2 3 4 5 6 
#
# 1 76.6523 34.8487 -5.9919 -19.5315 2.6602 -7.7021
# 2 34.8487 127.0746 29.5495 -31.1254 7.8732 0.0330
# 3 -5.9919 29.5495 68.8518 -25.1541 5.6622 8.0560
# 4 -19.5315 -31.1254 -25.1541 35.3709 1.6977 -3.6999
# 5 2.6602 7.8732 5.6622 1.6977 31.8216 -12.9196
# 6 -7.7021 0.0330 8.0560 -3.6999 -12.9196 31.3176
#
#
#
# Elastic Compliance Matrix: (Units=1/GPa)
#
#
# Indices 1 2 3 4 5 6 
#
# 1 0.019158 -0.003735 0.007783 0.013282 -0.001240 0.003771
# 2 -0.003735 0.011109 -0.002672 0.005872 -0.002512 -0.000585
# 3 0.007783 -0.002672 0.024620 0.019267 -0.007528 -0.005245
# 4 0.013282 0.005872 0.019267 0.055018 -0.008380 0.001347
# 5 -0.001240 -0.002512 -0.007528 -0.008380 0.041078 0.017590
# 6 0.003771 -0.000585 -0.005245 0.001347 0.017590 0.041624
#
#
# Mechanical properties :
#
#
# Convention : Reuss Voigt Hill
#
# Bulk Modulus (GPa) = 17.34919 43.26571 30.30745
# Shear Modulus (GPa) = 23.91542 33.98019 28.94780
#
# Velocity S-wave (km/s) = 3.39380 4.04539 3.73384
# Velocity P-wave (km/s) = 4.86957 6.53127 5.76065
#
# Compressibility (1/GPa) = 0.05763958
#
# Stress axis : x y z
#
# Youngs Moduli (GPa) = 52.19618 90.01561 40.61720
#
# Poissons Ratio (x) = 0.33619 -0.31613
# Poissons Ratio (y) = 0.19494 0.10855
# Poissons Ratio (z) = -0.40625 0.24056
#
# Static dielectric constant tensor:
#      x y z
#    x 1.323270 -0.001050 -0.487190 
#    y -0.001050 1.919050 0.035150 
#    z -0.487190 0.035150 1.198330 
# 
# From -- ./inp_files/346222.got.cif
#   From: 2010.05.17/outbox.cif.g08.bks.cpg/sg2_174_cif.got.tgz:346222.got - 2010.06.03 11:33:40.
