data_PCOD9008222
_publ_section_title
;
Structure prediction by ZEFSAII (Michael W. Deem and Ramdas Pophale) SiO2 
 PCOD9008222
Probable space group: P -1
;
_chemical_formula_sum "Si O2"
_cell_formula_units_Z 15
_cell_length_a 15.621222
_cell_length_b 6.947663
_cell_length_c 12.041884
_cell_angle_alpha 52.477123
_cell_angle_beta 39.281309
_cell_angle_gamma 45.062526
_cell_volume 580.036887
_symmetry_space_group_name_H-M "P -1"
_symmetry_group_IT_number 2
_symmetry_cell_setting 'triclinic'
loop_
_space_group_symop_operation_xyz
x,y,z
-x,-y,-z
loop_
_atom_site_type_symbol
_atom_site_label
_atom_site_fract_x
_atom_site_fract_y
_atom_site_fract_z
Si Si1 0.830631 0.113709 0.869276
Si Si2 0.500000 0.000000 0.000000
Si Si3 0.166661 0.174132 0.332200
Si Si4 0.628797 0.420119 0.172478
Si Si5 0.593935 0.065070 0.515373
Si Si6 0.744249 0.656920 0.152049
Si Si7 0.828999 0.190450 0.373029
Si Si8 0.824493 0.504877 0.561786
O O1 0.789582 0.278514 0.737106
O O2 0.711781 0.282776 0.023915
O O3 0.003577 0.039767 0.753573
O O4 0.822114 0.833219 0.971057
O O5 0.506854 0.728760 0.154245
O O6 0.313602 0.135391 0.131896
O O7 0.175729 0.324253 0.385505
O O8 0.996551 0.362091 0.392084
O O9 0.173141 0.891875 0.469121
O O10 0.573859 0.224862 0.362938
O O11 0.746896 0.448411 0.128865
O O12 0.433556 0.148352 0.706970
O O13 0.687759 0.179322 0.457104
O O14 0.698373 0.736862 0.529857
O O15 0.817016 0.480066 0.251100
#
# Coordination Sequence:
#
# PCOD9008222 Si02
#       8
#     2   1   2   2   2   2   2   2
#     4  11  23  40  68  94 128 171 216 263 324 381
#     4  12  20  36  62 100 122 160 222 274 302 384
#     4   9  17  32  63  88 123 171 218 248 322 384
#     4  11  24  40  64  97 125 166 220 269 314 382
#     4  10  21  39  64  90 133 169 212 261 328 383
#     4  11  23  40  64  98 130 166 216 270 320 380
#     4   9  19  40  65  89 127 177 208 257 329 388
#     4   9  18  38  59  91 124 175 207 254 326 392
#
# _framework density 25.860422
#
# number of rings (size 3 to 8) (size 9 to 14) (size 15 to 20)
#    0.000    1.867    1.333    5.200    0.000    3.200 
#    0.000    0.000    0.000    3.200    0.000    0.000 
#    0.000    0.000    0.000    0.000    0.000    0.000 
#
# Total GULP energy -83701.517995 kJ/mol
# GULP energy per Si atom -5580.101200 kJ/mol
# Density = 2.580156 g / cm^3
# Si number density = 25.860422 Si / 1000 Ang^3
#
#
#
# Elastic Constant Matrix: (Units=GPa)
#
#
# Indices 1 2 3 4 5 6 
#
# 1 75.8239 23.5098 30.6232 7.5863 2.8420 -7.2163
# 2 23.5098 134.6058 63.9480 -34.8642 0.3566 -41.6393
# 3 30.6232 63.9480 160.3019 -5.9764 -12.6245 -19.4010
# 4 7.5863 -34.8642 -5.9764 43.8601 9.3732 -1.2205
# 5 2.8420 0.3566 -12.6245 9.3732 26.3168 -4.2324
# 6 -7.2163 -41.6393 -19.4010 -1.2205 -4.2324 37.0282
#
#
#
# Elastic Compliance Matrix: (Units=1/GPa)
#
#
# Indices 1 2 3 4 5 6 
#
# 1 0.015741 -0.004609 -0.001884 -0.006579 -0.000746 -0.003405
# 2 -0.004609 0.022663 -0.005242 0.019972 -0.005928 0.021822
# 3 -0.001884 -0.005242 0.008864 -0.003889 0.005737 -0.001090
# 4 -0.006579 0.019972 -0.003889 0.042715 -0.013585 0.018994
# 5 -0.000746 -0.005928 0.005737 -0.013585 0.045910 0.000994
# 6 -0.003405 0.021822 -0.001090 0.018994 0.000994 0.051051
#
#
# Mechanical properties :
#
#
# Convention : Reuss Voigt Hill
#
# Bulk Modulus (GPa) = 42.02085 67.43264 54.72674
# Shear Modulus (GPa) = 22.89936 38.28439 30.59187
#
# Velocity S-wave (km/s) = 2.97896 3.85180 3.44315
# Velocity P-wave (km/s) = 5.30251 6.77599 6.08402
#
# Compressibility (1/GPa) = 0.02379771
#
# Stress axis : x y z
#
# Youngs Moduli (GPa) = 63.52942 44.12424 112.81440
#
# Poissons Ratio (x) = 0.20338 0.21259
# Poissons Ratio (y) = 0.29282 0.59132
# Poissons Ratio (z) = 0.11972 0.23128
#
# Static dielectric constant tensor:
#      x y z
#    x 2.096520 0.067450 0.002730 
#    y 0.067450 2.084840 -0.079190 
#    z 0.002730 -0.079190 1.963790 
# 
# From -- ./inp_files/540166.got.cif
#   From: 2010.05.17/outbox.cif.g08.bks.cpg/sg2_271_cif.got.tgz:540166.got - 2010.06.03 11:33:40.
