data_PCOD9008868
_publ_section_title
;
Structure prediction by ZEFSAII (Michael W. Deem and Ramdas Pophale) SiO2 
 PCOD9008868
Probable space group: P -1
;
_chemical_formula_sum "Si O2"
_cell_formula_units_Z 16
_cell_length_a 15.409839
_cell_length_b 13.495821
_cell_length_c 11.905624
_cell_angle_alpha 148.227002
_cell_angle_beta 35.732437
_cell_angle_gamma 130.258622
_cell_volume 753.603236
_symmetry_space_group_name_H-M "P -1"
_symmetry_group_IT_number 2
_symmetry_cell_setting 'triclinic'
loop_
_space_group_symop_operation_xyz
x,y,z
-x,-y,-z
loop_
_atom_site_type_symbol
_atom_site_label
_atom_site_fract_x
_atom_site_fract_y
_atom_site_fract_z
Si Si1 0.947394 0.714973 0.298670
Si Si2 0.843915 0.180020 0.001730
Si Si3 0.749056 0.268133 0.410972
Si Si4 0.997644 0.814170 0.586116
Si Si5 0.793971 0.660715 0.822997
Si Si6 0.547991 0.969868 0.264300
Si Si7 0.800437 0.986702 0.274713
Si Si8 0.631519 0.965052 0.917674
O O1 0.027246 0.731562 0.351319
O O2 0.771243 0.800641 0.580487
O O3 0.000000 0.500000 0.000000
O O4 0.013987 0.823392 0.230178
O O5 0.816093 0.323360 0.272639
O O6 0.863358 0.984170 0.862989
O O7 0.706560 0.158710 0.043751
O O8 0.743611 0.454249 0.672914
O O9 0.839074 0.102083 0.233700
O O10 0.602511 0.172913 0.435929
O O11 0.934894 0.674229 0.605076
O O12 0.121381 0.924368 0.618375
O O13 0.655151 0.804579 0.056713
O O14 0.834208 0.762252 0.994219
O O15 0.377429 0.970276 0.478917
O O16 0.562800 0.930725 0.078306
O O17 0.500000 0.000000 0.000000
#
# Coordination Sequence:
#
# PCOD9008868 Si02
#       8
#     2   2   2   2   2   2   2   2
#     4  11  23  42  66  95 127 169 215 266 326 382
#     4  10  21  39  66  88 122 174 208 256 325 385
#     4  10  21  40  64  92 123 164 218 261 319 380
#     4  11  21  41  61  93 127 164 215 265 318 384
#     4  11  20  40  65  85 127 168 209 266 322 378
#     4  10  22  40  62  88 127 172 207 260 323 389
#     4  11  24  38  61  93 129 163 212 262 319 385
#     4  10  21  40  64  92 122 166 216 259 319 380
#
# _framework density 21.231331000000001
#
# number of rings (size 3 to 8) (size 9 to 14) (size 15 to 20)
#    0.000    1.500    5.000    4.125    3.500    2.500 
#    2.250    3.125    0.000    0.000    0.000    0.000 
#    0.000    0.000    0.000    0.000    0.000    0.000 
#
# Total GULP energy -89152.420546 kJ/mol
# GULP energy per Si atom -5572.026284 kJ/mol
# Density = 2.118301 g / cm^3
# Si number density = 21.231331 Si / 1000 Ang^3
#
#
#
# Elastic Constant Matrix: (Units=GPa)
#
#
# Indices 1 2 3 4 5 6 
#
# 1 144.0291 29.5783 59.6006 -2.6588 29.4243 25.1451
# 2 29.5783 57.6981 44.0378 -2.5933 7.7759 11.4423
# 3 59.6006 44.0378 111.9348 0.4909 31.0506 11.6709
# 4 -2.6588 -2.5933 0.4909 44.0919 0.6372 12.2965
# 5 29.4243 7.7759 31.0506 0.6372 31.9664 1.0050
# 6 25.1451 11.4423 11.6709 12.2965 1.0050 30.8902
#
#
#
# Elastic Compliance Matrix: (Units=1/GPa)
#
#
# Indices 1 2 3 4 5 6 
#
# 1 0.011397 -0.000787 -0.002790 0.003289 -0.007372 -0.009002
# 2 -0.000787 0.026803 -0.010771 0.003463 0.004811 -0.006753
# 3 -0.002790 -0.010771 0.018067 -0.000876 -0.012350 0.000185
# 4 0.003289 0.003463 -0.000876 0.027133 -0.003109 -0.014328
# 5 -0.007372 0.004811 -0.012350 -0.003109 0.048688 0.008539
# 6 -0.009002 -0.006753 0.000185 -0.014328 0.008539 0.047557
#
#
# Mechanical properties :
#
#
# Convention : Reuss Voigt Hill
#
# Bulk Modulus (GPa) = 36.26969 64.45503 50.36236
# Shear Modulus (GPa) = 22.98505 33.41937 28.20221
#
# Velocity S-wave (km/s) = 3.29386 3.97175 3.64858
# Velocity P-wave (km/s) = 5.62016 7.17338 6.44374
#
# Compressibility (1/GPa) = 0.02757123
#
# Stress axis : x y z
#
# Youngs Moduli (GPa) = 87.73860 37.30967 55.34847
#
# Poissons Ratio (x) = 0.02936 0.15442
# Poissons Ratio (y) = 0.06904 0.59618
# Poissons Ratio (z) = 0.24478 0.40188
#
# Static dielectric constant tensor:
#      x y z
#    x 1.826580 -0.004360 0.048720 
#    y -0.004360 1.937950 0.007360 
#    z 0.048720 0.007360 1.843930 
# 
# From -- ./inp_files/452414.got.cif
#   From: 2010.05.17/outbox.cif.g08.bks.cpg/sg2_227_cif.got.tgz:452414.got - 2010.06.03 11:33:40.
