data_PCOD9008155
_publ_section_title
;
Structure prediction by ZEFSAII (Michael W. Deem and Ramdas Pophale) SiO2 
 PCOD9008155
Probable space group: P -1
;
_chemical_formula_sum "Si O2"
_cell_formula_units_Z 12
_cell_length_a 8.080698
_cell_length_b 13.339042
_cell_length_c 12.522922
_cell_angle_alpha 34.204463
_cell_angle_beta 113.974309
_cell_angle_gamma 131.846714
_cell_volume 530.079597
_symmetry_space_group_name_H-M "P -1"
_symmetry_group_IT_number 2
_symmetry_cell_setting 'triclinic'
loop_
_space_group_symop_operation_xyz
x,y,z
-x,-y,-z
loop_
_atom_site_type_symbol
_atom_site_label
_atom_site_fract_x
_atom_site_fract_y
_atom_site_fract_z
Si Si1 0.556855 0.071510 0.106530
Si Si2 0.736286 0.783875 0.084483
Si Si3 0.492170 0.352112 0.534862
Si Si4 0.034057 0.011466 0.373833
Si Si5 0.080229 0.444111 0.963085
Si Si6 0.575587 0.872536 0.756793
O O1 0.457650 0.818907 0.267002
O O2 0.421524 0.159573 0.953876
O O3 0.501286 0.034245 0.254272
O O4 0.836192 0.282368 0.974659
O O5 0.671591 0.777818 0.948291
O O6 0.658681 0.542065 0.319316
O O7 0.000000 0.000000 0.000000
O O8 0.500000 0.500000 0.500000
O O9 0.223179 0.174836 0.579755
O O10 0.132181 0.270134 0.149108
O O11 0.208509 0.974357 0.403370
O O12 0.000000 0.000000 0.500000
O O13 0.338493 0.684271 0.793503
O O14 0.000000 0.500000 0.000000
#
# Coordination Sequence:
#
# PCOD9008155 Si02
#       6
#     2   2   2   2   2   2
#     4   8  21  39  65  91 131 164 215 260 313 379
#     4  10  21  39  64  87 125 168 218 253 319 372
#     4  11  23  41  63  93 132 170 210 264 318 378
#     4  11  22  37  62  95 128 164 213 267 322 375
#     4   9  17  36  61  84 124 164 201 261 312 375
#     4   9  19  39  62  91 128 169 210 261 317 381
#
# _framework density 22.638107999999999
#
# number of rings (size 3 to 8) (size 9 to 14) (size 15 to 20)
#    1.000    1.333    0.000    2.500    0.000    1.333 
#    0.000    9.167    0.000    0.000    0.000    0.000 
#    0.000    0.000    0.000    0.000    0.000    0.000 
#
# Total GULP energy -66829.070338 kJ/mol
# GULP energy per Si atom -5569.089195 kJ/mol
# Density = 2.258658 g / cm^3
# Si number density = 22.638108 Si / 1000 Ang^3
#
#
#
# Elastic Constant Matrix: (Units=GPa)
#
#
# Indices 1 2 3 4 5 6 
#
# 1 56.8079 17.3052 1.8857 3.3203 -12.9393 -0.2463
# 2 17.3052 53.8730 14.3176 -2.3662 5.6733 -10.4119
# 3 1.8857 14.3176 36.1002 -11.4926 5.5151 0.6996
# 4 3.3203 -2.3662 -11.4926 28.4397 -4.1214 -1.7188
# 5 -12.9393 5.6733 5.5151 -4.1214 35.0369 -4.4980
# 6 -0.2463 -10.4119 0.6996 -1.7188 -4.4980 45.5860
#
#
#
# Elastic Compliance Matrix: (Units=1/GPa)
#
#
# Indices 1 2 3 4 5 6 
#
# 1 0.022407 -0.008496 0.000176 -0.001968 0.009265 -0.000982
# 2 -0.008496 0.025273 -0.009225 -0.001069 -0.005222 0.005312
# 3 0.000176 -0.009225 0.036043 0.013213 -0.002874 -0.002445
# 4 -0.001968 -0.001069 0.013213 0.041065 0.002367 0.001324
# 5 0.009265 -0.005222 -0.002874 0.002367 0.033839 0.002330
# 6 -0.000982 0.005312 -0.002445 0.001324 0.002330 0.023462
#
#
# Mechanical properties :
#
#
# Convention : Reuss Voigt Hill
#
# Bulk Modulus (GPa) = 20.56253 23.75535 22.15894
# Shear Modulus (GPa) = 21.42341 29.36403 25.39372
#
# Velocity S-wave (km/s) = 3.07961 3.60544 3.35285
# Velocity P-wave (km/s) = 4.66349 5.27718 4.97980
#
# Compressibility (1/GPa) = 0.04863214
#
# Stress axis : x y z
#
# Youngs Moduli (GPa) = 44.62944 39.56833 27.74458
#
# Poissons Ratio (x) = 0.33619 -0.00489
# Poissons Ratio (y) = 0.37919 0.25595
# Poissons Ratio (z) = -0.00786 0.36502
#
# Static dielectric constant tensor:
#      x y z
#    x 1.923390 -0.060360 -0.012740 
#    y -0.060360 1.856430 0.046500 
#    z -0.012740 0.046500 1.917310 
# 
# From -- ./inp_files/153559.got.cif
#   From: 2010.05.17/outbox.cif.g08.bks.cpg/sg2_77_cif.got.tgz:153559.got - 2010.06.03 11:33:40.
