data_PCOD9008499
_publ_section_title
;
Structure prediction by ZEFSAII (Michael W. Deem and Ramdas Pophale) SiO2 
 PCOD9008499
Probable space group: P -1
;
_chemical_formula_sum "Si O2"
_cell_formula_units_Z 14
_cell_length_a 13.027506
_cell_length_b 12.207666
_cell_length_c 5.436297
_cell_angle_alpha 87.571842
_cell_angle_beta 136.493351
_cell_angle_gamma 85.841580
_cell_volume 587.927698
_symmetry_space_group_name_H-M "P -1"
_symmetry_group_IT_number 2
_symmetry_cell_setting 'triclinic'
loop_
_space_group_symop_operation_xyz
x,y,z
-x,-y,-z
loop_
_atom_site_type_symbol
_atom_site_label
_atom_site_fract_x
_atom_site_fract_y
_atom_site_fract_z
Si Si1 0.932340 0.398105 0.506431
Si Si2 0.139644 0.184654 0.765046
Si Si3 0.159069 0.736534 0.249098
Si Si4 0.303428 0.124805 0.547278
Si Si5 0.621107 0.393054 0.753225
Si Si6 0.161077 0.958035 0.020890
Si Si7 0.621447 0.171001 0.988862
O O1 0.946003 0.346781 0.811041
O O2 0.000000 0.500000 0.500000
O O3 0.012684 0.290411 0.510394
O O4 0.753451 0.424044 0.154844
O O5 0.239369 0.167594 0.695337
O O6 0.239706 0.195187 0.185829
O O7 0.076263 0.071305 0.742195
O O8 0.282149 0.661194 0.304953
O O9 0.084377 0.853515 0.985263
O O10 0.254350 0.788112 0.622067
O O11 0.482743 0.118967 0.859661
O O12 0.243077 0.009168 0.389777
O O13 0.500000 0.500000 0.500000
O O14 0.548752 0.289973 0.738406
O O15 0.290940 0.906093 0.061579
#
# Coordination Sequence:
#
# PCOD9008499 Si02
#       7
#     2   2   2   2   2   2   2
#     4  11  27  47  70  97 137 184 240 290 352 420
#     4  10  25  42  66 107 136 191 228 287 344 416
#     4  10  23  43  67  98 138 182 229 296 347 417
#     4  10  23  39  69 104 147 183 235 278 351 413
#     4  10  25  43  69 100 132 182 235 292 351 412
#     4   9  21  39  67 104 141 181 233 287 347 417
#     4  10  21  39  65 102 142 182 231 287 349 413
#
# _framework density 23.812453999999999
#
# number of rings (size 3 to 8) (size 9 to 14) (size 15 to 20)
#    0.857    1.143    0.000    1.286    8.000    5.714 
#    0.000    7.143    0.000    0.000    0.000    0.000 
#    0.000    0.000    0.000    0.000    0.000    0.000 
#
# Total GULP energy -78123.264082 kJ/mol
# GULP energy per Si atom -5580.233149 kJ/mol
# Density = 2.375826 g / cm^3
# Si number density = 23.812454 Si / 1000 Ang^3
#
#
#
# Elastic Constant Matrix: (Units=GPa)
#
#
# Indices 1 2 3 4 5 6 
#
# 1 118.4751 44.9733 24.9420 -13.8993 -12.3424 24.0408
# 2 44.9733 161.0581 38.0572 -49.6453 2.4902 33.5528
# 3 24.9420 38.0572 81.1927 -26.5058 -5.2527 5.0125
# 4 -13.8993 -49.6453 -26.5058 36.9048 -2.6818 -0.4615
# 5 -12.3424 2.4902 -5.2527 -2.6818 34.8828 5.8708
# 6 24.0408 33.5528 5.0125 -0.4615 5.8708 52.1475
#
#
#
# Elastic Compliance Matrix: (Units=1/GPa)
#
#
# Indices 1 2 3 4 5 6 
#
# 1 0.010846 -0.001370 -0.001699 0.001295 0.004529 -0.004453
# 2 -0.001370 0.013919 0.000591 0.018633 0.001453 -0.008379
# 3 -0.001699 0.000591 0.016945 0.012534 0.003119 -0.001466
# 4 0.001295 0.018633 0.012534 0.062069 0.008170 -0.014161
# 5 0.004529 0.001453 0.003119 0.008170 0.032425 -0.006901
# 6 -0.004453 -0.008379 -0.001466 -0.014161 -0.006901 0.027413
#
#
# Mechanical properties :
#
#
# Convention : Reuss Voigt Hill
#
# Bulk Modulus (GPa) = 27.20839 64.07456 45.64147
# Shear Modulus (GPa) = 27.65117 41.63725 34.64421
#
# Velocity S-wave (km/s) = 3.41134 4.18610 3.81842
# Velocity P-wave (km/s) = 5.19300 7.09444 6.21684
#
# Compressibility (1/GPa) = 0.03675337
#
# Stress axis : x y z
#
# Youngs Moduli (GPa) = 92.20190 71.84656 59.01336
#
# Poissons Ratio (x) = 0.09845 0.10026
# Poissons Ratio (y) = 0.12634 -0.03488
# Poissons Ratio (z) = 0.15665 -0.04246
#
# Static dielectric constant tensor:
#      x y z
#    x 1.915910 0.039010 -0.116860 
#    y 0.039010 1.888020 -0.021430 
#    z -0.116860 -0.021430 2.087670 
# 
# From -- ./inp_files/70917.got.cif
#   From: 2010.05.17/outbox.cif.g08.bks.cpg/sg2_36_cif.got.tgz:70917.got - 2010.06.03 11:33:40.
