data_PCOD9008979
_publ_section_title
;
Structure prediction by ZEFSAII (Michael W. Deem and Ramdas Pophale) SiO2 
 PCOD9008979
Probable space group: P -1
;
_chemical_formula_sum "Si O2"
_cell_formula_units_Z 16
_cell_length_a 15.040781
_cell_length_b 9.135449
_cell_length_c 14.940512
_cell_angle_alpha 87.886325
_cell_angle_beta 152.178223
_cell_angle_gamma 75.294492
_cell_volume 755.589138
_symmetry_space_group_name_H-M "P -1"
_symmetry_group_IT_number 2
_symmetry_cell_setting 'triclinic'
loop_
_space_group_symop_operation_xyz
x,y,z
-x,-y,-z
loop_
_atom_site_type_symbol
_atom_site_label
_atom_site_fract_x
_atom_site_fract_y
_atom_site_fract_z
Si Si1 0.222712 0.523934 0.106317
Si Si2 0.665871 0.181792 0.986723
Si Si3 0.684782 0.776151 0.673035
Si Si4 0.571110 0.635019 0.400001
Si Si5 0.959670 0.476390 0.252901
Si Si6 0.465604 0.450254 0.068881
Si Si7 0.183419 0.291012 0.631118
Si Si8 0.002393 0.884349 0.423113
O O1 0.324652 0.328611 0.247999
O O2 0.427036 0.552983 0.290950
O O3 0.129391 0.531503 0.923503
O O4 0.968332 0.689805 0.923239
O O5 0.598465 0.193043 0.823301
O O6 0.659000 0.358235 0.993587
O O7 0.450798 0.222036 0.856387
O O8 0.902917 0.998303 0.241046
O O9 0.624194 0.700963 0.535346
O O10 0.500000 0.000000 0.500000
O O11 0.830728 0.503583 0.581566
O O12 0.090348 0.306921 0.445456
O O13 0.701722 0.614400 0.070345
O O14 0.726303 0.296939 0.342750
O O15 0.500000 0.500000 0.000000
O O16 0.000000 0.500000 0.500000
O O17 0.156701 0.171395 0.677610
O O18 0.000000 0.000000 0.500000
#
# Coordination Sequence:
#
# PCOD9008979 Si02
#       8
#     2   2   2   2   2   2   2   2
#     4  10  21  44  72  97 134 172 210 264 332 399
#     4  11  22  40  60  91 130 168 223 271 321 381
#     4  10  23  45  71 105 131 166 210 263 334 406
#     4  10  22  42  71  97 136 173 212 274 331 394
#     4  10  21  39  66  95 130 174 224 271 323 381
#     4  12  20  40  63  88 128 180 223 274 324 369
#     4  11  21  39  61  87 128 174 226 273 318 380
#     4  12  24  37  61  89 122 180 227 271 329 377
#
# _framework density 21.175528
#
# number of rings (size 3 to 8) (size 9 to 14) (size 15 to 20)
#    0.000    1.250    5.000    0.750    0.000    0.500 
#    4.500    1.250    0.000    0.000    0.000    0.000 
#    0.000    0.000    0.000    0.000    0.000    0.000 
#
# Total GULP energy -89201.093006 kJ/mol
# GULP energy per Si atom -5575.068313 kJ/mol
# Density = 2.112733 g / cm^3
# Si number density = 21.175528 Si / 1000 Ang^3
#
#
#
# Elastic Constant Matrix: (Units=GPa)
#
#
# Indices 1 2 3 4 5 6 
#
# 1 103.2513 37.3182 58.1340 4.1234 3.4848 30.5555
# 2 37.3182 78.5974 47.8611 5.1345 5.0150 22.3356
# 3 58.1340 47.8611 147.5677 -3.1186 -3.4154 25.0184
# 4 4.1234 5.1345 -3.1186 40.3962 9.6413 -2.0335
# 5 3.4848 5.0150 -3.4154 9.6413 44.7535 16.1030
# 6 30.5555 22.3356 25.0184 -2.0335 16.1030 32.6239
#
#
#
# Elastic Compliance Matrix: (Units=1/GPa)
#
#
# Indices 1 2 3 4 5 6 
#
# 1 0.016377 -0.001768 -0.003509 -0.003455 0.004368 -0.013809
# 2 -0.001768 0.018620 -0.003795 -0.003386 0.001837 -0.009300
# 3 -0.003509 -0.003795 0.009935 0.000927 0.002262 -0.002793
# 4 -0.003455 -0.003386 0.000927 0.028438 -0.009470 0.011290
# 5 0.004368 0.001837 0.002262 -0.009470 0.032554 -0.023742
# 6 -0.013809 -0.009300 -0.002793 0.011290 -0.023742 0.064517
#
#
# Mechanical properties :
#
#
# Convention : Reuss Voigt Hill
#
# Bulk Modulus (GPa) = 37.32973 68.44923 52.88948
# Shear Modulus (GPa) = 25.31456 35.96159 30.63807
#
# Velocity S-wave (km/s) = 3.46130 4.12547 3.80789
# Velocity P-wave (km/s) = 5.80009 7.42210 6.66065
#
# Compressibility (1/GPa) = 0.02678830
#
# Stress axis : x y z
#
# Youngs Moduli (GPa) = 61.06218 53.70520 100.65155
#
# Poissons Ratio (x) = 0.09494 0.35319
# Poissons Ratio (y) = 0.10795 0.38198
# Poissons Ratio (z) = 0.21427 0.20381
#
# Static dielectric constant tensor:
#      x y z
#    x 1.827920 0.004570 0.020880 
#    y 0.004570 1.794860 0.025320 
#    z 0.020880 0.025320 1.781840 
# 
# From -- ./inp_files/529713.got.cif
#   From: 2010.05.17/outbox.cif.g08.bks.cpg/sg2_265_cif.got.tgz:529713.got - 2010.06.03 11:33:40.
