data_PCOD9008256
_publ_section_title
;
Structure prediction by ZEFSAII (Michael W. Deem and Ramdas Pophale) SiO2 
 PCOD9008256
Probable space group: P -1
;
_chemical_formula_sum "Si O2"
_cell_formula_units_Z 14
_cell_length_a 14.024232
_cell_length_b 14.620504
_cell_length_c 5.517989
_cell_angle_alpha 85.920025
_cell_angle_beta 93.652794
_cell_angle_gamma 28.651905
_cell_volume 521.962987
_symmetry_space_group_name_H-M "P -1"
_symmetry_group_IT_number 2
_symmetry_cell_setting 'triclinic'
loop_
_space_group_symop_operation_xyz
x,y,z
-x,-y,-z
loop_
_atom_site_type_symbol
_atom_site_label
_atom_site_fract_x
_atom_site_fract_y
_atom_site_fract_z
Si Si1 0.088839 0.219146 0.303491
Si Si2 0.679826 0.289326 0.378883
Si Si3 0.963858 0.930783 0.783627
Si Si4 0.726643 0.770366 0.504881
Si Si5 0.522035 0.090462 0.932665
Si Si6 0.748386 0.587544 0.833588
Si Si7 0.747078 0.396010 0.711946
O O1 0.051517 0.146222 0.377942
O O2 0.150389 0.241024 0.513054
O O3 0.277033 0.059644 0.165035
O O4 0.893993 0.422404 0.091759
O O5 0.686344 0.385545 0.475817
O O6 0.464926 0.441704 0.200097
O O7 0.864235 0.139840 0.244586
O O8 0.751798 0.162307 0.637630
O O9 0.054186 0.810581 0.070046
O O10 0.679300 0.735573 0.302728
O O11 0.824088 0.623221 0.752989
O O12 0.500000 0.000000 0.500000
O O13 0.475874 0.195627 0.130661
O O14 0.500000 0.000000 0.000000
O O15 0.748248 0.504178 0.658907
#
# Coordination Sequence:
#
# PCOD9008256 Si02
#       7
#     2   2   2   2   2   2   2
#     4  10  23  43  63  95 132 161 215 265 306 391
#     4  10  22  43  69  89 132 167 212 268 326 377
#     4  10  22  43  64  99 126 167 215 264 323 382
#     4  10  21  39  64  91 128 163 211 259 308 384
#     4  11  23  41  63  90 127 172 208 256 320 372
#     4  11  23  43  63  95 128 165 214 260 320 380
#     4  10  23  42  66  96 128 165 215 268 317 391
#
# _framework density 26.821823999999999
#
# number of rings (size 3 to 8) (size 9 to 14) (size 15 to 20)
#    0.000    1.714    2.857    1.286    4.000    2.857 
#   23.143    0.000    0.000    0.000    0.000    0.000 
#    0.000    0.000    0.000    0.000    0.000    0.000 
#
# Total GULP energy -78107.254485 kJ/mol
# GULP energy per Si atom -5579.089606 kJ/mol
# Density = 2.676078 g / cm^3
# Si number density = 26.821824 Si / 1000 Ang^3
#
#
#
# Elastic Constant Matrix: (Units=GPa)
#
#
# Indices 1 2 3 4 5 6 
#
# 1 139.2472 46.0688 12.8668 -11.6047 4.6952 19.8065
# 2 46.0688 121.0644 18.3944 -12.6902 2.8934 30.0535
# 3 12.8668 18.3944 53.3971 -18.0721 0.4161 17.0487
# 4 -11.6047 -12.6902 -18.0721 31.4786 3.1209 3.3663
# 5 4.6952 2.8934 0.4161 3.1209 31.9271 5.7797
# 6 19.8065 30.0535 17.0487 3.3663 5.7797 51.2175
#
#
#
# Elastic Compliance Matrix: (Units=1/GPa)
#
#
# Indices 1 2 3 4 5 6 
#
# 1 0.008512 -0.002493 0.000353 0.002643 -0.000924 -0.002016
# 2 -0.002493 0.011091 0.000075 0.004220 0.000007 -0.005847
# 3 0.000353 0.000075 0.027845 0.017296 -0.000200 -0.010563
# 4 0.002643 0.004220 0.017296 0.045976 -0.003336 -0.011900
# 5 -0.000924 0.000007 -0.000200 -0.003336 0.032330 -0.003009
# 6 -0.002016 -0.005847 -0.010563 -0.011900 -0.003009 0.028373
#
#
# Mechanical properties :
#
#
# Convention : Reuss Voigt Hill
#
# Bulk Modulus (GPa) = 23.08569 52.04095 37.56332
# Shear Modulus (GPa) = 28.95269 38.68322 33.81796
#
# Velocity S-wave (km/s) = 3.28906 3.80179 3.55468
# Velocity P-wave (km/s) = 4.80100 6.22222 5.55723
#
# Compressibility (1/GPa) = 0.04331688
#
# Stress axis : x y z
#
# Youngs Moduli (GPa) = 117.48402 90.16292 35.91372
#
# Poissons Ratio (x) = 0.22479 -0.01268
# Poissons Ratio (y) = 0.29291 -0.00269
# Poissons Ratio (z) = -0.04146 -0.00676
#
# Static dielectric constant tensor:
#      x y z
#    x 2.065060 -0.092970 -0.061230 
#    y -0.092970 2.207670 0.179270 
#    z -0.061230 0.179270 2.874230 
# 
# From -- ./inp_files/98131.got.cif
#   From: 2010.05.17/outbox.cif.g08.bks.cpg/sg2_50_cif.got.tgz:98131.got - 2010.06.03 11:33:40.
