data_PCOD9008284
_publ_section_title
;
Structure prediction by ZEFSAII (Michael W. Deem and Ramdas Pophale) SiO2 
 PCOD9008284
Probable space group: P -1
;
_chemical_formula_sum "Si O2"
_cell_formula_units_Z 16
_cell_length_a 14.964951
_cell_length_b 11.587318
_cell_length_c 9.522039
_cell_angle_alpha 134.117592
_cell_angle_beta 109.862502
_cell_angle_gamma 42.818694
_cell_volume 754.679466
_symmetry_space_group_name_H-M "P -1"
_symmetry_group_IT_number 2
_symmetry_cell_setting 'triclinic'
loop_
_space_group_symop_operation_xyz
x,y,z
-x,-y,-z
loop_
_atom_site_type_symbol
_atom_site_label
_atom_site_fract_x
_atom_site_fract_y
_atom_site_fract_z
Si Si1 0.000806 0.317674 0.277658
Si Si2 0.815467 0.040001 0.703088
Si Si3 0.998206 0.294747 0.716262
Si Si4 0.536224 0.119325 0.038101
Si Si5 0.835920 0.829068 0.041672
Si Si6 0.286275 0.359549 0.753632
Si Si7 0.577309 0.109697 0.722334
Si Si8 0.761343 0.417092 0.806160
O O1 0.847679 0.458097 0.262156
O O2 0.000000 0.500000 0.500000
O O3 0.101701 0.200864 0.099353
O O4 0.067968 0.103993 0.236181
O O5 0.673517 0.144483 0.779998
O O6 0.791214 0.229452 0.762270
O O7 0.890585 0.828017 0.452543
O O8 0.899519 0.573771 0.892294
O O9 0.884742 0.293309 0.656401
O O10 0.093234 0.155051 0.786103
O O11 0.391241 0.398745 0.189474
O O12 0.579774 0.047518 0.834450
O O13 0.500000 0.000000 0.000000
O O14 0.668549 0.032393 0.113765
O O15 0.413476 0.328816 0.781394
O O16 0.357061 0.104990 0.528371
O O17 0.241552 0.430810 0.953177
#
# Coordination Sequence:
#
# PCOD9008284 Si02
#       8
#     2   2   2   2   2   2   2   2
#     4  12  20  39  65  96 120 161 223 259 306 373
#     4  12  25  41  65  94 136 171 203 266 323 381
#     4  11  23  40  64  94 131 165 213 266 321 365
#     4  11  22  40  67  93 126 166 215 263 312 381
#     4  11  21  38  68  94 117 164 223 265 301 373
#     4  10  21  39  64  92 127 161 213 267 301 377
#     4  10  22  39  64  97 126 164 217 260 320 367
#     4  11  25  42  62  95 134 170 207 258 332 376
#
# _framework density 21.201053000000002
#
# number of rings (size 3 to 8) (size 9 to 14) (size 15 to 20)
#    0.000    1.000    6.250    0.375    1.750    3.500 
#    0.000    0.625    0.000    0.000    0.000    0.000 
#    0.000    0.000    0.000    0.000    0.000    0.000 
#
# Total GULP energy -89293.828039 kJ/mol
# GULP energy per Si atom -5580.864252 kJ/mol
# Density = 2.115280 g / cm^3
# Si number density = 21.201053 Si / 1000 Ang^3
#
#
#
# Elastic Constant Matrix: (Units=GPa)
#
#
# Indices 1 2 3 4 5 6 
#
# 1 95.9360 52.0421 7.8368 7.0725 -29.0100 -9.9618
# 2 52.0421 162.6892 -4.6482 4.4477 -5.2810 -32.6792
# 3 7.8368 -4.6482 19.6730 -4.6592 -10.8010 -8.3672
# 4 7.0725 4.4477 -4.6592 24.0222 3.5916 -1.8565
# 5 -29.0100 -5.2810 -10.8010 3.5916 24.3200 1.8669
# 6 -9.9618 -32.6792 -8.3672 -1.8565 1.8669 49.6061
#
#
#
# Elastic Compliance Matrix: (Units=1/GPa)
#
#
# Indices 1 2 3 4 5 6 
#
# 1 0.022758 -0.006107 0.002720 -0.009326 0.028438 -0.000414
# 2 -0.006107 0.009325 0.005864 0.002198 -0.003450 0.006118
# 3 0.002720 0.005864 0.081532 0.009566 0.038003 0.017089
# 4 -0.009326 0.002198 0.009566 0.048154 -0.013779 0.003509
# 5 0.028438 -0.003450 0.038003 -0.013779 0.092756 0.005842
# 6 -0.000414 0.006118 0.017089 0.003509 0.005842 0.026900
#
#
# Mechanical properties :
#
#
# Convention : Reuss Voigt Hill
#
# Bulk Modulus (GPa) = 8.43397 43.19552 25.81474
# Shear Modulus (GPa) = 15.82308 34.46082 25.14195
#
# Velocity S-wave (km/s) = 2.73488 4.03604 3.44740
# Velocity P-wave (km/s) = 3.73624 6.49137 5.29610
#
# Compressibility (1/GPa) = 0.11856813
#
# Stress axis : x y z
#
# Youngs Moduli (GPa) = 43.93977 107.24211 12.26513
#
# Poissons Ratio (x) = 0.65497 -0.03336
# Poissons Ratio (y) = 0.26836 -0.07193
# Poissons Ratio (z) = -0.11950 -0.62890
#
# Static dielectric constant tensor:
#      x y z
#    x 1.768880 -0.010390 0.013740 
#    y -0.010390 1.791350 -0.030990 
#    z 0.013740 -0.030990 1.859170 
# 
# From -- ./inp_files/308412.got.cif
#   From: 2010.05.17/outbox.cif.g08.bks.cpg/sg2_155_cif.got.tgz:308412.got - 2010.06.03 11:33:40.
