data_PCOD9008242
_publ_section_title
;
Structure prediction by ZEFSAII (Michael W. Deem and Ramdas Pophale) SiO2 
 PCOD9008242
Probable space group: P -1
;
_chemical_formula_sum "Si O2"
_cell_formula_units_Z 16
_cell_length_a 18.835724
_cell_length_b 12.463414
_cell_length_c 10.598093
_cell_angle_alpha 64.743071
_cell_angle_beta 131.520282
_cell_angle_gamma 153.535001
_cell_volume 719.073658
_symmetry_space_group_name_H-M "P -1"
_symmetry_group_IT_number 2
_symmetry_cell_setting 'triclinic'
loop_
_space_group_symop_operation_xyz
x,y,z
-x,-y,-z
loop_
_atom_site_type_symbol
_atom_site_label
_atom_site_fract_x
_atom_site_fract_y
_atom_site_fract_z
Si Si1 0.104383 0.576535 0.928471
Si Si2 0.387284 0.098473 0.633439
Si Si3 0.304662 0.645130 0.921734
Si Si4 0.846898 0.136913 0.029737
Si Si5 0.425748 0.905326 0.669693
Si Si6 0.353961 0.582871 0.657016
Si Si7 0.006007 0.859161 0.331990
Si Si8 0.783069 0.646598 0.658714
O O1 0.170752 0.592009 0.868763
O O2 0.897281 0.275367 0.896687
O O3 0.098856 0.712162 0.866220
O O4 0.311026 0.776408 0.165780
O O5 0.598264 0.401004 0.666018
O O6 0.318153 0.912305 0.551634
O O7 0.190038 0.964184 0.497787
O O8 0.482790 0.148104 0.848711
O O9 0.364425 0.765770 0.796240
O O10 0.156763 0.362205 0.862949
O O11 0.586805 0.812367 0.883339
O O12 0.010054 0.210701 0.175587
O O13 0.366364 0.741201 0.577620
O O14 0.332073 0.494543 0.542546
O O15 0.145021 0.313717 0.633443
O O16 0.122946 0.116862 0.325033
#
# Coordination Sequence:
#
# PCOD9008242 Si02
#       8
#     2   2   2   2   2   2   2   2
#     4   9  17  36  61  95 122 151 202 259 312 372
#     4  11  23  41  66  95 127 162 207 268 313 367
#     4  10  21  40  67  93 125 166 204 260 319 373
#     4  10  21  39  64  91 126 160 206 258 318 367
#     4   9  19  40  65  98 123 158 210 253 328 379
#     4  10  25  42  63  93 127 165 213 260 310 378
#     4  11  27  43  60  93 129 172 220 245 305 381
#     4  12  25  42  65  92 127 173 211 258 307 369
#
# _framework density 22.250851000000001
#
# number of rings (size 3 to 8) (size 9 to 14) (size 15 to 20)
#    0.000    1.750    2.500    2.250    1.750    9.500 
#    0.000    0.000    0.000    0.000    0.000    0.000 
#    0.000    0.000    0.000    0.000    0.000    0.000 
#
# Total GULP energy -89450.822627 kJ/mol
# GULP energy per Si atom -5590.676414 kJ/mol
# Density = 2.220021 g / cm^3
# Si number density = 22.250851 Si / 1000 Ang^3
#
#
#
# Elastic Constant Matrix: (Units=GPa)
#
#
# Indices 1 2 3 4 5 6 
#
# 1 188.6625 144.7171 108.7613 41.8169 37.2751 -29.3857
# 2 144.7171 240.2106 109.4988 53.0889 41.3021 -40.5856
# 3 108.7613 109.4988 141.1933 41.6098 45.7430 -27.9213
# 4 41.8169 53.0889 41.6098 27.2652 11.1695 -8.9918
# 5 37.2751 41.3021 45.7430 11.1695 50.9254 4.9098
# 6 -29.3857 -40.5856 -27.9213 -8.9918 4.9098 51.8085
#
#
#
# Elastic Compliance Matrix: (Units=1/GPa)
#
#
# Indices 1 2 3 4 5 6 
#
# 1 0.012321 -0.004510 -0.005353 -0.001775 -0.000190 0.000280
# 2 -0.004510 0.010505 0.001048 -0.012021 -0.003959 0.004524
# 3 -0.005353 0.001048 0.021702 -0.019228 -0.012918 0.007367
# 4 -0.001775 -0.012021 -0.019228 0.085711 0.010184 -0.006876
# 5 -0.000190 -0.003959 -0.012918 0.010184 0.033472 -0.011575
# 6 0.000280 0.004524 0.007367 -0.006876 -0.011575 0.026879
#
#
# Mechanical properties :
#
#
# Convention : Reuss Voigt Hill
#
# Bulk Modulus (GPa) = 37.18010 144.00234 90.59122
# Shear Modulus (GPa) = 23.02188 39.80578 31.41383
#
# Velocity S-wave (km/s) = 3.22009 4.23419 3.76147
# Velocity P-wave (km/s) = 5.52911 9.42140 7.72443
#
# Compressibility (1/GPa) = 0.02689611
#
# Stress axis : x y z
#
# Youngs Moduli (GPa) = 81.16546 95.19530 46.07922
#
# Poissons Ratio (x) = 0.42937 0.24665
# Poissons Ratio (y) = 0.36609 -0.04828
# Poissons Ratio (z) = 0.43445 -0.09973
#
# Static dielectric constant tensor:
#      x y z
#    x 1.843990 0.011050 -0.001190 
#    y 0.011050 1.839240 0.009200 
#    z -0.001190 0.009200 1.852810 
# 
# From -- ./inp_files/285884.got.cif
#   From: 2010.05.17/outbox.cif.g08.bks.cpg/sg2_143_cif.got.tgz:285884.got - 2010.06.03 11:33:40.
