data_PCOD9008181
_publ_section_title
;
Structure prediction by ZEFSAII (Michael W. Deem and Ramdas Pophale) SiO2 
 PCOD9008181
Probable space group: P -1
;
_chemical_formula_sum "Si O2"
_cell_formula_units_Z 16
_cell_length_a 20.005736
_cell_length_b 6.772336
_cell_length_c 8.339699
_cell_angle_alpha 100.536392
_cell_angle_beta 43.682913
_cell_angle_gamma 120.670481
_cell_volume 637.464486
_symmetry_space_group_name_H-M "P -1"
_symmetry_group_IT_number 2
_symmetry_cell_setting 'triclinic'
loop_
_space_group_symop_operation_xyz
x,y,z
-x,-y,-z
loop_
_atom_site_type_symbol
_atom_site_label
_atom_site_fract_x
_atom_site_fract_y
_atom_site_fract_z
Si Si1 0.944677 0.498180 0.268320
Si Si2 0.140215 0.153565 0.266913
Si Si3 0.882900 0.565376 0.896714
Si Si4 0.649574 0.789793 0.223519
Si Si5 0.100271 0.093228 0.666316
Si Si6 0.345705 0.803128 0.574449
Si Si7 0.450377 0.502226 0.315750
Si Si8 0.270513 0.017473 0.458812
O O1 0.917857 0.696122 0.306007
O O2 0.041577 0.551172 0.240338
O O3 0.828023 0.243942 0.486475
O O4 0.000000 0.500000 0.000000
O O5 0.162182 0.399221 0.188771
O O6 0.173707 0.125391 0.382959
O O7 0.213329 0.089534 0.017947
O O8 0.000000 0.000000 0.500000
O O9 0.773317 0.418176 0.178649
O O10 0.977584 0.836070 0.840033
O O11 0.583773 0.629431 0.157160
O O12 0.610370 0.625320 0.425609
O O13 0.612449 0.979857 0.337711
O O14 0.181903 0.100175 0.664142
O O15 0.421220 0.702476 0.370551
O O16 0.313853 0.912482 0.501123
O O17 0.390415 0.282151 0.259350
#
# Coordination Sequence:
#
# PCOD9008181 Si02
#       8
#     2   2   2   2   2   2   2   2
#     4  11  22  34  57  89 119 159 199 248 296 352
#     4  10  22  42  60  84 125 164 196 240 294 363
#     4  10  22  35  57  90 119 157 196 243 300 354
#     4  10  22  39  62  92 119 156 201 245 303 355
#     4  10  24  39  55  83 128 161 198 238 298 362
#     4  11  20  34  63  92 120 149 196 253 306 349
#     4  10  21  39  64  89 122 151 197 262 301 342
#     4  10  22  37  57  87 120 153 200 244 302 351
#
# _framework density 25.099437999999999
#
# number of rings (size 3 to 8) (size 9 to 14) (size 15 to 20)
#    0.000    1.750    2.500    1.125    5.250    1.500 
#    4.500    0.625    0.000    1.500    0.000    0.000 
#    0.000    0.000    0.000    0.000    0.000    0.000 
#
# Total GULP energy -89109.126204 kJ/mol
# GULP energy per Si atom -5569.320388 kJ/mol
# Density = 2.504231 g / cm^3
# Si number density = 25.099438 Si / 1000 Ang^3
#
#
#
# Elastic Constant Matrix: (Units=GPa)
#
#
# Indices 1 2 3 4 5 6 
#
# 1 87.7117 30.8671 2.8999 -7.1350 -10.5836 -22.3766
# 2 30.8671 124.9078 13.3886 -16.2623 -5.9677 -36.8829
# 3 2.8999 13.3886 43.7523 -1.0256 -10.2796 -5.2246
# 4 -7.1350 -16.2623 -1.0256 25.9886 6.6299 -7.2930
# 5 -10.5836 -5.9677 -10.2796 6.6299 27.8715 -4.5969
# 6 -22.3766 -36.8829 -5.2246 -7.2930 -4.5969 49.7367
#
#
#
# Elastic Compliance Matrix: (Units=1/GPa)
#
#
# Indices 1 2 3 4 5 6 
#
# 1 0.014572 -0.000806 0.001714 0.004022 0.006241 0.007305
# 2 -0.000806 0.013028 -0.002190 0.010616 0.000917 0.010710
# 3 0.001714 -0.002190 0.026200 -0.001867 0.010720 0.002616
# 4 0.004022 0.010616 -0.001867 0.052496 -0.006643 0.016570
# 5 0.006241 0.000917 0.010720 -0.006643 0.045270 0.007824
# 6 0.007305 0.010710 0.002616 0.016570 0.007824 0.034762
#
#
# Mechanical properties :
#
#
# Convention : Reuss Voigt Hill
#
# Bulk Modulus (GPa) = 19.51789 38.96479 29.24134
# Shear Modulus (GPa) = 24.27522 34.66710 29.47116
#
# Velocity S-wave (km/s) = 3.11330 3.72047 3.43034
# Velocity P-wave (km/s) = 4.55155 5.83213 5.23117
#
# Compressibility (1/GPa) = 0.05123504
#
# Stress axis : x y z
#
# Youngs Moduli (GPa) = 68.62627 76.75592 38.16799
#
# Poissons Ratio (x) = 0.06186 -0.06541
# Poissons Ratio (y) = 0.05531 0.08360
# Poissons Ratio (z) = -0.11760 0.16811
#
# Static dielectric constant tensor:
#      x y z
#    x 2.128330 0.137140 0.050370 
#    y 0.137140 2.113150 0.008750 
#    z 0.050370 0.008750 1.974690 
# 
# From -- ./inp_files/468115.got.cif
#   From: 2010.05.17/outbox.cif.g08.bks.cpg/sg2_235_cif.got.tgz:468115.got - 2010.06.03 11:33:40.
