data_PCOD9008583
_publ_section_title
;
Structure prediction by ZEFSAII (Michael W. Deem and Ramdas Pophale) SiO2 
 PCOD9008583
Probable space group: P -1
;
_chemical_formula_sum "Si O2"
_cell_formula_units_Z 16
_cell_length_a 10.059186
_cell_length_b 8.986784
_cell_length_c 16.328769
_cell_angle_alpha 105.554199
_cell_angle_beta 144.404884
_cell_angle_gamma 82.722682
_cell_volume 816.649955
_symmetry_space_group_name_H-M "P -1"
_symmetry_group_IT_number 2
_symmetry_cell_setting 'triclinic'
loop_
_space_group_symop_operation_xyz
x,y,z
-x,-y,-z
loop_
_atom_site_type_symbol
_atom_site_label
_atom_site_fract_x
_atom_site_fract_y
_atom_site_fract_z
Si Si1 0.474201 0.580782 0.586739
Si Si2 0.250384 0.449446 0.119855
Si Si3 0.814505 0.902354 0.577047
Si Si4 0.269829 0.068522 0.906447
Si Si5 0.504213 0.422354 0.080567
Si Si6 0.577296 0.931131 0.636566
Si Si7 0.016591 0.426366 0.407976
Si Si8 0.034955 0.092271 0.948389
O O1 0.500000 0.500000 0.500000
O O2 0.609561 0.511925 0.719563
O O3 0.562566 0.767277 0.652658
O O4 0.203663 0.544641 0.468116
O O5 0.397679 0.500516 0.118423
O O6 0.180612 0.261788 0.056241
O O7 0.000000 0.500000 0.000000
O O8 0.657415 0.885104 0.578927
O O9 0.877461 0.735409 0.558130
O O10 0.660351 0.001922 0.461439
O O11 0.061804 0.007985 0.732826
O O12 0.170452 0.009922 0.936490
O O13 0.340905 0.254394 0.966517
O O14 0.500000 0.000000 0.000000
O O15 0.764999 0.402120 0.234855
O O16 0.500000 0.500000 0.000000
O O17 0.775935 0.076092 0.781419
O O18 0.000000 0.500000 0.500000
O O19 0.000000 0.000000 0.000000
#
# Coordination Sequence:
#
# PCOD9008583 Si02
#       8
#     2   2   2   2   2   2   2   2
#     4  12  25  41  69  99 134 181 223 272 336 403
#     4  11  26  43  67 100 134 172 225 277 329 401
#     4  10  22  41  67  96 129 172 219 274 330 392
#     4  10  21  40  65  91 123 166 217 263 324 394
#     4  11  26  44  67  97 134 177 220 277 337 399
#     4  10  22  40  67  98 127 169 224 273 326 395
#     4  12  25  44  67  94 142 178 217 275 340 398
#     4  10  21  39  65  91 126 164 211 270 327 380
#
# _framework density 19.592238999999999
#
# number of rings (size 3 to 8) (size 9 to 14) (size 15 to 20)
#    0.000    1.250    5.000    0.000    5.250    2.000 
#    0.000    0.625    0.000    0.000    0.000    0.000 
#    0.000    0.000    0.000    0.000    0.000    0.000 
#
# Total GULP energy -89166.309143 kJ/mol
# GULP energy per Si atom -5572.894321 kJ/mol
# Density = 1.954765 g / cm^3
# Si number density = 19.592239 Si / 1000 Ang^3
#
#
#
# Elastic Constant Matrix: (Units=GPa)
#
#
# Indices 1 2 3 4 5 6 
#
# 1 123.1840 32.0624 56.4610 -16.3506 2.2893 0.3216
# 2 32.0624 52.9916 30.3845 -12.4981 -8.0129 -3.4444
# 3 56.4610 30.3845 115.1345 -5.9153 4.0841 -14.3335
# 4 -16.3506 -12.4981 -5.9153 35.7548 0.1077 9.2788
# 5 2.2893 -8.0129 4.0841 0.1077 38.7463 -4.1365
# 6 0.3216 -3.4444 -14.3335 9.2788 -4.1365 36.0295
#
#
#
# Elastic Compliance Matrix: (Units=1/GPa)
#
#
# Indices 1 2 3 4 5 6 
#
# 1 0.012058 -0.003799 -0.005110 0.004325 -0.001375 -0.003775
# 2 -0.003799 0.026601 -0.005087 0.006829 0.006190 -0.000495
# 3 -0.005110 -0.005087 0.013095 -0.003360 -0.001538 0.005458
# 4 0.004325 0.006829 -0.003360 0.034240 0.000402 -0.009494
# 5 -0.001375 0.006190 -0.001538 0.000402 0.027658 0.003064
# 6 -0.003775 -0.000495 0.005458 -0.009494 0.003064 0.032709
#
#
# Mechanical properties :
#
#
# Convention : Reuss Voigt Hill
#
# Bulk Modulus (GPa) = 42.08404 58.79179 50.43791
# Shear Modulus (GPa) = 27.43103 33.59961 30.51532
#
# Velocity S-wave (km/s) = 3.74585 4.14568 3.95083
# Velocity P-wave (km/s) = 6.34311 7.27931 6.82728
#
# Compressibility (1/GPa) = 0.02376198
#
# Stress axis : x y z
#
# Youngs Moduli (GPa) = 82.93086 37.59238 76.36394
#
# Poissons Ratio (x) = 0.14282 0.39019
# Poissons Ratio (y) = 0.31508 0.38849
# Poissons Ratio (z) = 0.42375 0.19125
#
# Static dielectric constant tensor:
#      x y z
#    x 1.710030 -0.022480 -0.031750 
#    y -0.022480 1.754180 0.001060 
#    z -0.031750 0.001060 1.744620 
# 
# From -- ./inp_files/282655.got.cif
#   From: 2010.05.17/outbox.cif.g08.bks.cpg/sg2_142_cif.got.tgz:282655.got - 2010.06.03 11:33:40.
