data_PCOD9008665
_publ_section_title
;
Structure prediction by ZEFSAII (Michael W. Deem and Ramdas Pophale) SiO2 
 PCOD9008665
Probable space group: P -1
;
_chemical_formula_sum "Si O2"
_cell_formula_units_Z 15
_cell_length_a 18.305382
_cell_length_b 8.105428
_cell_length_c 11.677171
_cell_angle_alpha 129.726985
_cell_angle_beta 151.909098
_cell_angle_gamma 47.666519
_cell_volume 598.021357
_symmetry_space_group_name_H-M "P -1"
_symmetry_group_IT_number 2
_symmetry_cell_setting 'triclinic'
loop_
_space_group_symop_operation_xyz
x,y,z
-x,-y,-z
loop_
_atom_site_type_symbol
_atom_site_label
_atom_site_fract_x
_atom_site_fract_y
_atom_site_fract_z
Si Si1 0.263584 0.921864 0.620777
Si Si2 0.956121 0.270278 0.347849
Si Si3 0.889289 0.346206 0.546321
Si Si4 0.365606 0.817890 0.213089
Si Si5 0.429696 0.165059 0.118825
Si Si6 0.000000 0.500000 0.000000
Si Si7 0.332226 0.302849 0.286818
Si Si8 0.577870 0.687414 0.232104
O O1 0.224661 0.784880 0.612017
O O2 0.415174 0.776121 0.691328
O O3 0.091929 0.056560 0.386053
O O4 0.322396 0.124401 0.847585
O O5 0.955954 0.227208 0.466050
O O6 0.000000 0.500000 0.500000
O O7 0.780520 0.284071 0.058345
O O8 0.770916 0.589755 0.452787
O O9 0.998312 0.386939 0.818718
O O10 0.471249 0.750437 0.443831
O O11 0.511522 0.731281 0.286982
O O12 0.298755 0.082447 0.204436
O O13 0.327571 0.306149 0.143639
O O14 0.510590 0.917115 0.173748
O O15 0.190253 0.499539 0.237369
O O16 0.500000 0.500000 0.000000
#
# Coordination Sequence:
#
# PCOD9008665 Si02
#       8
#     2   2   2   2   2   1   2   2
#     4  11  23  41  64  95 131 178 218 281 333 394
#     4  12  25  42  67  99 132 174 231 281 330 397
#     4  12  23  40  65  94 134 173 223 274 334 394
#     4  10  21  39  65  93 132 169 224 265 334 392
#     4  10  22  40  65  95 134 170 225 270 336 394
#     4  12  24  40  66 100 132 172 228 264 346 396
#     4  10  21  41  65  97 129 176 216 277 326 408
#     4  11  18  37  67  93 121 174 216 270 322 402
#
# _framework density 25.082716999999999
#
# number of rings (size 3 to 8) (size 9 to 14) (size 15 to 20)
#    0.000    1.067    4.000    3.600    0.000    0.000 
#    2.400    1.333    0.000    0.000    0.000    0.000 
#    0.000    0.000    0.000    0.000    0.000    0.000 
#
# Total GULP energy -83610.283525 kJ/mol
# GULP energy per Si atom -5574.018902 kJ/mol
# Density = 2.502563 g / cm^3
# Si number density = 25.082717 Si / 1000 Ang^3
#
#
#
# Elastic Constant Matrix: (Units=GPa)
#
#
# Indices 1 2 3 4 5 6 
#
# 1 131.3079 8.8993 26.6021 3.5832 19.7823 -19.7137
# 2 8.8993 56.0066 -1.5325 -8.6986 17.4507 -0.1775
# 3 26.6021 -1.5325 147.9948 -0.0373 11.8897 2.9372
# 4 3.5832 -8.6986 -0.0373 35.9485 -3.2984 12.6304
# 5 19.7823 17.4507 11.8897 -3.2984 42.1019 5.6630
# 6 -19.7137 -0.1775 2.9372 12.6304 5.6630 38.8201
#
#
#
# Elastic Compliance Matrix: (Units=1/GPa)
#
#
# Indices 1 2 3 4 5 6 
#
# 1 0.009981 -0.000597 -0.001519 -0.004204 -0.005328 0.007326
# 2 -0.000597 0.021315 0.001015 0.004647 -0.008400 -0.000569
# 3 -0.001519 0.001015 0.007188 0.000734 -0.001501 -0.001330
# 4 -0.004204 0.004647 0.000734 0.034732 0.004462 -0.014120
# 5 -0.005328 -0.008400 -0.001501 0.004462 0.031681 -0.008704
# 6 0.007326 -0.000569 -0.001330 -0.014120 -0.008704 0.035442
#
#
# Mechanical properties :
#
#
# Convention : Reuss Voigt Hill
#
# Bulk Modulus (GPa) = 27.56098 44.80525 36.18312
# Shear Modulus (GPa) = 32.33432 43.46346 37.89889
#
# Velocity S-wave (km/s) = 3.59431 4.16721 3.89132
# Velocity P-wave (km/s) = 5.31388 6.40750 5.88614
#
# Compressibility (1/GPa) = 0.03628317
#
# Stress axis : x y z
#
# Youngs Moduli (GPa) = 100.18962 46.91507 139.12772
#
# Poissons Ratio (x) = 0.02801 0.21129
# Poissons Ratio (y) = 0.05982 -0.14127
# Poissons Ratio (z) = 0.15216 -0.04764
#
# Static dielectric constant tensor:
#      x y z
#    x 1.757000 0.061330 0.035740 
#    y 0.061330 2.021330 -0.063100 
#    z 0.035740 -0.063100 2.057900 
# 
# From -- ./inp_files/245214.got.cif
#   From: 2010.05.17/outbox.cif.g08.bks.cpg/sg2_123_cif.got.tgz:245214.got - 2010.06.03 11:33:40.
