data_PCOD9008313
_publ_section_title
;
Structure prediction by ZEFSAII (Michael W. Deem and Ramdas Pophale) SiO2 
 PCOD9008313
Probable space group: P -1
;
_chemical_formula_sum "Si O2"
_cell_formula_units_Z 16
_cell_length_a 13.177890
_cell_length_b 17.587372
_cell_length_c 9.843055
_cell_angle_alpha 33.253993
_cell_angle_beta 40.392732
_cell_angle_gamma 38.811153
_cell_volume 742.787114
_symmetry_space_group_name_H-M "P -1"
_symmetry_group_IT_number 2
_symmetry_cell_setting 'triclinic'
loop_
_space_group_symop_operation_xyz
x,y,z
-x,-y,-z
loop_
_atom_site_type_symbol
_atom_site_label
_atom_site_fract_x
_atom_site_fract_y
_atom_site_fract_z
Si Si1 0.522029 0.436584 0.421526
Si Si2 0.488131 0.838467 0.279544
Si Si3 0.842961 0.014529 0.233449
Si Si4 0.124446 0.033169 0.426933
Si Si5 0.839041 0.748891 0.149478
Si Si6 0.839411 0.780471 0.398625
Si Si7 0.780024 0.485873 0.884927
Si Si8 0.754821 0.353638 0.820982
O O1 0.500000 0.500000 0.500000
O O2 0.519762 0.269422 0.672340
O O3 0.367666 0.544832 0.321899
O O4 0.691125 0.435789 0.174304
O O5 0.656483 0.740153 0.339073
O O6 0.305418 0.890043 0.458599
O O7 0.500000 0.000000 0.000000
O O8 0.920778 0.942400 0.406739
O O9 0.761642 0.912912 0.389900
O O10 0.735029 0.193705 0.088650
O O11 0.000000 0.000000 0.000000
O O12 0.148078 0.170686 0.123038
O O13 0.000000 0.000000 0.500000
O O14 0.831796 0.838344 0.163671
O O15 0.013843 0.603278 0.196340
O O16 0.753020 0.660064 0.665065
O O17 0.043690 0.692279 0.349234
O O18 0.720339 0.436756 0.878126
#
# Coordination Sequence:
#
# PCOD9008313 Si02
#       8
#     2   2   2   2   2   2   2   2
#     4  12  26  41  60  95 129 160 207 264 315 367
#     4  10  23  41  63  90 124 162 205 256 308 371
#     4  10  22  38  61  95 127 163 209 261 312 362
#     4  11  21  38  64  93 125 167 209 251 309 376
#     4  10  21  40  65  89 119 164 215 257 305 377
#     4  10  21  39  64  93 123 163 211 262 314 366
#     4  11  22  40  66  90 121 170 210 253 316 382
#     4  10  21  41  63  87 125 167 208 256 311 377
#
# _framework density 21.540492
#
# number of rings (size 3 to 8) (size 9 to 14) (size 15 to 20)
#    0.000    1.500    0.000    7.125    0.000    9.000 
#    0.000    3.125    0.000    0.000    0.000    0.000 
#    0.000    0.000    0.000    0.000    0.000    0.000 
#
# Total GULP energy -89247.778402 kJ/mol
# GULP energy per Si atom -5577.986150 kJ/mol
# Density = 2.149147 g / cm^3
# Si number density = 21.540492 Si / 1000 Ang^3
#
#
#
# Elastic Constant Matrix: (Units=GPa)
#
#
# Indices 1 2 3 4 5 6 
#
# 1 122.5511 69.6788 51.0074 7.5009 3.0468 21.0930
# 2 69.6788 94.7392 62.1118 -12.8802 -6.3382 37.7912
# 3 51.0074 62.1118 96.4396 -18.1292 10.5365 30.9085
# 4 7.5009 -12.8802 -18.1292 40.2522 9.3471 -13.4870
# 5 3.0468 -6.3382 10.5365 9.3471 36.7145 3.2897
# 6 21.0930 37.7912 30.9085 -13.4870 3.2897 52.3058
#
#
#
# Elastic Compliance Matrix: (Units=1/GPa)
#
#
# Indices 1 2 3 4 5 6 
#
# 1 0.016234 -0.011929 -0.002771 -0.007234 -0.000940 0.001903
# 2 -0.011929 0.033055 -0.012086 0.000591 0.011132 -0.012478
# 3 -0.002771 -0.012086 0.022668 0.009159 -0.010647 -0.000515
# 4 -0.007234 0.000591 0.009159 0.035534 -0.011597 0.006970
# 5 -0.000940 0.011132 -0.010647 -0.011597 0.035838 -0.006616
# 6 0.001903 -0.012478 -0.000515 0.006970 -0.006616 0.029884
#
#
# Mechanical properties :
#
#
# Convention : Reuss Voigt Hill
#
# Bulk Modulus (GPa) = 54.38737 75.48067 64.93402
# Shear Modulus (GPa) = 21.46731 34.58328 28.02530
#
# Velocity S-wave (km/s) = 3.16033 4.01122 3.61092
# Velocity P-wave (km/s) = 6.21455 7.52134 6.89895
#
# Compressibility (1/GPa) = 0.01838662
#
# Stress axis : x y z
#
# Youngs Moduli (GPa) = 61.59872 30.25272 44.11463
#
# Poissons Ratio (x) = 0.36089 0.12222
# Poissons Ratio (y) = 0.73482 0.53315
# Poissons Ratio (z) = 0.17066 0.36562
#
# Static dielectric constant tensor:
#      x y z
#    x 1.792320 -0.007850 -0.042250 
#    y -0.007850 1.818660 0.003690 
#    z -0.042250 0.003690 1.787910 
# 
# From -- ./inp_files/271450.got.cif
#   From: 2010.05.17/outbox.cif.g08.bks.cpg/sg2_136_cif.got.tgz:271450.got - 2010.06.03 11:33:40.
