data_PCOD9008699
_publ_section_title
;
Structure prediction by ZEFSAII (Michael W. Deem and Ramdas Pophale) SiO2 
 PCOD9008699
Probable space group: P -1
;
_chemical_formula_sum "Si O2"
_cell_formula_units_Z 16
_cell_length_a 11.213912
_cell_length_b 9.324123
_cell_length_c 9.759334
_cell_angle_alpha 43.076470
_cell_angle_beta 92.429387
_cell_angle_gamma 75.474321
_cell_volume 634.163567
_symmetry_space_group_name_H-M "P -1"
_symmetry_group_IT_number 2
_symmetry_cell_setting 'triclinic'
loop_
_space_group_symop_operation_xyz
x,y,z
-x,-y,-z
loop_
_atom_site_type_symbol
_atom_site_label
_atom_site_fract_x
_atom_site_fract_y
_atom_site_fract_z
Si Si1 0.605271 0.950589 0.828963
Si Si2 0.374117 0.524356 0.127380
Si Si3 0.043024 0.438616 0.348539
Si Si4 0.396208 0.881391 0.700527
Si Si5 0.760653 0.325589 0.720712
Si Si6 0.798310 0.737240 0.768910
Si Si7 0.171618 0.161282 0.797473
Si Si8 0.607169 0.684677 0.271487
O O1 0.502163 0.975914 0.686366
O O2 0.747105 0.869971 0.818647
O O3 0.535681 0.178580 0.760771
O O4 0.602427 0.745120 0.069124
O O5 0.518606 0.345005 0.224042
O O6 0.357155 0.532914 0.281301
O O7 0.267922 0.445056 0.110742
O O8 0.344964 0.775531 0.894889
O O9 0.131639 0.575663 0.303367
O O10 0.065013 0.378913 0.229120
O O11 0.088464 0.224318 0.607828
O O12 0.900671 0.617901 0.260658
O O13 0.282436 0.069473 0.480823
O O14 0.696057 0.422610 0.502766
O O15 0.814976 0.063451 0.959756
O O16 0.309218 0.175968 0.764916
#
# Coordination Sequence:
#
# PCOD9008699 Si02
#       8
#     2   2   2   2   2   2   2   2
#     4  10  19  34  50  69 101 133 161 198 239 284
#     4   9  17  26  45  73  95 120 153 192 240 291
#     4   9  19  32  53  78  96 121 161 203 246 287
#     4  10  17  29  48  72 100 124 153 197 245 287
#     4  10  17  31  51  72  98 126 157 199 245 283
#     4  10  18  32  51  72  99 125 155 202 247 281
#     4  10  19  34  52  74 100 126 160 201 240 286
#     4  10  21  34  48  70 100 133 166 194 232 291
#
# _framework density 25.230083
#
# number of rings (size 3 to 8) (size 9 to 14) (size 15 to 20)
#    0.000    2.250    0.000    6.375    0.000    0.000 
#    0.000   11.250    0.000    0.750    0.000    0.000 
#    0.000    0.000    0.000    0.000    0.000    0.000 
#
# Total GULP energy -89320.290208 kJ/mol
# GULP energy per Si atom -5582.518138 kJ/mol
# Density = 2.517266 g / cm^3
# Si number density = 25.230083 Si / 1000 Ang^3
#
#
#
# Elastic Constant Matrix: (Units=GPa)
#
#
# Indices 1 2 3 4 5 6 
#
# 1 30.6538 21.9587 15.3251 -2.1649 -15.1563 -6.7734
# 2 21.9587 105.7536 19.1940 7.8910 -4.1424 -31.3908
# 3 15.3251 19.1940 154.0971 -12.3933 -13.6096 2.8566
# 4 -2.1649 7.8910 -12.3933 45.2414 4.4547 -13.3496
# 5 -15.1563 -4.1424 -13.6096 4.4547 29.4516 4.0763
# 6 -6.7734 -31.3908 2.8566 -13.3496 4.0763 40.9104
#
#
#
# Elastic Compliance Matrix: (Units=1/GPa)
#
#
# Indices 1 2 3 4 5 6 
#
# 1 0.052902 -0.010073 -0.001694 0.001069 0.025000 -0.000994
# 2 -0.010073 0.014633 -0.001465 0.000093 -0.005230 0.010215
# 3 -0.001694 -0.001465 0.007185 0.001429 0.002257 -0.001665
# 4 0.001069 0.000093 0.001429 0.025526 -0.003864 0.008863
# 5 0.025000 -0.005230 0.002257 -0.003864 0.048560 -0.006131
# 6 -0.000994 0.010215 -0.001665 0.008863 -0.006131 0.035736
#
#
# Mechanical properties :
#
#
# Convention : Reuss Voigt Hill
#
# Bulk Modulus (GPa) = 20.72199 44.82888 32.77544
# Shear Modulus (GPa) = 22.01760 38.72245 30.37002
#
# Velocity S-wave (km/s) = 2.95731 3.92187 3.47323
# Velocity P-wave (km/s) = 4.46004 6.18988 5.39475
#
# Compressibility (1/GPa) = 0.04825790
#
# Stress axis : x y z
#
# Youngs Moduli (GPa) = 18.90295 68.33687 139.16979
#
# Poissons Ratio (x) = 0.68833 0.23577
# Poissons Ratio (y) = 0.19040 0.20385
# Poissons Ratio (z) = 0.03202 0.10009
#
# Static dielectric constant tensor:
#      x y z
#    x 2.013290 -0.007430 -0.009980 
#    y -0.007430 2.088440 0.012230 
#    z -0.009980 0.012230 2.038620 
# 
# From -- ./inp_files/306237.got.cif
#   From: 2010.05.17/outbox.cif.g08.bks.cpg/sg2_154_cif.got.tgz:306237.got - 2010.06.03 11:33:40.
