data_PCOD9008905
_publ_section_title
;
Structure prediction by ZEFSAII (Michael W. Deem and Ramdas Pophale) SiO2 
 PCOD9008905
Probable space group: P -1
;
_chemical_formula_sum "Si O2"
_cell_formula_units_Z 14
_cell_length_a 10.618024
_cell_length_b 13.125345
_cell_length_c 17.497552
_cell_angle_alpha 145.867296
_cell_angle_beta 52.556022
_cell_angle_gamma 149.114148
_cell_volume 656.525848
_symmetry_space_group_name_H-M "P -1"
_symmetry_group_IT_number 2
_symmetry_cell_setting 'triclinic'
loop_
_space_group_symop_operation_xyz
x,y,z
-x,-y,-z
loop_
_atom_site_type_symbol
_atom_site_label
_atom_site_fract_x
_atom_site_fract_y
_atom_site_fract_z
Si Si1 0.238912 0.278357 0.692189
Si Si2 0.173818 0.656759 0.763820
Si Si3 0.284868 0.676338 0.020136
Si Si4 0.292441 0.346600 0.547403
Si Si5 0.366695 0.772577 0.230172
Si Si6 0.510737 0.184473 0.554297
Si Si7 0.919583 0.279683 0.329873
O O1 0.395600 0.423213 0.643654
O O2 0.298229 0.141596 0.625490
O O3 0.293358 0.490714 0.860441
O O4 0.940266 0.007148 0.604166
O O5 0.176681 0.444396 0.644497
O O6 0.154926 0.685438 0.699004
O O7 0.916420 0.519734 0.808581
O O8 0.455474 0.981186 0.891662
O O9 0.313369 0.704273 0.118262
O O10 0.000000 0.500000 0.000000
O O11 0.500000 0.500000 0.500000
O O12 0.441865 0.036815 0.404754
O O13 0.651052 0.932482 0.237539
O O14 0.792755 0.542267 0.678690
O O15 0.500000 0.000000 0.500000
O O16 0.000000 0.500000 0.500000
#
# Coordination Sequence:
#
# PCOD9008905 Si02
#       7
#     2   2   2   2   2   2   2
#     4  11  25  42  62 100 131 165 221 276 317 385
#     4  11  21  41  64  92 127 175 219 257 329 395
#     4  11  25  41  65  94 138 175 209 264 334 388
#     4  11  24  38  64  93 130 166 221 275 318 383
#     4  10  21  39  66  92 124 172 216 262 323 388
#     4  11  20  42  71  95 127 172 221 273 324 380
#     4   9  20  33  64  92 119 163 215 269 313 372
#
# _framework density 21.324372
#
# number of rings (size 3 to 8) (size 9 to 14) (size 15 to 20)
#    0.000    1.429    2.857    1.714    8.000    3.429 
#    0.000    3.571    0.000    0.000    0.000    0.000 
#    0.000    0.000    0.000    0.000    0.000    0.000 
#
# Total GULP energy -77977.985832 kJ/mol
# GULP energy per Si atom -5569.856131 kJ/mol
# Density = 2.127584 g / cm^3
# Si number density = 21.324372 Si / 1000 Ang^3
#
#
#
# Elastic Constant Matrix: (Units=GPa)
#
#
# Indices 1 2 3 4 5 6 
#
# 1 73.8635 25.9564 45.5861 -5.3914 12.9883 5.7517
# 2 25.9564 143.0244 47.2183 7.7208 17.7195 12.9135
# 3 45.5861 47.2183 139.7578 -1.3334 20.2079 2.3370
# 4 -5.3914 7.7208 -1.3334 37.2472 3.4397 18.7130
# 5 12.9883 17.7195 20.2079 3.4397 32.1852 4.5829
# 6 5.7517 12.9135 2.3370 18.7130 4.5829 30.7225
#
#
#
# Elastic Compliance Matrix: (Units=1/GPa)
#
#
# Indices 1 2 3 4 5 6 
#
# 1 0.018507 -0.001068 -0.005010 0.005917 -0.003554 -0.005709
# 2 -0.001068 0.008443 -0.002107 -0.000483 -0.002483 -0.002524
# 3 -0.005010 -0.002107 0.009936 -0.000594 -0.003266 0.001917
# 4 0.005917 -0.000483 -0.000594 0.040719 -0.002500 -0.025288
# 5 -0.003554 -0.002483 -0.003266 -0.002500 0.036468 -0.001960
# 6 -0.005709 -0.002524 0.001917 -0.025288 -0.001960 0.050229
#
#
# Mechanical properties :
#
#
# Convention : Reuss Voigt Hill
#
# Bulk Modulus (GPa) = 48.74541 66.01859 57.38200
# Shear Modulus (GPa) = 26.66505 35.88999 31.27752
#
# Velocity S-wave (km/s) = 3.54001 4.10695 3.83397
# Velocity P-wave (km/s) = 6.29424 7.31545 6.82398
#
# Compressibility (1/GPa) = 0.02051475
#
# Stress axis : x y z
#
# Youngs Moduli (GPa) = 54.03264 118.44078 100.64562
#
# Poissons Ratio (x) = 0.12655 0.50422
# Poissons Ratio (y) = 0.05773 0.21210
# Poissons Ratio (z) = 0.27070 0.24961
#
# Static dielectric constant tensor:
#      x y z
#    x 1.816670 0.024270 0.016200 
#    y 0.024270 1.940600 0.026520 
#    z 0.016200 0.026520 1.734040 
# 
# From -- ./inp_files/569808.got.cif
#   From: 2010.05.17/outbox.cif.g08.bks.cpg/sg2_285_cif.got.tgz:569808.got - 2010.06.03 11:33:40.
