data_PCOD9008220
_publ_section_title
;
Structure prediction by ZEFSAII (Michael W. Deem and Ramdas Pophale) SiO2 
 PCOD9008220
Probable space group: P -1
;
_chemical_formula_sum "Si O2"
_cell_formula_units_Z 16
_cell_length_a 8.636666
_cell_length_b 20.971309
_cell_length_c 26.349690
_cell_angle_alpha 18.691697
_cell_angle_beta 149.634992
_cell_angle_gamma 142.845682
_cell_volume 767.064395
_symmetry_space_group_name_H-M "P -1"
_symmetry_group_IT_number 2
_symmetry_cell_setting 'triclinic'
loop_
_space_group_symop_operation_xyz
x,y,z
-x,-y,-z
loop_
_atom_site_type_symbol
_atom_site_label
_atom_site_fract_x
_atom_site_fract_y
_atom_site_fract_z
Si Si1 0.961767 0.609058 0.183070
Si Si2 0.224488 0.962975 0.043406
Si Si3 0.893087 0.352643 0.622568
Si Si4 0.264758 0.282407 0.449029
Si Si5 0.515220 0.194860 0.475254
Si Si6 0.636768 0.532825 0.872576
Si Si7 0.357147 0.877734 0.596787
Si Si8 0.159905 0.323585 0.549476
O O1 0.590097 0.638116 0.061196
O O2 0.095369 0.810315 0.082943
O O3 0.100802 0.504846 0.249786
O O4 0.076734 0.435746 0.388116
O O5 0.548445 0.845750 0.241003
O O6 0.000000 0.000000 0.000000
O O7 0.183565 0.184249 0.841478
O O8 0.592607 0.256377 0.590746
O O9 0.802466 0.492762 0.540150
O O10 0.000000 0.500000 0.500000
O O11 0.335620 0.257378 0.428532
O O12 0.008390 0.136094 0.500913
O O13 0.433719 0.344952 0.291822
O O14 0.874583 0.213164 0.571009
O O15 0.440188 0.981001 0.594371
O O16 0.524376 0.658436 0.796446
O O17 0.000000 0.500000 0.000000
O O18 0.500000 0.000000 0.500000
#
# Coordination Sequence:
#
# PCOD9008220 Si02
#       8
#     2   2   2   2   2   2   2   2
#     4  10  21  40  64  95 132 170 227 279 325 392
#     4  12  24  38  68  96 124 185 232 264 328 397
#     4  12  25  43  65  98 141 174 220 279 339 390
#     4  11  21  40  65  90 132 176 209 282 337 384
#     4  10  21  39  64  90 130 174 211 271 341 389
#     4   9  20  38  64  89 125 169 215 275 327 388
#     4   9  20  39  62  91 118 164 218 261 321 392
#     4  11  22  44  65  95 138 176 223 280 322 397
#
# _framework density 20.858744999999999
#
# number of rings (size 3 to 8) (size 9 to 14) (size 15 to 20)
#    0.000    1.500    3.750    2.250    0.000    3.500 
#    0.000    3.750    0.000    0.000    0.000    0.000 
#    0.000    0.000    0.000    0.000    0.000    0.000 
#
# Total GULP energy -89255.928658 kJ/mol
# GULP energy per Si atom -5578.495541 kJ/mol
# Density = 2.081127 g / cm^3
# Si number density = 20.858745 Si / 1000 Ang^3
#
#
#
# Elastic Constant Matrix: (Units=GPa)
#
#
# Indices 1 2 3 4 5 6 
#
# 1 116.4552 48.5549 34.0830 -0.9824 25.4088 -12.9545
# 2 48.5549 113.5149 25.5726 9.7552 18.7258 -1.2528
# 3 34.0830 25.5726 102.8834 8.8485 17.8921 9.3702
# 4 -0.9824 9.7552 8.8485 26.8363 10.3816 11.9059
# 5 25.4088 18.7258 17.8921 10.3816 29.3272 -1.3066
# 6 -12.9545 -1.2528 9.3702 11.9059 -1.3066 43.5524
#
#
#
# Elastic Compliance Matrix: (Units=1/GPa)
#
#
# Indices 1 2 3 4 5 6 
#
# 1 0.013350 -0.004046 -0.002516 0.005116 -0.009138 0.002723
# 2 -0.004046 0.011354 -0.000855 -0.003255 -0.002065 0.000135
# 3 -0.002516 -0.000855 0.011895 -0.000478 -0.004511 -0.003337
# 4 0.005116 -0.003255 -0.000478 0.053157 -0.021487 -0.013645
# 5 -0.009138 -0.002065 -0.004511 -0.021487 0.053945 0.005686
# 6 0.002723 0.000135 -0.003337 -0.013645 0.005686 0.028393
#
#
# Mechanical properties :
#
#
# Convention : Reuss Voigt Hill
#
# Bulk Modulus (GPa) = 45.94331 61.03050 53.48690
# Shear Modulus (GPa) = 25.74877 34.91937 30.33407
#
# Velocity S-wave (km/s) = 3.51726 4.09600 3.81762
# Velocity P-wave (km/s) = 6.21036 7.18972 6.71791
#
# Compressibility (1/GPa) = 0.02176596
#
# Stress axis : x y z
#
# Youngs Moduli (GPa) = 74.90678 88.07139 84.06737
#
# Poissons Ratio (x) = 0.35631 0.21150
# Poissons Ratio (y) = 0.30305 0.07190
# Poissons Ratio (z) = 0.18845 0.07533
#
# Static dielectric constant tensor:
#      x y z
#    x 1.765540 0.010780 -0.006930 
#    y 0.010780 1.827030 0.009180 
#    z -0.006930 0.009180 1.787430 
# 
# From -- ./inp_files/617513.got.cif
#   From: 2010.05.17/outbox.cif.g08.bks.cpg/sg2_309_cif.got.tgz:617513.got - 2010.06.03 11:33:40.
