data_PCOD9008644
_publ_section_title
;
Structure prediction by ZEFSAII (Michael W. Deem and Ramdas Pophale) SiO2 
 PCOD9008644
Probable space group: P -1
;
_chemical_formula_sum "Si O2"
_cell_formula_units_Z 16
_cell_length_a 8.957872
_cell_length_b 12.627577
_cell_length_c 15.042155
_cell_angle_alpha 153.765894
_cell_angle_beta 109.259201
_cell_angle_gamma 62.404761
_cell_volume 650.442275
_symmetry_space_group_name_H-M "P -1"
_symmetry_group_IT_number 2
_symmetry_cell_setting 'triclinic'
loop_
_space_group_symop_operation_xyz
x,y,z
-x,-y,-z
loop_
_atom_site_type_symbol
_atom_site_label
_atom_site_fract_x
_atom_site_fract_y
_atom_site_fract_z
Si Si1 0.057130 0.054026 0.909520
Si Si2 0.779412 0.953656 0.879530
Si Si3 0.463548 0.284146 0.164272
Si Si4 0.102800 0.216328 0.524783
Si Si5 0.400844 0.313425 0.723317
Si Si6 0.255306 0.553360 0.481685
Si Si7 0.895480 0.515563 0.861516
Si Si8 0.280152 0.603420 0.102350
O O1 0.039692 0.258410 0.982205
O O2 0.889812 0.996989 0.854687
O O3 0.222090 0.790681 0.719681
O O4 0.102364 0.138813 0.078143
O O5 0.720428 0.718390 0.671379
O O6 0.623701 0.216138 0.078616
O O7 0.403535 0.491619 0.389937
O O8 0.288771 0.375572 0.142502
O O9 0.500000 0.000000 0.000000
O O10 0.237106 0.359088 0.660970
O O11 0.933178 0.338715 0.522979
O O12 0.200929 0.910715 0.294450
O O13 0.025945 0.260666 0.643607
O O14 0.548449 0.426239 0.829950
O O15 0.500000 0.000000 0.500000
O O16 0.332295 0.415106 0.885635
O O17 0.149257 0.537735 0.089087
#
# Coordination Sequence:
#
# PCOD9008644 Si02
#       8
#     2   2   2   2   2   2   2   2
#     4  11  22  38  65  90 129 163 214 253 313 374
#     4  10  21  42  63  89 127 169 205 267 310 360
#     4   9  18  41  61  83 129 161 200 264 309 358
#     4  10  21  40  65  91 123 163 207 257 310 374
#     4   9  21  44  64  88 123 159 212 259 315 369
#     4  10  21  39  65  93 125 163 212 259 311 376
#     4  11  22  40  60  96 127 161 214 255 309 381
#     4  10  22  41  67  89 127 167 200 261 315 369
#
# _framework density 24.598647
#
# number of rings (size 3 to 8) (size 9 to 14) (size 15 to 20)
#    0.000    2.000    3.750    0.750    1.750    2.000 
#   13.500    0.000    2.750    0.000    0.000    0.000 
#    0.000    0.000    0.000    0.000    0.000    0.000 
#
# Total GULP energy -89378.906972 kJ/mol
# GULP energy per Si atom -5586.181686 kJ/mol
# Density = 2.454266 g / cm^3
# Si number density = 24.598647 Si / 1000 Ang^3
#
#
#
# Elastic Constant Matrix: (Units=GPa)
#
#
# Indices 1 2 3 4 5 6 
#
# 1 130.5416 22.1070 52.6495 -5.0598 -15.9793 7.5151
# 2 22.1070 80.7011 19.9390 4.3423 2.5611 -12.5521
# 3 52.6495 19.9390 179.2951 11.1983 -17.2531 16.3699
# 4 -5.0598 4.3423 11.1983 23.8576 -16.8939 -2.9748
# 5 -15.9793 2.5611 -17.2531 -16.8939 34.2097 6.3745
# 6 7.5151 -12.5521 16.3699 -2.9748 6.3745 37.8795
#
#
#
# Elastic Compliance Matrix: (Units=1/GPa)
#
#
# Indices 1 2 3 4 5 6 
#
# 1 0.011147 -0.003990 -0.002192 0.011164 0.010563 -0.003487
# 2 -0.003990 0.015887 -0.001681 -0.008868 -0.009719 0.007722
# 3 -0.002192 -0.001681 0.007113 -0.002408 0.002200 -0.003756
# 4 0.011164 -0.008868 -0.002408 0.077455 0.043924 -0.005422
# 5 0.010563 -0.009719 0.002200 0.043924 0.060103 -0.012932
# 6 -0.003487 0.007722 -0.003756 -0.005422 -0.012932 0.033024
#
#
# Mechanical properties :
#
#
# Convention : Reuss Voigt Hill
#
# Bulk Modulus (GPa) = 54.29121 64.43652 59.36387
# Shear Modulus (GPa) = 22.06584 38.91218 30.48901
#
# Velocity S-wave (km/s) = 2.99830 3.98160 3.52441
# Velocity P-wave (km/s) = 5.83996 6.88401 6.38337
#
# Compressibility (1/GPa) = 0.01841919
#
# Stress axis : x y z
#
# Youngs Moduli (GPa) = 89.71352 62.94623 140.58756
#
# Poissons Ratio (x) = 0.25117 0.30815
# Poissons Ratio (y) = 0.35798 0.23638
# Poissons Ratio (z) = 0.19664 0.10584
#
# Static dielectric constant tensor:
#      x y z
#    x 1.979670 -0.078590 0.009110 
#    y -0.078590 2.032010 -0.036020 
#    z 0.009110 -0.036020 1.944760 
# 
# From -- ./inp_files/577804.got.cif
#   From: 2010.05.17/outbox.cif.g08.bks.cpg/sg2_289_cif.got.tgz:577804.got - 2010.06.03 11:33:40.
