data_PCOD9008275
_publ_section_title
;
Structure prediction by ZEFSAII (Michael W. Deem and Ramdas Pophale) SiO2 
 PCOD9008275
Probable space group: P -1
;
_chemical_formula_sum "Si O2"
_cell_formula_units_Z 16
_cell_length_a 12.390266
_cell_length_b 8.620272
_cell_length_c 14.947274
_cell_angle_alpha 109.787835
_cell_angle_beta 115.944711
_cell_angle_gamma 29.446151
_cell_volume 702.478521
_symmetry_space_group_name_H-M "P -1"
_symmetry_group_IT_number 2
_symmetry_cell_setting 'triclinic'
loop_
_space_group_symop_operation_xyz
x,y,z
-x,-y,-z
loop_
_atom_site_type_symbol
_atom_site_label
_atom_site_fract_x
_atom_site_fract_y
_atom_site_fract_z
Si Si1 0.246296 0.303585 0.800086
Si Si2 0.993537 0.585810 0.111099
Si Si3 0.626971 0.824440 0.707726
Si Si4 0.164166 0.302098 0.398286
Si Si5 0.817757 0.962738 0.485490
Si Si6 0.307325 0.615086 0.355285
Si Si7 0.852623 0.238845 0.862990
Si Si8 0.668235 0.458452 0.030772
O O1 0.207744 0.230626 0.857817
O O2 0.364310 0.330814 0.887536
O O3 0.011409 0.590847 0.711421
O O4 0.409562 0.040305 0.730939
O O5 0.211131 0.265361 0.183876
O O6 0.035813 0.725690 0.129934
O O7 0.000000 0.500000 0.000000
O O8 0.613755 0.925836 0.627839
O O9 0.754285 0.502939 0.673120
O O10 0.230810 0.121064 0.473895
O O11 0.023937 0.633294 0.441027
O O12 0.581399 0.294618 0.414810
O O13 0.855524 0.080087 0.583155
O O14 0.271099 0.698036 0.254147
O O15 0.685266 0.464359 0.930931
O O16 0.071453 0.885684 0.910537
O O17 0.500000 0.500000 0.000000
#
# Coordination Sequence:
#
# PCOD9008275 Si02
#       8
#     2   2   2   2   2   2   2   2
#     4  11  22  41  64  96 134 169 220 266 326 390
#     4  10  21  39  64  92 122 175 213 270 314 383
#     4  10  23  38  63  94 132 168 219 266 329 389
#     4  10  22  42  66  96 129 174 219 276 323 394
#     4  10  21  41  70  92 128 173 223 269 336 386
#     4  10  21  42  65  97 127 170 215 282 321 388
#     4  10  23  44  63  95 134 167 224 269 325 393
#     4  11  25  40  65  96 133 179 213 262 332 402
#
# _framework density 22.776496999999999
#
# number of rings (size 3 to 8) (size 9 to 14) (size 15 to 20)
#    0.000    1.750    2.500    0.750    1.750    5.500 
#    2.250    0.000    0.000    0.000    0.000    0.000 
#    0.000    0.000    0.000    0.000    0.000    0.000 
#
# Total GULP energy -89102.741664 kJ/mol
# GULP energy per Si atom -5568.921354 kJ/mol
# Density = 2.272466 g / cm^3
# Si number density = 22.776497 Si / 1000 Ang^3
#
#
#
# Elastic Constant Matrix: (Units=GPa)
#
#
# Indices 1 2 3 4 5 6 
#
# 1 104.4065 28.0410 47.2744 28.5035 -24.3630 -12.8912
# 2 28.0410 67.9184 30.5699 8.9286 -8.8434 0.7217
# 3 47.2744 30.5699 124.3117 8.8092 -9.5775 -4.4807
# 4 28.5035 8.9286 8.8092 38.3148 2.6960 -1.7316
# 5 -24.3630 -8.8434 -9.5775 2.6960 44.3477 6.0895
# 6 -12.8912 0.7217 -4.4807 -1.7316 6.0895 19.7248
#
#
#
# Elastic Compliance Matrix: (Units=1/GPa)
#
#
# Indices 1 2 3 4 5 6 
#
# 1 0.018784 -0.003036 -0.004589 -0.012459 0.008430 0.007649
# 2 -0.003036 0.017872 -0.003137 -0.001500 0.001867 -0.004058
# 3 -0.004589 -0.003137 0.010351 0.001834 -0.001014 -0.000059
# 4 -0.012459 -0.001500 0.001834 0.035823 -0.008671 -0.001849
# 5 0.008430 0.001867 -0.001014 -0.008671 0.028456 -0.004336
# 6 0.007649 -0.004058 -0.000059 -0.001849 -0.004336 0.057008
#
#
# Mechanical properties :
#
#
# Convention : Reuss Voigt Hill
#
# Bulk Modulus (GPa) = 39.23967 56.48968 47.86468
# Shear Modulus (GPa) = 25.21309 33.19422 29.20366
#
# Velocity S-wave (km/s) = 3.33074 3.82172 3.58464
# Velocity P-wave (km/s) = 5.66192 6.65805 6.18009
#
# Compressibility (1/GPa) = 0.02548441
#
# Stress axis : x y z
#
# Youngs Moduli (GPa) = 53.23728 55.95309 96.61369
#
# Poissons Ratio (x) = 0.16985 0.44334
# Poissons Ratio (y) = 0.16160 0.30305
# Poissons Ratio (z) = 0.24429 0.17551
#
# Static dielectric constant tensor:
#      x y z
#    x 1.958390 -0.000210 0.090840 
#    y -0.000210 1.952920 0.023330 
#    z 0.090840 0.023330 1.947510 
# 
# From -- ./inp_files/515947.got.cif
#   From: 2010.05.17/outbox.cif.g08.bks.cpg/sg2_258_cif.got.tgz:515947.got - 2010.06.03 11:33:40.
