data_PCOD9008847
_publ_section_title
;
Structure prediction by ZEFSAII (Michael W. Deem and Ramdas Pophale) SiO2 
 PCOD9008847
Probable space group: P -1
;
_chemical_formula_sum "Si O2"
_cell_formula_units_Z 16
_cell_length_a 9.179264
_cell_length_b 9.483523
_cell_length_c 16.484618
_cell_angle_alpha 104.736805
_cell_angle_beta 110.156644
_cell_angle_gamma 33.559605
_cell_volume 743.210754
_symmetry_space_group_name_H-M "P -1"
_symmetry_group_IT_number 2
_symmetry_cell_setting 'triclinic'
loop_
_space_group_symop_operation_xyz
x,y,z
-x,-y,-z
loop_
_atom_site_type_symbol
_atom_site_label
_atom_site_fract_x
_atom_site_fract_y
_atom_site_fract_z
Si Si1 0.182886 0.068649 0.448731
Si Si2 0.748005 0.967186 0.186016
Si Si3 0.316366 0.703295 0.687233
Si Si4 0.142382 0.444304 0.100244
Si Si5 0.661682 0.888519 0.770866
Si Si6 0.495516 0.739251 0.296926
Si Si7 0.435064 0.394840 0.433270
Si Si8 0.920723 0.573255 0.609222
O O1 0.343951 0.879004 0.373547
O O2 0.337866 0.891183 0.530642
O O3 0.175055 0.248158 0.456789
O O4 0.891546 0.218791 0.401059
O O5 0.628246 0.949378 0.229227
O O6 0.981010 0.707754 0.142734
O O7 0.827601 0.057114 0.256356
O O8 0.467567 0.217089 0.119194
O O9 0.436576 0.482259 0.732709
O O10 0.542798 0.601753 0.658350
O O11 0.136961 0.324339 0.151972
O O12 0.000000 0.500000 0.000000
O O13 0.657277 0.063226 0.776774
O O14 0.749510 0.752477 0.682208
O O15 0.774593 0.614244 0.342233
O O16 0.500000 0.500000 0.500000
O O17 0.154534 0.537700 0.429197
#
# Coordination Sequence:
#
# PCOD9008847 Si02
#       8
#     2   2   2   2   2   2   2   2
#     4  10  23  38  56  80 122 169 217 269 330 371
#     4  10  22  38  69  97 128 172 207 267 316 381
#     4  11  23  40  60  89 129 164 221 269 324 389
#     4  10  21  39  66 104 134 161 206 261 320 384
#     4   9  20  36  65  91 120 168 211 255 310 387
#     4  10  21  40  59  88 120 174 215 265 318 390
#     4  12  22  39  57  86 119 167 217 286 328 363
#     4  10  21  40  57  84 120 168 222 261 321 390
#
# _framework density 21.528213999999998
#
# number of rings (size 3 to 8) (size 9 to 14) (size 15 to 20)
#    0.750    1.000    2.500    1.875    1.750    2.500 
#    4.500    0.000    0.000    1.500    0.000    0.000 
#    0.000    0.000    0.000    0.000    0.000    0.000 
#
# Total GULP energy -89401.907590 kJ/mol
# GULP energy per Si atom -5587.619224 kJ/mol
# Density = 2.147921 g / cm^3
# Si number density = 21.528214 Si / 1000 Ang^3
#
#
#
# Elastic Constant Matrix: (Units=GPa)
#
#
# Indices 1 2 3 4 5 6 
#
# 1 112.4165 42.5498 29.9865 0.3012 3.5922 18.1308
# 2 42.5498 120.6005 43.0899 2.1184 -5.4500 24.9833
# 3 29.9865 43.0899 82.1967 -4.9120 1.2539 28.7306
# 4 0.3012 2.1184 -4.9120 31.7228 -0.2714 0.2075
# 5 3.5922 -5.4500 1.2539 -0.2714 11.5516 -2.0530
# 6 18.1308 24.9833 28.7306 0.2075 -2.0530 38.2885
#
#
#
# Elastic Compliance Matrix: (Units=1/GPa)
#
#
# Indices 1 2 3 4 5 6 
#
# 1 0.011010 -0.003089 -0.001511 -0.000161 -0.005137 -0.002338
# 2 -0.003089 0.011785 -0.004308 -0.001352 0.006488 -0.002639
# 3 -0.001511 -0.004308 0.019160 0.003294 -0.005550 -0.011166
# 4 -0.000161 -0.001352 0.003294 0.032132 -0.000495 -0.001714
# 5 -0.005137 0.006488 -0.005550 -0.000495 0.093125 0.007359
# 6 -0.002338 -0.002639 -0.011166 -0.001714 0.007359 0.037729
#
#
# Mechanical properties :
#
#
# Convention : Reuss Voigt Hill
#
# Bulk Modulus (GPa) = 41.42956 60.71844 51.07400
# Shear Modulus (GPa) = 21.66348 29.61840 25.64094
#
# Velocity S-wave (km/s) = 3.17564 3.71319 3.45489
# Velocity P-wave (km/s) = 5.72122 6.83001 6.30006
#
# Compressibility (1/GPa) = 0.02413736
#
# Stress axis : x y z
#
# Youngs Moduli (GPa) = 90.83020 84.85569 52.19185
#
# Poissons Ratio (x) = 0.26216 0.07885
# Poissons Ratio (y) = 0.28062 0.22486
# Poissons Ratio (z) = 0.13722 0.36558
#
# Static dielectric constant tensor:
#      x y z
#    x 1.822290 -0.007890 0.009940 
#    y -0.007890 1.863390 0.011980 
#    z 0.009940 0.011980 1.743570 
# 
# From -- ./inp_files/51221.got.cif
#   From: 2010.05.17/outbox.cif.g08.bks.cpg/sg2_26_cif.got.tgz:51221.got - 2010.06.03 11:33:40.
