data_PCOD9008663
_publ_section_title
;
Structure prediction by ZEFSAII (Michael W. Deem and Ramdas Pophale) SiO2 
 PCOD9008663
Probable space group: P -1
;
_chemical_formula_sum "Si O2"
_cell_formula_units_Z 16
_cell_length_a 9.211498
_cell_length_b 10.457372
_cell_length_c 11.822450
_cell_angle_alpha 132.206078
_cell_angle_beta 92.595964
_cell_angle_gamma 62.020951
_cell_volume 678.618813
_symmetry_space_group_name_H-M "P -1"
_symmetry_group_IT_number 2
_symmetry_cell_setting 'triclinic'
loop_
_space_group_symop_operation_xyz
x,y,z
-x,-y,-z
loop_
_atom_site_type_symbol
_atom_site_label
_atom_site_fract_x
_atom_site_fract_y
_atom_site_fract_z
Si Si1 0.519715 0.166005 0.531344
Si Si2 0.138689 0.947370 0.640660
Si Si3 0.879366 0.141866 0.928162
Si Si4 0.096630 0.662942 0.302644
Si Si5 0.232047 0.064185 0.050576
Si Si6 0.570210 0.263646 0.828464
Si Si7 0.877016 0.488315 0.259868
Si Si8 0.606204 0.815589 0.045519
O O1 0.671090 0.092107 0.399095
O O2 0.583894 0.242338 0.682890
O O3 0.318181 0.357094 0.598633
O O4 0.500000 0.000000 0.500000
O O5 0.132133 0.769470 0.469414
O O6 0.075388 0.972490 0.781848
O O7 0.986282 0.172967 0.707608
O O8 0.756468 0.131746 0.824650
O O9 0.817429 0.096464 0.015625
O O10 0.854409 0.363744 0.082834
O O11 0.277510 0.430024 0.140863
O O12 0.943678 0.628511 0.305412
O O13 0.279193 0.106085 0.953198
O O14 0.050032 0.293083 0.217204
O O15 0.411287 0.974220 0.075027
O O16 0.500000 0.500000 0.000000
O O17 0.441903 0.203696 0.839572
#
# Coordination Sequence:
#
# PCOD9008663 Si02
#       8
#     2   2   2   2   2   2   2   2
#     4  12  25  41  62  98 135 164 199 265 332 388
#     4  11  23  40  62  95 133 167 203 255 334 385
#     4  11  23  39  67  91 125 169 221 265 300 382
#     4  10  21  39  65  93 131 164 205 262 333 379
#     4   9  21  41  62  92 124 169 222 260 311 360
#     4  11  20  37  65  99 125 163 214 258 324 376
#     4  11  23  42  65  92 130 165 215 268 311 371
#     4   9  19  38  68  93 124 166 219 267 304 379
#
# _framework density 23.577300999999999
#
# number of rings (size 3 to 8) (size 9 to 14) (size 15 to 20)
#    0.000    1.500    2.500    3.375    1.750    2.500 
#    0.000    3.125    2.750    0.000    0.000    0.000 
#    0.000    0.000    0.000    0.000    0.000    0.000 
#
# Total GULP energy -89283.529823 kJ/mol
# GULP energy per Si atom -5580.220614 kJ/mol
# Density = 2.352364 g / cm^3
# Si number density = 23.577301 Si / 1000 Ang^3
#
#
#
# Elastic Constant Matrix: (Units=GPa)
#
#
# Indices 1 2 3 4 5 6 
#
# 1 167.8632 49.6404 51.0751 3.7048 -18.2010 25.6887
# 2 49.6404 73.3960 32.3375 -0.6748 -17.7224 4.2462
# 3 51.0751 32.3375 72.9152 -1.3094 -15.2948 3.4489
# 4 3.7048 -0.6748 -1.3094 25.5283 0.9609 -18.4647
# 5 -18.2010 -17.7224 -15.2948 0.9609 47.8670 9.7632
# 6 25.6887 4.2462 3.4489 -18.4647 9.7632 49.5450
#
#
#
# Elastic Compliance Matrix: (Units=1/GPa)
#
#
# Indices 1 2 3 4 5 6 
#
# 1 0.010201 -0.003783 -0.004637 -0.007777 0.002804 -0.008093
# 2 -0.003783 0.019414 -0.005097 0.000735 0.004081 0.000122
# 3 -0.004637 -0.005097 0.019616 0.003055 0.002108 0.002199
# 4 -0.007777 0.000735 0.003055 0.061284 -0.008714 0.028314
# 5 0.002804 0.004081 0.002108 -0.008714 0.026440 -0.010408
# 6 -0.008093 0.000122 0.002199 0.028314 -0.010408 0.036819
#
#
# Mechanical properties :
#
#
# Convention : Reuss Voigt Hill
#
# Bulk Modulus (GPa) = 45.04819 64.47560 54.76190
# Shear Modulus (GPa) = 24.01481 36.66283 30.33882
#
# Velocity S-wave (km/s) = 3.19495 3.94763 3.59106
# Velocity P-wave (km/s) = 5.72349 6.94149 6.36170
#
# Compressibility (1/GPa) = 0.02219845
#
# Stress axis : x y z
#
# Youngs Moduli (GPa) = 98.03240 51.50965 50.97949
#
# Poissons Ratio (x) = 0.19484 0.23637
# Poissons Ratio (y) = 0.37082 0.25983
# Poissons Ratio (z) = 0.45453 0.26253
#
# Static dielectric constant tensor:
#      x y z
#    x 1.973390 -0.045720 0.009000 
#    y -0.045720 2.022160 -0.008050 
#    z 0.009000 -0.008050 1.880400 
# 
# From -- ./inp_files/500994.got.cif
#   From: 2010.05.17/outbox.cif.g08.bks.cpg/sg2_251_cif.got.tgz:500994.got - 2010.06.03 11:33:40.
