data_PCOD9008463
_publ_section_title
;
Structure prediction by ZEFSAII (Michael W. Deem and Ramdas Pophale) SiO2 
 PCOD9008463
Probable space group: P -1
;
_chemical_formula_sum "Si O2"
_cell_formula_units_Z 14
_cell_length_a 14.337025
_cell_length_b 9.376202
_cell_length_c 8.815039
_cell_angle_alpha 64.347890
_cell_angle_beta 90.320514
_cell_angle_gamma 135.199125
_cell_volume 662.446692
_symmetry_space_group_name_H-M "P -1"
_symmetry_group_IT_number 2
_symmetry_cell_setting 'triclinic'
loop_
_space_group_symop_operation_xyz
x,y,z
-x,-y,-z
loop_
_atom_site_type_symbol
_atom_site_label
_atom_site_fract_x
_atom_site_fract_y
_atom_site_fract_z
Si Si1 0.808099 0.779321 0.265019
Si Si2 0.089862 0.169970 0.272906
Si Si3 0.350130 0.354170 0.355735
Si Si4 0.848882 0.398364 0.024387
Si Si5 0.437215 0.249469 0.177412
Si Si6 0.644030 0.286950 0.308322
Si Si7 0.684302 0.920343 0.052033
O O1 0.728066 0.728865 0.444692
O O2 0.725682 0.514359 0.321949
O O3 0.781334 0.891994 0.100888
O O4 0.982888 0.983930 0.215277
O O5 0.246327 0.292768 0.252216
O O6 0.114086 0.389169 0.158879
O O7 0.000000 0.000000 0.500000
O O8 0.374773 0.208267 0.362973
O O9 0.513654 0.651908 0.224041
O O10 0.767365 0.340535 0.205793
O O11 0.740690 0.142767 0.044886
O O12 0.000000 0.500000 0.000000
O O13 0.569181 0.300185 0.174616
O O14 0.500000 0.500000 0.000000
O O15 0.319608 0.044063 0.142878
O O16 0.500000 0.000000 0.500000
#
# Coordination Sequence:
#
# PCOD9008463 Si02
#       7
#     2   2   2   2   2   2   2
#     4  11  22  42  69  98 136 192 227 280 358 422
#     4  10  24  42  67  99 139 180 236 283 349 420
#     4  10  21  39  71  98 134 181 237 285 345 419
#     4  12  26  44  67 105 144 183 230 295 351 417
#     4  10  21  39  64  99 130 172 229 287 334 406
#     4  12  27  42  70 110 143 175 244 297 341 416
#     4  11  22  40  71  95 134 186 234 279 357 411
#
# _framework density 21.133775
#
# number of rings (size 3 to 8) (size 9 to 14) (size 15 to 20)
#    0.000    1.143    4.286    3.000    2.000    6.286 
#    0.000    0.000    0.000    6.857    0.000    0.000 
#    0.000    0.000    0.000    0.000    0.000    0.000 
#
# Total GULP energy -78190.374382 kJ/mol
# GULP energy per Si atom -5585.026742 kJ/mol
# Density = 2.108567 g / cm^3
# Si number density = 21.133775 Si / 1000 Ang^3
#
#
#
# Elastic Constant Matrix: (Units=GPa)
#
#
# Indices 1 2 3 4 5 6 
#
# 1 119.6266 39.0443 23.8723 3.7616 -12.9342 11.5701
# 2 39.0443 146.5791 10.1576 14.2603 -5.5668 4.8488
# 3 23.8723 10.1576 59.7578 -2.4907 -8.8450 -1.2474
# 4 3.7616 14.2603 -2.4907 28.5386 -9.3691 -1.8288
# 5 -12.9342 -5.5668 -8.8450 -9.3691 26.5071 14.6313
# 6 11.5701 4.8488 -1.2474 -1.8288 14.6313 46.2673
#
#
#
# Elastic Compliance Matrix: (Units=1/GPa)
#
#
# Indices 1 2 3 4 5 6 
#
# 1 0.010895 -0.002425 -0.002949 0.001496 0.006938 -0.004685
# 2 -0.002425 0.007869 -0.000716 -0.004069 -0.001197 -0.000020
# 3 -0.002949 -0.000716 0.019221 0.004619 0.006811 -0.000640
# 4 0.001496 -0.004069 0.004619 0.043244 0.018972 -0.004113
# 5 0.006938 -0.001197 0.006811 0.018972 0.060829 -0.019912
# 6 -0.004685 -0.000020 -0.000640 -0.004113 -0.019912 0.028904
#
#
# Mechanical properties :
#
#
# Convention : Reuss Voigt Hill
#
# Bulk Modulus (GPa) = 38.75097 52.45686 45.60391
# Shear Modulus (GPa) = 26.07630 37.12188 31.59909
#
# Velocity S-wave (km/s) = 3.51646 4.19563 3.87097
# Velocity P-wave (km/s) = 5.90450 6.95315 6.45017
#
# Compressibility (1/GPa) = 0.02580581
#
# Stress axis : x y z
#
# Youngs Moduli (GPa) = 91.78103 127.08300 52.02597
#
# Poissons Ratio (x) = 0.30817 0.15342
# Poissons Ratio (y) = 0.22256 0.03725
# Poissons Ratio (z) = 0.27066 0.09099
#
# Static dielectric constant tensor:
#      x y z
#    x 1.852730 0.020280 -0.073140 
#    y 0.020280 1.802440 0.030170 
#    z -0.073140 0.030170 1.836350 
# 
# From -- ./inp_files/297695.got.cif
#   From: 2010.05.17/outbox.cif.g08.bks.cpg/sg2_149_cif.got.tgz:297695.got - 2010.06.03 11:33:40.
