data_PCOD9008023
_publ_section_title
;
Structure prediction by ZEFSAII (Michael W. Deem and Ramdas Pophale) SiO2 
 PCOD9008023
Probable space group: P -1
;
_chemical_formula_sum "Si O2"
_cell_formula_units_Z 16
_cell_length_a 15.797695
_cell_length_b 11.735424
_cell_length_c 5.456835
_cell_angle_alpha 87.318871
_cell_angle_beta 116.700959
_cell_angle_gamma 126.753787
_cell_volume 688.379989
_symmetry_space_group_name_H-M "P -1"
_symmetry_group_IT_number 2
_symmetry_cell_setting 'triclinic'
loop_
_space_group_symop_operation_xyz
x,y,z
-x,-y,-z
loop_
_atom_site_type_symbol
_atom_site_label
_atom_site_fract_x
_atom_site_fract_y
_atom_site_fract_z
Si Si1 0.994664 0.832548 0.912426
Si Si2 0.132692 0.209732 0.738971
Si Si3 0.433583 0.030322 0.218352
Si Si4 0.274241 0.998613 0.385351
Si Si5 0.202706 0.471071 0.492593
Si Si6 0.688182 0.207675 0.295478
Si Si7 0.583345 0.500834 0.406353
Si Si8 0.654599 0.761466 0.166250
O O1 0.932121 0.830598 0.079220
O O2 0.139179 0.933279 0.138841
O O3 0.958183 0.870526 0.609896
O O4 0.928321 0.658977 0.791592
O O5 0.202524 0.383813 0.735250
O O6 0.235404 0.190969 0.874778
O O7 0.547273 0.143350 0.171667
O O8 0.500000 0.000000 0.500000
O O9 0.373101 0.086450 0.283737
O O10 0.327022 0.872309 0.968737
O O11 0.272501 0.863084 0.463389
O O12 0.321193 0.102988 0.674319
O O13 0.224769 0.616121 0.590497
O O14 0.311746 0.515606 0.441152
O O15 0.500000 0.500000 0.500000
O O16 0.663263 0.668844 0.391973
O O17 0.481628 0.367423 0.104551
#
# Coordination Sequence:
#
# PCOD9008023 Si02
#       8
#     2   2   2   2   2   2   2   2
#     4  10  23  45  67  98 132 177 222 271 326 393
#     4   9  22  45  63  98 129 175 223 263 337 380
#     4   9  22  40  59  91 129 167 216 267 331 387
#     4  11  25  40  64  97 128 174 221 271 326 397
#     4   9  22  39  66  94 130 180 212 275 326 392
#     4  10  22  41  63  94 130 172 217 271 334 390
#     4  10  21  39  63  94 125 165 219 269 330 396
#     4  10  23  39  62  94 131 167 216 277 328 393
#
# _framework density 23.242978000000001
#
# number of rings (size 3 to 8) (size 9 to 14) (size 15 to 20)
#    0.750    1.500    0.000    0.750    8.750    3.500 
#    0.000    1.250    0.000    0.000    0.000    0.000 
#    0.000    0.000    0.000    0.000    0.000    0.000 
#
# Total GULP energy -89314.017703 kJ/mol
# GULP energy per Si atom -5582.126106 kJ/mol
# Density = 2.319008 g / cm^3
# Si number density = 23.242978 Si / 1000 Ang^3
#
#
#
# Elastic Constant Matrix: (Units=GPa)
#
#
# Indices 1 2 3 4 5 6 
#
# 1 116.1911 31.6631 34.1088 -5.8440 -3.9344 6.3177
# 2 31.6631 113.3375 35.3242 22.2259 -10.7055 -19.9784
# 3 34.1088 35.3242 110.9839 13.4367 -6.0130 3.7607
# 4 -5.8440 22.2259 13.4367 36.0162 2.7154 -5.3761
# 5 -3.9344 -10.7055 -6.0130 2.7154 40.7332 1.8254
# 6 6.3177 -19.9784 3.7607 -5.3761 1.8254 27.4089
#
#
#
# Elastic Compliance Matrix: (Units=1/GPa)
#
#
# Indices 1 2 3 4 5 6 
#
# 1 0.010843 -0.003891 -0.002530 0.004532 -0.000469 -0.004068
# 2 -0.003891 0.014170 -0.002628 -0.007130 0.002988 0.009989
# 3 -0.002530 -0.002628 0.011247 -0.003617 0.001130 -0.003660
# 4 0.004532 -0.007130 -0.003617 0.034782 -0.004350 0.001366
# 5 -0.000469 0.002988 0.001130 -0.004350 0.025767 -0.000438
# 6 -0.004068 0.009989 -0.003660 0.001366 -0.000438 0.045502
#
#
# Mechanical properties :
#
#
# Convention : Reuss Voigt Hill
#
# Bulk Modulus (GPa) = 55.05674 60.30053 57.67864
# Shear Modulus (GPa) = 30.03667 36.79274 33.41471
#
# Velocity S-wave (km/s) = 3.59874 3.98296 3.79572
# Velocity P-wave (km/s) = 6.40366 6.86672 6.63923
#
# Compressibility (1/GPa) = 0.01816308
#
# Stress axis : x y z
#
# Youngs Moduli (GPa) = 92.22697 70.56996 88.90883
#
# Poissons Ratio (x) = 0.27456 0.22497
# Poissons Ratio (y) = 0.35882 0.23364
# Poissons Ratio (z) = 0.23336 0.18544
#
# Static dielectric constant tensor:
#      x y z
#    x 1.916510 0.010480 -0.023200 
#    y 0.010480 1.946720 -0.046870 
#    z -0.023200 -0.046870 1.899470 
# 
# From -- ./inp_files/93946.got.cif
#   From: 2010.05.17/outbox.cif.g08.bks.cpg/sg2_47_cif.got.tgz:93946.got - 2010.06.03 11:33:40.
