data_PCOD9008869
_publ_section_title
;
Structure prediction by ZEFSAII (Michael W. Deem and Ramdas Pophale) SiO2 
 PCOD9008869
Probable space group: P -1
;
_chemical_formula_sum "Si O2"
_cell_formula_units_Z 12
_cell_length_a 7.674249
_cell_length_b 13.995832
_cell_length_c 14.024198
_cell_angle_alpha 158.980810
_cell_angle_beta 109.958434
_cell_angle_gamma 80.128392
_cell_volume 456.881989
_symmetry_space_group_name_H-M "P -1"
_symmetry_group_IT_number 2
_symmetry_cell_setting 'triclinic'
loop_
_space_group_symop_operation_xyz
x,y,z
-x,-y,-z
loop_
_atom_site_type_symbol
_atom_site_label
_atom_site_fract_x
_atom_site_fract_y
_atom_site_fract_z
Si Si1 0.183338 0.265741 0.727063
Si Si2 0.113180 0.797024 0.858198
Si Si3 0.440788 0.129795 0.991262
Si Si4 0.825839 0.548453 0.734467
Si Si5 0.331360 0.917225 0.306075
Si Si6 0.595172 0.485662 0.808148
O O1 0.209144 0.100328 0.486128
O O2 0.196325 0.569945 0.969577
O O3 0.353953 0.388245 0.958318
O O4 0.000000 0.000000 0.500000
O O5 0.352129 0.900686 0.972998
O O6 0.000000 0.500000 0.500000
O O7 0.045226 0.717252 0.882222
O O8 0.000000 0.000000 0.000000
O O9 0.329412 0.305531 0.190954
O O10 0.510628 0.344801 0.111588
O O11 0.269003 0.797787 0.631538
O O12 0.801447 0.566173 0.860170
O O13 0.500000 0.000000 0.500000
O O14 0.470593 0.131596 0.448695
#
# Coordination Sequence:
#
# PCOD9008869 Si02
#       6
#     2   2   2   2   2   2
#     4  11  23  40  63 100 130 180 234 285 338 388
#     4  12  26  46  73 105 138 172 231 281 340 430
#     4  10  24  44  69 100 138 182 224 276 362 389
#     4  10  24  44  69 100 138 181 230 273 358 403
#     4  10  21  39  66  88 128 182 228 272 343 393
#     4   9  23  43  65  89 142 180 234 279 339 417
#
# _framework density 26.264987000000001
#
# number of rings (size 3 to 8) (size 9 to 14) (size 15 to 20)
#    1.000    0.667    0.000    4.500    7.000    4.000 
#    6.000    0.000    0.000    0.000    0.000    0.000 
#    0.000    0.000    0.000    0.000    0.000    0.000 
#
# Total GULP energy -66918.854055 kJ/mol
# GULP energy per Si atom -5576.571171 kJ/mol
# Density = 2.620521 g / cm^3
# Si number density = 26.264987 Si / 1000 Ang^3
#
#
#
# Elastic Constant Matrix: (Units=GPa)
#
#
# Indices 1 2 3 4 5 6 
#
# 1 107.3301 2.8798 33.3885 18.2839 0.9393 9.1096
# 2 2.8798 75.0213 16.7507 35.1246 -3.6153 8.6223
# 3 33.3885 16.7507 172.8859 48.9858 -21.0796 -16.3052
# 4 18.2839 35.1246 48.9858 49.0435 -0.9094 -11.3165
# 5 0.9393 -3.6153 -21.0796 -0.9094 50.9473 2.3248
# 6 9.1096 8.6223 -16.3052 -11.3165 2.3248 50.8677
#
#
#
# Elastic Compliance Matrix: (Units=1/GPa)
#
#
# Indices 1 2 3 4 5 6 
#
# 1 0.011016 0.003270 -0.001088 -0.006354 -0.000340 -0.004274
# 2 0.003270 0.025373 0.003487 -0.025001 0.003169 -0.009476
# 3 -0.001088 0.003487 0.009352 -0.011385 0.003939 -0.000111
# 4 -0.006354 -0.025001 -0.011385 0.055221 -0.006034 0.014287
# 5 -0.000340 0.003169 0.003939 -0.006034 0.021451 -0.001536
# 6 -0.004274 -0.009476 -0.000111 0.014287 -0.001536 0.025243
#
#
# Mechanical properties :
#
#
# Convention : Reuss Voigt Hill
#
# Bulk Modulus (GPa) = 17.51996 51.25282 34.38639
# Shear Modulus (GPa) = 32.18618 50.31960 41.25289
#
# Velocity S-wave (km/s) = 3.50443 4.38178 3.96743
# Velocity P-wave (km/s) = 4.80204 6.71983 5.84020
#
# Compressibility (1/GPa) = 0.05707777
#
# Stress axis : x y z
#
# Youngs Moduli (GPa) = 90.77624 39.41247 106.92647
#
# Poissons Ratio (x) = -0.12888 0.11638
# Poissons Ratio (y) = -0.29684 -0.37282
# Poissons Ratio (z) = 0.09880 -0.13742
#
# Static dielectric constant tensor:
#      x y z
#    x 2.186560 0.034310 0.056590 
#    y 0.034310 2.174630 -0.063690 
#    z 0.056590 -0.063690 1.979290 
# 
# From -- ./inp_files/504825.got.cif
#   From: 2010.05.17/outbox.cif.g08.bks.cpg/sg2_253_cif.got.tgz:504825.got - 2010.06.03 11:33:40.
