data_PCOD9008254
_publ_section_title
;
Structure prediction by ZEFSAII (Michael W. Deem and Ramdas Pophale) SiO2 
 PCOD9008254
Probable space group: P -1
;
_chemical_formula_sum "Si O2"
_cell_formula_units_Z 14
_cell_length_a 9.848529
_cell_length_b 14.708535
_cell_length_c 13.771718
_cell_angle_alpha 42.936442
_cell_angle_beta 32.726941
_cell_angle_gamma 64.110885
_cell_volume 641.771470
_symmetry_space_group_name_H-M "P -1"
_symmetry_group_IT_number 2
_symmetry_cell_setting 'triclinic'
loop_
_space_group_symop_operation_xyz
x,y,z
-x,-y,-z
loop_
_atom_site_type_symbol
_atom_site_label
_atom_site_fract_x
_atom_site_fract_y
_atom_site_fract_z
Si Si1 0.984020 0.409443 0.344620
Si Si2 0.090999 0.928394 0.834066
Si Si3 0.362463 0.867052 0.550261
Si Si4 0.872859 0.577602 0.441065
Si Si5 0.961101 0.181973 0.692567
Si Si6 0.506322 0.127235 0.742719
Si Si7 0.283049 0.544778 0.860501
O O1 0.956050 0.543316 0.312246
O O2 0.689019 0.271682 0.586962
O O3 0.061175 0.318342 0.449662
O O4 0.190413 0.475466 0.077282
O O5 0.111336 0.840451 0.796905
O O6 0.358388 0.976604 0.706571
O O7 0.129696 0.089168 0.644890
O O8 0.780279 0.861769 0.122656
O O9 0.316878 0.869708 0.461006
O O10 0.419777 0.726183 0.640538
O O11 0.998806 0.745245 0.281393
O O12 0.527332 0.507160 0.705423
O O13 0.000000 0.500000 0.500000
O O14 0.632861 0.041567 0.994209
O O15 0.000000 0.500000 0.000000
#
# Coordination Sequence:
#
# PCOD9008254 Si02
#       7
#     2   2   2   2   2   2   2
#     4  11  24  41  66  94 134 169 212 272 332 374
#     4   9  22  38  65  90 125 165 222 260 323 382
#     4  11  21  41  60  95 124 171 208 270 327 378
#     4  10  24  46  66  95 132 178 218 257 328 394
#     4   9  21  44  63  91 124 171 223 261 307 396
#     4  10  21  39  64  91 128 161 216 267 316 384
#     4  12  25  41  65  97 136 163 218 269 323 393
#
# _framework density 21.814620000000001
#
# number of rings (size 3 to 8) (size 9 to 14) (size 15 to 20)
#    0.857    0.857    2.857    0.857    2.000    6.286 
#    5.143    0.714    0.000    0.000    0.000    0.000 
#    0.000    0.000    0.000    0.000    0.000    0.000 
#
# Total GULP energy -77963.790105 kJ/mol
# GULP energy per Si atom -5568.842150 kJ/mol
# Density = 2.176497 g / cm^3
# Si number density = 21.814620 Si / 1000 Ang^3
#
#
#
# Elastic Constant Matrix: (Units=GPa)
#
#
# Indices 1 2 3 4 5 6 
#
# 1 56.0933 19.8231 19.3876 0.2265 5.3666 10.6603
# 2 19.8231 90.2253 0.0493 18.4932 0.7654 8.3833
# 3 19.3876 0.0493 47.6717 10.1643 9.5463 0.9012
# 4 0.2265 18.4932 10.1643 21.2273 6.0734 -1.7287
# 5 5.3666 0.7654 9.5463 6.0734 40.3542 -3.0222
# 6 10.6603 8.3833 0.9012 -1.7287 -3.0222 36.4715
#
#
#
# Elastic Compliance Matrix: (Units=1/GPa)
#
#
# Indices 1 2 3 4 5 6 
#
# 1 0.026253 -0.007957 -0.012841 0.013145 -0.002665 -0.005125
# 2 -0.007957 0.016850 0.006882 -0.018583 0.001723 -0.002456
# 3 -0.012841 0.006882 0.030977 -0.019888 -0.002740 0.000236
# 4 0.013145 -0.018583 -0.019888 0.075204 -0.007721 0.003845
# 5 -0.002665 0.001723 -0.002740 -0.007721 0.027087 0.002329
# 6 -0.005125 -0.002456 0.000236 0.003845 0.002329 0.029851
#
#
# Mechanical properties :
#
#
# Convention : Reuss Voigt Hill
#
# Bulk Modulus (GPa) = 21.62211 30.27895 25.95053
# Shear Modulus (GPa) = 20.04255 29.92593 24.98424
#
# Velocity S-wave (km/s) = 3.03440 3.70784 3.38790
# Velocity P-wave (km/s) = 4.71276 5.67812 5.21781
#
# Compressibility (1/GPa) = 0.04624895
#
# Stress axis : x y z
#
# Youngs Moduli (GPa) = 38.09024 59.34642 32.28249
#
# Poissons Ratio (x) = 0.47219 0.41454
# Poissons Ratio (y) = 0.30307 -0.22217
# Poissons Ratio (z) = 0.48912 -0.40842
#
# Static dielectric constant tensor:
#      x y z
#    x 1.897010 -0.007340 -0.036090 
#    y -0.007340 1.784810 -0.000210 
#    z -0.036090 -0.000210 1.860490 
# 
# From -- ./inp_files/521527.got.cif
#   From: 2010.05.17/outbox.cif.g08.bks.cpg/sg2_261_cif.got.tgz:521527.got - 2010.06.03 11:33:40.
