data_PCOD9008657
_publ_section_title
;
Structure prediction by ZEFSAII (Michael W. Deem and Ramdas Pophale) SiO2 
 PCOD9008657
Probable space group: P -1
;
_chemical_formula_sum "Si O2"
_cell_formula_units_Z 16
_cell_length_a 11.492496
_cell_length_b 11.835610
_cell_length_c 14.376215
_cell_angle_alpha 69.503404
_cell_angle_beta 44.172876
_cell_angle_gamma 37.306553
_cell_volume 704.543147
_symmetry_space_group_name_H-M "P -1"
_symmetry_group_IT_number 2
_symmetry_cell_setting 'triclinic'
loop_
_space_group_symop_operation_xyz
x,y,z
-x,-y,-z
loop_
_atom_site_type_symbol
_atom_site_label
_atom_site_fract_x
_atom_site_fract_y
_atom_site_fract_z
Si Si1 0.041752 0.332388 0.036930
Si Si2 0.761150 0.556977 0.330744
Si Si3 0.693644 0.902677 0.820555
Si Si4 0.272606 0.713123 0.846547
Si Si5 0.453804 0.046166 0.624571
Si Si6 0.005727 0.117950 0.847249
Si Si7 0.893048 0.273854 0.666821
Si Si8 0.057662 0.929198 0.594659
O O1 0.906159 0.411142 0.196694
O O2 0.853195 0.342513 0.090963
O O3 0.000000 0.500000 0.000000
O O4 0.391815 0.097597 0.875509
O O5 0.723111 0.723981 0.315079
O O6 0.413036 0.717396 0.483515
O O7 0.051692 0.345179 0.288561
O O8 0.883156 0.910946 0.715855
O O9 0.500000 0.000000 0.000000
O O10 0.630303 0.496941 0.697714
O O11 0.123704 0.911885 0.816834
O O12 0.218261 0.764679 0.972769
O O13 0.282058 0.029405 0.756547
O O14 0.500000 0.000000 0.500000
O O15 0.794825 0.863093 0.512213
O O16 0.889078 0.267585 0.783967
O O17 0.887571 0.136025 0.687372
O O18 0.000000 0.000000 0.500000
#
# Coordination Sequence:
#
# PCOD9008657 Si02
#       8
#     2   2   2   2   2   2   2   2
#     4  11  22  40  63  93 135 166 212 276 329 389
#     4  10  21  39  65  93 127 169 214 268 328 393
#     4  10  23  39  61  99 128 172 217 267 333 401
#     4  11  23  41  63  99 125 172 221 270 324 395
#     4   9  20  42  62  92 122 168 216 264 321 386
#     4  10  23  42  65  89 134 168 222 269 324 393
#     4  10  22  41  68  89 128 173 216 267 334 383
#     4  11  22  40  64  96 134 170 214 268 337 400
#
# _framework density 22.709752999999999
#
# number of rings (size 3 to 8) (size 9 to 14) (size 15 to 20)
#    0.000    1.750    0.000    3.750    3.500    2.500 
#   18.000    0.000    0.000    0.000    0.000    0.000 
#    0.000    0.000    0.000    0.000    0.000    0.000 
#
# Total GULP energy -89089.202118 kJ/mol
# GULP energy per Si atom -5568.075132 kJ/mol
# Density = 2.265806 g / cm^3
# Si number density = 22.709753 Si / 1000 Ang^3
#
#
#
# Elastic Constant Matrix: (Units=GPa)
#
#
# Indices 1 2 3 4 5 6 
#
# 1 65.5855 33.3631 11.9616 8.7550 -5.7735 14.6904
# 2 33.3631 69.3541 49.4161 18.0620 -23.4912 5.2404
# 3 11.9616 49.4161 94.2219 13.7571 -19.0132 9.7729
# 4 8.7550 18.0620 13.7571 49.1171 -2.4487 -0.2068
# 5 -5.7735 -23.4912 -19.0132 -2.4487 37.8595 -7.2768
# 6 14.6904 5.2404 9.7729 -0.2068 -7.2768 22.8202
#
#
#
# Elastic Compliance Matrix: (Units=1/GPa)
#
#
# Indices 1 2 3 4 5 6 
#
# 1 0.027362 -0.019439 0.007088 -0.000189 -0.007939 -0.018719
# 2 -0.019439 0.042074 -0.016788 -0.006378 0.017276 0.015493
# 3 0.007088 -0.016788 0.019283 -0.000606 -0.001508 -0.009452
# 4 -0.000189 -0.006378 -0.000606 0.022785 -0.002581 0.001229
# 5 -0.007939 0.017276 -0.001508 -0.002581 0.037645 0.013770
# 6 -0.018719 0.015493 -0.009452 0.001229 0.013770 0.060764
#
#
# Mechanical properties :
#
#
# Convention : Reuss Voigt Hill
#
# Bulk Modulus (GPa) = 32.84936 46.51589 39.68263
# Shear Modulus (GPa) = 17.96393 30.92074 24.44234
#
# Velocity S-wave (km/s) = 2.81556 3.69394 3.28425
# Velocity P-wave (km/s) = 5.00661 6.22261 5.64743
#
# Compressibility (1/GPa) = 0.03044199
#
# Stress axis : x y z
#
# Youngs Moduli (GPa) = 36.54679 23.76784 51.86018
#
# Poissons Ratio (x) = 0.46202 -0.36761
# Poissons Ratio (y) = 0.71043 0.87062
# Poissons Ratio (z) = -0.25906 0.39901
#
# Static dielectric constant tensor:
#      x y z
#    x 2.321000 -0.391360 -0.040170 
#    y -0.391360 2.157410 0.014830 
#    z -0.040170 0.014830 1.904710 
# 
# From -- ./inp_files/568711.got.cif
#   From: 2010.05.17/outbox.cif.g08.bks.cpg/sg2_285_cif.got.tgz:568711.got - 2010.06.03 11:33:40.
