data_PCOD9008267
_publ_section_title
;
Structure prediction by ZEFSAII (Michael W. Deem and Ramdas Pophale) SiO2 
 PCOD9008267
Probable space group: P -1
;
_chemical_formula_sum "Si O2"
_cell_formula_units_Z 16
_cell_length_a 15.070222
_cell_length_b 8.597414
_cell_length_c 6.556150
_cell_angle_alpha 95.996932
_cell_angle_beta 95.793154
_cell_angle_gamma 61.066161
_cell_volume 738.109726
_symmetry_space_group_name_H-M "P -1"
_symmetry_group_IT_number 2
_symmetry_cell_setting 'triclinic'
loop_
_space_group_symop_operation_xyz
x,y,z
-x,-y,-z
loop_
_atom_site_type_symbol
_atom_site_label
_atom_site_fract_x
_atom_site_fract_y
_atom_site_fract_z
Si Si1 0.468513 0.278763 0.472415
Si Si2 0.064581 0.123306 0.703292
Si Si3 0.826230 0.050655 0.681198
Si Si4 0.911857 0.446147 0.936819
Si Si5 0.344510 0.687221 0.617867
Si Si6 0.212766 0.168733 0.033557
Si Si7 0.163506 0.767990 0.899971
Si Si8 0.436291 0.996584 0.178199
O O1 0.387789 0.483987 0.523674
O O2 0.555730 0.284817 0.349241
O O3 0.424062 0.161409 0.339212
O O4 0.515605 0.175893 0.685160
O O5 0.960912 0.299271 0.750669
O O6 0.084546 0.047486 0.472469
O O7 0.080645 0.958479 0.824003
O O8 0.156880 0.158854 0.812335
O O9 0.727105 0.159953 0.535656
O O10 0.832888 0.893683 0.802452
O O11 0.820063 0.197193 0.858028
O O12 0.811815 0.630886 0.900480
O O13 0.884687 0.362647 0.114198
O O14 0.000000 0.500000 0.000000
O O15 0.267495 0.711812 0.790786
O O16 0.330445 0.032877 0.059852
O O17 0.500000 0.000000 0.000000
#
# Coordination Sequence:
#
# PCOD9008267 Si02
#       8
#     2   2   2   2   2   2   2   2
#     4  10  24  42  62  94 129 162 219 252 309 367
#     4   9  21  41  66  88 124 164 206 263 311 364
#     4  10  21  39  64  92 120 163 212 254 309 373
#     4  10  22  42  63  94 126 163 206 260 319 376
#     4  10  22  42  64  90 123 169 207 264 301 367
#     4  10  22  40  62  91 128 165 206 254 317 372
#     4  10  22  39  69  89 123 164 213 252 320 367
#     4  11  25  39  65  96 130 165 204 258 316 372
#
# _framework density 21.676994000000001
#
# number of rings (size 3 to 8) (size 9 to 14) (size 15 to 20)
#    0.000    2.000    1.250    0.375    8.750    1.000 
#    2.250    5.000    0.000    0.000    0.000    0.000 
#    0.000    0.000    0.000    0.000    0.000    0.000 
#
# Total GULP energy -89215.856455 kJ/mol
# GULP energy per Si atom -5575.991028 kJ/mol
# Density = 2.162766 g / cm^3
# Si number density = 21.676994 Si / 1000 Ang^3
#
#
#
# Elastic Constant Matrix: (Units=GPa)
#
#
# Indices 1 2 3 4 5 6 
#
# 1 67.2268 6.2921 37.7648 2.9296 -20.3634 8.0124
# 2 6.2921 111.8410 9.1244 9.3120 -8.7456 -1.4253
# 3 37.7648 9.1244 75.9001 9.0183 -19.5461 -11.6738
# 4 2.9296 9.3120 9.0183 17.5848 -1.9911 -7.4685
# 5 -20.3634 -8.7456 -19.5461 -1.9911 29.9603 -5.8664
# 6 8.0124 -1.4253 -11.6738 -7.4685 -5.8664 33.2080
#
#
#
# Elastic Compliance Matrix: (Units=1/GPa)
#
#
# Indices 1 2 3 4 5 6 
#
# 1 0.024815 0.000123 -0.011702 -0.001205 0.007414 -0.009057
# 2 0.000123 0.009534 -0.000039 -0.004899 0.002456 -0.000302
# 3 -0.011702 -0.000039 0.023812 -0.004060 0.009647 0.011984
# 4 -0.001205 -0.004899 -0.004060 0.068143 0.002453 0.014412
# 5 0.007414 0.002456 0.009647 0.002453 0.047682 0.010683
# 6 -0.009057 -0.000302 0.011984 0.014412 0.010683 0.041627
#
#
# Mechanical properties :
#
#
# Convention : Reuss Voigt Hill
#
# Bulk Modulus (GPa) = 28.63314 40.14783 34.39049
# Shear Modulus (GPa) = 19.96080 29.60306 24.78193
#
# Velocity S-wave (km/s) = 3.03781 3.69947 3.38485
# Velocity P-wave (km/s) = 5.05391 6.06706 5.58352
#
# Compressibility (1/GPa) = 0.03492456
#
# Stress axis : x y z
#
# Youngs Moduli (GPa) = 40.29815 104.89133 41.99509
#
# Poissons Ratio (x) = -0.01294 0.49144
# Poissons Ratio (y) = -0.00497 0.00165
# Poissons Ratio (z) = 0.47158 0.00412
#
# Static dielectric constant tensor:
#      x y z
#    x 1.877560 0.033050 0.011940 
#    y 0.033050 1.804070 0.022610 
#    z 0.011940 0.022610 1.816080 
# 
# From -- ./inp_files/54924.got.cif
#   From: 2010.05.17/outbox.cif.g08.bks.cpg/sg2_28_cif.got.tgz:54924.got - 2010.06.03 11:33:40.
