data_PCOD9008475
_publ_section_title
;
Structure prediction by ZEFSAII (Michael W. Deem and Ramdas Pophale) SiO2 
 PCOD9008475
Probable space group: P -1
;
_chemical_formula_sum "Si O2"
_cell_formula_units_Z 16
_cell_length_a 9.168442
_cell_length_b 12.289526
_cell_length_c 11.801453
_cell_angle_alpha 51.598094
_cell_angle_beta 99.904232
_cell_angle_gamma 128.156353
_cell_volume 769.511919
_symmetry_space_group_name_H-M "P -1"
_symmetry_group_IT_number 2
_symmetry_cell_setting 'triclinic'
loop_
_space_group_symop_operation_xyz
x,y,z
-x,-y,-z
loop_
_atom_site_type_symbol
_atom_site_label
_atom_site_fract_x
_atom_site_fract_y
_atom_site_fract_z
Si Si1 0.771865 0.477768 0.745616
Si Si2 0.072748 0.640517 0.312906
Si Si3 0.927458 0.846179 0.435432
Si Si4 0.903197 0.021837 0.866408
Si Si5 0.525034 0.599481 0.058478
Si Si6 0.341795 0.602228 0.714522
Si Si7 0.144782 0.650690 0.828526
Si Si8 0.733767 0.982974 0.449051
O O1 0.783984 0.627415 0.580512
O O2 0.640623 0.420033 0.878061
O O3 0.758952 0.339283 0.748334
O O4 0.992649 0.593214 0.746043
O O5 0.866837 0.530941 0.289073
O O6 0.000000 0.500000 0.500000
O O7 0.141328 0.841801 0.210951
O O8 0.836401 0.925022 0.429555
O O9 0.953006 0.889458 0.279229
O O10 0.138380 0.943626 0.463396
O O11 0.710071 0.816584 0.936343
O O12 0.000000 0.000000 0.000000
O O13 0.573735 0.498938 0.210385
O O14 0.500000 0.500000 0.000000
O O15 0.295094 0.628862 0.817833
O O16 0.506273 0.807078 0.555100
O O17 0.248747 0.863216 0.718501
O O18 0.000000 0.500000 0.000000
#
# Coordination Sequence:
#
# PCOD9008475 Si02
#       8
#     2   2   2   2   2   2   2   2
#     4  10  22  43  67  95 135 183 226 284 347 415
#     4  11  24  48  69  92 140 190 234 282 347 422
#     4  10  21  39  69  97 136 180 226 284 350 415
#     4  12  26  45  70 103 141 185 229 291 357 413
#     4  12  25  43  72 107 141 173 234 301 353 411
#     4  11  22  41  65  95 132 178 235 279 336 424
#     4  10  22  36  59  95 140 173 214 287 354 400
#     4  10  21  39  65 100 133 178 235 281 346 420
#
# _framework density 20.792400000000001
#
# number of rings (size 3 to 8) (size 9 to 14) (size 15 to 20)
#    0.000    1.250    3.750    1.875    5.250    0.500 
#    6.750    1.875    0.000    0.000    0.000    0.000 
#    0.000    0.000    0.000    0.000    0.000    0.000 
#
# Total GULP energy -89134.859574 kJ/mol
# GULP energy per Si atom -5570.928723 kJ/mol
# Density = 2.074508 g / cm^3
# Si number density = 20.792400 Si / 1000 Ang^3
#
#
#
# Elastic Constant Matrix: (Units=GPa)
#
#
# Indices 1 2 3 4 5 6 
#
# 1 87.3962 33.9525 21.6195 -4.2644 -4.5786 -31.9058
# 2 33.9525 95.2407 52.8317 -12.4574 -1.2608 -26.4685
# 3 21.6195 52.8317 123.8561 -11.9618 -2.5682 -26.9060
# 4 -4.2644 -12.4574 -11.9618 43.4267 -5.0422 0.2285
# 5 -4.5786 -1.2608 -2.5682 -5.0422 36.9610 -3.8137
# 6 -31.9058 -26.4685 -26.9060 0.2285 -3.8137 29.9990
#
#
#
# Elastic Compliance Matrix: (Units=1/GPa)
#
#
# Indices 1 2 3 4 5 6 
#
# 1 0.020321 -0.001898 0.002617 0.002674 0.005367 0.022947
# 2 -0.001898 0.016550 -0.004472 0.003445 0.001389 0.008724
# 3 0.002617 -0.004472 0.011951 0.002488 0.002356 0.009837
# 4 0.002674 0.003445 0.002488 0.025497 0.004983 0.008554
# 5 0.005367 0.001389 0.002356 0.004983 0.029933 0.012814
# 6 0.022947 0.008724 0.009837 0.008554 0.012814 0.075824
#
#
# Mechanical properties :
#
#
# Convention : Reuss Voigt Hill
#
# Bulk Modulus (GPa) = 24.20325 58.14450 41.17387
# Shear Modulus (GPa) = 24.83192 35.28328 30.05760
#
# Velocity S-wave (km/s) = 3.45958 4.12385 3.80624
# Velocity P-wave (km/s) = 5.25585 7.12038 6.25795
#
# Compressibility (1/GPa) = 0.04131677
#
# Stress axis : x y z
#
# Youngs Moduli (GPa) = 49.20972 60.42227 83.67788
#
# Poissons Ratio (x) = 0.11467 -0.21898
# Poissons Ratio (y) = 0.09339 0.37419
# Poissons Ratio (z) = -0.12878 0.27019
#
# Static dielectric constant tensor:
#      x y z
#    x 1.831750 -0.027100 -0.019240 
#    y -0.027100 1.823370 0.020120 
#    z -0.019240 0.020120 1.800090 
# 
# From -- ./inp_files/189811.got.cif
#   From: 2010.05.17/outbox.cif.g08.bks.cpg/sg2_95_cif.got.tgz:189811.got - 2010.06.03 11:33:40.
