data_PCOD9008401
_publ_section_title
;
Structure prediction by ZEFSAII (Michael W. Deem and Ramdas Pophale) SiO2 
 PCOD9008401
Probable space group: P -1
;
_chemical_formula_sum "Si O2"
_cell_formula_units_Z 14
_cell_length_a 18.445141
_cell_length_b 11.879994
_cell_length_c 16.162872
_cell_angle_alpha 154.739146
_cell_angle_beta 26.822959
_cell_angle_gamma 153.706198
_cell_volume 603.918335
_symmetry_space_group_name_H-M "P -1"
_symmetry_group_IT_number 2
_symmetry_cell_setting 'triclinic'
loop_
_space_group_symop_operation_xyz
x,y,z
-x,-y,-z
loop_
_atom_site_type_symbol
_atom_site_label
_atom_site_fract_x
_atom_site_fract_y
_atom_site_fract_z
Si Si1 0.113649 0.835783 0.248154
Si Si2 0.190122 0.774495 0.309310
Si Si3 0.158553 0.795853 0.675960
Si Si4 0.325105 0.436314 0.189952
Si Si5 0.398516 0.032109 0.971929
Si Si6 0.020250 0.933706 0.071732
Si Si7 0.862851 0.652018 0.221831
O O1 0.135559 0.690046 0.213020
O O2 0.008251 0.694121 0.174705
O O3 0.320324 0.048086 0.151965
O O4 0.000000 0.000000 0.500000
O O5 0.027424 0.513265 0.349592
O O6 0.387135 0.810482 0.149835
O O7 0.193954 0.089040 0.530550
O O8 0.135522 0.040782 0.806893
O O9 0.687944 0.288900 0.569088
O O10 0.149510 0.877399 0.836038
O O11 0.319208 0.197767 0.104427
O O12 0.500000 0.500000 0.000000
O O13 0.151320 0.257489 0.190969
O O14 0.309983 0.674971 0.810390
O O15 0.939875 0.733239 0.102934
#
# Coordination Sequence:
#
# PCOD9008401 Si02
#       7
#     2   2   2   2   2   2   2
#     4  10  21  39  64  95 133 181 224 279 346 410
#     4  11  23  42  68 103 142 184 232 291 352 415
#     4  11  25  46  74 102 139 188 238 291 350 418
#     4  12  26  45  72 101 142 186 236 292 355 422
#     4  12  24  40  65 107 138 180 234 288 355 414
#     4  11  24  46  74 101 137 186 242 285 349 424
#     4  11  23  42  70 101 138 188 232 286 355 415
#
# _framework density 23.181944000000001
#
# number of rings (size 3 to 8) (size 9 to 14) (size 15 to 20)
#    0.000    0.857    2.857    4.286    4.000    0.571 
#    0.000    0.000    0.000    0.000    0.000    0.000 
#    0.000    0.000    0.000    0.000    0.000    0.000 
#
# Total GULP energy -78112.654044 kJ/mol
# GULP energy per Si atom -5579.475289 kJ/mol
# Density = 2.312918 g / cm^3
# Si number density = 23.181944 Si / 1000 Ang^3
#
#
#
# Elastic Constant Matrix: (Units=GPa)
#
#
# Indices 1 2 3 4 5 6 
#
# 1 111.8961 15.8617 46.7205 -2.1324 14.9419 -22.1130
# 2 15.8617 45.5871 17.7372 -9.7540 2.2595 -17.5678
# 3 46.7205 17.7372 159.0546 -2.7213 29.2836 -3.0096
# 4 -2.1324 -9.7540 -2.7213 34.6754 3.3736 1.8584
# 5 14.9419 2.2595 29.2836 3.3736 38.1148 2.0852
# 6 -22.1130 -17.5678 -3.0096 1.8584 2.0852 46.5807
#
#
#
# Elastic Compliance Matrix: (Units=1/GPa)
#
#
# Indices 1 2 3 4 5 6 
#
# 1 0.011559 -0.000806 -0.002705 0.000261 -0.002708 0.005119
# 2 -0.000806 0.028654 -0.002526 0.007339 -0.000638 0.009996
# 3 -0.002705 -0.002526 0.008281 0.000349 -0.005101 -0.001488
# 4 0.000261 0.007339 0.000349 0.031205 -0.003668 0.001833
# 5 -0.002708 -0.000638 -0.005101 -0.003668 0.031751 -0.003131
# 6 0.005119 0.009996 -0.001488 0.001833 -0.003131 0.027639
#
#
# Mechanical properties :
#
#
# Convention : Reuss Voigt Hill
#
# Bulk Modulus (GPa) = 27.45979 53.01963 40.23971
# Shear Modulus (GPa) = 30.61767 39.62208 35.11987
#
# Velocity S-wave (km/s) = 3.63816 4.13871 3.89648
# Velocity P-wave (km/s) = 5.43317 6.76456 6.13509
#
# Compressibility (1/GPa) = 0.03641688
#
# Stress axis : x y z
#
# Youngs Moduli (GPa) = 86.51208 34.89948 120.76478
#
# Poissons Ratio (x) = 0.02814 0.32673
# Poissons Ratio (y) = 0.06976 0.30509
# Poissons Ratio (z) = 0.23406 0.08817
#
# Static dielectric constant tensor:
#      x y z
#    x 1.913340 -0.047710 0.030780 
#    y -0.047710 1.918340 0.042920 
#    z 0.030780 0.042920 1.983420 
# 
# From -- ./inp_files/172106.got.cif
#   From: 2010.05.17/outbox.cif.g08.bks.cpg/sg2_87_cif.got.tgz:172106.got - 2010.06.03 11:33:40.
