data_PCOD9008840
_publ_section_title
;
Structure prediction by ZEFSAII (Michael W. Deem and Ramdas Pophale) SiO2 
 PCOD9008840
Probable space group: P -1
;
_chemical_formula_sum "Si O2"
_cell_formula_units_Z 12
_cell_length_a 15.770046
_cell_length_b 10.083792
_cell_length_c 7.836160
_cell_angle_alpha 122.566565
_cell_angle_beta 140.783553
_cell_angle_gamma 38.047801
_cell_volume 477.249564
_symmetry_space_group_name_H-M "P -1"
_symmetry_group_IT_number 2
_symmetry_cell_setting 'triclinic'
loop_
_space_group_symop_operation_xyz
x,y,z
-x,-y,-z
loop_
_atom_site_type_symbol
_atom_site_label
_atom_site_fract_x
_atom_site_fract_y
_atom_site_fract_z
Si Si1 0.787009 0.489425 0.138453
Si Si2 0.474410 0.789969 0.623012
Si Si3 0.050608 0.786193 0.494970
Si Si4 0.300695 0.097714 0.105149
Si Si5 0.444839 0.399879 0.725753
Si Si6 0.857221 0.741349 0.650828
O O1 0.864744 0.284554 0.232081
O O2 0.814568 0.618147 0.393221
O O3 0.925940 0.397329 0.132052
O O4 0.576580 0.657297 0.862193
O O5 0.590573 0.847272 0.772978
O O6 0.492794 0.646142 0.404694
O O7 0.264749 0.022289 0.465063
O O8 0.220844 0.578369 0.505210
O O9 0.000000 0.000000 0.500000
O O10 0.866837 0.830013 0.221967
O O11 0.207953 0.213878 0.224248
O O12 0.449008 0.838490 0.196795
O O13 0.500000 0.500000 0.000000
#
# Coordination Sequence:
#
# PCOD9008840 Si02
#       6
#     2   2   2   2   2   2
#     4  11  23  39  64  99 134 167 212 273 334 372
#     4  11  23  41  70 102 130 165 220 275 319 384
#     4  12  25  43  66  90 132 178 219 265 320 396
#     4  11  22  42  71  99 126 172 223 265 319 387
#     4  11  23  44  68  94 130 177 218 258 325 391
#     4  10  21  39  66 102 132 161 210 277 326 382
#
# _framework density 25.144078
#
# number of rings (size 3 to 8) (size 9 to 14) (size 15 to 20)
#    0.000    1.000    1.667    7.500    0.000    3.333 
#    0.000    4.167    0.000    0.000    0.000    0.000 
#    0.000    0.000    0.000    0.000    0.000    0.000 
#
# Total GULP energy -67300.217899 kJ/mol
# GULP energy per Si atom -5608.351492 kJ/mol
# Density = 2.508685 g / cm^3
# Si number density = 25.144078 Si / 1000 Ang^3
#
#
#
# Elastic Constant Matrix: (Units=GPa)
#
#
# Indices 1 2 3 4 5 6 
#
# 1 56.4940 29.8539 -1.2094 14.6284 -17.0296 4.1488
# 2 29.8539 130.3589 11.4730 -7.4274 -8.1274 3.4186
# 3 -1.2094 11.4730 91.1151 -3.9881 -13.2909 15.4446
# 4 14.6284 -7.4274 -3.9881 45.4176 6.1421 -0.3606
# 5 -17.0296 -8.1274 -13.2909 6.1421 37.0128 -11.9604
# 6 4.1488 3.4186 15.4446 -0.3606 -11.9604 44.0435
#
#
#
# Elastic Compliance Matrix: (Units=1/GPa)
#
#
# Indices 1 2 3 4 5 6 
#
# 1 0.028930 -0.006641 0.002752 -0.012203 0.015136 0.000836
# 2 -0.006641 0.009402 -0.001392 0.003849 -0.002187 -0.000178
# 3 0.002752 -0.001392 0.012364 -0.000656 0.004448 -0.003284
# 4 -0.012203 0.003849 -0.000656 0.027874 -0.010093 -0.001432
# 5 0.015136 -0.002187 0.004448 -0.010093 0.039284 0.007770
# 6 0.000836 -0.000178 -0.003284 -0.001432 0.007770 0.025890
#
#
# Mechanical properties :
#
#
# Convention : Reuss Voigt Hill
#
# Bulk Modulus (GPa) = 24.91661 39.80034 32.35848
# Shear Modulus (GPa) = 29.81793 41.15148 35.48470
#
# Velocity S-wave (km/s) = 3.44740 4.04991 3.76074
# Velocity P-wave (km/s) = 5.07712 6.14267 5.63513
#
# Compressibility (1/GPa) = 0.04013387
#
# Stress axis : x y z
#
# Youngs Moduli (GPa) = 34.56577 106.35822 80.88129
#
# Poissons Ratio (x) = 0.70634 -0.22262
# Poissons Ratio (y) = 0.22956 0.11262
# Poissons Ratio (z) = -0.09514 0.14810
#
# Static dielectric constant tensor:
#      x y z
#    x 2.035120 0.018030 0.008300 
#    y 0.018030 1.954580 0.001180 
#    z 0.008300 0.001180 1.965750 
# 
# From -- ./inp_files/330437.got.cif
#   From: 2010.05.17/outbox.cif.g08.bks.cpg/sg2_166_cif.got.tgz:330437.got - 2010.06.03 11:33:40.
