data_PCOD9008937
_publ_section_title
;
Structure prediction by ZEFSAII (Michael W. Deem and Ramdas Pophale) SiO2 
 PCOD9008937
Probable space group: P -1
;
_chemical_formula_sum "Si O2"
_cell_formula_units_Z 14
_cell_length_a 7.827413
_cell_length_b 17.563849
_cell_length_c 11.720599
_cell_angle_alpha 142.288805
_cell_angle_beta 52.036559
_cell_angle_gamma 138.239551
_cell_volume 655.204226
_symmetry_space_group_name_H-M "P -1"
_symmetry_group_IT_number 2
_symmetry_cell_setting 'triclinic'
loop_
_space_group_symop_operation_xyz
x,y,z
-x,-y,-z
loop_
_atom_site_type_symbol
_atom_site_label
_atom_site_fract_x
_atom_site_fract_y
_atom_site_fract_z
Si Si1 0.454914 0.818855 0.410405
Si Si2 0.978088 0.369716 0.277499
Si Si3 0.264628 0.547402 0.002948
Si Si4 0.506919 0.620959 0.312538
Si Si5 0.583951 0.739891 0.666887
Si Si6 0.843169 0.017778 0.289970
Si Si7 0.283027 0.254822 0.125014
O O1 0.319380 0.665332 0.216048
O O2 0.528025 0.769545 0.437662
O O3 0.266427 0.878406 0.570254
O O4 0.693285 0.932019 0.365693
O O5 0.692928 0.276694 0.233227
O O6 0.000000 0.500000 0.500000
O O7 0.229258 0.474545 0.221850
O O8 0.045735 0.269394 0.204350
O O9 0.286133 0.408699 0.861157
O O10 0.482405 0.634203 0.920695
O O11 0.000000 0.500000 0.000000
O O12 0.548894 0.637465 0.451825
O O13 0.640392 0.703917 0.726578
O O14 0.851060 0.892644 0.712257
O O15 0.775780 0.904045 0.079058
#
# Coordination Sequence:
#
# PCOD9008937 Si02
#       7
#     2   2   2   2   2   2   2
#     4  10  22  42  65  87 132 162 210 272 297 371
#     4   9  22  39  60  96 124 158 204 257 322 364
#     4  10  21  39  66  94 122 166 209 253 329 370
#     4  10  22  40  64  99 124 159 208 267 317 370
#     4  11  23  40  66  95 124 171 206 251 321 374
#     4  10  23  43  63  90 124 176 213 251 314 364
#     4  10  23  43  62  92 133 162 209 263 306 379
#
# _framework density 21.367383
#
# number of rings (size 3 to 8) (size 9 to 14) (size 15 to 20)
#    0.000    2.000    0.000    1.714    6.000    6.286 
#    2.571    0.000    0.000    0.000    0.000    0.000 
#    0.000    0.000    0.000    0.000    0.000    0.000 
#
# Total GULP energy -78054.672920 kJ/mol
# GULP energy per Si atom -5575.333780 kJ/mol
# Density = 2.131875 g / cm^3
# Si number density = 21.367383 Si / 1000 Ang^3
#
#
#
# Elastic Constant Matrix: (Units=GPa)
#
#
# Indices 1 2 3 4 5 6 
#
# 1 140.6663 58.6030 53.6971 7.0173 -23.3345 -1.4302
# 2 58.6030 66.4591 18.7978 5.5914 -2.3197 8.5437
# 3 53.6971 18.7978 112.2329 3.4536 -10.0958 -19.2853
# 4 7.0173 5.5914 3.4536 15.5431 -1.1998 5.9136
# 5 -23.3345 -2.3197 -10.0958 -1.1998 40.3824 -3.5288
# 6 -1.4302 8.5437 -19.2853 5.9136 -3.5288 31.8494
#
#
#
# Elastic Compliance Matrix: (Units=1/GPa)
#
#
# Indices 1 2 3 4 5 6 
#
# 1 0.014908 -0.011940 -0.003982 -0.001999 0.007102 0.002619
# 2 -0.011940 0.026802 -0.000801 -0.001261 -0.006356 -0.008681
# 3 -0.003982 -0.000801 0.012677 -0.003889 0.001458 0.008596
# 4 -0.001999 -0.001261 -0.003889 0.072425 -0.001421 -0.015711
# 5 0.007102 -0.006356 0.001458 -0.001421 0.029386 0.006426
# 6 0.002619 -0.008681 0.008596 -0.015711 0.006426 0.042678
#
#
# Mechanical properties :
#
#
# Convention : Reuss Voigt Hill
#
# Bulk Modulus (GPa) = 47.75395 64.61714 56.18554
# Shear Modulus (GPa) = 20.89385 30.10568 25.49977
#
# Velocity S-wave (km/s) = 3.13043 3.75768 3.45831
# Velocity P-wave (km/s) = 5.95514 7.00953 6.50374
#
# Compressibility (1/GPa) = 0.02094068
#
# Stress axis : x y z
#
# Youngs Moduli (GPa) = 67.07749 37.31025 78.87997
#
# Poissons Ratio (x) = 0.44549 0.31414
# Poissons Ratio (y) = 0.80091 0.06319
# Poissons Ratio (z) = 0.26713 0.02989
#
# Static dielectric constant tensor:
#      x y z
#    x 1.805270 -0.018060 0.004490 
#    y -0.018060 1.829200 -0.065810 
#    z 0.004490 -0.065810 1.806090 
# 
# From -- ./inp_files/369563.got.cif
#   From: 2010.05.17/outbox.cif.g08.bks.cpg/sg2_185_cif.got.tgz:369563.got - 2010.06.03 11:33:40.
