data_PCOD9008103
_publ_section_title
;
Structure prediction by ZEFSAII (Michael W. Deem and Ramdas Pophale) SiO2 
 PCOD9008103
Probable space group: P -1
;
_chemical_formula_sum "Si O2"
_cell_formula_units_Z 16
_cell_length_a 23.956195
_cell_length_b 8.129132
_cell_length_c 5.594702
_cell_angle_alpha 121.455773
_cell_angle_beta 71.192823
_cell_angle_gamma 142.397136
_cell_volume 558.371875
_symmetry_space_group_name_H-M "P -1"
_symmetry_group_IT_number 2
_symmetry_cell_setting 'triclinic'
loop_
_space_group_symop_operation_xyz
x,y,z
-x,-y,-z
loop_
_atom_site_type_symbol
_atom_site_label
_atom_site_fract_x
_atom_site_fract_y
_atom_site_fract_z
Si Si1 0.976413 0.668662 0.672879
Si Si2 0.202539 0.313362 0.611295
Si Si3 0.191830 0.500710 0.269411
Si Si4 0.341902 0.489488 0.848999
Si Si5 0.971741 0.652593 0.170194
Si Si6 0.409412 0.021756 0.365254
Si Si7 0.773215 0.993834 0.952767
Si Si8 0.415902 0.369430 0.289000
O O1 0.868863 0.460719 0.655415
O O2 0.006869 0.824726 0.004315
O O3 0.000000 0.500000 0.500000
O O4 0.013509 0.838337 0.497565
O O5 0.177561 0.361429 0.439641
O O6 0.191076 0.062685 0.346781
O O7 0.172165 0.330348 0.920482
O O8 0.310502 0.555913 0.728786
O O9 0.301994 0.812906 0.379762
O O10 0.255150 0.199197 0.916384
O O11 0.405683 0.782792 0.152017
O O12 0.384662 0.418732 0.600522
O O13 0.860242 0.357254 0.121427
O O14 0.000000 0.500000 0.000000
O O15 0.434503 0.203114 0.228706
O O16 0.485236 0.284668 0.651758
O O17 0.675388 0.845266 0.910346
#
# Coordination Sequence:
#
# PCOD9008103 Si02
#       8
#     2   2   2   2   2   2   2   2
#     4  10  22  41  67 101 128 169 223 281 343 413
#     4  10  21  39  63  99 129 178 230 276 344 405
#     4  11  21  39  67  96 132 182 223 281 343 405
#     4  10  22  42  63  98 136 189 230 288 342 402
#     4  10  23  40  67  98 128 168 219 285 340 406
#     4  10  21  42  60  99 142 181 237 284 341 404
#     4  11  22  41  68  99 134 183 235 282 346 412
#     4  10  23  40  63  97 139 188 234 285 339 411
#
# _framework density 28.654737000000001
#
# number of rings (size 3 to 8) (size 9 to 14) (size 15 to 20)
#    0.000    1.750    2.500    1.875    5.250    1.500 
#    4.500    1.250    0.000   18.000    0.000    0.000 
#    0.000    0.000    0.000    0.000    0.000    0.000 
#
# Total GULP energy -89376.190956 kJ/mol
# GULP energy per Si atom -5586.011935 kJ/mol
# Density = 2.858952 g / cm^3
# Si number density = 28.654737 Si / 1000 Ang^3
#
#
#
# Elastic Constant Matrix: (Units=GPa)
#
#
# Indices 1 2 3 4 5 6 
#
# 1 158.0662 38.9971 53.4748 -15.2345 16.6022 10.8904
# 2 38.9971 145.3342 74.8146 -11.4722 27.6372 11.4025
# 3 53.4748 74.8146 202.9508 -24.0294 21.8769 -5.6964
# 4 -15.2345 -11.4722 -24.0294 54.2600 0.0112 11.5595
# 5 16.6022 27.6372 21.8769 0.0112 56.5597 2.9768
# 6 10.8904 11.4025 -5.6964 11.5595 2.9768 50.5020
#
#
#
# Elastic Compliance Matrix: (Units=1/GPa)
#
#
# Indices 1 2 3 4 5 6 
#
# 1 0.007405 -0.000764 -0.001396 0.001705 -0.001161 -0.001904
# 2 -0.000764 0.009430 -0.002883 0.001000 -0.003146 -0.002333
# 3 -0.001396 -0.002883 0.006684 0.001666 -0.000840 0.001374
# 4 0.001705 0.001000 0.001666 0.020949 -0.001368 -0.005120
# 5 -0.001161 -0.003146 -0.000840 -0.001368 0.019883 0.000007
# 6 -0.001904 -0.002333 0.001374 -0.005120 0.000007 0.022065
#
#
# Mechanical properties :
#
#
# Convention : Reuss Voigt Hill
#
# Bulk Modulus (GPa) = 74.43962 93.43602 83.93782
# Shear Modulus (GPa) = 49.51557 54.86864 52.19210
#
# Velocity S-wave (km/s) = 4.16144 4.38061 4.27243
# Velocity P-wave (km/s) = 7.00890 7.63313 7.32766
#
# Compressibility (1/GPa) = 0.01343371
#
# Stress axis : x y z
#
# Youngs Moduli (GPa) = 135.05298 106.04553 149.60667
#
# Poissons Ratio (x) = 0.08097 0.20884
# Poissons Ratio (y) = 0.10312 0.43130
# Poissons Ratio (z) = 0.18853 0.30572
#
# Static dielectric constant tensor:
#      x y z
#    x 2.305720 0.132220 -0.012420 
#    y 0.132220 2.386300 -0.020050 
#    z -0.012420 -0.020050 2.293580 
# 
# From -- ./inp_files/126512.got.cif
#   From: 2010.05.17/outbox.cif.g08.bks.cpg/sg2_64_cif.got.tgz:126512.got - 2010.06.03 11:33:40.
