data_PCOD9008899
_publ_section_title
;
Structure prediction by ZEFSAII (Michael W. Deem and Ramdas Pophale) SiO2 
 PCOD9008899
Probable space group: P -1
;
_chemical_formula_sum "Si O2"
_cell_formula_units_Z 16
_cell_length_a 11.519895
_cell_length_b 5.541377
_cell_length_c 16.951855
_cell_angle_alpha 109.048710
_cell_angle_beta 51.255098
_cell_angle_gamma 126.115442
_cell_volume 680.258984
_symmetry_space_group_name_H-M "P -1"
_symmetry_group_IT_number 2
_symmetry_cell_setting 'triclinic'
loop_
_space_group_symop_operation_xyz
x,y,z
-x,-y,-z
loop_
_atom_site_type_symbol
_atom_site_label
_atom_site_fract_x
_atom_site_fract_y
_atom_site_fract_z
Si Si1 0.682434 0.653777 0.655457
Si Si2 0.175570 0.428988 0.245375
Si Si3 0.152844 0.445844 0.958715
Si Si4 0.441920 0.158731 0.476903
Si Si5 0.497084 0.013377 0.169044
Si Si6 0.100289 0.544294 0.542978
Si Si7 0.630500 0.994340 0.269033
Si Si8 0.026783 0.914680 0.846973
O O1 0.764913 0.634584 0.702441
O O2 0.625180 0.890465 0.722964
O O3 0.806174 0.647821 0.532615
O O4 0.501695 0.343286 0.683442
O O5 0.082096 0.157086 0.194125
O O6 0.037241 0.530102 0.336791
O O7 0.353232 0.698333 0.160189
O O8 0.349634 0.720613 0.917370
O O9 0.092261 0.266679 0.047371
O O10 0.147331 0.248058 0.865813
O O11 0.000000 0.500000 0.000000
O O12 0.500000 0.500000 0.500000
O O13 0.541501 0.168123 0.356826
O O14 0.500000 0.000000 0.500000
O O15 0.240339 0.900163 0.527039
O O16 0.615059 0.973321 0.179449
O O17 0.000000 0.500000 0.500000
O O18 0.824701 0.163918 0.236390
#
# Coordination Sequence:
#
# PCOD9008899 Si02
#       8
#     2   2   2   2   2   2   2   2
#     4   9  20  40  64  91 132 177 215 267 324 406
#     4  10  23  40  62  99 133 168 219 275 336 395
#     4  11  24  43  69  93 121 169 222 277 357 416
#     4  11  25  42  65 102 142 182 233 289 343 399
#     4  11  22  41  67  92 126 173 226 267 337 414
#     4   9  20  44  62  94 138 183 228 262 337 406
#     4  10  21  39  66  91 127 177 224 271 336 406
#     4  11  23  42  65  95 128 163 221 289 339 411
#
# _framework density 23.520454000000001
#
# number of rings (size 3 to 8) (size 9 to 14) (size 15 to 20)
#    0.000    1.750    2.500    1.500    3.500    3.000 
#    9.000    1.250    0.000    0.000    0.000    0.000 
#    0.000    0.000    0.000    0.000    0.000    0.000 
#
# Total GULP energy -89212.324652 kJ/mol
# GULP energy per Si atom -5575.770291 kJ/mol
# Density = 2.346692 g / cm^3
# Si number density = 23.520454 Si / 1000 Ang^3
#
#
#
# Elastic Constant Matrix: (Units=GPa)
#
#
# Indices 1 2 3 4 5 6 
#
# 1 91.0183 38.7285 26.1984 -5.6995 0.2212 23.2472
# 2 38.7285 91.3205 11.8006 -11.0877 -6.0318 32.1125
# 3 26.1984 11.8006 63.8081 -14.3345 -6.5919 19.5377
# 4 -5.6995 -11.0877 -14.3345 20.5630 9.8730 -7.5413
# 5 0.2212 -6.0318 -6.5919 9.8730 30.3499 0.2277
# 6 23.2472 32.1125 19.5377 -7.5413 0.2277 39.8901
#
#
#
# Elastic Compliance Matrix: (Units=1/GPa)
#
#
# Indices 1 2 3 4 5 6 
#
# 1 0.015234 -0.005300 -0.005214 -0.002489 -0.001468 -0.002520
# 2 -0.005300 0.017805 0.004092 0.005075 0.002907 -0.012306
# 3 -0.005214 0.004092 0.022828 0.012466 0.001822 -0.009090
# 4 -0.002489 0.005075 0.012466 0.070274 -0.019161 0.004654
# 5 -0.001468 0.002907 0.001822 -0.019161 0.040213 -0.006229
# 6 -0.002520 -0.012306 -0.009090 0.004654 -0.006229 0.041812
#
#
# Mechanical properties :
#
#
# Convention : Reuss Voigt Hill
#
# Bulk Modulus (GPa) = 23.24361 44.40020 33.82190
# Shear Modulus (GPa) = 21.24482 29.45523 25.35003
#
# Velocity S-wave (km/s) = 3.00867 3.54266 3.28653
# Velocity P-wave (km/s) = 4.68756 5.97094 5.36774
#
# Compressibility (1/GPa) = 0.04302259
#
# Stress axis : x y z
#
# Youngs Moduli (GPa) = 65.64246 56.16432 43.80581
#
# Poissons Ratio (x) = 0.29767 0.22840
# Poissons Ratio (y) = 0.34790 -0.17924
# Poissons Ratio (z) = 0.34225 -0.22980
#
# Static dielectric constant tensor:
#      x y z
#    x 1.986960 -0.065600 -0.097370 
#    y -0.065600 1.988240 0.039070 
#    z -0.097370 0.039070 1.987270 
# 
# From -- ./inp_files/57028.got.cif
#   From: 2010.05.17/outbox.cif.g08.bks.cpg/sg2_29_cif.got.tgz:57028.got - 2010.06.03 11:33:40.
