data_PCOD9008114
_publ_section_title
;
Structure prediction by ZEFSAII (Michael W. Deem and Ramdas Pophale) SiO2 
 PCOD9008114
Probable space group: P -1
;
_chemical_formula_sum "Si O2"
_cell_formula_units_Z 16
_cell_length_a 10.539241
_cell_length_b 10.415027
_cell_length_c 17.978770
_cell_angle_alpha 47.710854
_cell_angle_beta 144.819145
_cell_angle_gamma 110.117901
_cell_volume 736.348888
_symmetry_space_group_name_H-M "P -1"
_symmetry_group_IT_number 2
_symmetry_cell_setting 'triclinic'
loop_
_space_group_symop_operation_xyz
x,y,z
-x,-y,-z
loop_
_atom_site_type_symbol
_atom_site_label
_atom_site_fract_x
_atom_site_fract_y
_atom_site_fract_z
Si Si1 0.561629 0.586659 0.829657
Si Si2 0.009211 0.318165 0.234005
Si Si3 0.741520 0.529019 0.587891
Si Si4 0.924520 0.828639 0.030121
Si Si5 0.980450 0.068163 0.549762
Si Si6 0.800006 0.239191 0.957150
Si Si7 0.728424 0.843095 0.718366
Si Si8 0.555166 0.874072 0.251420
O O1 0.263020 0.715824 0.645067
O O2 0.645593 0.419349 0.870159
O O3 0.638906 0.748973 0.775796
O O4 0.716600 0.482614 0.019830
O O5 0.178946 0.351271 0.362288
O O6 0.113220 0.324765 0.200121
O O7 0.035694 0.103120 0.344327
O O8 0.500000 0.500000 0.500000
O O9 0.682289 0.658147 0.435298
O O10 0.976102 0.310636 0.795906
O O11 0.098233 0.704108 0.091848
O O12 0.623509 0.955052 0.841544
O O13 0.000000 0.000000 0.000000
O O14 0.227556 0.079904 0.686990
O O15 0.000000 0.000000 0.500000
O O16 0.631478 0.139161 0.893334
O O17 0.072479 0.092568 0.181163
O O18 0.500000 0.000000 0.500000
#
# Coordination Sequence:
#
# PCOD9008114 Si02
#       8
#     2   2   2   2   2   2   2   2
#     4  11  25  46  69  99 140 176 230 288 336 408
#     4  11  25  43  70 102 135 179 232 280 345 404
#     4  12  22  37  67 103 131 178 222 281 351 391
#     4  10  21  39  64 100 141 165 215 287 343 395
#     4  12  27  47  67  99 141 193 232 264 338 426
#     4  10  22  43  66 101 132 172 224 288 345 384
#     4  11  22  39  72 101 130 173 223 287 344 399
#     4  11  26  43  66 101 144 178 226 283 336 412
#
# _framework density 21.728831
#
# number of rings (size 3 to 8) (size 9 to 14) (size 15 to 20)
#    0.000    1.000    5.000    3.000    5.250    2.000 
#    0.000    2.500    0.000    0.000    0.000    0.000 
#    0.000    0.000    0.000    0.000    0.000    0.000 
#
# Total GULP energy -89215.023543 kJ/mol
# GULP energy per Si atom -5575.938971 kJ/mol
# Density = 2.167938 g / cm^3
# Si number density = 21.728831 Si / 1000 Ang^3
#
#
#
# Elastic Constant Matrix: (Units=GPa)
#
#
# Indices 1 2 3 4 5 6 
#
# 1 50.9096 27.6516 22.6916 6.6606 20.1366 -3.0843
# 2 27.6516 131.0284 46.0152 31.3224 11.5678 7.5291
# 3 22.6916 46.0152 141.9844 12.4297 11.0928 4.2299
# 4 6.6606 31.3224 12.4297 48.5564 5.7050 1.1742
# 5 20.1366 11.5678 11.0928 5.7050 39.2742 0.6277
# 6 -3.0843 7.5291 4.2299 1.1742 0.6277 30.4654
#
#
#
# Elastic Compliance Matrix: (Units=1/GPa)
#
#
# Indices 1 2 3 4 5 6 
#
# 1 0.028318 -0.004556 -0.002278 0.001027 -0.012756 0.004532
# 2 -0.004556 0.010871 -0.002259 -0.005824 0.000660 -0.002623
# 3 -0.002278 -0.002259 0.008220 -0.000264 -0.000438 -0.000794
# 4 0.001027 -0.005824 -0.000264 0.024533 -0.002311 0.000682
# 5 -0.012756 0.000660 -0.000438 -0.002311 0.032298 -0.001970
# 6 0.004532 -0.002623 -0.000794 0.000682 -0.001970 0.034056
#
#
# Mechanical properties :
#
#
# Convention : Reuss Voigt Hill
#
# Bulk Modulus (GPa) = 34.21737 57.40433 45.81085
# Shear Modulus (GPa) = 30.08011 38.83014 34.45512
#
# Velocity S-wave (km/s) = 3.72471 4.23192 3.98639
# Velocity P-wave (km/s) = 5.85488 7.09610 6.50516
#
# Compressibility (1/GPa) = 0.02922493
#
# Stress axis : x y z
#
# Youngs Moduli (GPa) = 35.31328 91.98555 121.65448
#
# Poissons Ratio (x) = 0.41908 0.27707
# Poissons Ratio (y) = 0.16089 0.27478
# Poissons Ratio (z) = 0.08043 0.20777
#
# Static dielectric constant tensor:
#      x y z
#    x 1.840490 -0.052370 0.037230 
#    y -0.052370 1.830590 0.019860 
#    z 0.037230 0.019860 1.906250 
# 
# From -- ./inp_files/595099.got.cif
#   From: 2010.05.17/outbox.cif.g08.bks.cpg/sg2_298_cif.got.tgz:595099.got - 2010.06.03 11:33:40.
