data_PCOD9008942
_publ_section_title
;
Structure prediction by ZEFSAII (Michael W. Deem and Ramdas Pophale) SiO2 
 PCOD9008942
Probable space group: P -1
;
_chemical_formula_sum "Si O2"
_cell_formula_units_Z 15
_cell_length_a 9.168079
_cell_length_b 13.364059
_cell_length_c 8.502638
_cell_angle_alpha 101.050454
_cell_angle_beta 63.504839
_cell_angle_gamma 61.630030
_cell_volume 704.402303
_symmetry_space_group_name_H-M "P -1"
_symmetry_group_IT_number 2
_symmetry_cell_setting 'triclinic'
loop_
_space_group_symop_operation_xyz
x,y,z
-x,-y,-z
loop_
_atom_site_type_symbol
_atom_site_label
_atom_site_fract_x
_atom_site_fract_y
_atom_site_fract_z
Si Si1 0.769508 0.843178 0.521333
Si Si2 0.099295 0.998263 0.614561
Si Si3 0.291812 0.534021 0.691899
Si Si4 0.500000 0.000000 0.000000
Si Si5 0.920627 0.415795 0.492508
Si Si6 0.450278 0.590446 0.905679
Si Si7 0.310207 0.854125 0.972777
Si Si8 0.504750 0.762814 0.506945
O O1 0.864305 0.895210 0.385950
O O2 0.611991 0.957079 0.757064
O O3 0.647509 0.806176 0.469869
O O4 0.942980 0.714516 0.505730
O O5 0.938916 0.034999 0.844030
O O6 0.320821 0.855054 0.498640
O O7 0.000000 0.000000 0.500000
O O8 0.500000 0.500000 0.500000
O O9 0.093812 0.615314 0.691910
O O10 0.280660 0.601514 0.878216
O O11 0.353235 0.391829 0.645864
O O12 0.572379 0.089569 0.023354
O O13 0.677747 0.511797 0.690108
O O14 0.000000 0.500000 0.500000
O O15 0.500000 0.500000 0.000000
O O16 0.373183 0.734848 0.018595
O O17 0.388879 0.793186 0.741519
#
# Coordination Sequence:
#
# PCOD9008942 Si02
#       8
#     2   2   2   1   2   2   2   2
#     4  11  23  42  66  95 133 172 216 271 331 389
#     4  12  26  40  66  97 128 173 220 271 330 382
#     4  10  21  39  66  94 125 171 216 266 321 386
#     4  10  22  40  64  94 130 170 216 266 318 384
#     4  11  20  42  70  94 123 172 221 259 327 399
#     4  11  24  40  66  98 135 169 215 278 329 385
#     4  11  22  43  64  98 130 172 224 265 328 395
#     4  11  23  44  65  91 133 172 219 270 327 395
#
# _framework density 21.294650000000001
#
# number of rings (size 3 to 8) (size 9 to 14) (size 15 to 20)
#    0.000    1.067    5.333    2.400    5.600    0.000 
#    4.800    0.667    0.000    0.000    0.000    0.000 
#    0.000    0.000    0.000    0.000    0.000    0.000 
#
# Total GULP energy -83564.375951 kJ/mol
# GULP energy per Si atom -5570.958397 kJ/mol
# Density = 2.124618 g / cm^3
# Si number density = 21.294650 Si / 1000 Ang^3
#
#
#
# Elastic Constant Matrix: (Units=GPa)
#
#
# Indices 1 2 3 4 5 6 
#
# 1 96.0372 23.5932 18.2399 -4.6197 17.3620 -1.8653
# 2 23.5932 71.1096 -1.8361 -0.4103 11.6145 1.7659
# 3 18.2399 -1.8361 34.8786 3.1586 5.1892 17.9450
# 4 -4.6197 -0.4103 3.1586 16.3059 1.4751 -0.5674
# 5 17.3620 11.6145 5.1892 1.4751 21.2931 1.4663
# 6 -1.8653 1.7659 17.9450 -0.5674 1.4663 39.2407
#
#
#
# Elastic Compliance Matrix: (Units=1/GPa)
#
#
# Indices 1 2 3 4 5 6 
#
# 1 0.015590 -0.004151 -0.011052 0.007465 -0.008713 0.006416
# 2 -0.004151 0.016800 0.005987 -0.001409 -0.006902 -0.003453
# 3 -0.011052 0.005987 0.048238 -0.012801 -0.003545 -0.022907
# 4 0.007465 -0.001409 -0.012801 0.066813 -0.007345 0.007513
# 5 -0.008713 -0.006902 -0.003545 -0.007345 0.059261 -0.000803
# 6 0.006416 -0.003453 -0.022907 0.007513 -0.000803 0.036558
#
#
# Mechanical properties :
#
#
# Convention : Reuss Voigt Hill
#
# Bulk Modulus (GPa) = 16.07854 31.33550 23.70702
# Shear Modulus (GPa) = 17.70379 26.16982 21.93681
#
# Velocity S-wave (km/s) = 2.88648 3.50943 3.21309
# Velocity P-wave (km/s) = 4.32157 5.58288 4.99222
#
# Compressibility (1/GPa) = 0.06219471
#
# Stress axis : x y z
#
# Youngs Moduli (GPa) = 64.14183 59.52503 20.73052
#
# Poissons Ratio (x) = 0.24710 0.22912
# Poissons Ratio (y) = 0.26626 -0.12410
# Poissons Ratio (z) = 0.70890 -0.35635
#
# Static dielectric constant tensor:
#      x y z
#    x 1.761870 -0.025210 0.000090 
#    y -0.025210 1.760390 -0.013760 
#    z 0.000090 -0.013760 1.838620 
# 
# From -- ./inp_files/169318.got.cif
#   From: 2010.05.17/outbox.cif.g08.bks.cpg/sg2_85_cif.got.tgz:169318.got - 2010.06.03 11:33:40.
