data_PCOD9008926
_publ_section_title
;
Structure prediction by ZEFSAII (Michael W. Deem and Ramdas Pophale) SiO2 
 PCOD9008926
Probable space group: P -1
;
_chemical_formula_sum "Si O2"
_cell_formula_units_Z 16
_cell_length_a 8.444337
_cell_length_b 11.930819
_cell_length_c 14.789385
_cell_angle_alpha 138.245378
_cell_angle_beta 102.750829
_cell_angle_gamma 54.179710
_cell_volume 737.476339
_symmetry_space_group_name_H-M "P -1"
_symmetry_group_IT_number 2
_symmetry_cell_setting 'triclinic'
loop_
_space_group_symop_operation_xyz
x,y,z
-x,-y,-z
loop_
_atom_site_type_symbol
_atom_site_label
_atom_site_fract_x
_atom_site_fract_y
_atom_site_fract_z
Si Si1 0.456079 0.321540 0.992052
Si Si2 0.101556 0.916814 0.182294
Si Si3 0.500627 0.333583 0.462314
Si Si4 0.920195 0.443413 0.040279
Si Si5 0.051192 0.897884 0.543076
Si Si6 0.630421 0.859449 0.812925
Si Si7 0.940170 0.373746 0.356904
Si Si8 0.201589 0.468440 0.217003
O O1 0.685192 0.239008 0.944381
O O2 0.324764 0.408074 0.933602
O O3 0.502235 0.106110 0.909436
O O4 0.315870 0.486953 0.157614
O O5 0.994270 0.805405 0.093549
O O6 0.124631 0.941976 0.307024
O O7 0.980246 0.166061 0.284501
O O8 0.500000 0.500000 0.500000
O O9 0.731961 0.161950 0.430468
O O10 0.437205 0.230295 0.324060
O O11 0.312740 0.457651 0.588266
O O12 0.009270 0.487233 0.162422
O O13 0.000000 0.500000 0.000000
O O14 0.108071 0.663356 0.394630
O O15 0.000000 0.000000 0.500000
O O16 0.625297 0.764220 0.849642
O O17 0.882054 0.738423 0.765390
O O18 0.000000 0.500000 0.500000
#
# Coordination Sequence:
#
# PCOD9008926 Si02
#       8
#     2   2   2   2   2   2   2   2
#     4  10  23  42  68  90 131 180 216 263 339 392
#     4  11  22  44  70  92 133 179 223 263 331 403
#     4  11  20  38  66  90 129 175 215 264 343 389
#     4  10  23  41  66  91 134 179 215 263 337 395
#     4  12  25  40  66  98 129 166 225 278 321 386
#     4  10  21  39  66  93 128 169 222 274 321 394
#     4   9  19  39  64  96 127 169 214 270 325 388
#     4  11  23  43  62 100 135 163 225 284 318 385
#
# _framework density 21.695609999999999
#
# number of rings (size 3 to 8) (size 9 to 14) (size 15 to 20)
#    0.000    1.500    2.500    3.000    5.250    0.000 
#    6.750    1.875    0.000    0.000    0.000    0.000 
#    0.000    0.000    0.000    0.000    0.000    0.000 
#
# Total GULP energy -89131.605886 kJ/mol
# GULP energy per Si atom -5570.725368 kJ/mol
# Density = 2.164623 g / cm^3
# Si number density = 21.695610 Si / 1000 Ang^3
#
#
#
# Elastic Constant Matrix: (Units=GPa)
#
#
# Indices 1 2 3 4 5 6 
#
# 1 70.8921 15.7101 40.4979 1.7932 8.9527 5.8802
# 2 15.7101 104.3676 4.5667 -5.2438 5.1856 5.5421
# 3 40.4979 4.5667 67.8880 -4.8295 7.9855 15.7580
# 4 1.7932 -5.2438 -4.8295 33.1397 6.8611 6.5203
# 5 8.9527 5.1856 7.9855 6.8611 31.1415 7.9335
# 6 5.8802 5.5421 15.7580 6.5203 7.9335 31.0348
#
#
#
# Elastic Compliance Matrix: (Units=1/GPa)
#
#
# Indices 1 2 3 4 5 6 
#
# 1 0.023395 -0.003240 -0.014985 -0.004457 -0.002735 0.005390
# 2 -0.003240 0.010325 0.002213 0.002924 -0.001330 -0.002628
# 3 -0.014985 0.002213 0.027202 0.007935 -0.001565 -0.012635
# 4 -0.004457 0.002924 0.007935 0.035258 -0.006607 -0.009425
# 5 -0.002735 -0.001330 -0.001565 -0.006607 0.036612 -0.006420
# 6 0.005390 -0.002628 -0.012635 -0.009425 -0.006420 0.041707
#
#
# Mechanical properties :
#
#
# Convention : Reuss Voigt Hill
#
# Bulk Modulus (GPa) = 34.60493 40.52189 37.56341
# Shear Modulus (GPa) = 23.13159 31.22140 27.17649
#
# Velocity S-wave (km/s) = 3.26879 3.79762 3.54309
# Velocity P-wave (km/s) = 5.49832 6.16013 5.83861
#
# Compressibility (1/GPa) = 0.02889761
#
# Stress axis : x y z
#
# Youngs Moduli (GPa) = 42.74395 96.85273 36.76266
#
# Poissons Ratio (x) = 0.31382 0.55087
# Poissons Ratio (y) = 0.13850 -0.08135
# Poissons Ratio (z) = 0.64050 -0.21431
#
# Static dielectric constant tensor:
#      x y z
#    x 1.847530 -0.005390 -0.051850 
#    y -0.005390 1.820520 0.064480 
#    z -0.051850 0.064480 1.927050 
# 
# From -- ./inp_files/501013.got.cif
#   From: 2010.05.17/outbox.cif.g08.bks.cpg/sg2_251_cif.got.tgz:501013.got - 2010.06.03 11:33:40.
