data_PCOD9008055
_publ_section_title
;
Structure prediction by ZEFSAII (Michael W. Deem and Ramdas Pophale) SiO2 
 PCOD9008055
Probable space group: P -1
;
_chemical_formula_sum "Si O2"
_cell_formula_units_Z 12
_cell_length_a 8.272769
_cell_length_b 9.465523
_cell_length_c 14.098052
_cell_angle_alpha 56.687489
_cell_angle_beta 42.240727
_cell_angle_gamma 80.330232
_cell_volume 561.466663
_symmetry_space_group_name_H-M "P -1"
_symmetry_group_IT_number 2
_symmetry_cell_setting 'triclinic'
loop_
_space_group_symop_operation_xyz
x,y,z
-x,-y,-z
loop_
_atom_site_type_symbol
_atom_site_label
_atom_site_fract_x
_atom_site_fract_y
_atom_site_fract_z
Si Si1 0.913507 0.458052 0.943650
Si Si2 0.335987 0.228255 0.347172
Si Si3 0.695309 0.452605 0.659783
Si Si4 0.996716 0.832106 0.663126
Si Si5 0.363251 0.135416 0.039031
Si Si6 0.830118 0.814610 0.085280
O O1 0.984900 0.648983 0.786815
O O2 0.054438 0.334341 0.888475
O O3 0.600635 0.330820 0.133540
O O4 0.000000 0.500000 0.000000
O O5 0.346772 0.359566 0.382539
O O6 0.094515 0.211193 0.389773
O O7 0.271223 0.016964 0.481051
O O8 0.587856 0.344286 0.846541
O O9 0.492761 0.303675 0.727929
O O10 0.000000 0.500000 0.500000
O O11 0.780105 0.887485 0.790741
O O12 0.145303 0.122807 0.059068
O O13 0.500000 0.000000 0.000000
O O14 0.000000 0.000000 0.000000
#
# Coordination Sequence:
#
# PCOD9008055 Si02
#       6
#     2   2   2   2   2   2
#     4  12  21  45  64  96 138 170 221 277 338 399
#     4  11  24  40  69 102 128 177 229 276 331 404
#     4  10  21  41  65  95 138 170 229 279 328 405
#     4  11  24  41  68 103 130 176 230 274 337 403
#     4  10  21  39  63  95 132 180 214 275 334 397
#     4  10  24  40  66  99 136 182 216 277 348 396
#
# _framework density 21.372595
#
# number of rings (size 3 to 8) (size 9 to 14) (size 15 to 20)
#    1.000    0.333    5.000    1.500    2.333    2.000 
#    0.000    0.000    0.000    4.000    0.000    0.000 
#    0.000    0.000    0.000    0.000    0.000    0.000 
#
# Total GULP energy -66895.851907 kJ/mol
# GULP energy per Si atom -5574.654326 kJ/mol
# Density = 2.132395 g / cm^3
# Si number density = 21.372595 Si / 1000 Ang^3
#
#
#
# Elastic Constant Matrix: (Units=GPa)
#
#
# Indices 1 2 3 4 5 6 
#
# 1 63.4010 42.2708 39.0593 -19.4369 -8.5125 1.9906
# 2 42.2708 118.5107 48.0040 -33.8988 -11.1571 -11.0934
# 3 39.0593 48.0040 105.2636 -41.7975 -3.8619 -4.0427
# 4 -19.4369 -33.8988 -41.7975 40.1755 1.9491 0.0049
# 5 -8.5125 -11.1571 -3.8619 1.9491 33.1721 -8.6589
# 6 1.9906 -11.0934 -4.0427 0.0049 -8.6589 43.1527
#
#
#
# Elastic Compliance Matrix: (Units=1/GPa)
#
#
# Indices 1 2 3 4 5 6 
#
# 1 0.024078 -0.006102 -0.006181 -0.000061 0.002701 -0.002716
# 2 -0.006102 0.013924 -0.000600 0.007989 0.003769 0.004560
# 3 -0.006181 -0.000600 0.018312 0.015559 -0.000094 0.001826
# 4 -0.000061 0.007989 0.015559 0.047655 0.002742 0.004059
# 5 0.002701 0.003769 -0.000094 0.002742 0.033930 0.007643
# 6 -0.002716 0.004560 0.001826 0.004059 0.007643 0.026175
#
#
# Mechanical properties :
#
#
# Convention : Reuss Voigt Hill
#
# Bulk Modulus (GPa) = 32.73560 60.64926 46.69243
# Shear Modulus (GPa) = 24.99691 33.82280 29.40986
#
# Velocity S-wave (km/s) = 3.42362 3.98242 3.71355
# Velocity P-wave (km/s) = 5.56580 7.04166 6.34677
#
# Compressibility (1/GPa) = 0.03054778
#
# Stress axis : x y z
#
# Youngs Moduli (GPa) = 41.53127 71.81589 54.60915
#
# Poissons Ratio (x) = 0.43822 0.33756
# Poissons Ratio (y) = 0.25342 0.03278
# Poissons Ratio (z) = 0.25672 0.04310
#
# Static dielectric constant tensor:
#      x y z
#    x 1.827730 0.020630 -0.014110 
#    y 0.020630 1.829840 -0.000510 
#    z -0.014110 -0.000510 1.820780 
# 
# From -- ./inp_files/146926.got.cif
#   From: 2010.05.17/outbox.cif.g08.bks.cpg/sg2_74_cif.got.tgz:146926.got - 2010.06.03 11:33:40.
