data_PCOD9008673
_publ_section_title
;
Structure prediction by ZEFSAII (Michael W. Deem and Ramdas Pophale) SiO2 
 PCOD9008673
Probable space group: P -1
;
_chemical_formula_sum "Si O2"
_cell_formula_units_Z 16
_cell_length_a 8.379545
_cell_length_b 13.759587
_cell_length_c 12.695522
_cell_angle_alpha 117.463723
_cell_angle_beta 94.532270
_cell_angle_gamma 43.749601
_cell_volume 817.488715
_symmetry_space_group_name_H-M "P -1"
_symmetry_group_IT_number 2
_symmetry_cell_setting 'triclinic'
loop_
_space_group_symop_operation_xyz
x,y,z
-x,-y,-z
loop_
_atom_site_type_symbol
_atom_site_label
_atom_site_fract_x
_atom_site_fract_y
_atom_site_fract_z
Si Si1 0.472691 0.535044 0.698176
Si Si2 0.730949 0.088601 0.761980
Si Si3 0.403599 0.059851 0.203155
Si Si4 0.798330 0.185935 0.023272
Si Si5 0.706851 0.669191 0.535411
Si Si6 0.110444 0.242886 0.059383
Si Si7 0.261559 0.731729 0.578748
Si Si8 0.321615 0.386128 0.724096
O O1 0.270496 0.669741 0.662425
O O2 0.719954 0.371006 0.561817
O O3 0.411529 0.457002 0.719372
O O4 0.438132 0.655405 0.834773
O O5 0.715107 0.174729 0.905729
O O6 0.526894 0.229943 0.735849
O O7 0.690855 0.987918 0.752733
O O8 0.017526 0.936644 0.657156
O O9 0.404892 0.167758 0.327394
O O10 0.227473 0.174117 0.148818
O O11 0.669181 0.881953 0.077130
O O12 0.943307 0.222269 0.026603
O O13 0.000000 0.000000 0.000000
O O14 0.517297 0.669259 0.554154
O O15 0.707240 0.673311 0.410470
O O16 0.000000 0.500000 0.500000
O O17 0.940481 0.442086 0.146872
#
# Coordination Sequence:
#
# PCOD9008673 Si02
#       8
#     2   2   2   2   2   2   2   2
#     4   9  20  35  63  89 119 151 205 254 287 360
#     4  12  24  39  64  90 130 162 197 255 307 365
#     4  11  23  38  64  92 121 163 207 254 297 361
#     4  11  19  37  63  90 117 157 208 248 297 362
#     4  11  23  40  67  91 120 162 209 251 301 363
#     4  10  21  40  62  91 124 156 207 256 301 358
#     4  10  21  39  65  94 119 158 207 256 303 352
#     4  10  23  43  61  91 128 159 201 253 311 358
#
# _framework density 19.572137000000001
#
# number of rings (size 3 to 8) (size 9 to 14) (size 15 to 20)
#    0.000    1.500    3.750    1.500    3.500    5.000 
#    0.000    1.250    5.500    0.000    0.000    0.000 
#    0.000    0.000    0.000    0.000    0.000    0.000 
#
# Total GULP energy -89262.366652 kJ/mol
# GULP energy per Si atom -5578.897916 kJ/mol
# Density = 1.952759 g / cm^3
# Si number density = 19.572137 Si / 1000 Ang^3
#
#
#
# Elastic Constant Matrix: (Units=GPa)
#
#
# Indices 1 2 3 4 5 6 
#
# 1 50.9896 24.7818 20.8342 1.2274 2.7510 -2.3009
# 2 24.7818 128.8843 75.3869 2.3099 1.6626 -22.4261
# 3 20.8342 75.3869 167.2993 10.8638 22.3722 -11.5693
# 4 1.2274 2.3099 10.8638 29.7359 -5.8867 3.2411
# 5 2.7510 1.6626 22.3722 -5.8867 31.9538 3.4711
# 6 -2.3009 -22.4261 -11.5693 3.2411 3.4711 13.3919
#
#
#
# Elastic Compliance Matrix: (Units=1/GPa)
#
#
# Indices 1 2 3 4 5 6 
#
# 1 0.021984 -0.004396 -0.001015 0.000197 -0.000440 -0.004395
# 2 -0.004396 0.014950 -0.004751 -0.001376 0.000459 0.020389
# 3 -0.001015 -0.004751 0.009906 -0.005194 -0.007965 0.003749
# 4 0.000197 -0.001376 -0.005194 0.040440 0.013313 -0.019994
# 5 -0.000440 0.000459 -0.007965 0.013313 0.041530 -0.020175
# 6 -0.004395 0.020389 0.003749 -0.019994 -0.020175 0.121367
#
#
# Mechanical properties :
#
#
# Convention : Reuss Voigt Hill
#
# Bulk Modulus (GPa) = 37.71317 65.46433 51.58875
# Shear Modulus (GPa) = 17.89936 30.09434 23.99685
#
# Velocity S-wave (km/s) = 3.02741 3.92549 3.50533
# Velocity P-wave (km/s) = 5.61524 7.35298 6.54206
#
# Compressibility (1/GPa) = 0.02651593
#
# Stress axis : x y z
#
# Youngs Moduli (GPa) = 45.48837 66.89148 100.94648
#
# Poissons Ratio (x) = 0.29406 0.10242
# Poissons Ratio (y) = 0.19997 0.47960
# Poissons Ratio (z) = 0.04615 0.31781
#
# Static dielectric constant tensor:
#      x y z
#    x 1.715830 -0.021150 -0.046300 
#    y -0.021150 1.663460 0.043710 
#    z -0.046300 0.043710 1.762900 
# 
# From -- ./inp_files/397663.got.cif
#   From: 2010.05.17/outbox.cif.g08.bks.cpg/sg2_199_cif.got.tgz:397663.got - 2010.06.03 11:33:40.
