data_PCOD9008133
_publ_section_title
;
Structure prediction by ZEFSAII (Michael W. Deem and Ramdas Pophale) SiO2 
 PCOD9008133
Probable space group: P -1
;
_chemical_formula_sum "Si O2"
_cell_formula_units_Z 12
_cell_length_a 15.613040
_cell_length_b 9.480287
_cell_length_c 9.222450
_cell_angle_alpha 114.086210
_cell_angle_beta 39.072921
_cell_angle_gamma 128.757976
_cell_volume 662.468842
_symmetry_space_group_name_H-M "P -1"
_symmetry_group_IT_number 2
_symmetry_cell_setting 'triclinic'
loop_
_space_group_symop_operation_xyz
x,y,z
-x,-y,-z
loop_
_atom_site_type_symbol
_atom_site_label
_atom_site_fract_x
_atom_site_fract_y
_atom_site_fract_z
Si Si1 0.651384 0.229617 0.530218
Si Si2 0.304154 0.436093 0.571485
Si Si3 0.977284 0.830535 0.368458
Si Si4 0.679010 0.604036 0.132881
Si Si5 0.285674 0.022368 0.847654
Si Si6 0.143961 0.494038 0.379993
O O1 0.697502 0.392069 0.421365
O O2 0.706778 0.098789 0.341068
O O3 0.735070 0.325163 0.610466
O O4 0.457384 0.113951 0.742317
O O5 0.171557 0.256764 0.584868
O O6 0.484321 0.481674 0.328010
O O7 0.274182 0.415527 0.773916
O O8 0.933874 0.671115 0.472133
O O9 0.000000 0.000000 0.500000
O O10 0.138300 0.897343 0.094435
O O11 0.727896 0.811546 0.124556
O O12 0.759411 0.543745 0.883164
O O13 0.000000 0.500000 0.500000
#
# Coordination Sequence:
#
# PCOD9008133 Si02
#       6
#     2   2   2   2   2   2
#     4   9  22  41  62  84 115 159 189 237 290 345
#     4   9  22  38  64  84 115 157 193 232 293 342
#     4  11  23  38  60  89 116 153 195 240 286 341
#     4  10  21  41  61  86 117 153 194 237 285 350
#     4  10  21  39  64  85 118 149 197 236 292 340
#     4  11  25  39  59  87 119 153 196 237 288 340
#
# _framework density 18.114059999999998
#
# number of rings (size 3 to 8) (size 9 to 14) (size 15 to 20)
#    0.000    2.000    1.667    0.000    7.000    5.333 
#    0.000    0.833    0.000    0.000    0.000    0.000 
#    0.000    0.000    0.000    0.000    0.000    0.000 
#
# Total GULP energy -67006.731805 kJ/mol
# GULP energy per Si atom -5583.894317 kJ/mol
# Density = 1.807283 g / cm^3
# Si number density = 18.114060 Si / 1000 Ang^3
#
#
#
# Elastic Constant Matrix: (Units=GPa)
#
#
# Indices 1 2 3 4 5 6 
#
# 1 133.6925 70.5990 72.1032 17.7080 12.1471 25.0396
# 2 70.5990 116.1177 64.2266 17.1065 -5.6579 35.5824
# 3 72.1032 64.2266 136.0263 5.7878 13.8960 12.5141
# 4 17.7080 17.1065 5.7878 31.9186 -4.4859 -3.3276
# 5 12.1471 -5.6579 13.8960 -4.4859 14.0524 2.0132
# 6 25.0396 35.5824 12.5141 -3.3276 2.0132 20.0897
#
#
#
# Elastic Compliance Matrix: (Units=1/GPa)
#
#
# Indices 1 2 3 4 5 6 
#
# 1 0.016040 -0.001445 -0.004903 -0.010309 -0.010739 -0.015009
# 2 -0.001445 0.058466 -0.021738 -0.029680 0.050883 -0.098227
# 3 -0.004903 -0.021738 0.018846 0.011342 -0.024865 0.037245
# 4 -0.010309 -0.029680 0.011342 0.057218 -0.005789 0.068411
# 5 -0.010739 0.050883 -0.024865 -0.005789 0.134515 -0.075687
# 6 -0.015009 -0.098227 0.037245 0.068411 -0.075687 0.238178
#
#
# Mechanical properties :
#
#
# Convention : Reuss Voigt Hill
#
# Bulk Modulus (GPa) = 26.89720 88.85487 57.87604
# Shear Modulus (GPa) = 8.44841 25.13933 16.79387
#
# Velocity S-wave (km/s) = 2.16197 3.72941 3.04816
# Velocity P-wave (km/s) = 4.59491 8.22825 6.66398
#
# Compressibility (1/GPa) = 0.03717859
#
# Stress axis : x y z
#
# Youngs Moduli (GPa) = 62.34501 17.10392 53.06259
#
# Poissons Ratio (x) = 0.02472 0.26019
# Poissons Ratio (y) = 0.09009 1.15348
# Poissons Ratio (z) = 0.30570 0.37181
#
# Static dielectric constant tensor:
#      x y z
#    x 1.607930 -0.000610 -0.003930 
#    y -0.000610 1.616490 -0.015010 
#    z -0.003930 -0.015010 1.596940 
# 
# From -- ./inp_files/144523.got.cif
#   From: 2010.05.17/outbox.cif.g08.bks.cpg/sg2_73_cif.got.tgz:144523.got - 2010.06.03 11:33:40.
