data_PCOD9008755
_publ_section_title
;
Structure prediction by ZEFSAII (Michael W. Deem and Ramdas Pophale) SiO2 
 PCOD9008755
Probable space group: P -1
;
_chemical_formula_sum "Si O2"
_cell_formula_units_Z 15
_cell_length_a 17.860477
_cell_length_b 9.028577
_cell_length_c 8.905951
_cell_angle_alpha 134.124884
_cell_angle_beta 144.718499
_cell_angle_gamma 52.802497
_cell_volume 593.157306
_symmetry_space_group_name_H-M "P -1"
_symmetry_group_IT_number 2
_symmetry_cell_setting 'triclinic'
loop_
_space_group_symop_operation_xyz
x,y,z
-x,-y,-z
loop_
_atom_site_type_symbol
_atom_site_label
_atom_site_fract_x
_atom_site_fract_y
_atom_site_fract_z
Si Si1 0.591184 0.283273 0.475703
Si Si2 0.189322 0.620113 0.311593
Si Si3 0.500642 0.939694 0.246419
Si Si4 0.713908 0.835873 0.747053
Si Si5 0.294576 0.529823 0.937534
Si Si6 0.907125 0.599279 0.287186
Si Si7 0.112014 0.808025 0.625380
Si Si8 0.500000 0.500000 0.000000
O O1 0.500000 0.500000 0.500000
O O2 0.685518 0.287772 0.491699
O O3 0.520622 0.075422 0.229749
O O4 0.680994 0.290811 0.777279
O O5 0.237816 0.400593 0.312473
O O6 0.119444 0.756472 0.424580
O O7 0.106257 0.556889 0.985718
O O8 0.645395 0.864767 0.494060
O O9 0.413181 0.110041 0.320412
O O10 0.429131 0.734784 0.022495
O O11 0.821116 0.988856 0.071668
O O12 0.231033 0.365358 0.826730
O O13 0.192504 0.616977 0.707568
O O14 0.426401 0.475937 0.025882
O O15 0.000000 0.500000 0.500000
O O16 0.968945 0.793357 0.451491
#
# Coordination Sequence:
#
# PCOD9008755 Si02
#       8
#     2   2   2   2   2   2   2   1
#     4  11  22  40  61  95 142 182 215 282 354 401
#     4  11  24  41  70 104 132 177 237 286 334 417
#     4  11  22  40  63 100 142 185 223 283 349 415
#     4  11  22  39  67 100 137 181 230 284 344 401
#     4  10  21  39  65  96 134 178 220 282 344 403
#     4   9  22  44  70  94 138 181 221 287 354 395
#     4  11  21  42  71  95 131 185 233 277 337 411
#     4  12  22  38  74  98 130 178 242 268 340 420
#
# _framework density 25.288399999999999
#
# number of rings (size 3 to 8) (size 9 to 14) (size 15 to 20)
#    0.000    1.333    4.000    2.000    1.867    0.533 
#    4.800    1.333    2.933    4.000    0.000    0.000 
#    0.000    0.000    0.000    0.000    0.000    0.000 
#
# Total GULP energy -83538.592184 kJ/mol
# GULP energy per Si atom -5569.239479 kJ/mol
# Density = 2.523084 g / cm^3
# Si number density = 25.288400 Si / 1000 Ang^3
#
#
#
# Elastic Constant Matrix: (Units=GPa)
#
#
# Indices 1 2 3 4 5 6 
#
# 1 196.1943 36.4106 61.4823 26.0790 7.3169 36.9769
# 2 36.4106 107.4874 35.8424 10.3811 -6.8073 19.1277
# 3 61.4823 35.8424 105.3351 7.2422 -9.6485 28.1779
# 4 26.0790 10.3811 7.2422 42.0797 15.1658 10.5845
# 5 7.3169 -6.8073 -9.6485 15.1658 42.2997 4.5074
# 6 36.9769 19.1277 28.1779 10.5845 4.5074 27.0307
#
#
#
# Elastic Compliance Matrix: (Units=1/GPa)
#
#
# Indices 1 2 3 4 5 6 
#
# 1 0.007456 -0.000379 -0.002356 -0.002363 -0.000349 -0.006492
# 2 -0.000379 0.011344 -0.001842 -0.001892 0.002714 -0.005300
# 3 -0.002356 -0.001842 0.015172 0.000745 0.004621 -0.012351
# 4 -0.002363 -0.001892 0.000745 0.030866 -0.010088 -0.006609
# 5 -0.000349 0.002714 0.004621 -0.010088 0.029580 -0.007242
# 6 -0.006492 -0.005300 -0.012351 -0.006609 -0.007242 0.066298
#
#
# Mechanical properties :
#
#
# Convention : Reuss Voigt Hill
#
# Bulk Modulus (GPa) = 40.29386 75.16526 57.72956
# Shear Modulus (GPa) = 28.06742 40.63412 34.35077
#
# Velocity S-wave (km/s) = 3.33512 4.01288 3.68959
# Velocity P-wave (km/s) = 5.54969 7.15951 6.40538
#
# Compressibility (1/GPa) = 0.02481768
#
# Stress axis : x y z
#
# Youngs Moduli (GPa) = 134.11341 88.15362 65.91263
#
# Poissons Ratio (x) = 0.03338 0.15529
# Poissons Ratio (y) = 0.05078 0.12144
# Poissons Ratio (z) = 0.31597 0.16241
#
# Static dielectric constant tensor:
#      x y z
#    x 2.051990 -0.002650 0.071180 
#    y -0.002650 2.000110 -0.027140 
#    z 0.071180 -0.027140 2.237910 
# 
# From -- ./inp_files/328186.got.cif
#   From: 2010.05.17/outbox.cif.g08.bks.cpg/sg2_165_cif.got.tgz:328186.got - 2010.06.03 11:33:40.
