data_PCOD9008543
_publ_section_title
;
Structure prediction by ZEFSAII (Michael W. Deem and Ramdas Pophale) SiO2 
 PCOD9008543
Probable space group: P -1
;
_chemical_formula_sum "Si O2"
_cell_formula_units_Z 15
_cell_length_a 8.720764
_cell_length_b 17.272403
_cell_length_c 8.741924
_cell_angle_alpha 142.330942
_cell_angle_beta 92.004585
_cell_angle_gamma 90.827996
_cell_volume 802.276848
_symmetry_space_group_name_H-M "P -1"
_symmetry_group_IT_number 2
_symmetry_cell_setting 'triclinic'
loop_
_space_group_symop_operation_xyz
x,y,z
-x,-y,-z
loop_
_atom_site_type_symbol
_atom_site_label
_atom_site_fract_x
_atom_site_fract_y
_atom_site_fract_z
Si Si1 0.627673 0.155763 0.128133
Si Si2 0.667396 0.402091 0.706356
Si Si3 0.903830 0.054996 0.444797
Si Si4 0.145846 0.236675 0.553054
Si Si5 0.384574 0.876205 0.271358
Si Si6 0.000000 0.500000 0.000000
Si Si7 0.268466 0.074789 0.033667
Si Si8 0.452335 0.327842 0.870606
O O1 0.663733 0.297899 0.410448
O O2 0.711500 0.059347 0.090035
O O3 0.670166 0.128731 0.912910
O O4 0.443219 0.126234 0.086146
O O5 0.839475 0.437127 0.821609
O O6 0.567702 0.344610 0.756425
O O7 0.591758 0.532576 0.863463
O O8 0.759632 0.118940 0.613761
O O9 0.013890 0.153766 0.508326
O O10 0.830697 0.950022 0.160811
O O11 0.000000 0.000000 0.500000
O O12 0.299720 0.249438 0.681683
O O13 0.093074 0.377522 0.751625
O O14 0.188644 0.167812 0.291263
O O15 0.472345 0.752035 0.120653
O O16 0.500000 0.000000 0.500000
#
# Coordination Sequence:
#
# PCOD9008543 Si02
#       8
#     2   2   2   2   2   1   2   2
#     4  11  22  38  66  94 123 165 212 265 305 368
#     4  10  21  40  64  92 120 167 214 256 310 372
#     4  12  25  39  61  93 132 164 200 260 325 372
#     4  11  22  39  64  93 123 165 208 260 310 369
#     4  12  23  39  62  91 131 168 206 261 314 373
#     4  10  22  38  64  90 126 156 206 260 306 374
#     4  11  22  39  63  94 124 161 216 259 309 372
#     4  10  21  39  65  89 122 166 215 254 308 375
#
# _framework density 18.696788999999999
#
# number of rings (size 3 to 8) (size 9 to 14) (size 15 to 20)
#    0.000    1.067    2.667    5.200    0.000    1.600 
#    0.000    0.000    0.000    3.200    0.000    0.000 
#    0.000    0.000    0.000    0.000    0.000    0.000 
#
# Total GULP energy -83594.182046 kJ/mol
# GULP energy per Si atom -5572.945470 kJ/mol
# Density = 1.865423 g / cm^3
# Si number density = 18.696789 Si / 1000 Ang^3
#
#
#
# Elastic Constant Matrix: (Units=GPa)
#
#
# Indices 1 2 3 4 5 6 
#
# 1 78.7936 19.7219 32.4087 -4.0599 5.8478 -14.2600
# 2 19.7219 32.3105 21.7457 -0.0710 1.2044 -2.7341
# 3 32.4087 21.7457 140.7957 -12.0067 7.4645 -2.2889
# 4 -4.0599 -0.0710 -12.0067 20.2769 3.9254 -5.4447
# 5 5.8478 1.2044 7.4645 3.9254 28.9495 -0.8802
# 6 -14.2600 -2.7341 -2.2889 -5.4447 -0.8802 25.7715
#
#
#
# Elastic Compliance Matrix: (Units=1/GPa)
#
#
# Indices 1 2 3 4 5 6 
#
# 1 0.018021 -0.008686 -0.001986 0.005705 -0.003237 0.009968
# 2 -0.008686 0.039104 -0.004631 -0.005296 0.001975 -0.002120
# 3 -0.001986 -0.004631 0.008865 0.005369 -0.002412 0.000249
# 4 0.005705 -0.005296 0.005369 0.059663 -0.009940 0.015337
# 5 -0.003237 0.001975 -0.002412 -0.009940 0.037004 -0.002632
# 6 0.009968 -0.002120 0.000249 0.015337 -0.002632 0.047266
#
#
# Mechanical properties :
#
#
# Convention : Reuss Voigt Hill
#
# Bulk Modulus (GPa) = 28.26271 44.40582 36.33427
# Shear Modulus (GPa) = 19.81592 26.86782 23.34187
#
# Velocity S-wave (km/s) = 3.25908 3.79493 3.53716
# Velocity P-wave (km/s) = 5.41399 6.55775 6.01312
#
# Compressibility (1/GPa) = 0.03538231
#
# Stress axis : x y z
#
# Youngs Moduli (GPa) = 55.49171 25.57311 112.80645
#
# Poissons Ratio (x) = 0.22213 0.22407
# Poissons Ratio (y) = 0.48200 0.52240
# Poissons Ratio (z) = 0.11023 0.11843
#
# Static dielectric constant tensor:
#      x y z
#    x 1.639090 0.003540 -0.003440 
#    y 0.003540 1.638540 0.012870 
#    z -0.003440 0.012870 1.624110 
# 
# From -- ./inp_files/170652.got.cif
#   From: 2010.05.17/outbox.cif.g08.bks.cpg/sg2_86_cif.got.tgz:170652.got - 2010.06.03 11:33:40.
