data_PCOD9008763
_publ_section_title
;
Structure prediction by ZEFSAII (Michael W. Deem and Ramdas Pophale) SiO2 
 PCOD9008763
Probable space group: P -1
;
_chemical_formula_sum "Si O2"
_cell_formula_units_Z 15
_cell_length_a 4.979095
_cell_length_b 19.003831
_cell_length_c 11.354699
_cell_angle_alpha 147.279824
_cell_angle_beta 77.222264
_cell_angle_gamma 103.061886
_cell_volume 564.744930
_symmetry_space_group_name_H-M "P -1"
_symmetry_group_IT_number 2
_symmetry_cell_setting 'triclinic'
loop_
_space_group_symop_operation_xyz
x,y,z
-x,-y,-z
loop_
_atom_site_type_symbol
_atom_site_label
_atom_site_fract_x
_atom_site_fract_y
_atom_site_fract_z
Si Si1 0.522471 0.219882 0.059842
Si Si2 0.000000 0.000000 0.500000
Si Si3 0.646211 0.806072 0.592325
Si Si4 0.534441 0.587738 0.484744
Si Si5 0.077516 0.468889 0.198663
Si Si6 0.422115 0.230412 0.814726
Si Si7 0.015224 0.939734 0.135978
Si Si8 0.817431 0.311805 0.686157
O O1 0.455315 0.362078 0.312159
O O2 0.547082 0.211088 0.904205
O O3 0.805331 0.184514 0.040757
O O4 0.275193 0.112011 0.962275
O O5 0.286585 0.095454 0.588074
O O6 0.037528 0.012534 0.658551
O O7 0.608828 0.724804 0.600865
O O8 0.357877 0.788957 0.526227
O O9 0.871821 0.727948 0.388408
O O10 0.792758 0.949567 0.792144
O O11 0.243173 0.536102 0.387043
O O12 0.763150 0.494709 0.287544
O O13 0.174957 0.549358 0.185061
O O14 0.172618 0.324403 0.980962
O O15 0.655394 0.298822 0.804956
#
# Coordination Sequence:
#
# PCOD9008763 Si02
#       8
#     2   1   2   2   2   2   2   2
#     4  11  26  39  63  95 129 174 216 261 321 383
#     4  10  24  40  64  92 138 162 206 262 316 392
#     4  10  21  39  66  91 128 175 209 267 324 367
#     4  10  23  45  63  95 130 164 225 271 310 382
#     4  10  23  42  70  94 126 173 216 266 325 374
#     4  11  24  42  67  98 133 171 212 264 328 390
#     4  11  23  40  61  95 127 177 212 255 328 383
#     4  10  21  39  65  97 129 165 214 268 319 385
#
# _framework density 26.560661
#
# number of rings (size 3 to 8) (size 9 to 14) (size 15 to 20)
#    0.000    1.600    1.333    2.000    1.867    6.400 
#    0.000    4.000    0.000    0.000    0.000    0.000 
#    0.000    0.000    0.000    0.000    0.000    0.000 
#
# Total GULP energy -83938.874283 kJ/mol
# GULP energy per Si atom -5595.924952 kJ/mol
# Density = 2.650021 g / cm^3
# Si number density = 26.560661 Si / 1000 Ang^3
#
#
#
# Elastic Constant Matrix: (Units=GPa)
#
#
# Indices 1 2 3 4 5 6 
#
# 1 68.7646 20.4209 11.9981 3.2321 13.4316 7.5089
# 2 20.4209 78.3219 7.9519 1.7065 -2.4968 11.9120
# 3 11.9981 7.9519 71.1232 -5.9299 16.4423 -0.0565
# 4 3.2321 1.7065 -5.9299 38.5110 -4.2740 0.3753
# 5 13.4316 -2.4968 16.4423 -4.2740 27.8385 8.4820
# 6 7.5089 11.9120 -0.0565 0.3753 8.4820 31.9912
#
#
#
# Elastic Compliance Matrix: (Units=1/GPa)
#
#
# Indices 1 2 3 4 5 6 
#
# 1 0.017988 -0.004880 -0.000570 -0.002399 -0.009164 0.000052
# 2 -0.004880 0.015534 -0.002594 0.000198 0.007317 -0.006586
# 3 -0.000570 -0.002594 0.017138 0.001533 -0.011078 0.004049
# 4 -0.002399 0.000198 0.001533 0.026931 0.004733 -0.001079
# 5 -0.009164 0.007317 -0.011078 0.004733 0.052726 -0.014628
# 6 0.000052 -0.006586 0.004049 -0.001079 -0.014628 0.037597
#
#
# Mechanical properties :
#
#
# Convention : Reuss Voigt Hill
#
# Bulk Modulus (GPa) = 28.92467 33.21684 31.07076
# Shear Modulus (GPa) = 25.57202 31.52406 28.54804
#
# Velocity S-wave (km/s) = 3.10623 3.44884 3.28201
# Velocity P-wave (km/s) = 4.87633 5.32846 5.10740
#
# Compressibility (1/GPa) = 0.03457257
#
# Stress axis : x y z
#
# Youngs Moduli (GPa) = 55.59238 64.37489 58.34841
#
# Poissons Ratio (x) = 0.31414 0.03328
# Poissons Ratio (y) = 0.27128 0.15134
# Poissons Ratio (z) = 0.03171 0.16697
#
# Static dielectric constant tensor:
#      x y z
#    x 1.972020 -0.026830 -0.061780 
#    y -0.026830 2.060170 -0.058730 
#    z -0.061780 -0.058730 2.007320 
# 
# From -- ./inp_files/66789.got.cif
#   From: 2010.05.17/outbox.cif.g08.bks.cpg/sg2_34_cif.got.tgz:66789.got - 2010.06.03 11:33:40.
