data_PCOD9008667
_publ_section_title
;
Structure prediction by ZEFSAII (Michael W. Deem and Ramdas Pophale) SiO2 
 PCOD9008667
Probable space group: P -1
;
_chemical_formula_sum "Si O2"
_cell_formula_units_Z 16
_cell_length_a 17.144886
_cell_length_b 6.260618
_cell_length_c 13.070244
_cell_angle_alpha 124.158082
_cell_angle_beta 103.638032
_cell_angle_gamma 106.083570
_cell_volume 971.006796
_symmetry_space_group_name_H-M "P -1"
_symmetry_group_IT_number 2
_symmetry_cell_setting 'triclinic'
loop_
_space_group_symop_operation_xyz
x,y,z
-x,-y,-z
loop_
_atom_site_type_symbol
_atom_site_label
_atom_site_fract_x
_atom_site_fract_y
_atom_site_fract_z
Si Si1 0.200268 0.706919 0.732975
Si Si2 0.932076 0.900619 0.549711
Si Si3 0.134283 0.557189 0.013565
Si Si4 0.040080 0.505522 0.177748
Si Si5 0.357954 0.300654 0.864375
Si Si6 0.957247 0.134614 0.240090
Si Si7 0.522594 0.734784 0.921030
Si Si8 0.309293 0.818761 0.011551
O O1 0.166149 0.379785 0.589756
O O2 0.107671 0.722200 0.730668
O O3 0.253717 0.758132 0.870525
O O4 0.265383 0.975932 0.748277
O O5 0.977250 0.797881 0.624279
O O6 0.930523 0.185035 0.671495
O O7 0.000000 0.000000 0.500000
O O8 0.237970 0.783514 0.068191
O O9 0.057813 0.600150 0.939643
O O10 0.109210 0.222431 0.885451
O O11 0.113696 0.558069 0.126977
O O12 0.019242 0.259455 0.190931
O O13 0.423299 0.427500 0.817749
O O14 0.333451 0.554482 0.956282
O O15 0.419615 0.275889 0.967040
O O16 0.500000 0.000000 0.000000
O O17 0.595821 0.859014 0.883591
#
# Coordination Sequence:
#
# PCOD9008667 Si02
#       8
#     2   2   2   2   2   2   2   2
#     4  11  19  28  47  70  92 128 159 188 234 285
#     4  11  22  32  45  65  94 130 166 198 234 276
#     4  10  19  32  47  68  91 125 167 199 233 276
#     4  10  21  33  45  63  96 129 164 203 231 265
#     4   9  17  28  45  68  98 123 149 190 235 289
#     4  11  19  32  47  65  91 129 162 198 238 269
#     4   8  16  29  44  69  99 121 146 187 240 290
#     4  10  17  29  48  71  95 124 156 191 240 284
#
# _framework density 16.477741999999999
#
# number of rings (size 3 to 8) (size 9 to 14) (size 15 to 20)
#    0.000    2.000    3.750    1.500    0.000    0.000 
#    0.000    0.000    0.000    0.000    0.000    0.875 
#    0.000   35.000    0.000    3.000    0.000    0.250 
#
# Total GULP energy -89134.975921 kJ/mol
# GULP energy per Si atom -5570.935995 kJ/mol
# Density = 1.644024 g / cm^3
# Si number density = 16.477742 Si / 1000 Ang^3
#
#
#
# Elastic Constant Matrix: (Units=GPa)
#
#
# Indices 1 2 3 4 5 6 
#
# 1 68.9454 32.5221 5.4399 -5.3599 -4.2077 28.8130
# 2 32.5221 96.9605 9.0800 -9.3742 4.0825 30.4642
# 3 5.4399 9.0800 29.6994 -5.3037 -3.8650 16.1007
# 4 -5.3599 -9.3742 -5.3037 23.6011 4.2875 5.5638
# 5 -4.2077 4.0825 -3.8650 4.2875 8.7304 -2.6976
# 6 28.8130 30.4642 16.1007 5.5638 -2.6976 51.7620
#
#
#
# Elastic Compliance Matrix: (Units=1/GPa)
#
#
# Indices 1 2 3 4 5 6 
#
# 1 0.021815 -0.003904 0.005772 0.005989 0.008291 -0.011853
# 2 -0.003904 0.016557 0.000775 0.011489 -0.018009 -0.009986
# 3 0.005772 0.000775 0.046787 0.014895 0.009851 -0.019310
# 4 0.005989 0.011489 0.014895 0.063355 -0.034212 -0.023322
# 5 0.008291 -0.018009 0.009851 -0.034212 0.152617 0.014550
# 6 -0.011853 -0.009986 -0.019310 -0.023322 0.014550 0.041066
#
#
# Mechanical properties :
#
#
# Convention : Reuss Voigt Hill
#
# Bulk Modulus (GPa) = 11.05647 32.18770 21.62208
# Shear Modulus (GPa) = 13.62181 26.72293 20.17237
#
# Velocity S-wave (km/s) = 2.87832 4.03148 3.50268
# Velocity P-wave (km/s) = 4.21555 6.42237 5.43220
#
# Compressibility (1/GPa) = 0.09044482
#
# Stress axis : x y z
#
# Youngs Moduli (GPa) = 45.83949 60.39803 21.37355
#
# Poissons Ratio (x) = 0.23578 -0.12336
# Poissons Ratio (y) = 0.17895 -0.01656
# Poissons Ratio (z) = -0.26458 -0.04680
#
# Static dielectric constant tensor:
#      x y z
#    x 1.585300 0.025190 0.009810 
#    y 0.025190 1.601540 0.006130 
#    z 0.009810 0.006130 1.525380 
# 
# From -- ./inp_files/73919.got.cif
#   From: 2010.05.17/outbox.cif.g08.bks.cpg/sg2_37_cif.got.tgz:73919.got - 2010.06.03 11:33:40.
