data_PCOD9008609
_publ_section_title
;
Structure prediction by ZEFSAII (Michael W. Deem and Ramdas Pophale) SiO2 
 PCOD9008609
Probable space group: P -1
;
_chemical_formula_sum "Si O2"
_cell_formula_units_Z 16
_cell_length_a 11.865247
_cell_length_b 9.505229
_cell_length_c 8.680881
_cell_angle_alpha 47.156587
_cell_angle_beta 74.786726
_cell_angle_gamma 70.880564
_cell_volume 677.139059
_symmetry_space_group_name_H-M "P -1"
_symmetry_group_IT_number 2
_symmetry_cell_setting 'triclinic'
loop_
_space_group_symop_operation_xyz
x,y,z
-x,-y,-z
loop_
_atom_site_type_symbol
_atom_site_label
_atom_site_fract_x
_atom_site_fract_y
_atom_site_fract_z
Si Si1 0.751408 0.446703 0.022577
Si Si2 0.632625 0.536946 0.457885
Si Si3 0.407149 0.224469 0.977841
Si Si4 0.048408 0.201524 0.836294
Si Si5 0.199589 0.038613 0.160842
Si Si6 0.869283 0.277622 0.401170
Si Si7 0.897217 0.618586 0.610876
Si Si8 0.668266 0.259606 0.910823
O O1 0.644825 0.570966 0.069159
O O2 0.850903 0.333752 0.188095
O O3 0.800413 0.605763 0.784141
O O4 0.708772 0.290878 0.043952
O O5 0.500000 0.500000 0.500000
O O6 0.619279 0.741269 0.221505
O O7 0.748256 0.399945 0.437162
O O8 0.650288 0.475249 0.674905
O O9 0.545509 0.183819 0.996324
O O10 0.321015 0.079933 0.157730
O O11 0.130750 0.241109 0.633028
O O12 0.939187 0.388990 0.718252
O O13 0.113867 0.212915 0.968511
O O14 0.000000 0.000000 0.000000
O O15 0.131181 0.944831 0.385345
O O16 0.238931 0.886789 0.118879
O O17 0.986829 0.328525 0.391818
#
# Coordination Sequence:
#
# PCOD9008609 Si02
#       8
#     2   2   2   2   2   2   2   2
#     4  11  23  40  63  92 129 170 212 259 329 386
#     4   8  17  34  61  86 114 163 212 252 306 373
#     4  10  21  40  62  92 128 164 212 268 325 384
#     4  11  22  40  65  98 125 165 221 276 310 372
#     4  11  22  40  65  93 127 167 217 265 320 382
#     4  10  21  40  59  88 133 171 204 256 323 386
#     4  11  24  40  66  92 133 171 214 263 326 386
#     4  10  21  39  65  92 122 165 218 269 317 380
#
# _framework density 23.628826
#
# number of rings (size 3 to 8) (size 9 to 14) (size 15 to 20)
#    0.000    1.750    1.250    3.375    7.000    0.000 
#    4.500    1.875    0.000    0.000    0.000    0.000 
#    0.000    0.000    0.000    0.000    0.000    0.000 
#
# Total GULP energy -89333.265514 kJ/mol
# GULP energy per Si atom -5583.329095 kJ/mol
# Density = 2.357505 g / cm^3
# Si number density = 23.628826 Si / 1000 Ang^3
#
#
#
# Elastic Constant Matrix: (Units=GPa)
#
#
# Indices 1 2 3 4 5 6 
#
# 1 97.1284 10.6091 27.4734 7.0489 -4.8903 12.7772
# 2 10.6091 66.1619 15.4677 0.3169 1.8325 10.7743
# 3 27.4734 15.4677 129.8964 1.4208 -6.5053 13.3553
# 4 7.0489 0.3169 1.4208 28.1183 13.0970 -1.8001
# 5 -4.8903 1.8325 -6.5053 13.0970 27.5934 5.2902
# 6 12.7772 10.7743 13.3553 -1.8001 5.2902 32.5908
#
#
#
# Elastic Compliance Matrix: (Units=1/GPa)
#
#
# Indices 1 2 3 4 5 6 
#
# 1 0.012230 -0.000884 -0.001612 -0.005924 0.005632 -0.005084
# 2 -0.000884 0.016301 -0.001351 0.000213 -0.000826 -0.004343
# 3 -0.001612 -0.001351 0.008705 -0.001750 0.003285 -0.003118
# 4 -0.005924 0.000213 -0.001750 0.050569 -0.027437 0.010216
# 5 0.005632 -0.000826 0.003285 -0.027437 0.053681 -0.013510
# 6 -0.005084 -0.004343 -0.003118 0.010216 -0.013510 0.038147
#
#
# Mechanical properties :
#
#
# Convention : Reuss Voigt Hill
#
# Bulk Modulus (GPa) = 33.85081 44.47634 39.16357
# Shear Modulus (GPa) = 25.35818 33.63627 29.49723
#
# Velocity S-wave (km/s) = 3.27951 3.77706 3.53704
# Velocity P-wave (km/s) = 5.35700 6.15511 5.76987
#
# Compressibility (1/GPa) = 0.02954139
#
# Stress axis : x y z
#
# Youngs Moduli (GPa) = 81.76359 61.34513 114.88284
#
# Poissons Ratio (x) = 0.05423 0.18519
# Poissons Ratio (y) = 0.07229 0.15524
# Poissons Ratio (z) = 0.13180 0.08290
#
# Static dielectric constant tensor:
#      x y z
#    x 1.901870 -0.033600 0.012590 
#    y -0.033600 1.951960 -0.002070 
#    z 0.012590 -0.002070 2.003370 
# 
# From -- ./inp_files/242003.got.cif
#   From: 2010.05.17/outbox.cif.g08.bks.cpg/sg2_122_cif.got.tgz:242003.got - 2010.06.03 11:33:40.
