data_PCOD9008448
_publ_section_title
;
Structure prediction by ZEFSAII (Michael W. Deem and Ramdas Pophale) SiO2 
 PCOD9008448
Probable space group: P -1
;
_chemical_formula_sum "Si O2"
_cell_formula_units_Z 16
_cell_length_a 8.636866
_cell_length_b 14.054346
_cell_length_c 9.982492
_cell_angle_alpha 44.258451
_cell_angle_beta 92.602230
_cell_angle_gamma 70.343185
_cell_volume 716.834261
_symmetry_space_group_name_H-M "P -1"
_symmetry_group_IT_number 2
_symmetry_cell_setting 'triclinic'
loop_
_space_group_symop_operation_xyz
x,y,z
-x,-y,-z
loop_
_atom_site_type_symbol
_atom_site_label
_atom_site_fract_x
_atom_site_fract_y
_atom_site_fract_z
Si Si1 0.729309 0.641673 0.716587
Si Si2 0.009729 0.113690 0.275840
Si Si3 0.472996 0.149520 0.934955
Si Si4 0.131997 0.590836 0.832762
Si Si5 0.937439 0.337848 0.521293
Si Si6 0.574359 0.995701 0.655392
Si Si7 0.126186 0.970550 0.907588
Si Si8 0.805921 0.529229 0.557668
O O1 0.568158 0.820097 0.493719
O O2 0.732886 0.538146 0.694833
O O3 0.929471 0.620469 0.765292
O O4 0.717008 0.577303 0.926110
O O5 0.910682 0.282314 0.179690
O O6 0.216878 0.056796 0.303284
O O7 0.000000 0.000000 0.500000
O O8 0.924228 0.095560 0.155403
O O9 0.432661 0.118525 0.116547
O O10 0.662199 0.140799 0.943610
O O11 0.322687 0.314538 0.694727
O O12 0.500000 0.000000 0.000000
O O13 0.187354 0.615379 0.662575
O O14 0.846917 0.376659 0.625453
O O15 0.085713 0.150492 0.696340
O O16 0.023611 0.449361 0.423562
O O17 0.500000 0.000000 0.500000
O O18 0.000000 0.000000 0.000000
#
# Coordination Sequence:
#
# PCOD9008448 Si02
#       8
#     2   2   2   2   2   2   2   2
#     4  10  21  39  64  98 127 162 225 272 311 379
#     4  12  25  44  66  94 137 175 207 268 336 388
#     4  12  22  44  67  96 129 167 227 272 309 381
#     4  10  21  41  63  94 132 170 213 270 324 382
#     4  10  21  41  61  97 129 170 215 266 326 382
#     4  12  24  40  70  99 127 170 226 269 310 382
#     4  12  26  42  66  97 137 173 211 266 337 391
#     4  10  22  37  69  93 129 166 220 276 313 373
#
# _framework density 22.320361999999999
#
# number of rings (size 3 to 8) (size 9 to 14) (size 15 to 20)
#    0.000    1.000    5.000    2.250    3.500    1.000 
#    0.000    2.500    0.000    0.000    0.000    0.000 
#    0.000    0.000    0.000    0.000    0.000    0.000 
#
# Total GULP energy -89279.869690 kJ/mol
# GULP energy per Si atom -5579.991856 kJ/mol
# Density = 2.226956 g / cm^3
# Si number density = 22.320362 Si / 1000 Ang^3
#
#
#
# Elastic Constant Matrix: (Units=GPa)
#
#
# Indices 1 2 3 4 5 6 
#
# 1 80.4790 18.9064 13.0664 16.6276 10.6694 -5.5875
# 2 18.9064 140.6378 41.8604 38.8631 18.6674 17.2190
# 3 13.0664 41.8604 98.9708 15.8021 -0.3841 -0.9876
# 4 16.6276 38.8631 15.8021 43.9545 -2.3733 0.1676
# 5 10.6694 18.6674 -0.3841 -2.3733 24.5344 13.1411
# 6 -5.5875 17.2190 -0.9876 0.1676 13.1411 21.3904
#
#
#
# Elastic Compliance Matrix: (Units=1/GPa)
#
#
# Indices 1 2 3 4 5 6 
#
# 1 0.017125 0.000549 -0.001229 -0.007441 -0.016043 0.013889
# 2 0.000549 0.012878 -0.003908 -0.010619 -0.008343 -0.005195
# 3 -0.001229 -0.003908 0.011986 -0.000246 0.002774 0.001676
# 4 -0.007441 -0.010619 -0.000246 0.035977 0.017008 -0.004137
# 5 -0.016043 -0.008343 0.002774 0.017008 0.081113 -0.047312
# 6 0.013889 -0.005195 0.001676 -0.004137 -0.047312 0.083736
#
#
# Mechanical properties :
#
#
# Convention : Reuss Voigt Hill
#
# Bulk Modulus (GPa) = 30.47617 51.97266 41.22442
# Shear Modulus (GPa) = 19.01665 34.39282 26.70473
#
# Velocity S-wave (km/s) = 2.92205 3.92965 3.46270
# Velocity P-wave (km/s) = 5.00681 6.62759 5.87338
#
# Compressibility (1/GPa) = 0.03281252
#
# Stress axis : x y z
#
# Youngs Moduli (GPa) = 58.39552 77.65295 83.43230
#
# Poissons Ratio (x) = -0.04260 0.10250
# Poissons Ratio (y) = -0.03203 0.32604
# Poissons Ratio (z) = 0.07174 0.30346
#
# Static dielectric constant tensor:
#      x y z
#    x 1.855910 0.046510 -0.179290 
#    y 0.046510 1.886070 0.059240 
#    z -0.179290 0.059240 1.767090 
# 
# From -- ./inp_files/205646.got.cif
#   From: 2010.05.17/outbox.cif.g08.bks.cpg/sg2_103_cif.got.tgz:205646.got - 2010.06.03 11:33:40.
