data_PCOD9008632
_publ_section_title
;
Structure prediction by ZEFSAII (Michael W. Deem and Ramdas Pophale) SiO2 
 PCOD9008632
Probable space group: P -1
;
_chemical_formula_sum "Si O2"
_cell_formula_units_Z 16
_cell_length_a 14.405099
_cell_length_b 8.958797
_cell_length_c 14.478458
_cell_angle_alpha 122.939282
_cell_angle_beta 140.550181
_cell_angle_gamma 88.028572
_cell_volume 688.495137
_symmetry_space_group_name_H-M "P -1"
_symmetry_group_IT_number 2
_symmetry_cell_setting 'triclinic'
loop_
_space_group_symop_operation_xyz
x,y,z
-x,-y,-z
loop_
_atom_site_type_symbol
_atom_site_label
_atom_site_fract_x
_atom_site_fract_y
_atom_site_fract_z
Si Si1 0.810059 0.188113 0.323872
Si Si2 0.891766 0.126911 0.017520
Si Si3 0.855897 0.940942 0.591206
Si Si4 0.238030 0.702874 0.877283
Si Si5 0.302633 0.531495 0.581888
Si Si6 0.616151 0.913966 0.562107
Si Si7 0.692619 0.678872 0.846496
Si Si8 0.622608 0.790456 0.183286
O O1 0.791878 0.206354 0.207885
O O2 0.715101 0.283865 0.331463
O O3 0.049696 0.395934 0.614361
O O4 0.697081 0.913122 0.180598
O O5 0.817838 0.087440 0.843590
O O6 0.786948 0.855444 0.887005
O O7 0.798599 0.206993 0.032844
O O8 0.137610 0.351745 0.310351
O O9 0.780643 0.674880 0.471361
O O10 0.706668 0.930984 0.538659
O O11 0.811277 0.948718 0.454371
O O12 0.100103 0.174433 0.883585
O O13 0.458255 0.799469 0.086649
O O14 0.528856 0.670699 0.765973
O O15 0.445962 0.620615 0.370047
O O16 0.500000 0.000000 0.500000
O O17 0.500000 0.500000 0.000000
#
# Coordination Sequence:
#
# PCOD9008632 Si02
#       8
#     2   2   2   2   2   2   2   2
#     4  10  22  41  67  95 123 164 210 257 315 379
#     4  10  21  39  65  93 118 159 213 260 308 363
#     4  10  24  42  61  92 126 163 208 251 311 380
#     4  10  22  42  66  92 124 163 213 263 310 369
#     4   9  20  40  66  91 123 160 209 263 305 363
#     4  11  24  40  60  91 130 164 203 255 308 367
#     4  10  22  40  64  88 121 164 206 256 310 366
#     4  12  25  40  62  94 130 166 204 254 317 379
#
# _framework density 23.239087999999999
#
# number of rings (size 3 to 8) (size 9 to 14) (size 15 to 20)
#    0.000    1.750    0.000    3.000    0.000   13.500 
#    0.000    0.000    0.000    0.000    0.000    0.000 
#    0.000    0.000    0.000    0.000    0.000    0.000 
#
# Total GULP energy -89615.759173 kJ/mol
# GULP energy per Si atom -5600.984948 kJ/mol
# Density = 2.318619 g / cm^3
# Si number density = 23.239088 Si / 1000 Ang^3
#
#
#
# Elastic Constant Matrix: (Units=GPa)
#
#
# Indices 1 2 3 4 5 6 
#
# 1 53.5402 15.8121 3.1890 2.4213 -2.2083 -6.1341
# 2 15.8121 59.6098 18.6064 2.7553 -2.1836 7.8675
# 3 3.1890 18.6064 73.6987 -1.4866 11.2227 -0.1843
# 4 2.4213 2.7553 -1.4866 44.1639 -3.1109 -2.9155
# 5 -2.2083 -2.1836 11.2227 -3.1109 33.6665 -10.0786
# 6 -6.1341 7.8675 -0.1843 -2.9155 -10.0786 22.8649
#
#
#
# Elastic Compliance Matrix: (Units=1/GPa)
#
#
# Indices 1 2 3 4 5 6 
#
# 1 0.022091 -0.007151 0.000277 0.000193 0.003951 0.010155
# 2 -0.007151 0.021645 -0.005146 -0.001814 -0.000464 -0.009844
# 3 0.000277 -0.005146 0.015725 0.000405 -0.005661 -0.000472
# 4 0.000193 -0.001814 0.000405 0.023346 0.003469 0.005185
# 5 0.003951 -0.000464 -0.005661 0.003469 0.037583 0.018183
# 6 0.010155 -0.009844 -0.000472 0.005185 0.018183 0.058519
#
#
# Mechanical properties :
#
#
# Convention : Reuss Voigt Hill
#
# Bulk Modulus (GPa) = 28.23128 29.11821 28.67474
# Shear Modulus (GPa) = 23.28243 30.08846 26.68544
#
# Velocity S-wave (km/s) = 3.16866 3.60215 3.39233
# Velocity P-wave (km/s) = 5.05586 5.46422 5.26400
#
# Compressibility (1/GPa) = 0.03542170
#
# Stress axis : x y z
#
# Youngs Moduli (GPa) = 45.26804 46.20053 63.59316
#
# Poissons Ratio (x) = 0.33037 -0.01762
# Poissons Ratio (y) = 0.32370 0.32723
# Poissons Ratio (z) = -0.01254 0.23773
#
# Static dielectric constant tensor:
#      x y z
#    x 1.856450 -0.010870 0.010560 
#    y -0.010870 1.853330 0.034160 
#    z 0.010560 0.034160 1.895250 
# 
# From -- ./inp_files/528980.got.cif
#   From: 2010.05.17/outbox.cif.g08.bks.cpg/sg2_265_cif.got.tgz:528980.got - 2010.06.03 11:33:40.
