data_PCOD9008690
_publ_section_title
;
Structure prediction by ZEFSAII (Michael W. Deem and Ramdas Pophale) SiO2 
 PCOD9008690
Probable space group: P -1
;
_chemical_formula_sum "Si O2"
_cell_formula_units_Z 14
_cell_length_a 5.150537
_cell_length_b 19.784384
_cell_length_c 7.147122
_cell_angle_alpha 44.470689
_cell_angle_beta 103.162931
_cell_angle_gamma 100.672306
_cell_volume 496.521950
_symmetry_space_group_name_H-M "P -1"
_symmetry_group_IT_number 2
_symmetry_cell_setting 'triclinic'
loop_
_space_group_symop_operation_xyz
x,y,z
-x,-y,-z
loop_
_atom_site_type_symbol
_atom_site_label
_atom_site_fract_x
_atom_site_fract_y
_atom_site_fract_z
Si Si1 0.747586 0.399718 0.787954
Si Si2 0.977382 0.849267 0.676523
Si Si3 0.210637 0.430247 0.275197
Si Si4 0.187437 0.715902 0.311917
Si Si5 0.680540 0.671420 0.862240
Si Si6 0.220113 0.034014 0.262770
Si Si7 0.645501 0.092004 0.940595
O O1 0.703351 0.504460 0.661969
O O2 0.682838 0.366705 0.630916
O O3 0.565233 0.331814 0.028546
O O4 0.065079 0.383869 0.898121
O O5 0.805389 0.927182 0.605938
O O6 0.808228 0.779261 0.653344
O O7 0.195467 0.917958 0.475616
O O8 0.080090 0.783198 0.992374
O O9 0.048150 0.336437 0.509768
O O10 0.388526 0.389798 0.214260
O O11 0.000000 0.500000 0.000000
O O12 0.344185 0.792268 0.320365
O O13 0.477579 0.085287 0.118258
O O14 0.955847 0.067563 0.047368
O O15 0.500000 0.000000 0.000000
#
# Coordination Sequence:
#
# PCOD9008690 Si02
#       7
#     2   2   2   2   2   2   2
#     4  10  21  42  65  91 127 171 219 269 322 390
#     4   9  21  40  66  95 128 176 221 265 322 392
#     4  10  22  42  65  99 135 173 218 278 335 388
#     4  10  22  42  69  97 134 176 225 270 328 399
#     4  10  21  39  65  94 130 165 218 266 331 383
#     4  10  22  41  66  93 132 175 218 267 319 392
#     4  11  24  42  65  98 138 168 217 269 331 383
#
# _framework density 28.196133
#
# number of rings (size 3 to 8) (size 9 to 14) (size 15 to 20)
#    0.000    2.000    0.000    2.143    2.000    7.429 
#    2.571   22.857    0.000    0.000    0.000    0.000 
#    0.000    0.000    0.000    0.000    0.000    0.000 
#
# Total GULP energy -78343.007398 kJ/mol
# GULP energy per Si atom -5595.929100 kJ/mol
# Density = 2.813196 g / cm^3
# Si number density = 28.196133 Si / 1000 Ang^3
#
#
#
# Elastic Constant Matrix: (Units=GPa)
#
#
# Indices 1 2 3 4 5 6 
#
# 1 92.6640 13.6834 15.9425 6.8834 -2.9332 12.9657
# 2 13.6834 216.6068 1.0301 -20.9276 8.8527 21.6009
# 3 15.9425 1.0301 67.6511 -27.7364 -15.8944 17.1856
# 4 6.8834 -20.9276 -27.7364 57.6408 0.8669 -8.3843
# 5 -2.9332 8.8527 -15.8944 0.8669 51.7491 3.4556
# 6 12.9657 21.6009 17.1856 -8.3843 3.4556 46.5770
#
#
#
# Elastic Compliance Matrix: (Units=1/GPa)
#
#
# Indices 1 2 3 4 5 6 
#
# 1 0.012219 -0.000915 -0.003994 -0.004033 -0.000162 -0.002217
# 2 -0.000915 0.005142 0.001640 0.002440 -0.000317 -0.002273
# 3 -0.003994 0.001640 0.023789 0.011410 0.007069 -0.006897
# 4 -0.004033 0.002440 0.011410 0.024162 0.002457 -0.000052
# 5 -0.000162 -0.000317 0.007069 0.002457 0.021739 -0.003587
# 6 -0.002217 -0.002273 -0.006897 -0.000052 -0.003587 0.025943
#
#
# Mechanical properties :
#
#
# Convention : Reuss Voigt Hill
#
# Bulk Modulus (GPa) = 28.89078 48.69266 38.79172
# Shear Modulus (GPa) = 38.14846 54.27778 46.21312
#
# Velocity S-wave (km/s) = 3.68226 4.39225 4.05283
# Velocity P-wave (km/s) = 5.32422 6.55967 5.97397
#
# Compressibility (1/GPa) = 0.03461312
#
# Stress axis : x y z
#
# Youngs Moduli (GPa) = 81.84229 194.47920 42.03647
#
# Poissons Ratio (x) = 0.17791 0.16789
# Poissons Ratio (y) = 0.07487 -0.06896
# Poissons Ratio (z) = 0.32686 -0.31903
#
# Static dielectric constant tensor:
#      x y z
#    x 2.201560 0.021440 0.121410 
#    y 0.021440 2.255720 0.016520 
#    z 0.121410 0.016520 2.248340 
# 
# From -- ./inp_files/140463.got.cif
#   From: 2010.05.17/outbox.cif.g08.bks.cpg/sg2_71_cif.got.tgz:140463.got - 2010.06.03 11:33:40.
