data_PCOD9008966
_publ_section_title
;
Structure prediction by ZEFSAII (Michael W. Deem and Ramdas Pophale) SiO2 
 PCOD9008966
Probable space group: P -1
;
_chemical_formula_sum "Si O2"
_cell_formula_units_Z 16
_cell_length_a 9.102923
_cell_length_b 16.372857
_cell_length_c 8.131620
_cell_angle_alpha 35.688807
_cell_angle_beta 103.822716
_cell_angle_gamma 94.114815
_cell_volume 670.361988
_symmetry_space_group_name_H-M "P -1"
_symmetry_group_IT_number 2
_symmetry_cell_setting 'triclinic'
loop_
_space_group_symop_operation_xyz
x,y,z
-x,-y,-z
loop_
_atom_site_type_symbol
_atom_site_label
_atom_site_fract_x
_atom_site_fract_y
_atom_site_fract_z
Si Si1 0.940552 0.079047 0.119656
Si Si2 0.158557 0.864078 0.364261
Si Si3 0.419941 0.300808 0.899761
Si Si4 0.506911 0.211593 0.541933
Si Si5 0.623767 0.046355 0.189783
Si Si6 0.599422 0.511096 0.744232
Si Si7 0.068830 0.337869 0.842506
Si Si8 0.951160 0.368688 0.116718
O O1 0.876605 0.070353 0.932614
O O2 0.963445 0.236142 0.906289
O O3 0.807565 0.039228 0.260944
O O4 0.109299 0.975601 0.316735
O O5 0.337824 0.792395 0.514034
O O6 0.048615 0.754006 0.549585
O O7 0.481161 0.405019 0.874225
O O8 0.419208 0.389972 0.584702
O O9 0.245647 0.291028 0.909380
O O10 0.530864 0.146207 0.144979
O O11 0.425893 0.373985 0.302147
O O12 0.410926 0.111050 0.585818
O O13 0.559755 0.131260 0.863139
O O14 0.772464 0.417096 0.937028
O O15 0.000000 0.500000 0.500000
O O16 0.052984 0.325766 0.053686
O O17 0.000000 0.500000 0.000000
#
# Coordination Sequence:
#
# PCOD9008966 Si02
#       8
#     2   2   2   2   2   2   2   2
#     4  10  22  41  71  96 128 174 223 271 325 399
#     4  10  23  41  64  97 135 171 219 271 331 391
#     4  10  21  39  66  95 124 168 225 272 315 392
#     4   9  19  35  61  90 127 168 212 265 321 388
#     4   9  18  35  63  95 121 161 222 269 319 377
#     4  10  22  39  65  93 129 170 219 271 324 388
#     4  12  24  41  69  95 130 176 224 269 329 395
#     4  12  27  42  62  98 140 173 216 276 336 389
#
# _framework density 23.867702000000001
#
# number of rings (size 3 to 8) (size 9 to 14) (size 15 to 20)
#    0.000    1.750    1.250    2.250    8.750    3.000 
#    0.000    0.000    0.000    3.000    0.000    0.000 
#    0.000    0.000    0.000    0.000    0.000    0.000 
#
# Total GULP energy -89493.003853 kJ/mol
# GULP energy per Si atom -5593.312741 kJ/mol
# Density = 2.381338 g / cm^3
# Si number density = 23.867702 Si / 1000 Ang^3
#
#
#
# Elastic Constant Matrix: (Units=GPa)
#
#
# Indices 1 2 3 4 5 6 
#
# 1 148.5832 67.7757 13.3902 -28.3026 -15.0740 -23.6545
# 2 67.7757 109.4789 32.7719 -34.2481 -2.5916 -15.7283
# 3 13.3902 32.7719 48.0248 -8.8829 -8.2049 -12.5381
# 4 -28.3026 -34.2481 -8.8829 43.6443 6.5401 0.0063
# 5 -15.0740 -2.5916 -8.2049 6.5401 28.0361 -11.9989
# 6 -23.6545 -15.7283 -12.5381 0.0063 -11.9989 40.3082
#
#
#
# Elastic Compliance Matrix: (Units=1/GPa)
#
#
# Indices 1 2 3 4 5 6 
#
# 1 0.012798 -0.007572 0.006683 0.001908 0.012069 0.010227
# 2 -0.007572 0.019706 -0.012046 0.009512 -0.009407 -0.003303
# 3 0.006683 -0.012046 0.034438 -0.001040 0.019542 0.015751
# 4 0.001908 0.009512 -0.001040 0.032081 -0.004534 0.003153
# 5 0.012069 -0.009407 0.019542 -0.004534 0.059737 0.027273
# 6 0.010227 -0.003303 0.015751 0.003153 0.027273 0.042539
#
#
# Mechanical properties :
#
#
# Convention : Reuss Voigt Hill
#
# Bulk Modulus (GPa) = 24.34712 59.32915 41.83814
# Shear Modulus (GPa) = 20.75911 35.20767 27.98339
#
# Velocity S-wave (km/s) = 2.95236 3.84489 3.42780
# Velocity P-wave (km/s) = 4.67386 6.68000 5.76487
#
# Compressibility (1/GPa) = 0.04107262
#
# Stress axis : x y z
#
# Youngs Moduli (GPa) = 78.13971 50.74642 29.03771
#
# Poissons Ratio (x) = 0.38423 -0.19407
# Poissons Ratio (y) = 0.59164 0.34980
# Poissons Ratio (z) = -0.52224 0.61130
#
# Static dielectric constant tensor:
#      x y z
#    x 1.839920 0.020030 -0.009450 
#    y 0.020030 1.877040 0.038490 
#    z -0.009450 0.038490 1.917280 
# 
# From -- ./inp_files/205302.got.cif
#   From: 2010.05.17/outbox.cif.g08.bks.cpg/sg2_103_cif.got.tgz:205302.got - 2010.06.03 11:33:40.
