data_PCOD9008541
_publ_section_title
;
Structure prediction by ZEFSAII (Michael W. Deem and Ramdas Pophale) SiO2 
 PCOD9008541
Probable space group: P -1
;
_chemical_formula_sum "Si O2"
_cell_formula_units_Z 16
_cell_length_a 6.693380
_cell_length_b 19.429784
_cell_length_c 17.847304
_cell_angle_alpha 155.060299
_cell_angle_beta 53.822721
_cell_angle_gamma 135.576446
_cell_volume 672.017569
_symmetry_space_group_name_H-M "P -1"
_symmetry_group_IT_number 2
_symmetry_cell_setting 'triclinic'
loop_
_space_group_symop_operation_xyz
x,y,z
-x,-y,-z
loop_
_atom_site_type_symbol
_atom_site_label
_atom_site_fract_x
_atom_site_fract_y
_atom_site_fract_z
Si Si1 0.168897 0.305454 0.268617
Si Si2 0.597502 0.085282 0.646769
Si Si3 0.734151 0.924897 0.690044
Si Si4 0.890981 0.803149 0.252630
Si Si5 0.237980 0.591882 0.160864
Si Si6 0.960840 0.273862 0.536819
Si Si7 0.127098 0.569996 0.429860
Si Si8 0.450524 0.067658 0.996964
O O1 0.193900 0.412704 0.290542
O O2 0.402206 0.246521 0.179210
O O3 0.121706 0.431113 0.464821
O O4 0.857290 0.108901 0.138427
O O5 0.656679 0.297311 0.832424
O O6 0.897072 0.121475 0.648825
O O7 0.500000 0.000000 0.500000
O O8 0.341017 0.932853 0.604918
O O9 0.425126 0.773710 0.574034
O O10 0.808093 0.789094 0.588166
O O11 0.977454 0.033123 0.678926
O O12 0.694206 0.072832 0.894429
O O13 0.546156 0.695391 0.240257
O O14 0.903543 0.629466 0.039877
O O15 0.027528 0.642593 0.300761
O O16 0.963845 0.425727 0.630085
O O17 0.500000 0.000000 0.000000
#
# Coordination Sequence:
#
# PCOD9008541 Si02
#       8
#     2   2   2   2   2   2   2   2
#     4   9  21  40  63  91 126 162 215 252 335 389
#     4  10  21  39  65  89 121 173 221 266 325 385
#     4  11  23  37  64  91 125 170 220 262 328 384
#     4  11  22  42  62  90 132 171 219 277 324 391
#     4  10  24  40  61  93 129 171 220 272 333 386
#     4  11  22  39  62  95 125 169 221 265 322 390
#     4  10  21  40  62  92 126 167 208 276 315 391
#     4  10  21  40  64  92 125 168 204 268 324 390
#
# _framework density 23.808899
#
# number of rings (size 3 to 8) (size 9 to 14) (size 15 to 20)
#    0.000    1.750    2.500    1.125    0.000    7.000 
#    0.000    6.250    0.000    0.000    0.000    0.000 
#    0.000    0.000    0.000    0.000    0.000    0.000 
#
# Total GULP energy -89283.737262 kJ/mol
# GULP energy per Si atom -5580.233579 kJ/mol
# Density = 2.375471 g / cm^3
# Si number density = 23.808899 Si / 1000 Ang^3
#
#
#
# Elastic Constant Matrix: (Units=GPa)
#
#
# Indices 1 2 3 4 5 6 
#
# 1 133.1680 33.0583 35.9651 -6.2560 -21.2382 -7.9123
# 2 33.0583 80.6487 18.1576 2.5941 -9.4679 -11.5444
# 3 35.9651 18.1576 73.1420 2.0737 -30.6264 2.9238
# 4 -6.2560 2.5941 2.0737 29.5426 4.3583 -8.7090
# 5 -21.2382 -9.4679 -30.6264 4.3583 46.8516 11.9698
# 6 -7.9123 -11.5444 2.9238 -8.7090 11.9698 38.1474
#
#
#
# Elastic Compliance Matrix: (Units=1/GPa)
#
#
# Indices 1 2 3 4 5 6 
#
# 1 0.009626 -0.002793 -0.004085 0.003141 0.000303 0.002086
# 2 -0.002793 0.014717 -0.003061 -0.000120 -0.001440 0.004534
# 3 -0.004085 -0.003061 0.024107 -0.007910 0.016754 -0.010684
# 4 0.003141 -0.000120 -0.007910 0.040871 -0.011164 0.014055
# 5 0.000303 -0.001440 0.016754 -0.011164 0.037241 -0.015891
# 6 0.002086 0.004534 -0.010684 0.014055 -0.015891 0.037033
#
#
# Mechanical properties :
#
#
# Convention : Reuss Voigt Hill
#
# Bulk Modulus (GPa) = 34.99922 51.25787 43.12854
# Shear Modulus (GPa) = 25.90720 36.22681 31.06701
#
# Velocity S-wave (km/s) = 3.30226 3.90496 3.61619
# Velocity P-wave (km/s) = 5.41035 6.47358 5.96570
#
# Compressibility (1/GPa) = 0.02857206
#
# Stress axis : x y z
#
# Youngs Moduli (GPa) = 103.88760 67.94794 41.48111
#
# Poissons Ratio (x) = 0.18975 0.16946
# Poissons Ratio (y) = 0.29012 0.12698
# Poissons Ratio (z) = 0.42441 0.20800
#
# Static dielectric constant tensor:
#      x y z
#    x 1.964540 -0.009720 -0.045590 
#    y -0.009720 1.927240 0.013070 
#    z -0.045590 0.013070 1.972690 
# 
# From -- ./inp_files/550570.got.cif
#   From: 2010.05.17/outbox.cif.g08.bks.cpg/sg2_276_cif.got.tgz:550570.got - 2010.06.03 11:33:40.
