data_PCOD9008124
_publ_section_title
;
Structure prediction by ZEFSAII (Michael W. Deem and Ramdas Pophale) SiO2 
 PCOD9008124
Probable space group: P -1
;
_chemical_formula_sum "Si O2"
_cell_formula_units_Z 16
_cell_length_a 11.353459
_cell_length_b 7.866126
_cell_length_c 17.044762
_cell_angle_alpha 56.306160
_cell_angle_beta 32.034624
_cell_angle_gamma 61.426376
_cell_volume 671.689401
_symmetry_space_group_name_H-M "P -1"
_symmetry_group_IT_number 2
_symmetry_cell_setting 'triclinic'
loop_
_space_group_symop_operation_xyz
x,y,z
-x,-y,-z
loop_
_atom_site_type_symbol
_atom_site_label
_atom_site_fract_x
_atom_site_fract_y
_atom_site_fract_z
Si Si1 0.166650 0.207726 0.158182
Si Si2 0.009738 0.134138 0.828237
Si Si3 0.598296 0.275542 0.678543
Si Si4 0.241861 0.542625 0.616227
Si Si5 0.517799 0.806003 0.876233
Si Si6 0.988028 0.789254 0.359952
Si Si7 0.125515 0.287657 0.980294
Si Si8 0.703508 0.566901 0.692175
O O1 0.340252 0.278996 0.107821
O O2 0.214187 0.245589 0.030152
O O3 0.917761 0.295787 0.290166
O O4 0.160615 0.964508 0.234886
O O5 0.116161 0.330178 0.755423
O O6 0.119558 0.137815 0.678838
O O7 0.025999 0.903334 0.909741
O O8 0.742804 0.169004 0.963687
O O9 0.745953 0.364846 0.502758
O O10 0.633612 0.417515 0.698988
O O11 0.615789 0.030501 0.742812
O O12 0.336844 0.303495 0.801482
O O13 0.500000 0.500000 0.500000
O O14 0.458417 0.336903 0.176998
O O15 0.823077 0.753067 0.533347
O O16 0.115201 0.574822 0.329865
O O17 0.000000 0.500000 0.000000
#
# Coordination Sequence:
#
# PCOD9008124 Si02
#       8
#     2   2   2   2   2   2   2   2
#     4  11  24  42  72 100 143 177 232 286 346 414
#     4  10  24  45  70 100 139 175 234 291 346 415
#     4  11  24  45  68 101 143 178 229 291 345 413
#     4  12  26  47  69  99 139 189 236 282 337 413
#     4  11  25  42  71 110 138 179 224 289 363 407
#     4  10  21  39  64 103 137 182 214 283 347 418
#     4  10  24  48  69  97 136 190 234 285 342 405
#     4  11  22  38  67 101 148 174 222 272 360 422
#
# _framework density 23.820535
#
# number of rings (size 3 to 8) (size 9 to 14) (size 15 to 20)
#    0.000    1.250    2.500    2.250    5.250    3.500 
#    4.500    3.750    0.000    0.000    0.000    0.000 
#    0.000    0.000    0.000    0.000    0.000    0.000 
#
# Total GULP energy -89388.553556 kJ/mol
# GULP energy per Si atom -5586.784597 kJ/mol
# Density = 2.376632 g / cm^3
# Si number density = 23.820535 Si / 1000 Ang^3
#
#
#
# Elastic Constant Matrix: (Units=GPa)
#
#
# Indices 1 2 3 4 5 6 
#
# 1 68.5570 22.8620 25.4989 -5.2816 3.3306 11.9594
# 2 22.8620 90.4060 37.8065 -0.2700 10.9547 5.4448
# 3 25.4989 37.8065 120.0771 -13.1842 15.4593 1.1012
# 4 -5.2816 -0.2700 -13.1842 44.1745 2.5232 2.9980
# 5 3.3306 10.9547 15.4593 2.5232 20.2898 11.9460
# 6 11.9594 5.4448 1.1012 2.9980 11.9460 30.1305
#
#
#
# Elastic Compliance Matrix: (Units=1/GPa)
#
#
# Indices 1 2 3 4 5 6 
#
# 1 0.018456 -0.003477 -0.003469 0.001398 0.006871 -0.009434
# 2 -0.003477 0.013766 -0.003070 -0.001035 -0.005046 0.001108
# 3 -0.003469 -0.003070 0.011643 0.003267 -0.010105 0.005187
# 4 0.001398 -0.001035 0.003267 0.024105 -0.004512 -0.001097
# 5 0.006871 -0.005046 -0.010105 -0.004512 0.077919 -0.031890
# 6 -0.009434 0.001108 0.005187 -0.001097 -0.031890 0.049296
#
#
# Mechanical properties :
#
#
# Convention : Reuss Voigt Hill
#
# Bulk Modulus (GPa) = 41.95830 50.15276 46.05553
# Shear Modulus (GPa) = 22.40533 31.77715 27.09124
#
# Velocity S-wave (km/s) = 3.07023 3.65639 3.37606
# Velocity P-wave (km/s) = 5.49736 6.23905 5.87991
#
# Compressibility (1/GPa) = 0.02383319
#
# Stress axis : x y z
#
# Youngs Moduli (GPa) = 54.18407 72.64344 85.88628
#
# Poissons Ratio (x) = 0.25255 0.29795
# Poissons Ratio (y) = 0.18838 0.26367
# Poissons Ratio (z) = 0.18797 0.22302
#
# Static dielectric constant tensor:
#      x y z
#    x 2.001100 0.003720 -0.023200 
#    y 0.003720 1.885400 -0.047970 
#    z -0.023200 -0.047970 1.879830 
# 
# From -- ./inp_files/566507.got.cif
#   From: 2010.05.17/outbox.cif.g08.bks.cpg/sg2_284_cif.got.tgz:566507.got - 2010.06.03 11:33:40.
