data_PCOD9008825
_publ_section_title
;
Structure prediction by ZEFSAII (Michael W. Deem and Ramdas Pophale) SiO2 
 PCOD9008825
Probable space group: P -1
;
_chemical_formula_sum "Si O2"
_cell_formula_units_Z 14
_cell_length_a 9.089869
_cell_length_b 12.184260
_cell_length_c 24.082368
_cell_angle_alpha 154.074991
_cell_angle_beta 30.365040
_cell_angle_gamma 144.095921
_cell_volume 582.445201
_symmetry_space_group_name_H-M "P -1"
_symmetry_group_IT_number 2
_symmetry_cell_setting 'triclinic'
loop_
_space_group_symop_operation_xyz
x,y,z
-x,-y,-z
loop_
_atom_site_type_symbol
_atom_site_label
_atom_site_fract_x
_atom_site_fract_y
_atom_site_fract_z
Si Si1 0.258031 0.521821 0.763644
Si Si2 0.100976 0.893133 0.186775
Si Si3 0.994400 0.017081 0.443765
Si Si4 0.691320 0.542461 0.011726
Si Si5 0.802652 0.688751 0.737616
Si Si6 0.481177 0.647239 0.238924
Si Si7 0.720722 0.660436 0.588231
O O1 0.068856 0.252059 0.687944
O O2 0.547656 0.523600 0.707794
O O3 0.403473 0.621161 0.702988
O O4 0.020689 0.656144 0.935619
O O5 0.296798 0.716758 0.075009
O O6 0.801771 0.707125 0.188140
O O7 0.191810 0.030835 0.161380
O O8 0.083315 0.132260 0.341399
O O9 0.714863 0.154457 0.583909
O O10 0.000000 0.000000 0.500000
O O11 0.268100 0.202177 0.412293
O O12 0.500000 0.500000 0.000000
O O13 0.531909 0.692458 0.177535
O O14 0.692064 0.621652 0.805435
O O15 0.114244 0.586076 0.580635
#
# Coordination Sequence:
#
# PCOD9008825 Si02
#       7
#     2   2   2   2   2   2   2
#     4  11  21  41  65  89 129 164 211 261 317 376
#     4  11  21  41  69  90 127 167 216 263 314 377
#     4  11  22  39  66  93 131 172 208 260 322 379
#     4  12  26  44  63  92 135 175 212 258 321 385
#     4  10  21  39  69 102 123 156 217 276 314 370
#     4  11  23  41  66  95 129 166 215 268 312 374
#     4  10  21  39  66 101 125 158 214 269 318 378
#
# _framework density 24.036594999999998
#
# number of rings (size 3 to 8) (size 9 to 14) (size 15 to 20)
#    0.000    1.143    2.857    4.714    0.000    3.429 
#    2.571    4.286    0.000    0.000    0.000    0.000 
#    0.000    0.000    0.000    0.000    0.000    0.000 
#
# Total GULP energy -78192.305420 kJ/mol
# GULP energy per Si atom -5585.164673 kJ/mol
# Density = 2.398189 g / cm^3
# Si number density = 24.036595 Si / 1000 Ang^3
#
#
#
# Elastic Constant Matrix: (Units=GPa)
#
#
# Indices 1 2 3 4 5 6 
#
# 1 51.9773 19.0698 2.2977 -9.0780 -2.4969 -22.9661
# 2 19.0698 134.0779 34.0448 -32.6086 0.8853 -36.1249
# 3 2.2977 34.0448 76.2584 -31.4531 9.2466 -8.0354
# 4 -9.0780 -32.6086 -31.4531 33.2688 -9.9740 15.5350
# 5 -2.4969 0.8853 9.2466 -9.9740 25.8372 -6.3817
# 6 -22.9661 -36.1249 -8.0354 15.5350 -6.3817 32.9124
#
#
#
# Elastic Compliance Matrix: (Units=1/GPa)
#
#
# Indices 1 2 3 4 5 6 
#
# 1 0.030136 0.002967 0.000332 0.002750 0.009927 0.024993
# 2 0.002967 0.012995 -0.002450 0.006795 0.006759 0.013839
# 3 0.000332 -0.002450 0.022813 0.022494 -0.001280 -0.007753
# 4 0.002750 0.006795 0.022494 0.070571 0.015409 -0.015453
# 5 0.009927 0.006759 -0.001280 0.015409 0.049897 0.016436
# 6 0.024993 0.013839 -0.007753 -0.015453 0.016436 0.071601
#
#
# Mechanical properties :
#
#
# Convention : Reuss Voigt Hill
#
# Bulk Modulus (GPa) = 14.78371 41.45981 28.12176
# Shear Modulus (GPa) = 17.92992 32.19709 25.06350
#
# Velocity S-wave (km/s) = 2.73416 3.66389 3.23262
# Velocity P-wave (km/s) = 4.01638 5.93168 5.06538
#
# Compressibility (1/GPa) = 0.06764204
#
# Stress axis : x y z
#
# Youngs Moduli (GPa) = 33.18244 76.95279 43.83477
#
# Poissons Ratio (x) = -0.22830 -0.01454
# Poissons Ratio (y) = -0.09844 0.10738
# Poissons Ratio (z) = -0.01101 0.18850
#
# Static dielectric constant tensor:
#      x y z
#    x 1.925900 -0.077680 0.037200 
#    y -0.077680 1.982520 -0.016320 
#    z 0.037200 -0.016320 1.961390 
# 
# From -- ./inp_files/243468.got.cif
#   From: 2010.05.17/outbox.cif.g08.bks.cpg/sg2_122_cif.got.tgz:243468.got - 2010.06.03 11:33:40.
