data_PCOD9008184
_publ_section_title
;
Structure prediction by ZEFSAII (Michael W. Deem and Ramdas Pophale) SiO2 
 PCOD9008184
Probable space group: P -1
;
_chemical_formula_sum "Si O2"
_cell_formula_units_Z 14
_cell_length_a 21.963406
_cell_length_b 13.611461
_cell_length_c 11.495593
_cell_angle_alpha 143.243032
_cell_angle_beta 151.401863
_cell_angle_gamma 19.356950
_cell_volume 537.174831
_symmetry_space_group_name_H-M "P -1"
_symmetry_group_IT_number 2
_symmetry_cell_setting 'triclinic'
loop_
_space_group_symop_operation_xyz
x,y,z
-x,-y,-z
loop_
_atom_site_type_symbol
_atom_site_label
_atom_site_fract_x
_atom_site_fract_y
_atom_site_fract_z
Si Si1 0.070868 0.635968 0.310493
Si Si2 0.647487 0.406251 0.490629
Si Si3 0.809109 0.077296 0.649132
Si Si4 0.277642 0.131182 0.866341
Si Si5 0.498635 0.093191 0.377088
Si Si6 0.996244 0.361572 0.266257
Si Si7 0.727224 0.225111 0.196352
O O1 0.308724 0.282294 0.341047
O O2 0.142892 0.741341 0.571606
O O3 0.933039 0.689396 0.229534
O O4 0.892105 0.885669 0.142707
O O5 0.852429 0.155218 0.689982
O O6 0.404916 0.626267 0.353480
O O7 0.621341 0.621207 0.614789
O O8 0.659858 0.294016 0.285355
O O9 0.717425 0.019135 0.363071
O O10 0.990955 0.815186 0.800771
O O11 0.216560 0.360617 0.908539
O O12 0.484636 0.953793 0.133927
O O13 0.763103 0.868700 0.621005
O O14 0.000000 0.500000 0.500000
O O15 0.500000 0.500000 0.000000
#
# Coordination Sequence:
#
# PCOD9008184 Si02
#       7
#     2   2   2   2   2   2   2
#     4  10  22  38  59  92 125 162 205 255 304 367
#     4   9  18  37  61  88 116 159 202 253 303 353
#     4   9  18  36  62  82 122 156 200 254 299 353
#     4  11  21  38  62  88 127 164 203 245 311 374
#     4  10  22  37  61  89 126 165 202 254 312 363
#     4   9  21  37  57  87 121 158 206 254 298 361
#     4  10  21  39  64  89 123 161 206 257 311 362
#
# _framework density 26.062277999999999
#
# number of rings (size 3 to 8) (size 9 to 14) (size 15 to 20)
#    0.000    2.286    1.429    0.429    0.000   10.286 
#    0.000    0.714    3.143    0.000    0.000    0.000 
#    0.000    0.000    0.000    0.000    0.000    0.000 
#
# Total GULP energy -78098.191034 kJ/mol
# GULP energy per Si atom -5578.442217 kJ/mol
# Density = 2.600296 g / cm^3
# Si number density = 26.062278 Si / 1000 Ang^3
#
#
#
# Elastic Constant Matrix: (Units=GPa)
#
#
# Indices 1 2 3 4 5 6 
#
# 1 97.3409 14.1529 5.6484 -10.4707 -2.7702 -5.7324
# 2 14.1529 84.0510 6.0238 -6.6072 -11.6519 -7.2267
# 3 5.6484 6.0238 52.0020 -4.2747 -7.8676 -9.1494
# 4 -10.4707 -6.6072 -4.2747 25.1845 6.5910 0.1712
# 5 -2.7702 -11.6519 -7.8676 6.5910 29.5216 0.7969
# 6 -5.7324 -7.2267 -9.1494 0.1712 0.7969 58.2764
#
#
#
# Elastic Compliance Matrix: (Units=1/GPa)
#
#
# Indices 1 2 3 4 5 6 
#
# 1 0.011013 -0.001503 -0.000639 0.004254 -0.000701 0.000794
# 2 -0.001503 0.013040 -0.000294 0.001547 0.004545 0.001356
# 3 -0.000639 -0.000294 0.020767 0.001891 0.004853 0.003089
# 4 0.004254 0.001547 0.001891 0.044401 -0.008423 0.000892
# 5 -0.000701 0.004545 0.004853 -0.008423 0.038755 0.000751
# 6 0.000794 0.001356 0.003089 0.000892 0.000751 0.017878
#
#
# Mechanical properties :
#
#
# Convention : Reuss Voigt Hill
#
# Bulk Modulus (GPa) = 25.03237 31.67157 28.35197
# Shear Modulus (GPa) = 30.48001 36.43442 33.45722
#
# Velocity S-wave (km/s) = 3.42352 3.74301 3.58682
# Velocity P-wave (km/s) = 5.02523 5.55507 5.29678
#
# Compressibility (1/GPa) = 0.03994828
#
# Stress axis : x y z
#
# Youngs Moduli (GPa) = 90.80013 76.68657 48.15415
#
# Poissons Ratio (x) = 0.11528 0.03076
# Poissons Ratio (y) = 0.13649 0.01414
# Poissons Ratio (z) = 0.05801 0.02252
#
# Static dielectric constant tensor:
#      x y z
#    x 2.151990 -0.026230 0.000330 
#    y -0.026230 2.170260 -0.027600 
#    z 0.000330 -0.027600 2.091580 
# 
# From -- ./inp_files/367378.got.cif
#   From: 2010.05.17/outbox.cif.g08.bks.cpg/sg2_184_cif.got.tgz:367378.got - 2010.06.03 11:33:40.
