data_PCOD9008464
_publ_section_title
;
Structure prediction by ZEFSAII (Michael W. Deem and Ramdas Pophale) SiO2 
 PCOD9008464
Probable space group: P -1
;
_chemical_formula_sum "Si O2"
_cell_formula_units_Z 14
_cell_length_a 15.086993
_cell_length_b 8.845893
_cell_length_c 12.540333
_cell_angle_alpha 130.169246
_cell_angle_beta 148.496055
_cell_angle_gamma 60.923360
_cell_volume 659.647682
_symmetry_space_group_name_H-M "P -1"
_symmetry_group_IT_number 2
_symmetry_cell_setting 'triclinic'
loop_
_space_group_symop_operation_xyz
x,y,z
-x,-y,-z
loop_
_atom_site_type_symbol
_atom_site_label
_atom_site_fract_x
_atom_site_fract_y
_atom_site_fract_z
Si Si1 0.726109 0.522805 0.506324
Si Si2 0.001157 0.594054 0.426723
Si Si3 0.341307 0.394580 0.046925
Si Si4 0.838562 0.951592 0.165162
Si Si5 0.299746 0.058044 0.219992
Si Si6 0.304340 0.797000 0.296690
Si Si7 0.109499 0.699129 0.253670
O O1 0.881557 0.515131 0.581418
O O2 0.737901 0.741872 0.669354
O O3 0.748628 0.372824 0.558371
O O4 0.535729 0.455099 0.232660
O O5 0.000000 0.500000 0.500000
O O6 0.807797 0.589056 0.183477
O O7 0.092277 0.825283 0.625908
O O8 0.303165 0.176715 0.963226
O O9 0.320618 0.563607 0.192279
O O10 0.991984 0.820308 0.257783
O O11 0.775430 0.960276 0.982887
O O12 0.506120 0.082599 0.434431
O O13 0.238813 0.875480 0.154323
O O14 0.188140 0.825201 0.290668
O O15 0.000000 0.500000 0.000000
#
# Coordination Sequence:
#
# PCOD9008464 Si02
#       7
#     2   2   2   2   2   2   2
#     4  11  24  44  70  93 128 174 215 261 321 378
#     4  12  28  47  63  94 133 169 214 268 320 387
#     4  11  23  45  68  94 130 170 217 264 315 383
#     4  12  24  41  66  96 131 167 215 264 319 376
#     4  10  22  40  66  97 126 168 211 264 319 378
#     4  10  21  39  64  99 131 159 214 268 316 374
#     4  12  21  38  66  98 129 165 213 265 319 374
#
# _framework density 21.223448999999999
#
# number of rings (size 3 to 8) (size 9 to 14) (size 15 to 20)
#    0.000    0.857    4.286    2.143    2.000    4.000 
#    2.571    0.000    0.000    0.000    0.000    0.000 
#    0.000    0.000    0.000    0.000    0.000    0.000 
#
# Total GULP energy -78328.076415 kJ/mol
# GULP energy per Si atom -5594.862601 kJ/mol
# Density = 2.117514 g / cm^3
# Si number density = 21.223449 Si / 1000 Ang^3
#
#
#
# Elastic Constant Matrix: (Units=GPa)
#
#
# Indices 1 2 3 4 5 6 
#
# 1 69.0253 6.3239 31.9327 -17.7868 -0.3316 16.6459
# 2 6.3239 44.6620 20.5043 -9.7807 2.3973 8.0935
# 3 31.9327 20.5043 115.2806 -21.7472 1.4316 2.4125
# 4 -17.7868 -9.7807 -21.7472 36.4331 2.1203 -4.0731
# 5 -0.3316 2.3973 1.4316 2.1203 21.5911 -2.8602
# 6 16.6459 8.0935 2.4125 -4.0731 -2.8602 30.9461
#
#
#
# Elastic Compliance Matrix: (Units=1/GPa)
#
#
# Indices 1 2 3 4 5 6 
#
# 1 0.020801 0.002795 -0.004689 0.007004 -0.001798 -0.010799
# 2 0.002795 0.026798 -0.004315 0.005349 -0.004213 -0.007861
# 3 -0.004689 -0.004315 0.011379 0.003722 -0.000285 0.003227
# 4 0.007004 0.005349 0.003722 0.034630 -0.004306 -0.001296
# 5 -0.001798 -0.004213 -0.000285 -0.004306 0.047987 0.005960
# 6 -0.010799 -0.007861 0.003227 -0.001296 0.005960 0.040307
#
#
# Mechanical properties :
#
#
# Convention : Reuss Voigt Hill
#
# Bulk Modulus (GPa) = 21.47798 38.49884 29.98841
# Shear Modulus (GPa) = 23.82768 29.14121 26.48445
#
# Velocity S-wave (km/s) = 3.35431 3.70951 3.53638
# Velocity P-wave (km/s) = 5.01436 6.04371 5.55294
#
# Compressibility (1/GPa) = 0.04655931
#
# Stress axis : x y z
#
# Youngs Moduli (GPa) = 48.07446 37.31670 87.88109
#
# Poissons Ratio (x) = -0.10429 0.41212
# Poissons Ratio (y) = -0.13436 0.37917
# Poissons Ratio (z) = 0.22544 0.16100
#
# Static dielectric constant tensor:
#      x y z
#    x 1.734970 0.015360 0.015350 
#    y 0.015360 1.768010 -0.007700 
#    z 0.015350 -0.007700 1.768300 
# 
# From -- ./inp_files/153726.got.cif
#   From: 2010.05.17/outbox.cif.g08.bks.cpg/sg2_77_cif.got.tgz:153726.got - 2010.06.03 11:33:40.
