data_PCOD9008061
_publ_section_title
;
Structure prediction by ZEFSAII (Michael W. Deem and Ramdas Pophale) SiO2 
 PCOD9008061
Probable space group: P -1
;
_chemical_formula_sum "Si O2"
_cell_formula_units_Z 14
_cell_length_a 5.614455
_cell_length_b 13.847954
_cell_length_c 14.312098
_cell_angle_alpha 144.865557
_cell_angle_beta 100.386949
_cell_angle_gamma 77.741358
_cell_volume 625.737537
_symmetry_space_group_name_H-M "P -1"
_symmetry_group_IT_number 2
_symmetry_cell_setting 'triclinic'
loop_
_space_group_symop_operation_xyz
x,y,z
-x,-y,-z
loop_
_atom_site_type_symbol
_atom_site_label
_atom_site_fract_x
_atom_site_fract_y
_atom_site_fract_z
Si Si1 0.208680 0.644643 0.585948
Si Si2 0.649993 0.098783 0.345527
Si Si3 0.271217 0.902440 0.437163
Si Si4 0.962719 0.791261 0.023107
Si Si5 0.343890 0.310493 0.236789
Si Si6 0.225147 0.595945 0.052787
Si Si7 0.788257 0.941466 0.829477
O O1 0.347490 0.734491 0.584470
O O2 0.173842 0.461420 0.397969
O O3 0.388346 0.637396 0.681756
O O4 0.985005 0.785206 0.695764
O O5 0.674222 0.148008 0.492179
O O6 0.396273 0.032708 0.249409
O O7 0.848273 0.945658 0.203763
O O8 0.248260 0.753120 0.246038
O O9 0.500000 0.000000 0.500000
O O10 0.000000 0.000000 0.500000
O O11 0.138740 0.663496 0.997057
O O12 0.749073 0.706755 0.888277
O O13 0.093762 0.884791 0.022523
O O14 0.336643 0.129352 0.144600
O O15 0.500000 0.500000 0.000000
O O16 0.000000 0.500000 0.000000
#
# Coordination Sequence:
#
# PCOD9008061 Si02
#       7
#     2   2   2   2   2   2   2
#     4   9  21  39  60  95 134 172 221 276 347 428
#     4  10  23  40  66  94 131 180 230 281 347 428
#     4  12  25  47  77 102 141 191 246 299 357 433
#     4  11  24  41  66  94 136 176 232 284 359 415
#     4  10  21  39  63  95 136 171 218 283 352 417
#     4  12  29  50  72 110 149 185 245 311 367 423
#     4  10  21  39  64  97 128 174 230 275 343 431
#
# _framework density 22.373595999999999
#
# number of rings (size 3 to 8) (size 9 to 14) (size 15 to 20)
#    0.000    1.429    1.429    2.571    6.000    7.429 
#    0.000    0.000    0.000    0.000    0.000    0.000 
#    0.000    0.000    0.000    0.000    0.000    0.000 
#
# Total GULP energy -78153.362114 kJ/mol
# GULP energy per Si atom -5582.383008 kJ/mol
# Density = 2.232267 g / cm^3
# Si number density = 22.373596 Si / 1000 Ang^3
#
#
#
# Elastic Constant Matrix: (Units=GPa)
#
#
# Indices 1 2 3 4 5 6 
#
# 1 111.1483 38.6343 43.5141 16.0543 3.7198 -18.8335
# 2 38.6343 116.6715 50.1872 -9.8054 8.8781 -24.5574
# 3 43.5141 50.1872 116.4976 -9.7902 3.7533 1.6890
# 4 16.0543 -9.8054 -9.7902 43.0168 -7.9486 6.2800
# 5 3.7198 8.8781 3.7533 -7.9486 44.9142 8.5928
# 6 -18.8335 -24.5574 1.6890 6.2800 8.5928 33.8276
#
#
#
# Elastic Compliance Matrix: (Units=1/GPa)
#
#
# Indices 1 2 3 4 5 6 
#
# 1 0.015058 -0.000340 -0.006307 -0.009634 -0.004538 0.011393
# 2 -0.000340 0.013965 -0.005957 -0.000563 -0.004535 0.011503
# 3 -0.006307 -0.005957 0.014083 0.006445 0.003706 -0.010677
# 4 -0.009634 -0.000563 0.006445 0.031872 0.008734 -0.014230
# 5 -0.004538 -0.004535 0.003706 0.008734 0.027571 -0.014628
# 6 0.011393 0.011503 -0.010677 -0.014230 -0.014628 0.051146
#
#
# Mechanical properties :
#
#
# Convention : Reuss Voigt Hill
#
# Bulk Modulus (GPa) = 55.87038 67.66537 61.76788
# Shear Modulus (GPa) = 27.04619 38.48384 32.76502
#
# Velocity S-wave (km/s) = 3.48062 4.15186 3.83097
# Velocity P-wave (km/s) = 6.41706 7.30020 6.87283
#
# Compressibility (1/GPa) = 0.01789857
#
# Stress axis : x y z
#
# Youngs Moduli (GPa) = 66.40940 71.60761 71.00801
#
# Poissons Ratio (x) = 0.02433 0.44783
# Poissons Ratio (y) = 0.02256 0.42301
# Poissons Ratio (z) = 0.41883 0.42658
#
# Static dielectric constant tensor:
#      x y z
#    x 1.954820 0.041500 0.026870 
#    y 0.041500 1.814760 0.007470 
#    z 0.026870 0.007470 1.827510 
# 
# From -- ./inp_files/31997.got.cif
#   From: 2010.05.17/outbox.cif.g08.bks.cpg/sg2_16_cif.got.tgz:31997.got - 2010.06.03 11:33:40.
