data_PCOD9008592
_publ_section_title
;
Structure prediction by ZEFSAII (Michael W. Deem and Ramdas Pophale) SiO2 
 PCOD9008592
Probable space group: P -1
;
_chemical_formula_sum "Si O2"
_cell_formula_units_Z 14
_cell_length_a 4.995192
_cell_length_b 13.966524
_cell_length_c 8.482046
_cell_angle_alpha 120.111723
_cell_angle_beta 96.103758
_cell_angle_gamma 98.206520
_cell_volume 495.591520
_symmetry_space_group_name_H-M "P -1"
_symmetry_group_IT_number 2
_symmetry_cell_setting 'triclinic'
loop_
_space_group_symop_operation_xyz
x,y,z
-x,-y,-z
loop_
_atom_site_type_symbol
_atom_site_label
_atom_site_fract_x
_atom_site_fract_y
_atom_site_fract_z
Si Si1 0.522259 0.723198 0.407522
Si Si2 0.301478 0.486152 0.823740
Si Si3 0.228190 0.727073 0.686664
Si Si4 0.004356 0.089408 0.375618
Si Si5 0.842057 0.184517 0.769333
Si Si6 0.436682 0.088289 0.939453
Si Si7 0.158957 0.382860 0.158349
O O1 0.741513 0.647478 0.324986
O O2 0.351517 0.669843 0.504191
O O3 0.333702 0.732739 0.255164
O O4 0.671248 0.854154 0.562761
O O5 0.026886 0.532513 0.850886
O O6 0.518171 0.559345 0.773453
O O7 0.500000 0.500000 0.000000
O O8 0.111767 0.826267 0.677393
O O9 0.984419 0.653545 0.713319
O O10 0.480652 0.791679 0.866826
O O11 0.919464 0.111842 0.568215
O O12 0.865976 0.966840 0.194343
O O13 0.636341 0.108269 0.817428
O O14 0.085283 0.270817 0.948968
O O15 0.500000 0.000000 0.000000
#
# Coordination Sequence:
#
# PCOD9008592 Si02
#       7
#     2   2   2   2   2   2   2
#     4  11  24  38  63  93 130 166 217 270 325 392
#     4  12  25  42  68  98 133 175 224 269 328 385
#     4   9  23  42  61  94 129 168 215 270 326 390
#     4  10  21  39  65  91 129 168 212 273 325 393
#     4  10  21  40  63  94 127 165 220 267 327 390
#     4   9  19  41  65  90 125 170 213 270 330 395
#     4  11  25  43  69  96 134 175 222 272 324 387
#
# _framework density 28.249072000000002
#
# number of rings (size 3 to 8) (size 9 to 14) (size 15 to 20)
#    0.000    1.714    1.429    1.714    6.000    2.286 
#    0.000    0.000    0.000    0.000    0.000    0.000 
#    0.000    0.000    0.000    0.000    0.000    0.000 
#
# Total GULP energy -78562.593493 kJ/mol
# GULP energy per Si atom -5611.613821 kJ/mol
# Density = 2.818478 g / cm^3
# Si number density = 28.249072 Si / 1000 Ang^3
#
#
#
# Elastic Constant Matrix: (Units=GPa)
#
#
# Indices 1 2 3 4 5 6 
#
# 1 97.2571 25.2736 29.7112 0.8623 10.3016 7.2222
# 2 25.2736 138.3868 62.0741 -16.7241 -14.5747 13.2359
# 3 29.7112 62.0741 101.3163 -3.1176 19.8083 12.2685
# 4 0.8623 -16.7241 -3.1176 72.4956 8.9789 -5.2149
# 5 10.3016 -14.5747 19.8083 8.9789 50.4064 5.0885
# 6 7.2222 13.2359 12.2685 -5.2149 5.0885 56.9207
#
#
#
# Elastic Compliance Matrix: (Units=1/GPa)
#
#
# Indices 1 2 3 4 5 6 
#
# 1 0.011516 -0.001297 -0.002182 -0.000354 -0.001751 -0.000565
# 2 -0.001297 0.012193 -0.008224 0.001522 0.006890 -0.001375
# 3 -0.002182 -0.008224 0.017330 -0.000112 -0.008643 -0.000784
# 4 -0.000354 0.001522 -0.000112 0.014500 -0.002151 0.001236
# 5 -0.001751 0.006890 -0.008643 -0.002151 0.026176 -0.002054
# 6 -0.000565 -0.001375 -0.000784 0.001236 -0.002054 0.018425
#
#
# Mechanical properties :
#
#
# Convention : Reuss Voigt Hill
#
# Bulk Modulus (GPa) = 56.71460 63.45311 60.08385
# Shear Modulus (GPa) = 38.63267 50.62463 44.62865
#
# Velocity S-wave (km/s) = 3.70208 4.23789 3.97902
# Velocity P-wave (km/s) = 6.19630 6.81594 6.51349
#
# Compressibility (1/GPa) = 0.01763214
#
# Stress axis : x y z
#
# Youngs Moduli (GPa) = 86.83213 82.01519 57.70461
#
# Poissons Ratio (x) = 0.10641 0.12594
# Poissons Ratio (y) = 0.11266 0.47454
# Poissons Ratio (z) = 0.18950 0.67445
#
# Static dielectric constant tensor:
#      x y z
#    x 2.155240 -0.016380 -0.001470 
#    y -0.016380 2.240460 -0.006890 
#    z -0.001470 -0.006890 2.168590 
# 
# From -- ./inp_files/37360.got.cif
#   From: 2010.05.17/outbox.cif.g08.bks.cpg/sg2_19_cif.got.tgz:37360.got - 2010.06.03 11:33:40.
