data_PCOD9008915
_publ_section_title
;
Structure prediction by ZEFSAII (Michael W. Deem and Ramdas Pophale) SiO2 
 PCOD9008915
Probable space group: P -1
;
_chemical_formula_sum "Si O2"
_cell_formula_units_Z 16
_cell_length_a 5.382033
_cell_length_b 26.283694
_cell_length_c 5.904750
_cell_angle_alpha 52.915749
_cell_angle_beta 99.950094
_cell_angle_gamma 85.469360
_cell_volume 638.240134
_symmetry_space_group_name_H-M "P -1"
_symmetry_group_IT_number 2
_symmetry_cell_setting 'triclinic'
loop_
_space_group_symop_operation_xyz
x,y,z
-x,-y,-z
loop_
_atom_site_type_symbol
_atom_site_label
_atom_site_fract_x
_atom_site_fract_y
_atom_site_fract_z
Si Si1 0.509405 0.625144 0.431206
Si Si2 0.024153 0.930440 0.292397
Si Si3 0.492965 0.079018 0.283495
Si Si4 0.925419 0.829371 0.832974
Si Si5 0.050604 0.642315 0.675857
Si Si6 0.772043 0.262264 0.237337
Si Si7 0.129357 0.507967 0.252820
Si Si8 0.295578 0.846855 0.208384
O O1 0.262644 0.627914 0.546981
O O2 0.615003 0.550711 0.560699
O O3 0.759187 0.643086 0.546284
O O4 0.416856 0.678333 0.079624
O O5 0.290326 0.917491 0.506010
O O6 0.038609 0.884000 0.204996
O O7 0.846156 0.905106 0.514361
O O8 0.000000 0.000000 0.000000
O O9 0.309561 0.154836 0.077151
O O10 0.500000 0.000000 0.500000
O O11 0.583009 0.092899 0.003656
O O12 0.006300 0.776380 0.795184
O O13 0.187457 0.819718 0.042339
O O14 0.082596 0.708587 0.619333
O O15 0.137580 0.583479 0.028732
O O16 0.605032 0.213281 0.445962
O O17 0.000000 0.500000 0.500000
O O18 0.000000 0.500000 0.000000
#
# Coordination Sequence:
#
# PCOD9008915 Si02
#       8
#     2   2   2   2   2   2   2   2
#     4  11  27  52  79 120 159 213 277 337 408 486
#     4  10  21  39  66  92 131 171 228 293 378 455
#     4  11  23  41  72 101 135 180 244 315 388 470
#     4  10  23  46  61 101 134 186 241 308 377 474
#     4  11  27  52  80 117 159 216 270 343 405 487
#     4  11  26  49  75 101 157 207 262 317 405 492
#     4  10  25  49  84 124 170 216 283 354 417 484
#     4  10  23  46  61  99 136 185 238 311 379 467
#
# _framework density 25.068930999999999
#
# number of rings (size 3 to 8) (size 9 to 14) (size 15 to 20)
#    0.000    1.500    0.000    2.625    7.000    6.500 
#   29.250    0.000    0.000    0.000    0.000    0.000 
#    0.000    0.000    0.000    0.000    0.000    0.000 
#
# Total GULP energy -89089.140779 kJ/mol
# GULP energy per Si atom -5568.071299 kJ/mol
# Density = 2.501187 g / cm^3
# Si number density = 25.068931 Si / 1000 Ang^3
#
#
#
# Elastic Constant Matrix: (Units=GPa)
#
#
# Indices 1 2 3 4 5 6 
#
# 1 65.2359 -3.6176 16.6340 -1.4919 16.8655 7.7834
# 2 -3.6176 106.6059 0.3080 -3.7813 3.9179 0.4579
# 3 16.6340 0.3080 172.5213 -31.9129 -7.2293 10.2823
# 4 -1.4919 -3.7813 -31.9129 40.2014 0.7779 -0.4919
# 5 16.8655 3.9179 -7.2293 0.7779 25.8967 -5.7941
# 6 7.7834 0.4579 10.2823 -0.4919 -5.7941 29.5667
#
#
#
# Elastic Compliance Matrix: (Units=1/GPa)
#
#
# Indices 1 2 3 4 5 6 
#
# 1 0.021206 0.001338 -0.002403 -0.000774 -0.016452 -0.008005
# 2 0.001338 0.009559 -0.000015 0.000975 -0.002571 -0.000983
# 3 -0.002403 -0.000015 0.007267 0.005603 0.003163 -0.001182
# 4 -0.000774 0.000975 0.005603 0.029356 0.000789 -0.001117
# 5 -0.016452 -0.002571 0.003163 0.000789 0.053665 0.013801
# 6 -0.008005 -0.000983 -0.001182 -0.001117 0.013801 0.039041
#
#
# Mechanical properties :
#
#
# Convention : Reuss Voigt Hill
#
# Bulk Modulus (GPa) = 27.87516 41.22356 34.54936
# Shear Modulus (GPa) = 28.70054 41.20220 34.95137
#
# Velocity S-wave (km/s) = 3.38726 4.05848 3.73796
# Velocity P-wave (km/s) = 5.14213 6.20012 5.69574
#
# Compressibility (1/GPa) = 0.03587423
#
# Stress axis : x y z
#
# Youngs Moduli (GPa) = 47.15551 104.61260 137.60020
#
# Poissons Ratio (x) = -0.13999 0.33059
# Poissons Ratio (y) = -0.06310 0.00206
# Poissons Ratio (z) = 0.11329 0.00157
#
# Static dielectric constant tensor:
#      x y z
#    x 2.062680 -0.025870 0.016060 
#    y -0.025870 2.104550 -0.066900 
#    z 0.016060 -0.066900 2.120220 
# 
# From -- ./inp_files/14290.got.cif
#   From: 2010.05.17/outbox.cif.g08.bks.cpg/sg2_8_cif.got.tgz:14290.got - 2010.06.03 11:33:40.
