data_PCOD9008380
_publ_section_title
;
Structure prediction by ZEFSAII (Michael W. Deem and Ramdas Pophale) SiO2 
 PCOD9008380
Probable space group: P -1
;
_chemical_formula_sum "Si O2"
_cell_formula_units_Z 16
_cell_length_a 15.528488
_cell_length_b 11.200992
_cell_length_c 8.137342
_cell_angle_alpha 113.077203
_cell_angle_beta 88.550370
_cell_angle_gamma 138.722423
_cell_volume 769.829588
_symmetry_space_group_name_H-M "P -1"
_symmetry_group_IT_number 2
_symmetry_cell_setting 'triclinic'
loop_
_space_group_symop_operation_xyz
x,y,z
-x,-y,-z
loop_
_atom_site_type_symbol
_atom_site_label
_atom_site_fract_x
_atom_site_fract_y
_atom_site_fract_z
Si Si1 0.458335 0.324255 0.300321
Si Si2 0.245196 0.847585 0.166122
Si Si3 0.455326 0.652857 0.181154
Si Si4 0.008480 0.283176 0.338291
Si Si5 0.496288 0.018817 0.814495
Si Si6 0.689502 0.779134 0.093553
Si Si7 0.005713 0.484563 0.742006
Si Si8 0.680106 0.420139 0.506717
O O1 0.500000 0.500000 0.500000
O O2 0.597735 0.398181 0.353609
O O3 0.325156 0.078896 0.248578
O O4 0.401726 0.294672 0.107122
O O5 0.371941 0.900855 0.232083
O O6 0.119410 0.706823 0.228759
O O7 0.163980 0.688616 0.926550
O O8 0.486373 0.813475 0.151379
O O9 0.607966 0.759372 0.231083
O O10 0.396219 0.625844 0.346097
O O11 0.337912 0.407148 0.985073
O O12 0.025734 0.406758 0.256225
O O13 0.006640 0.378078 0.544415
O O14 0.146867 0.356534 0.377078
O O15 0.855182 0.022924 0.197550
O O16 0.353109 0.772793 0.621914
O O17 0.500000 0.000000 0.000000
#
# Coordination Sequence:
#
# PCOD9008380 Si02
#       8
#     2   2   2   2   2   2   2   2
#     4  11  22  44  66  93 131 179 221 264 327 405
#     4  10  21  39  64  95 124 179 216 272 324 391
#     4  11  24  42  65  98 129 173 224 268 323 401
#     4  11  24  40  64  99 132 171 212 279 332 384
#     4  11  23  39  67  96 135 165 222 276 328 378
#     4  11  25  43  68  93 135 179 218 266 333 400
#     4  10  22  38  63  91 137 166 219 267 336 390
#     4  11  24  40  69 100 130 168 225 274 329 380
#
# _framework density 20.783823000000002
#
# number of rings (size 3 to 8) (size 9 to 14) (size 15 to 20)
#    0.000    1.250    2.500    3.375    7.000    0.500 
#    0.000    0.000    0.000    8.250    0.000    0.000 
#    0.000    0.000    0.000    0.000    0.000    0.000 
#
# Total GULP energy -89403.816420 kJ/mol
# GULP energy per Si atom -5587.738526 kJ/mol
# Density = 2.073652 g / cm^3
# Si number density = 20.783823 Si / 1000 Ang^3
#
#
#
# Elastic Constant Matrix: (Units=GPa)
#
#
# Indices 1 2 3 4 5 6 
#
# 1 73.1029 52.1646 29.4042 16.4639 -6.1162 -6.4912
# 2 52.1646 117.8004 52.8255 31.8433 0.8433 -5.3943
# 3 29.4042 52.8255 80.0735 20.2625 -2.7417 7.3254
# 4 16.4639 31.8433 20.2625 32.3795 4.4738 -1.8729
# 5 -6.1162 0.8433 -2.7417 4.4738 33.7081 11.4302
# 6 -6.4912 -5.3943 7.3254 -1.8729 11.4302 37.8622
#
#
#
# Elastic Compliance Matrix: (Units=1/GPa)
#
#
# Indices 1 2 3 4 5 6 
#
# 1 0.020953 -0.007696 -0.002111 -0.002150 0.003520 0.001735
# 2 -0.007696 0.017383 -0.006827 -0.008450 -0.002188 0.002720
# 3 -0.002111 -0.006827 0.020003 -0.005747 0.004499 -0.006847
# 4 -0.002150 -0.008450 -0.005747 0.045244 -0.008081 0.004217
# 5 0.003520 -0.002188 0.004499 -0.008081 0.035794 -0.011784
# 6 0.001735 0.002720 -0.006847 0.004217 -0.011784 0.032188
#
#
# Mechanical properties :
#
#
# Convention : Reuss Voigt Hill
#
# Bulk Modulus (GPa) = 39.88922 59.97393 49.93157
# Shear Modulus (GPa) = 23.45323 29.89546 26.67435
#
# Velocity S-wave (km/s) = 3.36287 3.79674 3.58637
# Velocity P-wave (km/s) = 5.85769 6.93823 6.42073
#
# Compressibility (1/GPa) = 0.02506943
#
# Stress axis : x y z
#
# Youngs Moduli (GPa) = 47.72528 57.52767 49.99375
#
# Poissons Ratio (x) = 0.44276 0.10554
# Poissons Ratio (y) = 0.36732 0.34131
# Poissons Ratio (z) = 0.10075 0.39274
#
# Static dielectric constant tensor:
#      x y z
#    x 1.756130 -0.011320 0.007840 
#    y -0.011320 1.734250 -0.026330 
#    z 0.007840 -0.026330 1.794360 
# 
# From -- ./inp_files/308047.got.cif
#   From: 2010.05.17/outbox.cif.g08.bks.cpg/sg2_155_cif.got.tgz:308047.got - 2010.06.03 11:33:40.
