data_PCOD9008128
_publ_section_title
;
Structure prediction by ZEFSAII (Michael W. Deem and Ramdas Pophale) SiO2 
 PCOD9008128
Probable space group: P -1
;
_chemical_formula_sum "Si O2"
_cell_formula_units_Z 14
_cell_length_a 21.465844
_cell_length_b 14.808161
_cell_length_c 12.087239
_cell_angle_alpha 138.613411
_cell_angle_beta 150.861230
_cell_angle_gamma 19.602790
_cell_volume 562.367161
_symmetry_space_group_name_H-M "P -1"
_symmetry_group_IT_number 2
_symmetry_cell_setting 'triclinic'
loop_
_space_group_symop_operation_xyz
x,y,z
-x,-y,-z
loop_
_atom_site_type_symbol
_atom_site_label
_atom_site_fract_x
_atom_site_fract_y
_atom_site_fract_z
Si Si1 0.239620 0.388820 0.906030
Si Si2 0.242845 0.803939 0.458072
Si Si3 0.086641 0.022589 0.059622
Si Si4 0.771267 0.667742 0.923362
Si Si5 0.329291 0.247852 0.667700
Si Si6 0.274521 0.557865 0.462135
Si Si7 0.067829 0.654611 0.455954
O O1 0.376001 0.221212 0.082618
O O2 0.367786 0.262598 0.866394
O O3 0.967066 0.548440 0.618176
O O4 0.122419 0.652457 0.975058
O O5 0.500000 0.500000 0.500000
O O6 0.263766 0.711298 0.523253
O O7 0.187366 0.018663 0.580756
O O8 0.955200 0.023276 0.158274
O O9 0.393025 0.789018 0.342127
O O10 0.000000 0.000000 0.000000
O O11 0.974871 0.599216 0.205848
O O12 0.879133 0.416385 0.822273
O O13 0.581109 0.900300 0.739642
O O14 0.305338 0.389070 0.670150
O O15 0.171914 0.648521 0.511243
#
# Coordination Sequence:
#
# PCOD9008128 Si02
#       7
#     2   2   2   2   2   2   2
#     4  10  21  39  64 106 136 182 236 295 345 411
#     4  12  27  47  73 103 145 189 244 295 352 424
#     4  12  24  42  72 101 139 184 239 288 354 416
#     4  11  23  43  74 104 143 189 234 294 358 422
#     4  10  22  40  69 101 146 177 241 291 356 415
#     4  12  26  47  73 105 147 189 237 293 360 429
#     4  11  28  46  69 109 146 190 236 292 361 429
#
# _framework density 24.894770000000001
#
# number of rings (size 3 to 8) (size 9 to 14) (size 15 to 20)
#    0.000    0.857    4.286    2.143    2.000    4.571 
#    0.000    0.000    0.000    0.000    0.000    0.000 
#    0.000    0.000    0.000    0.000    0.000    0.000 
#
# Total GULP energy -78203.306842 kJ/mol
# GULP energy per Si atom -5585.950489 kJ/mol
# Density = 2.483811 g / cm^3
# Si number density = 24.894770 Si / 1000 Ang^3
#
#
#
# Elastic Constant Matrix: (Units=GPa)
#
#
# Indices 1 2 3 4 5 6 
#
# 1 192.5650 48.8098 14.0227 -8.7917 -18.2307 14.9214
# 2 48.8098 93.6986 19.2908 10.9330 -6.4902 12.4624
# 3 14.0227 19.2908 78.5835 13.5565 -8.0103 10.0949
# 4 -8.7917 10.9330 13.5565 28.5277 7.6829 -6.6922
# 5 -18.2307 -6.4902 -8.0103 7.6829 32.4576 -9.0256
# 6 14.9214 12.4624 10.0949 -6.6922 -9.0256 37.6896
#
#
#
# Elastic Compliance Matrix: (Units=1/GPa)
#
#
# Indices 1 2 3 4 5 6 
#
# 1 0.006447 -0.003410 -0.000586 0.002968 0.002021 -0.000257
# 2 -0.003410 0.014125 -0.000946 -0.007311 0.001277 -0.004059
# 3 -0.000586 -0.000946 0.015695 -0.009468 0.004404 -0.004285
# 4 0.002968 -0.007311 -0.009468 0.048497 -0.010891 0.009781
# 5 0.002021 0.001277 0.004404 -0.010891 0.037132 0.004556
# 6 -0.000257 -0.004059 -0.004285 0.009781 0.004556 0.031952
#
#
# Mechanical properties :
#
#
# Convention : Reuss Voigt Hill
#
# Bulk Modulus (GPa) = 37.90416 58.78819 48.34618
# Shear Modulus (GPa) = 28.98124 38.58323 33.78223
#
# Velocity S-wave (km/s) = 3.41567 3.94109 3.68775
# Velocity P-wave (km/s) = 5.55108 6.66149 6.13148
#
# Compressibility (1/GPa) = 0.02638233
#
# Stress axis : x y z
#
# Youngs Moduli (GPa) = 155.11809 70.79682 63.71484
#
# Poissons Ratio (x) = 0.24139 0.03736
# Poissons Ratio (y) = 0.52890 0.06028
# Poissons Ratio (z) = 0.09095 0.06698
#
# Static dielectric constant tensor:
#      x y z
#    x 1.981760 -0.021840 0.031470 
#    y -0.021840 2.121610 -0.010210 
#    z 0.031470 -0.010210 2.006160 
# 
# From -- ./inp_files/471966.got.cif
#   From: 2010.05.17/outbox.cif.g08.bks.cpg/sg2_236_cif.got.tgz:471966.got - 2010.06.03 11:33:40.
