data_PCOD9008060
_publ_section_title
;
Structure prediction by ZEFSAII (Michael W. Deem and Ramdas Pophale) SiO2 
 PCOD9008060
Probable space group: P -1
;
_chemical_formula_sum "Si O2"
_cell_formula_units_Z 16
_cell_length_a 5.559566
_cell_length_b 11.360289
_cell_length_c 13.205743
_cell_angle_alpha 119.566044
_cell_angle_beta 97.938418
_cell_angle_gamma 86.932532
_cell_volume 718.392386
_symmetry_space_group_name_H-M "P -1"
_symmetry_group_IT_number 2
_symmetry_cell_setting 'triclinic'
loop_
_space_group_symop_operation_xyz
x,y,z
-x,-y,-z
loop_
_atom_site_type_symbol
_atom_site_label
_atom_site_fract_x
_atom_site_fract_y
_atom_site_fract_z
Si Si1 0.670871 0.472446 0.880640
Si Si2 0.600548 0.961182 0.691654
Si Si3 0.616396 0.761337 0.182772
Si Si4 0.013588 0.364353 0.693992
Si Si5 0.557668 0.871884 0.878642
Si Si6 0.745742 0.353637 0.167109
Si Si7 0.056637 0.892202 0.548146
Si Si8 0.915156 0.744301 0.006398
O O1 0.536617 0.374784 0.910670
O O2 0.478695 0.557606 0.842573
O O3 0.866303 0.588023 0.968918
O O4 0.801482 0.373050 0.767780
O O5 0.634080 0.917171 0.791187
O O6 0.331531 0.916047 0.615748
O O7 0.832976 0.914331 0.621877
O O8 0.572022 0.122764 0.756655
O O9 0.768071 0.709746 0.265506
O O10 0.805576 0.813664 0.129300
O O11 0.069633 0.523684 0.739379
O O12 0.952832 0.262329 0.557467
O O13 0.337960 0.761366 0.808491
O O14 0.759385 0.796210 0.924371
O O15 0.500000 0.000000 0.000000
O O16 0.827048 0.264142 0.036615
O O17 0.000000 0.000000 0.500000
#
# Coordination Sequence:
#
# PCOD9008060 Si02
#       8
#     2   2   2   2   2   2   2   2
#     4   9  20  37  61  95 133 169 227 275 349 406
#     4  12  28  44  71 106 136 183 234 276 346 414
#     4  11  21  36  62 100 134 177 223 276 350 410
#     4  10  22  40  67  94 133 177 225 291 341 401
#     4  11  24  45  66  96 138 181 223 279 336 414
#     4   9  22  40  66  92 134 177 229 276 345 403
#     4  12  26  47  72 102 140 179 231 291 346 396
#     4  10  21  39  63  95 134 178 219 279 343 409
#
# _framework density 22.271948999999999
#
# number of rings (size 3 to 8) (size 9 to 14) (size 15 to 20)
#    0.000    1.500    2.500    1.500    5.250    8.000 
#    0.000    1.250    0.000    0.000    0.000    0.000 
#    0.000    0.000    0.000    0.000    0.000    0.000 
#
# Total GULP energy -89232.604461 kJ/mol
# GULP energy per Si atom -5577.037779 kJ/mol
# Density = 2.222126 g / cm^3
# Si number density = 22.271949 Si / 1000 Ang^3
#
#
#
# Elastic Constant Matrix: (Units=GPa)
#
#
# Indices 1 2 3 4 5 6 
#
# 1 63.2399 33.5136 12.1574 -7.0211 -11.0715 -3.3090
# 2 33.5136 115.1396 39.8253 -1.4325 -2.0139 8.9633
# 3 12.1574 39.8253 79.7067 3.6307 -6.8206 5.3468
# 4 -7.0211 -1.4325 3.6307 38.0359 -0.6789 -2.1246
# 5 -11.0715 -2.0139 -6.8206 -0.6789 39.2228 -3.1814
# 6 -3.3090 8.9633 5.3468 -2.1246 -3.1814 33.0283
#
#
#
# Elastic Compliance Matrix: (Units=1/GPa)
#
#
# Indices 1 2 3 4 5 6 
#
# 1 0.020881 -0.006274 -0.000028 0.003987 0.006012 0.004635
# 2 -0.006274 0.012554 -0.005266 -0.000416 -0.002328 -0.003434
# 3 -0.000028 -0.005266 0.015522 -0.001698 0.002313 -0.000973
# 4 0.003987 -0.000416 -0.001698 0.027350 0.001500 0.002691
# 5 0.006012 -0.002328 0.002313 0.001500 0.027796 0.003634
# 6 0.004635 -0.003434 -0.000973 0.002691 0.003634 0.032354
#
#
# Mechanical properties :
#
#
# Convention : Reuss Voigt Hill
#
# Bulk Modulus (GPa) = 38.72796 47.67541 43.20168
# Shear Modulus (GPa) = 29.72669 33.56341 31.64505
#
# Velocity S-wave (km/s) = 3.65734 3.88620 3.77350
# Velocity P-wave (km/s) = 5.93812 6.44897 6.19881
#
# Compressibility (1/GPa) = 0.02582114
#
# Stress axis : x y z
#
# Youngs Moduli (GPa) = 47.89089 79.65576 64.42588
#
# Poissons Ratio (x) = 0.49977 0.00181
# Poissons Ratio (y) = 0.30047 0.33924
# Poissons Ratio (z) = 0.00135 0.41943
#
# Static dielectric constant tensor:
#      x y z
#    x 2.004130 0.048330 0.014100 
#    y 0.048330 1.805050 0.040560 
#    z 0.014100 0.040560 1.880290 
# 
# From -- ./inp_files/78690.got.cif
#   From: 2010.05.17/outbox.cif.g08.bks.cpg/sg2_40_cif.got.tgz:78690.got - 2010.06.03 11:33:40.
