data_PCOD9008027
_publ_section_title
;
Structure prediction by ZEFSAII (Michael W. Deem and Ramdas Pophale) SiO2 
 PCOD9008027
Probable space group: P -1
;
_chemical_formula_sum "Si O2"
_cell_formula_units_Z 16
_cell_length_a 9.522253
_cell_length_b 13.225653
_cell_length_c 21.862975
_cell_angle_alpha 25.634944
_cell_angle_beta 140.977004
_cell_angle_gamma 131.794770
_cell_volume 744.173581
_symmetry_space_group_name_H-M "P -1"
_symmetry_group_IT_number 2
_symmetry_cell_setting 'triclinic'
loop_
_space_group_symop_operation_xyz
x,y,z
-x,-y,-z
loop_
_atom_site_type_symbol
_atom_site_label
_atom_site_fract_x
_atom_site_fract_y
_atom_site_fract_z
Si Si1 0.214843 0.426545 0.979747
Si Si2 0.296060 0.337895 0.521043
Si Si3 0.512238 0.798278 0.564428
Si Si4 0.550558 0.848668 0.037114
Si Si5 0.129103 0.214567 0.406409
Si Si6 0.859392 0.378234 0.969374
Si Si7 0.488839 0.188004 0.091628
Si Si8 0.911256 0.443196 0.435043
O O1 0.378720 0.575038 0.994177
O O2 0.042811 0.631849 0.779651
O O3 0.054509 0.275672 0.045540
O O4 0.329708 0.269877 0.050200
O O5 0.500000 0.500000 0.500000
O O6 0.177538 0.363749 0.400805
O O7 0.118493 0.392110 0.486360
O O8 0.374127 0.058002 0.706899
O O9 0.638639 0.859213 0.511849
O O10 0.673719 0.569970 0.769646
O O11 0.255767 0.749459 0.501378
O O12 0.500000 0.000000 0.500000
O O13 0.294254 0.805681 0.957793
O O14 0.740208 0.648048 0.234460
O O15 0.623139 0.879905 0.973513
O O16 0.500000 0.000000 0.000000
O O17 0.000000 0.000000 0.500000
O O18 0.000000 0.500000 0.000000
O O19 0.000000 0.500000 0.500000
#
# Coordination Sequence:
#
# PCOD9008027 Si02
#       8
#     2   2   2   2   2   2   2   2
#     4  10  22  40  66  96 132 168 220 279 324 395
#     4  12  26  43  67  95 133 178 223 276 340 403
#     4  10  23  37  62  93 124 165 213 265 320 379
#     4  11  24  42  67  97 132 175 216 272 341 398
#     4  11  21  40  64  95 130 171 220 266 332 392
#     4  10  21  39  63  94 127 164 216 264 320 395
#     4  11  23  41  65  97 130 171 222 277 337 388
#     4  11  24  44  64  92 133 175 219 268 325 402
#
# _framework density 21.500360000000001
#
# number of rings (size 3 to 8) (size 9 to 14) (size 15 to 20)
#    0.000    1.250    2.500    3.000    1.750    6.000 
#    0.000    1.875    0.000    0.000    0.000    0.000 
#    0.000    0.000    0.000    0.000    0.000    0.000 
#
# Total GULP energy -89105.858118 kJ/mol
# GULP energy per Si atom -5569.116132 kJ/mol
# Density = 2.145142 g / cm^3
# Si number density = 21.500360 Si / 1000 Ang^3
#
#
#
# Elastic Constant Matrix: (Units=GPa)
#
#
# Indices 1 2 3 4 5 6 
#
# 1 195.0567 64.2267 16.4968 -5.5995 40.6297 -9.7546
# 2 64.2267 134.7277 -6.9775 15.3769 14.0242 -6.9667
# 3 16.4968 -6.9775 22.4843 -3.4729 14.5662 3.3433
# 4 -5.5995 15.3769 -3.4729 28.7417 -10.7426 0.5820
# 5 40.6297 14.0242 14.5662 -10.7426 34.4457 2.8812
# 6 -9.7546 -6.9667 3.3433 0.5820 2.8812 45.2584
#
#
#
# Elastic Compliance Matrix: (Units=1/GPa)
#
#
# Indices 1 2 3 4 5 6 
#
# 1 0.007943 -0.003080 -0.002357 0.000174 -0.007220 0.001869
# 2 -0.003080 0.011117 0.009076 -0.008227 -0.007377 0.000952
# 3 -0.002357 0.009076 0.069200 -0.009202 -0.032879 -0.002011
# 4 0.000174 -0.008227 -0.009202 0.046269 0.021677 -0.002524
# 5 -0.007220 -0.007377 -0.032879 0.021677 0.061588 -0.004462
# 6 0.001869 0.000952 -0.002011 -0.002524 -0.004462 0.023110
#
#
# Mechanical properties :
#
#
# Convention : Reuss Voigt Hill
#
# Bulk Modulus (GPa) = 10.46713 55.52896 32.99804
# Shear Modulus (GPa) = 20.50912 40.25735 30.38324
#
# Velocity S-wave (km/s) = 3.09187 4.33182 3.76327
# Velocity P-wave (km/s) = 4.19823 7.13461 5.85354
#
# Compressibility (1/GPa) = 0.09553720
#
# Stress axis : x y z
#
# Youngs Moduli (GPa) = 125.90349 89.95317 14.45092
#
# Poissons Ratio (x) = 0.27707 0.03406
# Poissons Ratio (y) = 0.38780 -0.13116
# Poissons Ratio (z) = 0.29678 -0.81644
#
# Static dielectric constant tensor:
#      x y z
#    x 1.856590 0.039340 -0.005660 
#    y 0.039340 1.763580 -0.039900 
#    z -0.005660 -0.039900 1.746320 
# 
# From -- ./inp_files/184300.got.cif
#   From: 2010.05.17/outbox.cif.g08.bks.cpg/sg2_93_cif.got.tgz:184300.got - 2010.06.03 11:33:40.
