data_PCOD9008259
_publ_section_title
;
Structure prediction by ZEFSAII (Michael W. Deem and Ramdas Pophale) SiO2 
 PCOD9008259
Probable space group: P -1
;
_chemical_formula_sum "Si O2"
_cell_formula_units_Z 16
_cell_length_a 7.378674
_cell_length_b 9.136475
_cell_length_c 11.839278
_cell_angle_alpha 104.467163
_cell_angle_beta 90.730182
_cell_angle_gamma 70.769524
_cell_volume 727.600093
_symmetry_space_group_name_H-M "P -1"
_symmetry_group_IT_number 2
_symmetry_cell_setting 'triclinic'
loop_
_space_group_symop_operation_xyz
x,y,z
-x,-y,-z
loop_
_atom_site_type_symbol
_atom_site_label
_atom_site_fract_x
_atom_site_fract_y
_atom_site_fract_z
Si Si1 0.522508 0.823620 0.921344
Si Si2 0.125718 0.755955 0.938706
Si Si3 0.659278 0.578129 0.055916
Si Si4 0.049287 0.994578 0.179527
Si Si5 0.068882 0.855762 0.384727
Si Si6 0.377838 0.083172 0.294039
Si Si7 0.522110 0.762084 0.325328
Si Si8 0.857698 0.662229 0.476081
O O1 0.329214 0.784736 0.934037
O O2 0.553438 0.826304 0.787445
O O3 0.677286 0.692880 0.975978
O O4 0.500000 0.000000 0.000000
O O5 0.158447 0.575511 0.939277
O O6 0.029784 0.824348 0.832428
O O7 0.021087 0.878062 0.060447
O O8 0.584529 0.674214 0.189125
O O9 0.500000 0.500000 0.000000
O O10 0.267812 0.979334 0.205989
O O11 0.979879 0.937822 0.281928
O O12 0.301412 0.784705 0.361538
O O13 0.984413 0.723289 0.401429
O O14 0.000000 0.000000 0.500000
O O15 0.230514 0.207168 0.400476
O O16 0.527224 0.944172 0.343560
O O17 0.670871 0.664109 0.402888
O O18 0.000000 0.500000 0.500000
#
# Coordination Sequence:
#
# PCOD9008259 Si02
#       8
#     2   2   2   2   2   2   2   2
#     4  11  19  36  65  94 126 170 213 268 334 399
#     4  10  22  37  63  95 128 169 214 268 337 402
#     4  10  21  39  67  98 134 171 216 274 342 404
#     4  10  21  39  64  91 129 169 219 265 327 406
#     4  11  23  43  73  92 132 183 224 273 336 400
#     4  11  22  42  65  91 132 170 222 272 325 404
#     4  11  24  44  73  97 135 181 227 277 338 407
#     4  12  29  45  66 104 137 172 234 289 330 396
#
# _framework density 21.990100999999999
#
# number of rings (size 3 to 8) (size 9 to 14) (size 15 to 20)
#    0.000    1.250    5.000    2.625    3.500    3.500 
#    0.000    0.625    0.000    0.000    0.000    0.000 
#    0.000    0.000    0.000    0.000    0.000    0.000 
#
# Total GULP energy -89304.328194 kJ/mol
# GULP energy per Si atom -5581.520512 kJ/mol
# Density = 2.194005 g / cm^3
# Si number density = 21.990101 Si / 1000 Ang^3
#
#
#
# Elastic Constant Matrix: (Units=GPa)
#
#
# Indices 1 2 3 4 5 6 
#
# 1 46.0842 9.9766 12.2729 -9.6839 1.5048 -11.0882
# 2 9.9766 168.1555 49.6282 -28.1812 -4.4731 -26.5647
# 3 12.2729 49.6282 118.4802 -21.9425 -13.1233 -10.4317
# 4 -9.6839 -28.1812 -21.9425 40.5262 2.1887 -1.9322
# 5 1.5048 -4.4731 -13.1233 2.1887 25.2513 -9.2383
# 6 -11.0882 -26.5647 -10.4317 -1.9322 -9.2383 37.5603
#
#
#
# Elastic Compliance Matrix: (Units=1/GPa)
#
#
# Indices 1 2 3 4 5 6 
#
# 1 0.025155 0.001330 -0.001080 0.006721 0.000737 0.008594
# 2 0.001330 0.008436 -0.001804 0.005395 0.002478 0.006745
# 3 -0.001080 -0.001804 0.011094 0.004308 0.006332 0.003266
# 4 0.006721 0.005395 0.004308 0.032633 0.003450 0.009524
# 5 0.000737 0.002478 0.006332 0.003450 0.048810 0.015911
# 6 0.008594 0.006745 0.003266 0.009524 0.015911 0.039241
#
#
# Mechanical properties :
#
#
# Convention : Reuss Voigt Hill
#
# Bulk Modulus (GPa) = 24.05137 52.94171 38.49654
# Shear Modulus (GPa) = 27.42171 38.05704 32.73937
#
# Velocity S-wave (km/s) = 3.53512 4.16461 3.86271
# Velocity P-wave (km/s) = 5.25584 6.87407 6.11869
#
# Compressibility (1/GPa) = 0.04157767
#
# Stress axis : x y z
#
# Youngs Moduli (GPa) = 39.75352 118.54007 90.13484
#
# Poissons Ratio (x) = -0.15763 0.09733
# Poissons Ratio (y) = -0.05286 0.16259
# Poissons Ratio (z) = 0.04293 0.21383
#
# Static dielectric constant tensor:
#      x y z
#    x 1.898500 -0.091790 0.018860 
#    y -0.091790 1.946790 -0.042930 
#    z 0.018860 -0.042930 1.835090 
# 
# From -- ./inp_files/382947.got.cif
#   From: 2010.05.17/outbox.cif.g08.bks.cpg/sg2_192_cif.got.tgz:382947.got - 2010.06.03 11:33:40.
