data_PCOD9008228
_publ_section_title
;
Structure prediction by ZEFSAII (Michael W. Deem and Ramdas Pophale) SiO2 
 PCOD9008228
Probable space group: P -1
;
_chemical_formula_sum "Si O2"
_cell_formula_units_Z 12
_cell_length_a 11.317601
_cell_length_b 19.331290
_cell_length_c 20.787515
_cell_angle_alpha 21.666602
_cell_angle_beta 156.978512
_cell_angle_gamma 148.702569
_cell_volume 656.658337
_symmetry_space_group_name_H-M "P -1"
_symmetry_group_IT_number 2
_symmetry_cell_setting 'triclinic'
loop_
_space_group_symop_operation_xyz
x,y,z
-x,-y,-z
loop_
_atom_site_type_symbol
_atom_site_label
_atom_site_fract_x
_atom_site_fract_y
_atom_site_fract_z
Si Si1 0.367357 0.876701 0.729460
Si Si2 0.645681 0.857921 0.385136
Si Si3 0.649669 0.498684 0.247869
Si Si4 0.640427 0.077514 0.568633
Si Si5 0.364545 0.063771 0.944760
Si Si6 0.624944 0.514185 0.373059
O O1 0.006172 0.868008 0.549600
O O2 0.441726 0.007255 0.715378
O O3 0.508919 0.967288 0.658883
O O4 0.499000 0.671322 0.986595
O O5 0.544020 0.649463 0.532613
O O6 0.488155 0.934499 0.175935
O O7 0.569337 0.297576 0.352246
O O8 0.554374 0.503993 0.270486
O O9 0.013667 0.517072 0.412416
O O10 0.002036 0.055565 0.768140
O O11 0.500000 0.000000 0.500000
O O12 0.449148 0.278804 0.817265
O O13 0.500000 0.000000 0.000000
#
# Coordination Sequence:
#
# PCOD9008228 Si02
#       6
#     2   2   2   2   2   2
#     4  11  23  38  62  94 125 159 202 251 303 361
#     4  11  23  38  62  94 125 159 202 251 303 361
#     4  10  21  39  64  91 119 159 207 251 300 358
#     4  11  24  42  64  90 125 162 201 252 306 361
#     4  11  24  42  64  90 125 162 201 252 306 361
#     4  10  21  39  64  91 119 159 207 251 300 358
#
# _framework density 18.274342999999998
#
# number of rings (size 3 to 8) (size 9 to 14) (size 15 to 20)
#    0.000    1.333    3.333    2.000    0.000    6.000 
#    0.000    0.000    0.000    0.000    0.000    0.000 
#    0.000    0.000    0.000    0.000    0.000    0.000 
#
# Total GULP energy -67098.187107 kJ/mol
# GULP energy per Si atom -5591.515592 kJ/mol
# Density = 1.823275 g / cm^3
# Si number density = 18.274343 Si / 1000 Ang^3
#
#
#
# Elastic Constant Matrix: (Units=GPa)
#
#
# Indices 1 2 3 4 5 6 
#
# 1 149.1117 66.8028 23.4565 -19.7074 -1.1311 8.1599
# 2 66.8028 115.9631 12.0627 -21.5043 -3.8501 3.7337
# 3 23.4565 12.0627 8.6147 -21.0372 3.3705 23.3020
# 4 -19.7074 -21.5043 -21.0372 24.4468 -3.3589 -8.5490
# 5 -1.1311 -3.8501 3.3705 -3.3589 26.2837 -11.3243
# 6 8.1599 3.7337 23.3020 -8.5490 -11.3243 27.4512
#
#
#
# Elastic Compliance Matrix: (Units=1/GPa)
#
#
# Indices 1 2 3 4 5 6 
#
# 1 0.009120 -0.004751 0.002745 0.003900 -0.001857 -0.003947
# 2 -0.004751 0.013282 -0.001473 0.009574 0.005846 0.006250
# 3 0.002745 -0.001473 -0.041346 -0.019633 0.018142 0.035851
# 4 0.003900 0.009574 -0.019633 0.054957 0.029923 0.043663
# 5 -0.001857 0.005846 0.018142 0.029923 0.045722 0.012538
# 6 -0.003947 0.006250 0.035851 0.043663 0.012538 0.025089
#
#
# Mechanical properties :
#
#
# Convention : Reuss Voigt Hill
#
# Bulk Modulus (GPa) = -38.60742 53.14816 7.27037
# Shear Modulus (GPa) = 47.55184 27.06084 37.30634
#
# Velocity S-wave (km/s) = 5.10662 3.85230 4.52315
# Velocity P-wave (km/s) = 3.68750 6.99526 5.59157
#
# Compressibility (1/GPa) = -0.02590175
#
# Stress axis : x y z
#
# Youngs Moduli (GPa) = 109.64555 75.29062 -24.18613
#
# Poissons Ratio (x) = 0.35769 0.06639
# Poissons Ratio (y) = 0.52091 -0.03563
# Poissons Ratio (z) = -0.30098 0.11091
#
# Static dielectric constant tensor:
#      x y z
#    x 1.591900 -0.001840 0.014150 
#    y -0.001840 1.611620 0.001940 
#    z 0.014150 0.001940 1.599450 
# 
# From -- ./inp_files/24233.got.cif
#   From: 2010.05.17/outbox.cif.g08.bks.cpg/sg2_13_cif.got.tgz:24233.got - 2010.06.03 11:33:40.
