data_PCOD9008474
_publ_section_title
;
Structure prediction by ZEFSAII (Michael W. Deem and Ramdas Pophale) SiO2 
 PCOD9008474
Probable space group: P -1
;
_chemical_formula_sum "Si O2"
_cell_formula_units_Z 16
_cell_length_a 4.989321
_cell_length_b 5.568297
_cell_length_c 25.527837
_cell_angle_alpha 93.670637
_cell_angle_beta 122.549037
_cell_angle_gamma 84.874533
_cell_volume 595.321487
_symmetry_space_group_name_H-M "P -1"
_symmetry_group_IT_number 2
_symmetry_cell_setting 'triclinic'
loop_
_space_group_symop_operation_xyz
x,y,z
-x,-y,-z
loop_
_atom_site_type_symbol
_atom_site_label
_atom_site_fract_x
_atom_site_fract_y
_atom_site_fract_z
Si Si1 0.609646 0.448955 0.871006
Si Si2 0.230839 0.023004 0.297288
Si Si3 0.794532 0.819119 0.097759
Si Si4 0.789119 0.608205 0.344500
Si Si5 0.579788 0.232585 0.240981
Si Si6 0.727575 0.803690 0.971409
Si Si7 0.670159 0.252243 0.420495
Si Si8 0.786897 0.169896 0.539961
O O1 0.315618 0.346252 0.869162
O O2 0.553372 0.650372 0.824119
O O3 0.800768 0.577817 0.938663
O O4 0.826972 0.222709 0.867513
O O5 0.322364 0.169284 0.256533
O O6 0.339283 0.163422 0.362845
O O7 0.850974 0.014619 0.259253
O O8 0.472587 0.788202 0.314725
O O9 0.606516 0.077681 0.085819
O O10 0.672460 0.749636 0.025829
O O11 0.768692 0.449163 0.289085
O O12 0.771096 0.438795 0.390956
O O13 0.127732 0.721207 0.393364
O O14 0.000000 0.000000 0.000000
O O15 0.715284 0.344936 0.485248
O O16 0.899705 0.008528 0.438012
O O17 0.500000 0.000000 0.500000
#
# Coordination Sequence:
#
# PCOD9008474 Si02
#       8
#     2   2   2   2   2   2   2   2
#     4  12  26  43  73  97 141 180 229 281 329 403
#     4  10  24  45  69  94 138 170 230 288 332 393
#     4  11  25  43  70 106 137 182 226 274 342 400
#     4  10  23  44  71  93 132 183 217 276 345 404
#     4  11  26  48  66 102 132 180 234 277 333 399
#     4  11  25  43  70 106 144 177 222 280 341 398
#     4   9  21  40  62  98 129 170 221 271 342 407
#     4  10  21  39  65 100 132 163 219 282 335 407
#
# _framework density 26.876232000000002
#
# number of rings (size 3 to 8) (size 9 to 14) (size 15 to 20)
#    0.000    1.500    1.250    1.875    8.750    4.500 
#    9.000    0.000    0.000    0.000    0.000    0.000 
#    0.000    0.000    0.000    0.000    0.000    0.000 
#
# Total GULP energy -89561.301880 kJ/mol
# GULP energy per Si atom -5597.581367 kJ/mol
# Density = 2.681506 g / cm^3
# Si number density = 26.876232 Si / 1000 Ang^3
#
#
#
# Elastic Constant Matrix: (Units=GPa)
#
#
# Indices 1 2 3 4 5 6 
#
# 1 108.5876 8.3777 13.3290 -4.7953 -3.6445 -4.7348
# 2 8.3777 39.4110 7.2394 -4.9761 -13.3525 -15.0376
# 3 13.3290 7.2394 115.2247 -11.8389 -23.1612 -8.0875
# 4 -4.7953 -4.9761 -11.8389 42.0012 0.7672 2.1913
# 5 -3.6445 -13.3525 -23.1612 0.7672 35.1959 -14.1798
# 6 -4.7348 -15.0376 -8.0875 2.1913 -14.1798 46.9254
#
#
#
# Elastic Compliance Matrix: (Units=1/GPa)
#
#
# Indices 1 2 3 4 5 6 
#
# 1 0.009491 -0.001869 -0.000992 0.000587 -0.000373 0.000048
# 2 -0.001869 0.044620 0.005610 0.004860 0.029949 0.023900
# 3 -0.000992 0.005610 0.011865 0.003274 0.012762 0.007446
# 4 0.000587 0.004860 0.003274 0.025170 0.004459 0.002353
# 5 -0.000373 0.029949 0.012762 0.004459 0.059994 0.029680
# 6 0.000048 0.023900 0.007446 0.002353 0.029680 0.039116
#
#
# Mechanical properties :
#
#
# Convention : Reuss Voigt Hill
#
# Bulk Modulus (GPa) = 13.99120 35.67948 24.83534
# Shear Modulus (GPa) = 23.97123 40.44300 32.20712
#
# Velocity S-wave (km/s) = 2.98973 3.88337 3.46547
# Velocity P-wave (km/s) = 4.13945 5.78028 5.02726
#
# Compressibility (1/GPa) = 0.07147348
#
# Stress axis : x y z
#
# Youngs Moduli (GPa) = 105.36760 22.41147 84.27935
#
# Poissons Ratio (x) = 0.04189 0.08357
# Poissons Ratio (y) = 0.19695 -0.47277
# Poissons Ratio (z) = 0.10449 -0.12572
#
# Static dielectric constant tensor:
#      x y z
#    x 2.107390 0.039660 0.016760 
#    y 0.039660 2.171450 0.016300 
#    z 0.016760 0.016300 2.115670 
# 
# From -- ./inp_files/614717.got.cif
#   From: 2010.05.17/outbox.cif.g08.bks.cpg/sg2_308_cif.got.tgz:614717.got - 2010.06.03 11:33:40.
