data_PCOD9008607
_publ_section_title
;
Structure prediction by ZEFSAII (Michael W. Deem and Ramdas Pophale) SiO2 
 PCOD9008607
Probable space group: P -1
;
_chemical_formula_sum "Si O2"
_cell_formula_units_Z 16
_cell_length_a 20.862725
_cell_length_b 13.945806
_cell_length_c 9.133323
_cell_angle_alpha 111.171753
_cell_angle_beta 57.420340
_cell_angle_gamma 158.945050
_cell_volume 711.368898
_symmetry_space_group_name_H-M "P -1"
_symmetry_group_IT_number 2
_symmetry_cell_setting 'triclinic'
loop_
_space_group_symop_operation_xyz
x,y,z
-x,-y,-z
loop_
_atom_site_type_symbol
_atom_site_label
_atom_site_fract_x
_atom_site_fract_y
_atom_site_fract_z
Si Si1 0.379874 0.069400 0.081260
Si Si2 0.740886 0.665790 0.453300
Si Si3 0.085686 0.252282 0.486079
Si Si4 0.276285 0.158007 0.736967
Si Si5 0.188887 0.380872 0.942346
Si Si6 0.955141 0.267616 0.456529
Si Si7 0.742349 0.298394 0.935262
Si Si8 0.300811 0.164756 0.046483
O O1 0.622982 0.385181 0.033741
O O2 0.373706 0.150059 0.015368
O O3 0.198010 0.867098 0.316840
O O4 0.290952 0.846529 0.009202
O O5 0.545829 0.504044 0.592028
O O6 0.745698 0.604534 0.267812
O O7 0.721402 0.560326 0.555588
O O8 0.966654 0.014236 0.402403
O O9 0.106436 0.378512 0.425257
O O10 0.906821 0.058276 0.724620
O O11 0.212270 0.004934 0.596268
O O12 0.246917 0.083062 0.898350
O O13 0.065654 0.968762 0.887559
O O14 0.196837 0.514025 0.967988
O O15 0.099273 0.513583 0.297714
O O16 0.500000 0.000000 0.000000
O O17 0.500000 0.500000 0.000000
#
# Coordination Sequence:
#
# PCOD9008607 Si02
#       8
#     2   2   2   2   2   2   2   2
#     4  10  21  40  69  87 126 169 206 255 316 366
#     4  11  21  39  62  88 131 167 202 258 314 360
#     4  10  23  39  62  91 127 168 210 250 310 381
#     4  11  22  37  62  90 129 160 208 257 305 366
#     4  10  21  40  61  95 123 161 213 259 301 372
#     4  10  21  39  65  92 121 164 212 256 311 372
#     4   9  20  39  62  91 124 158 213 262 301 372
#     4  11  22  40  61  95 127 163 206 256 309 378
#
# _framework density 22.491847
#
# number of rings (size 3 to 8) (size 9 to 14) (size 15 to 20)
#    0.000    1.750    3.750    0.375    0.000    4.500 
#    0.000    5.625    2.750    2.250    0.000    0.000 
#    0.000    0.000    0.000    0.000    0.000    0.000 
#
# Total GULP energy -89219.398259 kJ/mol
# GULP energy per Si atom -5576.212391 kJ/mol
# Density = 2.244065 g / cm^3
# Si number density = 22.491847 Si / 1000 Ang^3
#
#
#
# Elastic Constant Matrix: (Units=GPa)
#
#
# Indices 1 2 3 4 5 6 
#
# 1 146.6646 43.3402 14.6256 3.3967 3.3489 -12.2891
# 2 43.3402 71.3718 24.0682 -6.4435 -0.3335 8.5149
# 3 14.6256 24.0682 97.6905 2.7875 -8.0343 -7.5058
# 4 3.3967 -6.4435 2.7875 37.7012 6.4949 -2.4841
# 5 3.3489 -0.3335 -8.0343 6.4949 26.8677 -5.1993
# 6 -12.2891 8.5149 -7.5058 -2.4841 -5.1993 27.6664
#
#
#
# Elastic Compliance Matrix: (Units=1/GPa)
#
#
# Indices 1 2 3 4 5 6 
#
# 1 0.009339 -0.006912 0.000913 -0.001785 0.000712 0.006497
# 2 -0.006912 0.021945 -0.005733 0.004713 -0.003985 -0.011706
# 3 0.000913 -0.005733 0.012515 -0.002498 0.005391 0.006354
# 4 -0.001785 0.004713 -0.002498 0.028901 -0.007799 -0.001791
# 5 0.000712 -0.003985 0.005391 -0.007799 0.042573 0.010306
# 6 0.006497 -0.011706 0.006354 -0.001791 0.010306 0.046133
#
#
# Mechanical properties :
#
#
# Convention : Reuss Voigt Hill
#
# Bulk Modulus (GPa) = 49.17569 53.31056 51.24312
# Shear Modulus (GPa) = 26.08930 34.02657 30.05793
#
# Velocity S-wave (km/s) = 3.40949 3.89374 3.65964
# Velocity P-wave (km/s) = 6.11643 6.63088 6.37885
#
# Compressibility (1/GPa) = 0.02033525
#
# Stress axis : x y z
#
# Youngs Moduli (GPa) = 107.07491 45.56777 79.90375
#
# Poissons Ratio (x) = 0.31497 -0.07299
# Poissons Ratio (y) = 0.74012 0.45812
# Poissons Ratio (z) = -0.09781 0.26126
#
# Static dielectric constant tensor:
#      x y z
#    x 1.950130 -0.011500 -0.052050 
#    y -0.011500 1.808560 -0.060510 
#    z -0.052050 -0.060510 1.911760 
# 
# From -- ./inp_files/347611.got.cif
#   From: 2010.05.17/outbox.cif.g08.bks.cpg/sg2_174_cif.got.tgz:347611.got - 2010.06.03 11:33:40.
