data_PCOD9008647
_publ_section_title
;
Structure prediction by ZEFSAII (Michael W. Deem and Ramdas Pophale) SiO2 
 PCOD9008647
Probable space group: P -1
;
_chemical_formula_sum "Si O2"
_cell_formula_units_Z 12
_cell_length_a 5.059587
_cell_length_b 10.512769
_cell_length_c 23.281610
_cell_angle_alpha 30.778826
_cell_angle_beta 59.431160
_cell_angle_gamma 57.728557
_cell_volume 532.241643
_symmetry_space_group_name_H-M "P -1"
_symmetry_group_IT_number 2
_symmetry_cell_setting 'triclinic'
loop_
_space_group_symop_operation_xyz
x,y,z
-x,-y,-z
loop_
_atom_site_type_symbol
_atom_site_label
_atom_site_fract_x
_atom_site_fract_y
_atom_site_fract_z
Si Si1 0.656218 0.456922 0.062591
Si Si2 0.172774 0.716635 0.609225
Si Si3 0.307782 0.589823 0.254517
Si Si4 0.292981 0.075550 0.770370
Si Si5 0.669350 0.033197 0.054594
Si Si6 0.342373 0.548407 0.437259
O O1 0.686488 0.158562 0.183832
O O2 0.500000 0.500000 0.000000
O O3 0.000000 0.500000 0.000000
O O4 0.497083 0.667325 0.044494
O O5 0.404872 0.636937 0.668614
O O6 0.425831 0.623091 0.567038
O O7 0.907965 0.546099 0.709351
O O8 0.000000 0.000000 0.500000
O O9 0.032893 0.712732 0.283908
O O10 0.467275 0.833023 0.131135
O O11 0.278956 0.015648 0.863464
O O12 0.612237 0.171276 0.691430
O O13 0.000000 0.000000 0.000000
O O14 0.500000 0.500000 0.500000
O O15 0.000000 0.500000 0.500000
#
# Coordination Sequence:
#
# PCOD9008647 Si02
#       6
#     2   2   2   2   2   2
#     4  10  21  39  65  93 125 169 210 262 314 379
#     4  11  24  44  68  93 130 171 213 268 327 379
#     4  11  20  41  69  90 129 172 206 262 330 373
#     4  10  22  43  67  94 133 171 214 264 323 381
#     4  11  23  42  69  97 130 171 217 264 324 379
#     4  11  23  40  68  94 124 167 214 262 319 379
#
# _framework density 22.546150999999998
#
# number of rings (size 3 to 8) (size 9 to 14) (size 15 to 20)
#    0.000    1.333    5.000    2.500    0.000    0.667 
#    6.000    0.000    0.000    0.000    0.000    0.000 
#    0.000    0.000    0.000    0.000    0.000    0.000 
#
# Total GULP energy -66889.644479 kJ/mol
# GULP energy per Si atom -5574.137040 kJ/mol
# Density = 2.249484 g / cm^3
# Si number density = 22.546151 Si / 1000 Ang^3
#
#
#
# Elastic Constant Matrix: (Units=GPa)
#
#
# Indices 1 2 3 4 5 6 
#
# 1 141.8551 22.6894 34.8856 10.1988 -38.2100 -31.0208
# 2 22.6894 94.1775 50.5577 -12.2944 -36.1691 -21.9263
# 3 34.8856 50.5577 109.4148 4.3570 -47.7226 -11.9869
# 4 10.1988 -12.2944 4.3570 52.9196 -5.4052 1.6893
# 5 -38.2100 -36.1691 -47.7226 -5.4052 51.7724 8.8168
# 6 -31.0208 -21.9263 -11.9869 1.6893 8.8168 30.1546
#
#
#
# Elastic Compliance Matrix: (Units=1/GPa)
#
#
# Indices 1 2 3 4 5 6 
#
# 1 0.011463 0.003112 -0.000085 -0.000984 0.008478 0.011597
# 2 0.003112 0.019838 -0.004418 0.005043 0.010477 0.012524
# 3 -0.000085 -0.004418 0.016425 -0.001140 0.011904 -0.000188
# 4 -0.000984 0.005043 -0.001140 0.020757 0.003932 -0.000111
# 5 0.008478 0.010477 0.011904 0.003932 0.042858 0.008320
# 6 0.011597 0.012524 -0.000188 -0.000111 0.008320 0.051698
#
#
# Mechanical properties :
#
#
# Convention : Reuss Voigt Hill
#
# Bulk Modulus (GPa) = 22.25029 62.41253 42.33141
# Shear Modulus (GPa) = 27.65434 42.79029 35.22231
#
# Velocity S-wave (km/s) = 3.50604 4.36121 3.95680
# Velocity P-wave (km/s) = 5.12639 7.28714 6.30009
#
# Compressibility (1/GPa) = 0.04494324
#
# Stress axis : x y z
#
# Youngs Moduli (GPa) = 87.23646 50.40764 60.88339
#
# Poissons Ratio (x) = -0.15685 0.00520
# Poissons Ratio (y) = -0.27145 0.26897
# Poissons Ratio (z) = 0.00744 0.22269
#
# Static dielectric constant tensor:
#      x y z
#    x 1.571320 -0.002420 -0.471940 
#    y -0.002420 1.807440 -0.043000 
#    z -0.471940 -0.043000 0.971190 
# 
# From -- ./inp_files/615391.got.cif
#   From: 2010.05.17/outbox.cif.g08.bks.cpg/sg2_308_cif.got.tgz:615391.got - 2010.06.03 11:33:40.
