data_PCOD9008726
_publ_section_title
;
Structure prediction by ZEFSAII (Michael W. Deem and Ramdas Pophale) SiO2 
 PCOD9008726
Probable space group: P -1
;
_chemical_formula_sum "Si O2"
_cell_formula_units_Z 16
_cell_length_a 11.186855
_cell_length_b 15.384939
_cell_length_c 9.561719
_cell_angle_alpha 95.924171
_cell_angle_beta 138.964691
_cell_angle_gamma 57.719647
_cell_volume 768.903988
_symmetry_space_group_name_H-M "P -1"
_symmetry_group_IT_number 2
_symmetry_cell_setting 'triclinic'
loop_
_space_group_symop_operation_xyz
x,y,z
-x,-y,-z
loop_
_atom_site_type_symbol
_atom_site_label
_atom_site_fract_x
_atom_site_fract_y
_atom_site_fract_z
Si Si1 0.827611 0.364034 0.520479
Si Si2 0.443970 0.765764 0.088579
Si Si3 0.554126 0.755346 0.640327
Si Si4 0.083063 0.216362 0.983218
Si Si5 0.000253 0.404416 0.409607
Si Si6 0.558787 0.359221 0.693471
Si Si7 0.026913 0.032220 0.874031
Si Si8 0.602145 0.626751 0.916345
O O1 0.051930 0.261715 0.804761
O O2 0.900141 0.370014 0.429941
O O3 0.667627 0.496788 0.467678
O O4 0.639629 0.345714 0.343978
O O5 0.376619 0.701334 0.106953
O O6 0.706492 0.714118 0.378407
O O7 0.514561 0.714240 0.985546
O O8 0.221254 0.909309 0.936199
O O9 0.534817 0.691918 0.488180
O O10 0.684462 0.660393 0.868104
O O11 0.255381 0.873786 0.426115
O O12 0.708014 0.793085 0.759766
O O13 0.808125 0.315645 0.833501
O O14 0.125767 0.098070 0.992356
O O15 0.000000 0.500000 0.500000
O O16 0.813396 0.485740 0.129557
O O17 0.000000 0.000000 0.000000
#
# Coordination Sequence:
#
# PCOD9008726 Si02
#       8
#     2   2   2   2   2   2   2   2
#     4  12  22  44  64 103 144 175 219 280 338 400
#     4  11  23  45  68  96 135 182 220 277 335 395
#     4  11  25  45  69 101 132 183 222 283 333 391
#     4  11  24  43  69 102 132 177 229 274 336 397
#     4  10  21  39  65  95 135 176 218 267 332 408
#     4  11  23  43  66 101 137 172 221 281 334 393
#     4  11  23  50  69  93 142 171 228 286 323 399
#     4  11  23  43  67 100 143 175 223 275 339 402
#
# _framework density 20.808841000000001
#
# number of rings (size 3 to 8) (size 9 to 14) (size 15 to 20)
#    0.000    1.000    7.500    2.250    0.000    2.500 
#    2.250    1.250    0.000    0.000    0.000    0.000 
#    0.000    0.000    0.000    0.000    0.000    0.000 
#
# Total GULP energy -89401.605728 kJ/mol
# GULP energy per Si atom -5587.600358 kJ/mol
# Density = 2.076148 g / cm^3
# Si number density = 20.808841 Si / 1000 Ang^3
#
#
#
# Elastic Constant Matrix: (Units=GPa)
#
#
# Indices 1 2 3 4 5 6 
#
# 1 46.0169 24.1645 12.9232 1.4766 13.8966 19.7179
# 2 24.1645 103.3777 22.4882 -9.3683 13.3480 -1.7431
# 3 12.9232 22.4882 62.2757 6.3125 20.9633 -0.6321
# 4 1.4766 -9.3683 6.3125 30.6537 11.3402 4.8095
# 5 13.8966 13.3480 20.9633 11.3402 33.5873 4.4644
# 6 19.7179 -1.7431 -0.6321 4.8095 4.4644 39.1683
#
#
#
# Elastic Compliance Matrix: (Units=1/GPa)
#
#
# Indices 1 2 3 4 5 6 
#
# 1 0.036455 -0.006805 -0.002394 0.002995 -0.009506 -0.017978
# 2 -0.006805 0.012761 -0.002751 0.005261 -0.002796 0.003622
# 3 -0.002394 -0.002751 0.021505 -0.001452 -0.011232 0.002888
# 4 0.002995 0.005261 -0.001452 0.040876 -0.015622 -0.004535
# 5 -0.009506 -0.002796 -0.011232 -0.015622 0.046964 0.001045
# 6 -0.017978 0.003622 0.002888 -0.004535 0.001045 0.035227
#
#
# Mechanical properties :
#
#
# Convention : Reuss Voigt Hill
#
# Bulk Modulus (GPa) = 21.35758 36.75801 29.05780
# Shear Modulus (GPa) = 21.43217 30.82150 26.12684
#
# Velocity S-wave (km/s) = 3.21277 3.85278 3.54724
# Velocity P-wave (km/s) = 4.90393 6.12330 5.54722
#
# Compressibility (1/GPa) = 0.04682179
#
# Stress axis : x y z
#
# Youngs Moduli (GPa) = 27.43130 78.36204 46.49996
#
# Poissons Ratio (x) = 0.53325 0.11131
# Poissons Ratio (y) = 0.18667 0.12793
# Poissons Ratio (z) = 0.06566 0.21559
#
# Static dielectric constant tensor:
#      x y z
#    x 1.784690 0.006650 -0.029590 
#    y 0.006650 1.720420 -0.012580 
#    z -0.029590 -0.012580 1.808520 
# 
# From -- ./inp_files/273514.got.cif
#   From: 2010.05.17/outbox.cif.g08.bks.cpg/sg2_137_cif.got.tgz:273514.got - 2010.06.03 11:33:40.
