data_PCOD9008638
_publ_section_title
;
Structure prediction by ZEFSAII (Michael W. Deem and Ramdas Pophale) SiO2 
 PCOD9008638
Probable space group: P -1
;
_chemical_formula_sum "Si O2"
_cell_formula_units_Z 16
_cell_length_a 11.638856
_cell_length_b 17.499485
_cell_length_c 7.761649
_cell_angle_alpha 102.871597
_cell_angle_beta 95.422125
_cell_angle_gamma 152.097406
_cell_volume 554.956689
_symmetry_space_group_name_H-M "P -1"
_symmetry_group_IT_number 2
_symmetry_cell_setting 'triclinic'
loop_
_space_group_symop_operation_xyz
x,y,z
-x,-y,-z
loop_
_atom_site_type_symbol
_atom_site_label
_atom_site_fract_x
_atom_site_fract_y
_atom_site_fract_z
Si Si1 0.906454 0.765186 0.875418
Si Si2 0.258467 0.414143 0.766874
Si Si3 0.140345 0.113238 0.259997
Si Si4 0.883012 0.586759 0.599186
Si Si5 0.749177 0.955636 0.602423
Si Si6 0.751998 0.290917 0.070229
Si Si7 0.579356 0.966819 0.420880
Si Si8 0.348528 0.624280 0.080787
O O1 0.877884 0.804520 0.722079
O O2 0.930107 0.690875 0.783972
O O3 0.568185 0.564828 0.826378
O O4 0.182130 0.965087 0.145483
O O5 0.124294 0.381987 0.576280
O O6 0.320294 0.515551 0.974371
O O7 0.941156 0.159988 0.630374
O O8 0.514447 0.325684 0.444329
O O9 0.994788 0.954789 0.279293
O O10 0.000000 0.000000 0.000000
O O11 0.138198 0.682507 0.729510
O O12 0.420430 0.804543 0.445228
O O13 0.637231 0.840236 0.340522
O O14 0.030814 0.441928 0.052098
O O15 0.466217 0.070452 0.806222
O O16 0.670618 0.331184 0.068442
O O17 0.500000 0.000000 0.500000
#
# Coordination Sequence:
#
# PCOD9008638 Si02
#       8
#     2   2   2   2   2   2   2   2
#     4  10  23  42  65  95 132 170 210 259 320 384
#     4  11  24  40  62  97 134 165 211 266 313 381
#     4   9  18  36  61  88 120 165 209 246 306 379
#     4  11  22  43  68  93 130 173 207 260 328 374
#     4  10  21  39  65  93 122 175 211 256 324 378
#     4  10  21  40  66  90 125 173 214 258 319 374
#     4  11  22  39  62  93 128 168 215 266 316 373
#     4  10  21  40  64  97 126 164 214 268 313 374
#
# _framework density 28.83108
#
# number of rings (size 3 to 8) (size 9 to 14) (size 15 to 20)
#    0.000    1.750    2.500    2.250    0.000    2.000 
#    0.000   21.250    0.000    0.000    0.000    0.000 
#    0.000    0.000    0.000    0.000    0.000    0.000 
#
# Total GULP energy -89176.462730 kJ/mol
# GULP energy per Si atom -5573.528921 kJ/mol
# Density = 2.876546 g / cm^3
# Si number density = 28.831080 Si / 1000 Ang^3
#
#
#
# Elastic Constant Matrix: (Units=GPa)
#
#
# Indices 1 2 3 4 5 6 
#
# 1 118.1039 45.9830 52.2677 2.4422 -7.3887 -21.3151
# 2 45.9830 65.8005 23.7992 5.1067 5.8644 1.3653
# 3 52.2677 23.7992 174.2285 8.0949 18.7862 -25.4564
# 4 2.4422 5.1067 8.0949 69.9909 -27.5338 16.6902
# 5 -7.3887 5.8644 18.7862 -27.5338 53.0306 -0.9609
# 6 -21.3151 1.3653 -25.4564 16.6902 -0.9609 49.3312
#
#
#
# Elastic Compliance Matrix: (Units=1/GPa)
#
#
# Indices 1 2 3 4 5 6 
#
# 1 0.014795 -0.009910 -0.003000 0.001404 0.005035 0.004742
# 2 -0.009910 0.022893 -0.000119 -0.002312 -0.005148 -0.004295
# 3 -0.003000 -0.000119 0.007966 -0.003772 -0.005113 0.003994
# 4 0.001404 -0.002312 -0.003772 0.021998 0.013055 -0.008464
# 5 0.005035 -0.005148 -0.005113 0.013055 0.028642 -0.004179
# 6 0.004742 -0.004295 0.003994 -0.008464 -0.004179 0.027282
#
#
# Mechanical properties :
#
#
# Convention : Reuss Voigt Hill
#
# Bulk Modulus (GPa) = 51.03154 66.91475 58.97314
# Shear Modulus (GPa) = 32.01714 50.20942 41.11328
#
# Velocity S-wave (km/s) = 3.33604 4.17766 3.78035
# Velocity P-wave (km/s) = 5.70767 6.82130 6.28918
#
# Compressibility (1/GPa) = 0.01959572
#
# Stress axis : x y z
#
# Youngs Moduli (GPa) = 67.59049 43.68080 125.53419
#
# Poissons Ratio (x) = 0.43288 0.37660
# Poissons Ratio (y) = 0.66983 0.01497
# Poissons Ratio (z) = 0.20277 0.00521
#
# Static dielectric constant tensor:
#      x y z
#    x 2.358080 -0.039730 -0.033230 
#    y -0.039730 2.961140 0.137230 
#    z -0.033230 0.137230 2.319640 
# 
# From -- ./inp_files/317174.got.cif
#   From: 2010.05.17/outbox.cif.g08.bks.cpg/sg2_159_cif.got.tgz:317174.got - 2010.06.03 11:33:40.
