data_PCOD9008416
_publ_section_title
;
Structure prediction by ZEFSAII (Michael W. Deem and Ramdas Pophale) SiO2 
 PCOD9008416
Probable space group: P -1
;
_chemical_formula_sum "Si O2"
_cell_formula_units_Z 16
_cell_length_a 11.550651
_cell_length_b 7.558019
_cell_length_c 8.274937
_cell_angle_alpha 104.160546
_cell_angle_beta 93.676749
_cell_angle_gamma 97.900788
_cell_volume 690.199157
_symmetry_space_group_name_H-M "P -1"
_symmetry_group_IT_number 2
_symmetry_cell_setting 'triclinic'
loop_
_space_group_symop_operation_xyz
x,y,z
-x,-y,-z
loop_
_atom_site_type_symbol
_atom_site_label
_atom_site_fract_x
_atom_site_fract_y
_atom_site_fract_z
Si Si1 0.661083 0.689638 0.628869
Si Si2 0.435355 0.780859 0.135417
Si Si3 0.978360 0.706837 0.919741
Si Si4 0.412741 0.737022 0.497255
Si Si5 0.220983 0.967575 0.476917
Si Si6 0.339700 0.115324 0.017022
Si Si7 0.815815 0.352468 0.867383
Si Si8 0.100043 0.020589 0.790773
O O1 0.525625 0.728238 0.614856
O O2 0.656484 0.472542 0.554736
O O3 0.704538 0.755856 0.823498
O O4 0.730955 0.828643 0.538544
O O5 0.458013 0.792772 0.332206
O O6 0.316507 0.630968 0.086981
O O7 0.391234 0.956686 0.086636
O O8 0.555766 0.768760 0.052121
O O9 0.106308 0.664877 0.971628
O O10 0.934108 0.789618 0.101083
O O11 0.890658 0.525679 0.822985
O O12 0.001747 0.863980 0.822486
O O13 0.324181 0.878606 0.557221
O O14 0.192707 0.827253 0.290852
O O15 0.118626 0.983972 0.597241
O O16 0.228505 0.025293 0.883790
#
# Coordination Sequence:
#
# PCOD9008416 Si02
#       8
#     2   2   2   2   2   2   2   2
#     4  11  22  40  62  93 136 175 217 260 324 396
#     4  10  21  39  64  96 127 170 210 265 324 388
#     4  10  23  44  68  90 130 170 223 275 314 389
#     4  10  23  39  60  94 132 177 213 264 323 389
#     4  11  23  42  67  94 131 171 214 275 327 386
#     4  11  22  37  67  97 131 171 214 263 324 394
#     4  10  21  45  66  94 128 174 217 269 331 373
#     4  11  24  42  66  99 128 173 219 267 330 384
#
# _framework density 23.181716000000002
#
# number of rings (size 3 to 8) (size 9 to 14) (size 15 to 20)
#    0.000    1.500    3.750    1.125    7.000    1.500 
#    9.000    0.000    0.000    0.000    0.000    0.000 
#    0.000    0.000    0.000    0.000    0.000    0.000 
#
# Total GULP energy -89417.920301 kJ/mol
# GULP energy per Si atom -5588.620019 kJ/mol
# Density = 2.312895 g / cm^3
# Si number density = 23.181716 Si / 1000 Ang^3
#
#
#
# Elastic Constant Matrix: (Units=GPa)
#
#
# Indices 1 2 3 4 5 6 
#
# 1 79.2649 39.7134 29.6044 -4.3790 -4.1051 15.4846
# 2 39.7134 129.2748 31.0347 5.9569 -8.0214 24.4684
# 3 29.6044 31.0347 47.4231 -2.8260 -8.6609 10.8403
# 4 -4.3790 5.9569 -2.8260 15.2595 8.8824 6.7491
# 5 -4.1051 -8.0214 -8.6609 8.8824 39.5695 -4.5322
# 6 15.4846 24.4684 10.8403 6.7491 -4.5322 38.3661
#
#
#
# Elastic Compliance Matrix: (Units=1/GPa)
#
#
# Indices 1 2 3 4 5 6 
#
# 1 0.018797 -0.003441 -0.008367 0.009312 -0.003247 -0.005050
# 2 -0.003441 0.010755 -0.004192 -0.005665 0.001825 -0.003074
# 3 -0.008367 -0.004192 0.030632 0.003982 0.003765 -0.002860
# 4 0.009312 -0.005665 0.003982 0.093302 -0.022586 -0.020351
# 5 -0.003247 0.001825 0.003765 -0.022586 0.031982 0.006834
# 6 -0.005050 -0.003074 -0.002860 -0.020351 0.006834 0.035259
#
#
# Mechanical properties :
#
#
# Convention : Reuss Voigt Hill
#
# Bulk Modulus (GPa) = 35.47919 50.74087 43.11003
# Shear Modulus (GPa) = 19.07523 29.01306 24.04415
#
# Velocity S-wave (km/s) = 2.87166 3.54156 3.22406
# Velocity P-wave (km/s) = 5.13160 6.21767 5.70056
#
# Compressibility (1/GPa) = 0.02818554
#
# Stress axis : x y z
#
# Youngs Moduli (GPa) = 53.19879 92.98085 32.64584
#
# Poissons Ratio (x) = 0.31993 0.27313
# Poissons Ratio (y) = 0.18305 0.13685
# Poissons Ratio (z) = 0.44509 0.38977
#
# Static dielectric constant tensor:
#      x y z
#    x 1.914770 -0.026880 0.046200 
#    y -0.026880 1.877740 0.000280 
#    z 0.046200 0.000280 1.844540 
# 
# From -- ./inp_files/245068.got.cif
#   From: 2010.05.17/outbox.cif.g08.bks.cpg/sg2_123_cif.got.tgz:245068.got - 2010.06.03 11:33:40.
