data_PCOD9008956
_publ_section_title
;
Structure prediction by ZEFSAII (Michael W. Deem and Ramdas Pophale) SiO2 
 PCOD9008956
Probable space group: P -1
;
_chemical_formula_sum "Si O2"
_cell_formula_units_Z 14
_cell_length_a 13.687762
_cell_length_b 8.972634
_cell_length_c 11.575216
_cell_angle_alpha 79.434977
_cell_angle_beta 120.202126
_cell_angle_gamma 51.494178
_cell_volume 652.777979
_symmetry_space_group_name_H-M "P -1"
_symmetry_group_IT_number 2
_symmetry_cell_setting 'triclinic'
loop_
_space_group_symop_operation_xyz
x,y,z
-x,-y,-z
loop_
_atom_site_type_symbol
_atom_site_label
_atom_site_fract_x
_atom_site_fract_y
_atom_site_fract_z
Si Si1 0.182581 0.773788 0.816034
Si Si2 0.979764 0.892560 0.103406
Si Si3 0.645168 0.746857 0.965005
Si Si4 0.444070 0.402891 0.533606
Si Si5 0.740494 0.357789 0.368439
Si Si6 0.794701 0.814126 0.874302
Si Si7 0.199213 0.353057 0.693672
O O1 0.306761 0.659527 0.784180
O O2 0.271606 0.516754 0.956183
O O3 0.156906 0.908938 0.892975
O O4 0.942975 0.042251 0.585777
O O5 0.217381 0.602550 0.330124
O O6 0.881255 0.853987 0.997277
O O7 0.000000 0.000000 0.000000
O O8 0.662452 0.832349 0.853585
O O9 0.407809 0.028280 0.826671
O O10 0.794170 0.655352 0.163062
O O11 0.500000 0.500000 0.500000
O O12 0.427163 0.446709 0.656307
O O13 0.630082 0.080828 0.654701
O O14 0.789347 0.481353 0.356646
O O15 0.000000 0.500000 0.000000
O O16 0.000000 0.500000 0.500000
#
# Coordination Sequence:
#
# PCOD9008956 Si02
#       7
#     2   2   2   2   2   2   2
#     4   9  20  40  67  95 134 169 220 276 327 405
#     4  11  23  43  70  98 132 180 230 273 340 411
#     4  10  22  40  63  96 131 168 219 275 332 391
#     4  11  23  43  70  97 139 179 224 285 334 398
#     4   9  19  40  67  97 134 176 218 273 336 394
#     4  12  26  43  69  96 135 180 227 285 338 396
#     4  10  21  39  66  94 132 172 216 273 334 396
#
# _framework density 21.446801000000001
#
# number of rings (size 3 to 8) (size 9 to 14) (size 15 to 20)
#    0.000    1.714    2.857    0.857    6.000    0.571 
#    0.000   10.000    0.000    0.000    0.000    0.000 
#    0.000    0.000    0.000    0.000    0.000    0.000 
#
# Total GULP energy -78106.668617 kJ/mol
# GULP energy per Si atom -5579.047758 kJ/mol
# Density = 2.139799 g / cm^3
# Si number density = 21.446801 Si / 1000 Ang^3
#
#
#
# Elastic Constant Matrix: (Units=GPa)
#
#
# Indices 1 2 3 4 5 6 
#
# 1 38.5550 5.7540 2.2263 -2.1472 -21.0984 1.1405
# 2 5.7540 114.3909 39.8603 -15.6010 2.7881 3.6715
# 3 2.2263 39.8603 110.8007 -20.0127 4.8466 15.7769
# 4 -2.1472 -15.6010 -20.0127 45.0635 6.8692 -11.0084
# 5 -21.0984 2.7881 4.8466 6.8692 36.4029 -4.0445
# 6 1.1405 3.6715 15.7769 -11.0084 -4.0445 23.5993
#
#
#
# Elastic Compliance Matrix: (Units=1/GPa)
#
#
# Indices 1 2 3 4 5 6 
#
# 1 0.039317 -0.002384 -0.001851 -0.002824 0.024028 0.002509
# 2 -0.002384 0.010396 -0.003346 0.002716 -0.002062 0.001648
# 3 -0.001851 -0.003346 0.011907 0.002996 -0.003699 -0.006586
# 4 -0.002824 0.002716 0.002996 0.027624 -0.006401 0.009500
# 5 0.024028 -0.002062 -0.003699 -0.006401 0.043941 0.006177
# 6 0.002509 0.001648 -0.006586 0.009500 0.006177 0.051890
#
#
# Mechanical properties :
#
#
# Convention : Reuss Voigt Hill
#
# Bulk Modulus (GPa) = 21.52454 39.93640 30.73047
# Shear Modulus (GPa) = 23.17814 35.40688 29.29251
#
# Velocity S-wave (km/s) = 3.29101 4.06756 3.69971
# Velocity P-wave (km/s) = 4.94965 6.38135 5.71054
#
# Compressibility (1/GPa) = 0.04645859
#
# Stress axis : x y z
#
# Youngs Moduli (GPa) = 25.43429 96.19491 83.98565
#
# Poissons Ratio (x) = 0.22934 0.15542
# Poissons Ratio (y) = 0.06064 0.28099
# Poissons Ratio (z) = 0.04707 0.32184
#
# Static dielectric constant tensor:
#      x y z
#    x 1.754200 0.011130 -0.064040 
#    y 0.011130 1.626530 0.194220 
#    z -0.064040 0.194220 1.597470 
# 
# From -- ./inp_files/445893.got.cif
#   From: 2010.05.17/outbox.cif.g08.bks.cpg/sg2_223_cif.got.tgz:445893.got - 2010.06.03 11:33:40.
