data_PCOD9008066
_publ_section_title
;
Structure prediction by ZEFSAII (Michael W. Deem and Ramdas Pophale) SiO2 
 PCOD9008066
Probable space group: P -1
;
_chemical_formula_sum "Si O2"
_cell_formula_units_Z 14
_cell_length_a 8.742241
_cell_length_b 8.160569
_cell_length_c 19.306937
_cell_angle_alpha 93.739670
_cell_angle_beta 155.008649
_cell_angle_gamma 78.328497
_cell_volume 546.164979
_symmetry_space_group_name_H-M "P -1"
_symmetry_group_IT_number 2
_symmetry_cell_setting 'triclinic'
loop_
_space_group_symop_operation_xyz
x,y,z
-x,-y,-z
loop_
_atom_site_type_symbol
_atom_site_label
_atom_site_fract_x
_atom_site_fract_y
_atom_site_fract_z
Si Si1 0.962537 0.431384 0.175082
Si Si2 0.141081 0.999477 0.399098
Si Si3 0.169895 0.900752 0.860471
Si Si4 0.489486 0.083428 0.676240
Si Si5 0.877928 0.703894 0.243983
Si Si6 0.682651 0.712428 0.824651
Si Si7 0.513939 0.391128 0.787488
O O1 0.063060 0.233735 0.232375
O O2 0.127154 0.548195 0.293373
O O3 0.102008 0.413942 0.154205
O O4 0.500000 0.500000 0.000000
O O5 0.786195 0.097004 0.204479
O O6 0.500000 0.000000 0.500000
O O7 0.182327 0.072398 0.492444
O O8 0.104667 0.809745 0.379382
O O9 0.877091 0.059343 0.788806
O O10 0.561816 0.827678 0.063159
O O11 0.553531 0.913483 0.748412
O O12 0.385741 0.265861 0.679151
O O13 0.660939 0.631654 0.210584
O O14 0.430311 0.595945 0.744163
O O15 0.023280 0.697127 0.018006
#
# Coordination Sequence:
#
# PCOD9008066 Si02
#       7
#     2   2   2   2   2   2   2
#     4   9  17  36  60  90 123 147 205 269 294 355
#     4  10  23  40  59  90 124 164 210 250 314 371
#     4   9  19  39  63  93 118 159 212 252 311 359
#     4  10  21  42  61  90 130 166 202 255 307 373
#     4  11  21  39  63  96 122 156 213 260 305 367
#     4  10  21  39  63  96 123 163 211 250 312 371
#     4  11  22  38  66  93 127 164 206 252 318 367
#
# _framework density 25.633281
#
# number of rings (size 3 to 8) (size 9 to 14) (size 15 to 20)
#    0.000    2.000    4.286    0.857    4.000    0.571 
#    5.143    2.857    0.000    0.000    0.000    0.000 
#    0.000    0.000    0.000    0.000    0.000    0.000 
#
# Total GULP energy -78114.969782 kJ/mol
# GULP energy per Si atom -5579.640699 kJ/mol
# Density = 2.557494 g / cm^3
# Si number density = 25.633281 Si / 1000 Ang^3
#
#
#
# Elastic Constant Matrix: (Units=GPa)
#
#
# Indices 1 2 3 4 5 6 
#
# 1 33.2178 25.5906 35.4198 1.3748 1.0512 16.0160
# 2 25.5906 100.0749 64.6113 31.7976 -7.1287 13.8055
# 3 35.4198 64.6113 129.2597 29.8227 -27.6659 11.2968
# 4 1.3748 31.7976 29.8227 53.3341 -4.9691 -5.3610
# 5 1.0512 -7.1287 -27.6659 -4.9691 38.2582 3.0842
# 6 16.0160 13.8055 11.2968 -5.3610 3.0842 44.3928
#
#
#
# Elastic Compliance Matrix: (Units=1/GPa)
#
#
# Indices 1 2 3 4 5 6 
#
# 1 0.059138 -0.006310 -0.016701 0.009077 -0.012639 -0.013149
# 2 -0.006310 0.017904 -0.005420 -0.007873 -0.001208 -0.002779
# 3 -0.016701 -0.005420 0.018796 -0.005570 0.012204 0.001407
# 4 0.009077 -0.007873 -0.005570 0.026479 -0.002625 0.003971
# 5 -0.012639 -0.001208 0.012204 -0.002625 0.034818 -0.000906
# 6 -0.013149 -0.002779 0.001407 0.003971 -0.000906 0.028319
#
#
# Mechanical properties :
#
#
# Convention : Reuss Voigt Hill
#
# Bulk Modulus (GPa) = 25.65660 57.08845 41.37253
# Shear Modulus (GPa) = 19.58426 36.32572 27.95499
#
# Velocity S-wave (km/s) = 2.76708 3.76856 3.30597
# Velocity P-wave (km/s) = 4.49887 6.42306 5.54507
#
# Compressibility (1/GPa) = 0.03897632
#
# Stress axis : x y z
#
# Youngs Moduli (GPa) = 16.90965 55.85313 53.20279
#
# Poissons Ratio (x) = 0.35245 0.88854
# Poissons Ratio (y) = 0.10671 0.28833
# Poissons Ratio (z) = 0.28241 0.30270
#
# Static dielectric constant tensor:
#      x y z
#    x 2.093350 -0.021010 0.034680 
#    y -0.021010 2.194050 -0.059700 
#    z 0.034680 -0.059700 2.104800 
# 
# From -- ./inp_files/556297.got.cif
#   From: 2010.05.17/outbox.cif.g08.bks.cpg/sg2_279_cif.got.tgz:556297.got - 2010.06.03 11:33:40.
