data_PCOD9008146
_publ_section_title
;
Structure prediction by ZEFSAII (Michael W. Deem and Ramdas Pophale) SiO2 
 PCOD9008146
Probable space group: P -1
;
_chemical_formula_sum "Si O2"
_cell_formula_units_Z 12
_cell_length_a 9.412049
_cell_length_b 10.110035
_cell_length_c 13.181372
_cell_angle_alpha 34.544298
_cell_angle_beta 115.338862
_cell_angle_gamma 116.777332
_cell_volume 630.945135
_symmetry_space_group_name_H-M "P -1"
_symmetry_group_IT_number 2
_symmetry_cell_setting 'triclinic'
loop_
_space_group_symop_operation_xyz
x,y,z
-x,-y,-z
loop_
_atom_site_type_symbol
_atom_site_label
_atom_site_fract_x
_atom_site_fract_y
_atom_site_fract_z
Si Si1 0.340164 0.068822 0.867048
Si Si2 0.924218 0.321494 0.340185
Si Si3 0.442006 0.590901 0.532799
Si Si4 0.862201 0.267419 0.581648
Si Si5 0.760549 0.898470 0.415793
Si Si6 0.991989 0.129317 0.022582
O O1 0.364733 0.350241 0.719503
O O2 0.301617 0.043063 0.751444
O O3 0.192464 0.910952 0.977611
O O4 0.500000 0.000000 0.000000
O O5 0.831594 0.281031 0.444131
O O6 0.101825 0.260685 0.451764
O O7 0.839320 0.135561 0.348856
O O8 0.937932 0.592731 0.139044
O O9 0.500000 0.500000 0.500000
O O10 0.294491 0.727958 0.401055
O O11 0.605464 0.753098 0.518973
O O12 0.000000 0.500000 0.500000
O O13 0.925884 0.026677 0.775845
O O14 0.000000 0.000000 0.000000
#
# Coordination Sequence:
#
# PCOD9008146 Si02
#       6
#     2   2   2   2   2   2
#     4  11  22  38  63  96 123 161 216 260 310 373
#     4  11  23  44  65  93 129 168 211 260 317 377
#     4  10  21  39  64  86 125 165 209 262 312 368
#     4  12  21  42  64  93 129 165 215 261 316 374
#     4  10  23  43  64  91 132 168 207 264 316 373
#     4  12  24  37  67  97 122 167 215 262 311 374
#
# _framework density 19.019085
#
# number of rings (size 3 to 8) (size 9 to 14) (size 15 to 20)
#    0.000    1.000    5.000    2.000    4.667    1.333 
#    3.000    0.833    0.000    0.000    0.000    0.000 
#    0.000    0.000    0.000    0.000    0.000    0.000 
#
# Total GULP energy -66971.484945 kJ/mol
# GULP energy per Si atom -5580.957079 kJ/mol
# Density = 1.897580 g / cm^3
# Si number density = 19.019085 Si / 1000 Ang^3
#
#
#
# Elastic Constant Matrix: (Units=GPa)
#
#
# Indices 1 2 3 4 5 6 
#
# 1 108.1417 33.8863 20.4799 2.0502 9.7874 4.1483
# 2 33.8863 98.8711 51.9554 -8.5488 1.7473 7.3429
# 3 20.4799 51.9554 113.1321 -12.4042 5.0671 4.6174
# 4 2.0502 -8.5488 -12.4042 33.1592 1.4099 1.1017
# 5 9.7874 1.7473 5.0671 1.4099 36.4457 0.5488
# 6 4.1483 7.3429 4.6174 1.1017 0.5488 24.5127
#
#
#
# Elastic Compliance Matrix: (Units=1/GPa)
#
#
# Indices 1 2 3 4 5 6 
#
# 1 0.010706 -0.003535 -0.000349 -0.001575 -0.002588 -0.000558
# 2 -0.003535 0.014761 -0.005864 0.001881 0.001027 -0.002827
# 3 -0.000349 -0.005864 0.012019 0.003084 -0.001407 -0.000556
# 4 -0.001575 0.001881 0.003084 0.032025 -0.001300 -0.002288
# 5 -0.002588 0.001027 -0.001407 -0.001300 0.028333 -0.000180
# 6 -0.000558 -0.002827 -0.000556 -0.002288 -0.000180 0.041948
#
#
# Mechanical properties :
#
#
# Convention : Reuss Voigt Hill
#
# Bulk Modulus (GPa) = 55.57989 59.19869 57.38929
# Shear Modulus (GPa) = 30.25088 33.07840 31.66464
#
# Velocity S-wave (km/s) = 3.99250 4.17492 4.08473
# Velocity P-wave (km/s) = 7.10915 7.37790 7.24478
#
# Compressibility (1/GPa) = 0.01799212
#
# Stress axis : x y z
#
# Youngs Moduli (GPa) = 93.40191 67.74401 83.20158
#
# Poissons Ratio (x) = 0.23949 0.02901
# Poissons Ratio (y) = 0.33020 0.48785
# Poissons Ratio (z) = 0.03256 0.39722
#
# Static dielectric constant tensor:
#      x y z
#    x 1.706210 -0.007880 0.035630 
#    y -0.007880 1.628110 -0.099330 
#    z 0.035630 -0.099330 1.416260 
# 
# From -- ./inp_files/166405.got.cif
#   From: 2010.05.17/outbox.cif.g08.bks.cpg/sg2_84_cif.got.tgz:166405.got - 2010.06.03 11:33:40.
