data_PCOD9008954
_publ_section_title
;
Structure prediction by ZEFSAII (Michael W. Deem and Ramdas Pophale) SiO2 
 PCOD9008954
Probable space group: P -1
;
_chemical_formula_sum "Si O2"
_cell_formula_units_Z 14
_cell_length_a 9.415586
_cell_length_b 15.527246
_cell_length_c 7.022534
_cell_angle_alpha 140.148631
_cell_angle_beta 96.103081
_cell_angle_gamma 70.077766
_cell_volume 597.627282
_symmetry_space_group_name_H-M "P -1"
_symmetry_group_IT_number 2
_symmetry_cell_setting 'triclinic'
loop_
_space_group_symop_operation_xyz
x,y,z
-x,-y,-z
loop_
_atom_site_type_symbol
_atom_site_label
_atom_site_fract_x
_atom_site_fract_y
_atom_site_fract_z
Si Si1 0.123339 0.074367 0.136827
Si Si2 0.200855 0.528118 0.756606
Si Si3 0.646683 0.898473 0.471667
Si Si4 0.132513 0.592107 0.306378
Si Si5 0.433648 0.885939 0.715010
Si Si6 0.535959 0.422093 0.665898
Si Si7 0.122719 0.339542 0.151359
O O1 0.246860 0.047675 0.284970
O O2 0.013550 0.249598 0.423015
O O3 0.248298 0.989815 0.842531
O O4 0.000000 0.000000 0.000000
O O5 0.370751 0.516678 0.704283
O O6 0.191248 0.380899 0.420034
O O7 0.051547 0.652007 0.843036
O O8 0.166168 0.552761 0.018801
O O9 0.560368 0.816404 0.445864
O O10 0.500000 0.000000 0.500000
O O11 0.763993 0.805821 0.172416
O O12 0.297158 0.589662 0.396508
O O13 0.109640 0.463928 0.202257
O O14 0.447552 0.745233 0.598724
O O15 0.500000 0.000000 0.000000
O O16 0.500000 0.500000 0.000000
#
# Coordination Sequence:
#
# PCOD9008954 Si02
#       7
#     2   2   2   2   2   2   2
#     4  11  23  43  68  95 132 179 223 271 345 405
#     4  10  23  39  64  97 135 165 223 275 334 394
#     4  11  25  43  65  99 137 173 226 283 332 410
#     4  11  22  42  68  97 134 169 220 278 340 407
#     4  10  23  39  66  96 125 182 228 268 339 410
#     4  10  21  39  66  94 131 173 218 277 337 402
#     4  11  24  40  68 101 127 176 223 276 337 399
#
# _framework density 23.425972999999999
#
# number of rings (size 3 to 8) (size 9 to 14) (size 15 to 20)
#    0.000    1.429    2.857    2.143    8.000    1.714 
#    0.000    3.571    0.000    0.000    0.000    0.000 
#    0.000    0.000    0.000    0.000    0.000    0.000 
#
# Total GULP energy -78018.802922 kJ/mol
# GULP energy per Si atom -5572.771637 kJ/mol
# Density = 2.337265 g / cm^3
# Si number density = 23.425973 Si / 1000 Ang^3
#
#
#
# Elastic Constant Matrix: (Units=GPa)
#
#
# Indices 1 2 3 4 5 6 
#
# 1 183.8460 45.0956 25.6983 6.2564 -2.9633 -58.5015
# 2 45.0956 91.7648 34.1050 -4.4255 8.6339 -30.1611
# 3 25.6983 34.1050 101.5106 5.0586 -15.2096 -21.2548
# 4 6.2564 -4.4255 5.0586 34.2094 -4.1816 -4.7976
# 5 -2.9633 8.6339 -15.2096 -4.1816 38.9717 7.6490
# 6 -58.5015 -30.1611 -21.2548 -4.7976 7.6490 45.0895
#
#
#
# Elastic Compliance Matrix: (Units=1/GPa)
#
#
# Indices 1 2 3 4 5 6 
#
# 1 0.009395 -0.000559 0.000131 -0.000298 -0.001518 0.012104
# 2 -0.000559 0.017119 -0.004766 0.003545 -0.007296 0.010093
# 3 0.000131 -0.004766 0.012713 -0.001587 0.005489 0.001875
# 4 -0.000298 0.003545 -0.001587 0.030711 0.001018 0.004332
# 5 -0.001518 -0.007296 0.005489 0.001018 0.031269 -0.009458
# 6 0.012104 0.010093 0.001875 0.004332 -0.009458 0.047583
#
#
# Mechanical properties :
#
#
# Convention : Reuss Voigt Hill
#
# Bulk Modulus (GPa) = 34.67576 65.21326 49.94451
# Shear Modulus (GPa) = 29.62232 41.80229 35.71230
#
# Velocity S-wave (km/s) = 3.55985 4.22885 3.90869
# Velocity P-wave (km/s) = 5.63304 7.19324 6.46041
#
# Compressibility (1/GPa) = 0.02883859
#
# Stress axis : x y z
#
# Youngs Moduli (GPa) = 106.43622 58.41612 78.65682
#
# Poissons Ratio (x) = 0.03267 -0.01031
# Poissons Ratio (y) = 0.05952 0.37490
# Poissons Ratio (z) = -0.01395 0.27842
#
# Static dielectric constant tensor:
#      x y z
#    x 2.009980 0.055770 -0.072130 
#    y 0.055770 2.018010 -0.062240 
#    z -0.072130 -0.062240 1.958450 
# 
# From -- ./inp_files/222780.got.cif
#   From: 2010.05.17/outbox.cif.g08.bks.cpg/sg2_112_cif.got.tgz:222780.got - 2010.06.03 11:33:40.
