data_PCOD9008555
_publ_section_title
;
Structure prediction by ZEFSAII (Michael W. Deem and Ramdas Pophale) SiO2 
 PCOD9008555
Probable space group: P -1
;
_chemical_formula_sum "Si O2"
_cell_formula_units_Z 16
_cell_length_a 12.193174
_cell_length_b 9.700256
_cell_length_c 17.859277
_cell_angle_alpha 37.995615
_cell_angle_beta 146.296827
_cell_angle_gamma 119.062834
_cell_volume 626.053374
_symmetry_space_group_name_H-M "P -1"
_symmetry_group_IT_number 2
_symmetry_cell_setting 'triclinic'
loop_
_space_group_symop_operation_xyz
x,y,z
-x,-y,-z
loop_
_atom_site_type_symbol
_atom_site_label
_atom_site_fract_x
_atom_site_fract_y
_atom_site_fract_z
Si Si1 0.360610 0.244221 0.033525
Si Si2 0.197314 0.580087 0.492175
Si Si3 0.389091 0.558685 0.126707
Si Si4 0.082292 0.993256 0.134049
Si Si5 0.856676 0.888191 0.303831
Si Si6 0.270533 0.706889 0.697367
Si Si7 0.990253 0.494483 0.138446
Si Si8 0.476563 0.245945 0.584813
O O1 0.602476 0.232078 0.191641
O O2 0.429588 0.945084 0.208142
O O3 0.265384 0.442550 0.825737
O O4 0.180338 0.387979 0.937062
O O5 0.452229 0.531837 0.671529
O O6 0.077707 0.769898 0.273634
O O7 0.221072 0.300627 0.624251
O O8 0.031728 0.732542 0.402510
O O9 0.559892 0.358806 0.247767
O O10 0.145169 0.578218 0.967625
O O11 0.339144 0.843017 0.952930
O O12 0.347101 0.909365 0.314267
O O13 0.964862 0.286521 0.967338
O O14 0.000000 0.000000 0.000000
O O15 0.017584 0.922703 0.440654
O O16 0.231357 0.300589 0.395668
O O17 0.500000 0.500000 0.500000
#
# Coordination Sequence:
#
# PCOD9008555 Si02
#       8
#     2   2   2   2   2   2   2   2
#     4   9  20  35  55  86 126 160 196 247 301 357
#     4  10  24  41  63  91 121 163 203 249 311 364
#     4  10  21  41  61  91 123 158 210 253 301 366
#     4  11  24  43  63  88 126 160 202 256 305 363
#     4  10  21  39  65  90 123 159 202 254 307 359
#     4   9  19  35  58  88 120 160 200 244 303 360
#     4  10  22  39  61  87 126 163 204 252 305 363
#     4  11  22  36  57  86 118 159 202 243 301 359
#
# _framework density 25.556926000000001
#
# number of rings (size 3 to 8) (size 9 to 14) (size 15 to 20)
#    0.000    2.000    1.250    1.125    3.500    4.500 
#    0.000    5.000    0.000    0.000    0.000    0.000 
#    0.000    0.000    0.000    0.000    0.000    0.000 
#
# Total GULP energy -89388.597633 kJ/mol
# GULP energy per Si atom -5586.787352 kJ/mol
# Density = 2.549876 g / cm^3
# Si number density = 25.556926 Si / 1000 Ang^3
#
#
#
# Elastic Constant Matrix: (Units=GPa)
#
#
# Indices 1 2 3 4 5 6 
#
# 1 55.8355 9.7651 19.9079 12.4879 5.4380 12.7420
# 2 9.7651 90.9450 29.2437 5.7786 -16.3658 27.3161
# 3 19.9079 29.2437 149.5516 13.0155 -20.2091 15.0957
# 4 12.4879 5.7786 13.0155 46.8122 11.5300 -1.8734
# 5 5.4380 -16.3658 -20.2091 11.5300 45.1992 -7.3525
# 6 12.7420 27.3161 15.0957 -1.8734 -7.3525 24.1235
#
#
#
# Elastic Compliance Matrix: (Units=1/GPa)
#
#
# Indices 1 2 3 4 5 6 
#
# 1 0.023390 0.002449 -0.002075 -0.005614 -0.003939 -0.015465
# 2 0.002449 0.018099 -0.000935 -0.004337 0.003623 -0.020435
# 3 -0.002075 -0.000935 0.008093 -0.002615 0.003883 -0.001929
# 4 -0.005614 -0.004337 -0.002615 0.026281 -0.007248 0.009345
# 5 -0.003939 0.003623 0.003883 -0.007248 0.028071 0.003541
# 6 -0.015465 -0.020435 -0.001929 0.009345 0.003541 0.075774
#
#
# Mechanical properties :
#
#
# Convention : Reuss Voigt Hill
#
# Bulk Modulus (GPa) = 20.63636 46.01837 33.32737
# Shear Modulus (GPa) = 25.38292 39.05466 32.21879
#
# Velocity S-wave (km/s) = 3.15491 3.91339 3.55444
# Velocity P-wave (km/s) = 4.62207 6.20200 5.46938
#
# Compressibility (1/GPa) = 0.04845815
#
# Stress axis : x y z
#
# Youngs Moduli (GPa) = 42.75375 55.25208 123.56900
#
# Poissons Ratio (x) = -0.13530 0.25641
# Poissons Ratio (y) = -0.10470 0.11558
# Poissons Ratio (z) = 0.08872 0.05168
#
# Static dielectric constant tensor:
#      x y z
#    x 2.033790 0.022000 -0.019910 
#    y 0.022000 2.093550 -0.030310 
#    z -0.019910 -0.030310 2.034540 
# 
# From -- ./inp_files/597799.got.cif
#   From: 2010.05.17/outbox.cif.g08.bks.cpg/sg2_299_cif.got.tgz:597799.got - 2010.06.03 11:33:40.
