data_PCOD9008225
_publ_section_title
;
Structure prediction by ZEFSAII (Michael W. Deem and Ramdas Pophale) SiO2 
 PCOD9008225
Probable space group: P -1
;
_chemical_formula_sum "Si O2"
_cell_formula_units_Z 16
_cell_length_a 9.449195
_cell_length_b 18.216514
_cell_length_c 5.203638
_cell_angle_alpha 79.989351
_cell_angle_beta 93.542038
_cell_angle_gamma 132.968613
_cell_volume 643.435231
_symmetry_space_group_name_H-M "P -1"
_symmetry_group_IT_number 2
_symmetry_cell_setting 'triclinic'
loop_
_space_group_symop_operation_xyz
x,y,z
-x,-y,-z
loop_
_atom_site_type_symbol
_atom_site_label
_atom_site_fract_x
_atom_site_fract_y
_atom_site_fract_z
Si Si1 0.743857 0.367983 0.204435
Si Si2 0.437303 0.554141 0.684160
Si Si3 0.395955 0.766791 0.224121
Si Si4 0.718996 0.044778 0.479595
Si Si5 0.093581 0.769777 0.289573
Si Si6 0.883079 0.561381 0.662325
Si Si7 0.201907 0.027684 0.969190
Si Si8 0.216778 0.349342 0.033282
O O1 0.657380 0.418846 0.156806
O O2 0.639959 0.283385 0.471764
O O3 0.968166 0.450696 0.261752
O O4 0.705812 0.314202 0.966246
O O5 0.324617 0.531896 0.423018
O O6 0.663714 0.643058 0.721083
O O7 0.376517 0.447015 0.807483
O O8 0.300315 0.815564 0.178542
O O9 0.623008 0.852454 0.140575
O O10 0.862034 0.164083 0.500095
O O11 0.500000 0.000000 0.500000
O O12 0.777111 0.023766 0.235314
O O13 0.747684 0.997257 0.746520
O O14 0.988336 0.654199 0.414448
O O15 0.940305 0.751299 0.087271
O O16 0.884897 0.616176 0.872063
O O17 0.000000 0.000000 0.000000
#
# Coordination Sequence:
#
# PCOD9008225 Si02
#       8
#     2   2   2   2   2   2   2   2
#     4  11  24  41  69  98 131 184 234 281 342 427
#     4  10  23  39  60  98 130 185 228 279 352 414
#     4  11  24  45  70  98 142 177 229 296 352 411
#     4  12  26  45  82 107 139 194 247 294 350 455
#     4  10  23  41  68 103 130 179 242 285 345 410
#     4  10  21  39  64  90 137 176 224 294 336 404
#     4  12  28  50  73 109 152 188 230 307 379 425
#     4  10  21  41  64  90 141 176 226 297 343 401
#
# _framework density 24.866526
#
# number of rings (size 3 to 8) (size 9 to 14) (size 15 to 20)
#    0.000    1.250    2.500    2.250    5.250    1.500 
#    2.250    0.000    0.000    0.000    0.000    0.000 
#    0.000    0.000    0.000    0.000    0.000    0.000 
#
# Total GULP energy -89450.994487 kJ/mol
# GULP energy per Si atom -5590.687155 kJ/mol
# Density = 2.480993 g / cm^3
# Si number density = 24.866526 Si / 1000 Ang^3
#
#
#
# Elastic Constant Matrix: (Units=GPa)
#
#
# Indices 1 2 3 4 5 6 
#
# 1 161.1083 52.9613 37.7322 9.0956 -3.4301 28.5211
# 2 52.9613 90.3233 46.9743 31.0470 12.0454 21.2080
# 3 37.7322 46.9743 139.6100 15.6379 3.8486 8.3548
# 4 9.0956 31.0470 15.6379 50.6454 -11.1037 -0.5275
# 5 -3.4301 12.0454 3.8486 -11.1037 43.0271 8.9757
# 6 28.5211 21.2080 8.3548 -0.5275 8.9757 40.0250
#
#
#
# Elastic Compliance Matrix: (Units=1/GPa)
#
#
# Indices 1 2 3 4 5 6 
#
# 1 0.008748 -0.005141 -0.000780 0.002599 0.003743 -0.004152
# 2 -0.005141 0.024129 -0.004465 -0.014574 -0.009209 -0.006316
# 3 -0.000780 -0.004465 0.008781 0.000230 0.000245 0.001037
# 4 0.002599 -0.014574 0.000230 0.030684 0.011420 0.003666
# 5 0.003743 -0.009209 0.000245 0.011420 0.029962 -0.004408
# 6 -0.004152 -0.006316 0.001037 0.003666 -0.004408 0.032110
#
#
# Mechanical properties :
#
#
# Convention : Reuss Voigt Hill
#
# Bulk Modulus (GPa) = 47.88015 74.04193 60.96104
# Shear Modulus (GPa) = 30.83600 43.63109 37.23355
#
# Velocity S-wave (km/s) = 3.52527 4.19335 3.87374
# Velocity P-wave (km/s) = 5.98888 7.29973 6.67655
#
# Compressibility (1/GPa) = 0.02088548
#
# Stress axis : x y z
#
# Youngs Moduli (GPa) = 114.31507 41.44430 113.87821
#
# Poissons Ratio (x) = 0.21308 0.08885
# Poissons Ratio (y) = 0.58772 0.50843
# Poissons Ratio (z) = 0.08919 0.18504
#
# Static dielectric constant tensor:
#      x y z
#    x 1.992500 0.039110 -0.014900 
#    y 0.039110 1.999040 -0.096160 
#    z -0.014900 -0.096160 2.090240 
# 
# From -- ./inp_files/47889.got.cif
#   From: 2010.05.17/outbox.cif.g08.bks.cpg/sg2_24_cif.got.tgz:47889.got - 2010.06.03 11:33:40.
