data_PCOD9008407
_publ_section_title
;
Structure prediction by ZEFSAII (Michael W. Deem and Ramdas Pophale) SiO2 
 PCOD9008407
Probable space group: P -1
;
_chemical_formula_sum "Si O2"
_cell_formula_units_Z 16
_cell_length_a 13.133629
_cell_length_b 8.920812
_cell_length_c 8.670595
_cell_angle_alpha 59.307577
_cell_angle_beta 113.547501
_cell_angle_gamma 119.435493
_cell_volume 745.657575
_symmetry_space_group_name_H-M "P -1"
_symmetry_group_IT_number 2
_symmetry_cell_setting 'triclinic'
loop_
_space_group_symop_operation_xyz
x,y,z
-x,-y,-z
loop_
_atom_site_type_symbol
_atom_site_label
_atom_site_fract_x
_atom_site_fract_y
_atom_site_fract_z
Si Si1 0.782491 0.465457 0.648939
Si Si2 0.924475 0.865985 0.658323
Si Si3 0.687600 0.260474 0.421919
Si Si4 0.533113 0.282704 0.764073
Si Si5 0.337774 0.901246 0.828426
Si Si6 0.524525 0.600907 0.797315
Si Si7 0.759272 0.942199 0.758687
Si Si8 0.139066 0.844547 0.991886
O O1 0.836370 0.676200 0.627397
O O2 0.776974 0.437568 0.476021
O O3 0.646436 0.366976 0.677853
O O4 0.854343 0.345606 0.831796
O O5 0.850621 0.960071 0.666496
O O6 0.000000 0.000000 0.500000
O O7 0.014252 0.818700 0.853030
O O8 0.719565 0.225843 0.285925
O O9 0.560381 0.281007 0.329344
O O10 0.690613 0.084111 0.613194
O O11 0.497550 0.447691 0.726371
O O12 0.423103 0.110059 0.719647
O O13 0.580857 0.193882 0.983633
O O14 0.240296 0.910434 0.886212
O O15 0.662101 0.734727 0.806927
O O16 0.500000 0.500000 0.000000
O O17 0.825542 0.003497 0.929231
#
# Coordination Sequence:
#
# PCOD9008407 Si02
#       8
#     2   2   2   2   2   2   2   2
#     4  10  24  44  65  99 129 177 225 274 334 396
#     4  12  25  47  69  97 132 177 229 283 331 387
#     4  11  25  40  66  99 139 178 214 275 336 401
#     4  10  21  39  64  95 138 173 215 272 330 402
#     4  10  21  40  66 101 136 173 216 269 338 394
#     4  12  23  39  65 102 135 175 217 268 333 404
#     4  11  25  44  66  99 134 175 226 273 337 392
#     4  10  23  45  71  94 132 180 225 275 330 396
#
# _framework density 21.45757
#
# number of rings (size 3 to 8) (size 9 to 14) (size 15 to 20)
#    0.000    1.250    2.500    2.625    7.000    3.500 
#    0.000    6.875    0.000    0.000    0.000    0.000 
#    0.000    0.000    0.000    0.000    0.000    0.000 
#
# Total GULP energy -89532.770138 kJ/mol
# GULP energy per Si atom -5595.798134 kJ/mol
# Density = 2.140873 g / cm^3
# Si number density = 21.457570 Si / 1000 Ang^3
#
#
#
# Elastic Constant Matrix: (Units=GPa)
#
#
# Indices 1 2 3 4 5 6 
#
# 1 104.0222 51.0879 30.7470 4.2418 -11.5370 -17.4425
# 2 51.0879 125.9337 39.0346 22.8631 -19.8980 -20.1517
# 3 30.7470 39.0346 67.1839 29.4009 -14.8415 -6.2601
# 4 4.2418 22.8631 29.4009 32.7319 -2.4464 -6.3943
# 5 -11.5370 -19.8980 -14.8415 -2.4464 27.6832 1.5291
# 6 -17.4425 -20.1517 -6.2601 -6.3943 1.5291 27.9369
#
#
#
# Elastic Compliance Matrix: (Units=1/GPa)
#
#
# Indices 1 2 3 4 5 6 
#
# 1 0.014678 -0.004290 -0.007894 0.009399 -0.000726 0.006492
# 2 -0.004290 0.012805 -0.001035 -0.006107 0.006067 0.004596
# 3 -0.007894 -0.001035 0.033815 -0.028785 0.011846 -0.005334
# 4 0.009399 -0.006107 -0.028785 0.060474 -0.011083 0.009461
# 5 -0.000726 0.006067 0.011846 -0.011083 0.045467 0.001552
# 6 0.006492 0.004596 -0.005334 0.009461 0.001552 0.044049
#
#
# Mechanical properties :
#
#
# Convention : Reuss Voigt Hill
#
# Bulk Modulus (GPa) = 28.68603 59.87544 44.28074
# Shear Modulus (GPa) = 20.05247 29.42173 24.73710
#
# Velocity S-wave (km/s) = 3.06030 3.70693 3.39903
# Velocity P-wave (km/s) = 5.08773 6.80342 6.00714
#
# Compressibility (1/GPa) = 0.03486017
#
# Stress axis : x y z
#
# Youngs Moduli (GPa) = 68.12798 78.09593 29.57266
#
# Poissons Ratio (x) = 0.33504 0.23343
# Poissons Ratio (y) = 0.29228 0.03062
# Poissons Ratio (z) = 0.53777 0.08085
#
# Static dielectric constant tensor:
#      x y z
#    x 1.753810 -0.022260 0.005860 
#    y -0.022260 1.763820 0.009320 
#    z 0.005860 0.009320 1.797830 
# 
# From -- ./inp_files/242648.got.cif
#   From: 2010.05.17/outbox.cif.g08.bks.cpg/sg2_122_cif.got.tgz:242648.got - 2010.06.03 11:33:40.
