data_PCOD9008462
_publ_section_title
;
Structure prediction by ZEFSAII (Michael W. Deem and Ramdas Pophale) SiO2 
 PCOD9008462
Probable space group: P -1
;
_chemical_formula_sum "Si O2"
_cell_formula_units_Z 16
_cell_length_a 12.559583
_cell_length_b 9.469512
_cell_length_c 8.163390
_cell_angle_alpha 82.120067
_cell_angle_beta 42.991276
_cell_angle_gamma 98.034563
_cell_volume 612.978301
_symmetry_space_group_name_H-M "P -1"
_symmetry_group_IT_number 2
_symmetry_cell_setting 'triclinic'
loop_
_space_group_symop_operation_xyz
x,y,z
-x,-y,-z
loop_
_atom_site_type_symbol
_atom_site_label
_atom_site_fract_x
_atom_site_fract_y
_atom_site_fract_z
Si Si1 0.181565 0.064659 0.377031
Si Si2 0.045582 0.443597 0.282370
Si Si3 0.566010 0.375577 0.164696
Si Si4 0.064229 0.712844 0.044580
Si Si5 0.266747 0.964341 0.003334
Si Si6 0.489020 0.330039 0.911145
Si Si7 0.961602 0.848361 0.855223
Si Si8 0.437737 0.808461 0.486643
O O1 0.128172 0.000342 0.626339
O O2 0.283724 0.978910 0.176130
O O3 0.292651 0.239735 0.196516
O O4 0.000000 0.000000 0.500000
O O5 0.000000 0.500000 0.500000
O O6 0.010682 0.272418 0.286728
O O7 0.244710 0.521345 0.025046
O O8 0.979148 0.536376 0.209972
O O9 0.475314 0.494153 0.202661
O O10 0.505865 0.268307 0.406748
O O11 0.573451 0.303482 0.988861
O O12 0.947309 0.773038 0.058904
O O13 0.240223 0.764236 0.741213
O O14 0.129798 0.807912 0.122819
O O15 0.443633 0.015780 0.708429
O O16 0.192368 0.095381 0.011336
O O17 0.536487 0.263836 0.704005
#
# Coordination Sequence:
#
# PCOD9008462 Si02
#       8
#     2   2   2   2   2   2   2   2
#     4   9  19  37  64  88 127 158 211 262 316 365
#     4  11  24  43  64  90 132 171 205 270 331 380
#     4  10  22  40  64  94 130 169 222 258 324 391
#     4  11  24  40  63  96 129 164 217 262 330 386
#     4  10  21  42  63  94 125 175 208 265 322 384
#     4  10  21  39  64  99 123 175 216 264 318 392
#     4  11  23  41  66  94 127 167 222 261 318 391
#     4  10  22  40  64  89 137 165 212 271 330 373
#
# _framework density 26.102067000000002
#
# number of rings (size 3 to 8) (size 9 to 14) (size 15 to 20)
#    0.000    1.750    0.000    4.500    3.500    2.000 
#    4.500    1.250    0.000    0.000    0.000    0.000 
#    0.000    0.000    0.000    0.000    0.000    0.000 
#
# Total GULP energy -89296.791409 kJ/mol
# GULP energy per Si atom -5581.049463 kJ/mol
# Density = 2.604266 g / cm^3
# Si number density = 26.102067 Si / 1000 Ang^3
#
#
#
# Elastic Constant Matrix: (Units=GPa)
#
#
# Indices 1 2 3 4 5 6 
#
# 1 60.0819 5.8072 2.4464 -9.0719 19.0065 3.1604
# 2 5.8072 111.9119 19.9979 -5.8847 5.9430 6.2294
# 3 2.4464 19.9979 87.3498 -8.0571 13.9592 0.5030
# 4 -9.0719 -5.8847 -8.0571 40.7227 1.7947 6.8249
# 5 19.0065 5.9430 13.9592 1.7947 37.3559 -1.5012
# 6 3.1604 6.2294 0.5030 6.8249 -1.5012 26.5838
#
#
#
# Elastic Compliance Matrix: (Units=1/GPa)
#
#
# Indices 1 2 3 4 5 6 
#
# 1 0.021728 -0.000217 0.002043 0.006586 -0.012299 -0.004956
# 2 -0.000217 0.009551 -0.001894 0.001430 -0.000874 -0.002593
# 3 0.002043 -0.001894 0.013059 0.003223 -0.005821 -0.001202
# 4 0.006586 0.001430 0.003223 0.028647 -0.006517 -0.008902
# 5 -0.012299 -0.000874 -0.005821 -0.006517 0.035875 0.005476
# 6 -0.004956 -0.002593 -0.001202 -0.008902 0.005476 0.041431
#
#
# Mechanical properties :
#
#
# Convention : Reuss Voigt Hill
#
# Bulk Modulus (GPa) = 22.62385 35.09404 28.85895
# Shear Modulus (GPa) = 30.27339 36.33861 33.30600
#
# Velocity S-wave (km/s) = 3.40929 3.73523 3.57598
# Velocity P-wave (km/s) = 4.91772 5.66363 5.30380
#
# Compressibility (1/GPa) = 0.04420114
#
# Stress axis : x y z
#
# Youngs Moduli (GPa) = 46.02432 104.69790 76.57478
#
# Poissons Ratio (x) = 0.02274 -0.15642
# Poissons Ratio (y) = 0.00999 0.14504
# Poissons Ratio (z) = -0.09402 0.19830
#
# Static dielectric constant tensor:
#      x y z
#    x 2.155540 0.011680 0.054300 
#    y 0.011680 2.150280 0.034460 
#    z 0.054300 0.034460 2.096070 
# 
# From -- ./inp_files/279559.got.cif
#   From: 2010.05.17/outbox.cif.g08.bks.cpg/sg2_140_cif.got.tgz:279559.got - 2010.06.03 11:33:40.
