data_PCOD9008145
_publ_section_title
;
Structure prediction by ZEFSAII (Michael W. Deem and Ramdas Pophale) SiO2 
 PCOD9008145
Probable space group: P -1
;
_chemical_formula_sum "Si O2"
_cell_formula_units_Z 16
_cell_length_a 29.025874
_cell_length_b 31.556162
_cell_length_c 5.173785
_cell_angle_alpha 62.561532
_cell_angle_beta 119.090676
_cell_angle_gamma 171.374587
_cell_volume 613.855918
_symmetry_space_group_name_H-M "P -1"
_symmetry_group_IT_number 2
_symmetry_cell_setting 'triclinic'
loop_
_space_group_symop_operation_xyz
x,y,z
-x,-y,-z
loop_
_atom_site_type_symbol
_atom_site_label
_atom_site_fract_x
_atom_site_fract_y
_atom_site_fract_z
Si Si1 0.668065 0.830300 0.676454
Si Si2 0.544391 0.875837 0.186814
Si Si3 0.622025 0.189076 0.734977
Si Si4 0.790965 0.513901 0.890528
Si Si5 0.332694 0.401107 0.840295
Si Si6 0.365727 0.491384 0.197341
Si Si7 0.747676 0.984822 0.798729
Si Si8 0.771112 0.233248 0.370210
O O1 0.364029 0.576726 0.405385
O O2 0.802527 0.001280 0.651855
O O3 0.581350 0.723566 0.996532
O O4 0.964052 0.068357 0.689702
O O5 0.725946 0.017934 0.537536
O O6 0.835588 0.146263 0.031685
O O7 0.393646 0.788882 0.131549
O O8 0.309725 0.624825 0.150487
O O9 0.865572 0.430293 0.517173
O O10 0.292090 0.876947 0.588765
O O11 0.731885 0.236481 0.021907
O O12 0.591519 0.329884 0.123656
O O13 0.468518 0.559252 0.553971
O O14 0.500000 0.500000 0.000000
O O15 0.348095 0.435532 0.077671
O O16 0.030739 0.219258 0.087820
O O17 0.500000 0.000000 0.500000
#
# Coordination Sequence:
#
# PCOD9008145 Si02
#       8
#     2   2   2   2   2   2   2   2
#     4  10  23  38  62  88 122 167 215 265 336 402
#     4  11  24  39  60  95 127 167 212 274 327 389
#     4  10  22  39  59  91 127 159 219 270 316 395
#     4  11  23  39  62  89 127 168 215 262 333 399
#     4  11  25  42  63  96 127 167 224 281 337 408
#     4  11  23  41  67  88 129 170 217 276 344 405
#     4  10  23  37  60  89 123 166 212 267 326 405
#     4  10  21  39  64  86 122 172 212 262 331 387
#
# _framework density 26.064748999999999
#
# number of rings (size 3 to 8) (size 9 to 14) (size 15 to 20)
#    0.000    1.500    2.500    1.500    3.500    3.000 
#    0.000    0.000    0.000    0.000    0.000    0.000 
#    0.000    0.000    0.000    0.000    0.000    0.000 
#
# Total GULP energy -89450.333888 kJ/mol
# GULP energy per Si atom -5590.645868 kJ/mol
# Density = 2.600542 g / cm^3
# Si number density = 26.064749 Si / 1000 Ang^3
#
#
#
# Elastic Constant Matrix: (Units=GPa)
#
#
# Indices 1 2 3 4 5 6 
#
# 1 105.9022 52.3010 15.7941 2.2356 -3.7651 -2.8648
# 2 52.3010 118.9882 26.9297 -35.9243 3.4417 -12.6809
# 3 15.7941 26.9297 99.2680 -22.1994 1.9656 0.9421
# 4 2.2356 -35.9243 -22.1994 37.6491 3.6671 0.3381
# 5 -3.7651 3.4417 1.9656 3.6671 39.0054 -1.0695
# 6 -2.8648 -12.6809 0.9421 0.3381 -1.0695 43.3974
#
#
#
# Elastic Compliance Matrix: (Units=1/GPa)
#
#
# Indices 1 2 3 4 5 6 
#
# 1 0.015148 -0.010110 -0.002483 -0.012345 0.003593 -0.001716
# 2 -0.010110 0.019292 0.000873 0.019916 -0.004466 0.004686
# 3 -0.002483 0.000873 0.012125 0.008299 -0.001716 -0.000279
# 4 -0.012345 0.019916 0.008299 0.051946 -0.008135 0.004219
# 5 0.003593 -0.004466 -0.001716 -0.008135 0.027222 -0.000296
# 6 -0.001716 0.004686 -0.000279 0.004219 -0.000296 0.024265
#
#
# Mechanical properties :
#
#
# Convention : Reuss Voigt Hill
#
# Bulk Modulus (GPa) = 43.24551 57.13420 50.18986
# Shear Modulus (GPa) = 27.60204 39.28594 33.44399
#
# Velocity S-wave (km/s) = 3.25773 3.88654 3.58594
# Velocity P-wave (km/s) = 5.54779 6.48906 6.03680
#
# Compressibility (1/GPa) = 0.02312379
#
# Stress axis : x y z
#
# Youngs Moduli (GPa) = 66.01519 51.83436 82.47725
#
# Poissons Ratio (x) = 0.52406 0.20479
# Poissons Ratio (y) = 0.66743 -0.07199
# Poissons Ratio (z) = 0.16392 -0.04524
#
# Static dielectric constant tensor:
#      x y z
#    x 2.111050 -0.061210 -0.056090 
#    y -0.061210 2.172820 0.085520 
#    z -0.056090 0.085520 2.088130 
# 
# From -- ./inp_files/12926.got.cif
#   From: 2010.05.17/outbox.cif.g08.bks.cpg/sg2_7_cif.got.tgz:12926.got - 2010.06.03 11:33:40.
