data_PCOD9008107
_publ_section_title
;
Structure prediction by ZEFSAII (Michael W. Deem and Ramdas Pophale) SiO2 
 PCOD9008107
Probable space group: P -1
;
_chemical_formula_sum "Si O2"
_cell_formula_units_Z 13
_cell_length_a 16.750189
_cell_length_b 10.108393
_cell_length_c 9.199331
_cell_angle_alpha 143.020260
_cell_angle_beta 137.230795
_cell_angle_gamma 32.210982
_cell_volume 491.136114
_symmetry_space_group_name_H-M "P -1"
_symmetry_group_IT_number 2
_symmetry_cell_setting 'triclinic'
loop_
_space_group_symop_operation_xyz
x,y,z
-x,-y,-z
loop_
_atom_site_type_symbol
_atom_site_label
_atom_site_fract_x
_atom_site_fract_y
_atom_site_fract_z
Si Si1 0.000000 0.000000 0.500000
Si Si2 0.863465 0.429872 0.092003
Si Si3 0.410358 0.934195 0.217477
Si Si4 0.928581 0.528342 0.770690
Si Si5 0.620400 0.102852 0.389717
Si Si6 0.701908 0.396987 0.576929
Si Si7 0.316503 0.651020 0.044029
O O1 0.001284 0.203233 0.561139
O O2 0.813991 0.229289 0.447012
O O3 0.017080 0.371092 0.196122
O O4 0.736809 0.768576 0.238846
O O5 0.812810 0.359117 0.817404
O O6 0.837091 0.305767 0.088504
O O7 0.344806 0.782730 0.065401
O O8 0.500000 0.000000 0.500000
O O9 0.250697 0.241809 0.241391
O O10 0.543027 0.688075 0.072927
O O11 0.000000 0.500000 0.000000
O O12 0.632980 0.242505 0.388590
O O13 0.442765 0.268667 0.326519
O O14 0.668235 0.203090 0.672845
#
# Coordination Sequence:
#
# PCOD9008107 Si02
#       7
#     1   2   2   2   2   2   2
#     4  12  24  40  62 106 138 186 226 288 346 406
#     4  11  22  42  65 103 139 181 232 283 351 405
#     4  11  27  51  71 103 137 185 233 287 347 415
#     4  12  28  44  72 103 146 181 228 291 348 405
#     4  10  21  39  63  99 138 184 225 282 339 415
#     4  10  22  35  63  97 144 181 227 279 343 411
#     4  10  25  44  74  98 133 183 240 281 339 422
#
# _framework density 26.469239000000002
#
# number of rings (size 3 to 8) (size 9 to 14) (size 15 to 20)
#    0.000    1.231    3.077    1.385    6.462    3.077 
#    0.000    3.077    0.000    0.000    0.000    0.000 
#    0.000    0.000    0.000    0.000    0.000    0.000 
#
# Total GULP energy -72411.056613 kJ/mol
# GULP energy per Si atom -5570.081278 kJ/mol
# Density = 2.640899 g / cm^3
# Si number density = 26.469239 Si / 1000 Ang^3
#
#
#
# Elastic Constant Matrix: (Units=GPa)
#
#
# Indices 1 2 3 4 5 6 
#
# 1 152.1822 22.4398 22.7315 -1.1887 38.8662 -46.4587
# 2 22.4398 135.4196 40.8676 12.3469 6.4633 -35.0107
# 3 22.7315 40.8676 108.6710 18.0459 -7.0446 -3.9605
# 4 -1.1887 12.3469 18.0459 33.8582 6.6832 1.9439
# 5 38.8662 6.4633 -7.0446 6.6832 32.7323 -4.1294
# 6 -46.4587 -35.0107 -3.9605 1.9439 -4.1294 49.1879
#
#
#
# Elastic Compliance Matrix: (Units=1/GPa)
#
#
# Indices 1 2 3 4 5 6 
#
# 1 0.018559 0.004284 -0.007498 0.006733 -0.023635 0.017725
# 2 0.004284 0.011538 -0.005178 -0.000575 -0.006939 0.011282
# 3 -0.007498 -0.005178 0.014727 -0.008485 0.013807 -0.008087
# 4 0.006733 -0.000575 -0.008485 0.037749 -0.017120 0.002338
# 5 -0.023635 -0.006939 0.013807 -0.017120 0.063916 -0.020108
# 6 0.017725 0.011282 -0.008087 0.002338 -0.020108 0.042670
#
#
# Mechanical properties :
#
#
# Convention : Reuss Voigt Hill
#
# Bulk Modulus (GPa) = 35.66286 63.15007 49.40647
# Shear Modulus (GPa) = 23.22466 43.83794 33.53130
#
# Velocity S-wave (km/s) = 2.96534 4.07404 3.56308
# Velocity P-wave (km/s) = 5.02264 6.78529 5.96938
#
# Compressibility (1/GPa) = 0.02804037
#
# Stress axis : x y z
#
# Youngs Moduli (GPa) = 53.88153 86.67337 67.90206
#
# Poissons Ratio (x) = -0.37130 0.50910
# Poissons Ratio (y) = -0.23082 0.35160
# Poissons Ratio (z) = 0.40398 0.44880
#
# Static dielectric constant tensor:
#      x y z
#    x 2.233860 0.048340 -0.016100 
#    y 0.048340 2.070270 0.016010 
#    z -0.016100 0.016010 2.191990 
# 
# From -- ./inp_files/423068.got.cif
#   From: 2010.05.17/outbox.cif.g08.bks.cpg/sg2_212_cif.got.tgz:423068.got - 2010.06.03 11:33:40.
