data_PCOD9008818
_publ_section_title
;
Structure prediction by ZEFSAII (Michael W. Deem and Ramdas Pophale) SiO2 
 PCOD9008818
Probable space group: P -1
;
_chemical_formula_sum "Si O2"
_cell_formula_units_Z 14
_cell_length_a 10.029636
_cell_length_b 12.512131
_cell_length_c 18.919423
_cell_angle_alpha 153.828272
_cell_angle_beta 36.365383
_cell_angle_gamma 134.334796
_cell_volume 618.325986
_symmetry_space_group_name_H-M "P -1"
_symmetry_group_IT_number 2
_symmetry_cell_setting 'triclinic'
loop_
_space_group_symop_operation_xyz
x,y,z
-x,-y,-z
loop_
_atom_site_type_symbol
_atom_site_label
_atom_site_fract_x
_atom_site_fract_y
_atom_site_fract_z
Si Si1 0.859411 0.783254 0.951134
Si Si2 0.553565 0.712578 0.158068
Si Si3 0.569942 0.844879 0.973120
Si Si4 0.437520 0.372088 0.299069
Si Si5 0.743529 0.611728 0.470066
Si Si6 0.259367 0.176718 0.544363
Si Si7 0.148024 0.620878 0.066890
O O1 0.039311 0.553497 0.747622
O O2 0.728678 0.849537 0.118100
O O3 0.694934 0.760533 0.941429
O O4 0.000000 0.000000 0.000000
O O5 0.348384 0.912593 0.378969
O O6 0.500000 0.500000 0.000000
O O7 0.678584 0.588262 0.097323
O O8 0.305553 0.810424 0.077594
O O9 0.593699 0.127653 0.112394
O O10 0.642867 0.685495 0.779102
O O11 0.243215 0.380287 0.446316
O O12 0.575419 0.610588 0.382156
O O13 0.500000 0.500000 0.500000
O O14 0.734106 0.833983 0.550760
O O15 0.020094 0.264009 0.732902
O O16 0.000000 0.500000 0.000000
#
# Coordination Sequence:
#
# PCOD9008818 Si02
#       7
#     2   2   2   2   2   2   2
#     4  12  23  42  71 102 142 183 240 305 351 422
#     4  12  27  46  71 108 145 189 248 294 356 439
#     4  11  24  43  71 102 143 187 243 296 359 435
#     4  10  22  44  67 102 141 181 240 295 356 427
#     4  10  21  39  66 100 133 180 234 287 354 419
#     4  11  23  46  76 100 142 192 235 297 365 422
#     4  12  26  48  74 106 149 193 234 300 368 429
#
# _framework density 22.641779
#
# number of rings (size 3 to 8) (size 9 to 14) (size 15 to 20)
#    0.000    0.857    4.286    4.286    0.000    2.857 
#    0.000    0.000    0.000    0.000    0.000    0.000 
#    0.000    0.000    0.000    0.000    0.000    0.000 
#
# Total GULP energy -78259.584267 kJ/mol
# GULP energy per Si atom -5589.970305 kJ/mol
# Density = 2.259025 g / cm^3
# Si number density = 22.641779 Si / 1000 Ang^3
#
#
#
# Elastic Constant Matrix: (Units=GPa)
#
#
# Indices 1 2 3 4 5 6 
#
# 1 101.1416 24.7892 16.3279 12.9479 -1.6439 -2.3451
# 2 24.7892 82.8857 20.9240 3.8658 7.4803 1.8824
# 3 16.3279 20.9240 88.8323 3.9299 -9.1886 -2.2897
# 4 12.9479 3.8658 3.9299 45.9875 -11.4046 5.7611
# 5 -1.6439 7.4803 -9.1886 -11.4046 40.3243 1.0544
# 6 -2.3451 1.8824 -2.2897 5.7611 1.0544 35.4893
#
#
#
# Elastic Compliance Matrix: (Units=1/GPa)
#
#
# Indices 1 2 3 4 5 6 
#
# 1 0.011213 -0.002919 -0.001224 -0.003013 -0.000167 0.001311
# 2 -0.002919 0.014130 -0.003157 -0.000900 -0.003691 -0.000890
# 3 -0.001224 -0.003157 0.012590 0.000301 0.003470 0.000747
# 4 -0.003013 -0.000900 0.000301 0.025006 0.007300 -0.004408
# 5 -0.000167 -0.003691 0.003470 0.007300 0.028374 -0.001619
# 6 0.001311 -0.000890 0.000747 -0.004408 -0.001619 0.029123
#
#
# Mechanical properties :
#
#
# Convention : Reuss Voigt Hill
#
# Bulk Modulus (GPa) = 42.85348 44.10464 43.47906
# Shear Modulus (GPa) = 35.01046 38.41482 36.71264
#
# Velocity S-wave (km/s) = 3.93654 4.12349 4.03110
# Velocity P-wave (km/s) = 6.29520 6.49558 6.39617
#
# Compressibility (1/GPa) = 0.02333533
#
# Stress axis : x y z
#
# Youngs Moduli (GPa) = 89.17839 70.77176 79.42497
#
# Poissons Ratio (x) = 0.20658 0.09719
# Poissons Ratio (y) = 0.26031 0.25071
# Poissons Ratio (z) = 0.10913 0.22340
#
# Static dielectric constant tensor:
#      x y z
#    x 1.849180 -0.016770 0.037270 
#    y -0.016770 1.879700 0.033540 
#    z 0.037270 0.033540 1.865080 
# 
# From -- ./inp_files/560095.got.cif
#   From: 2010.05.17/outbox.cif.g08.bks.cpg/sg2_281_cif.got.tgz:560095.got - 2010.06.03 11:33:40.
