data_PCOD9008780
_publ_section_title
;
Structure prediction by ZEFSAII (Michael W. Deem and Ramdas Pophale) SiO2 
 PCOD9008780
Probable space group: P -1
;
_chemical_formula_sum "Si O2"
_cell_formula_units_Z 15
_cell_length_a 14.326787
_cell_length_b 11.772629
_cell_length_c 5.348587
_cell_angle_alpha 80.233204
_cell_angle_beta 56.357833
_cell_angle_gamma 53.149250
_cell_volume 582.788546
_symmetry_space_group_name_H-M "P -1"
_symmetry_group_IT_number 2
_symmetry_cell_setting 'triclinic'
loop_
_space_group_symop_operation_xyz
x,y,z
-x,-y,-z
loop_
_atom_site_type_symbol
_atom_site_label
_atom_site_fract_x
_atom_site_fract_y
_atom_site_fract_z
Si Si1 0.863509 0.664834 0.320587
Si Si2 0.578727 0.989010 0.636499
Si Si3 0.518586 0.594498 0.744779
Si Si4 0.000000 0.000000 0.000000
Si Si5 0.728992 0.309668 0.312363
Si Si6 0.079410 0.070496 0.275642
Si Si7 0.641477 0.150509 0.786478
Si Si8 0.027085 0.621206 0.593818
O O1 0.728701 0.830854 0.474691
O O2 0.973713 0.636443 0.384419
O O3 0.840484 0.546020 0.481539
O O4 0.918690 0.642772 0.962201
O O5 0.500000 0.000000 0.500000
O O6 0.591857 0.116322 0.626349
O O7 0.500000 0.000000 0.000000
O O8 0.668455 0.471761 0.430122
O O9 0.388342 0.657072 0.724504
O O10 0.500000 0.500000 0.000000
O O11 0.488020 0.732451 0.883827
O O12 0.888765 0.181358 0.042811
O O13 0.108938 0.020634 0.964577
O O14 0.714923 0.225738 0.587869
O O15 0.972625 0.243615 0.402829
O O16 0.227652 0.999154 0.219733
O O17 0.000000 0.000000 0.500000
#
# Coordination Sequence:
#
# PCOD9008780 Si02
#       8
#     2   2   2   1   2   2   2   2
#     4  10  22  47  74 103 138 194 243 304 377 428
#     4  12  28  46  74 107 138 185 254 314 364 436
#     4   9  20  40  64  91 132 191 232 273 358 434
#     4  12  24  36  64 104 144 176 242 290 352 440
#     4  10  21  39  65  97 136 187 231 290 350 440
#     4  12  25  41  67 113 145 188 234 298 373 455
#     4  11  23  43  70  93 141 188 230 300 366 434
#     4  10  23  43  76 103 145 189 239 304 376 441
#
# _framework density 25.738323000000001
#
# number of rings (size 3 to 8) (size 9 to 14) (size 15 to 20)
#    0.000    1.333    4.000    0.800    5.600    0.000 
#    2.400    0.000    0.000    0.000    0.000    0.000 
#    0.000    0.000    0.000    0.000    0.000    0.000 
#
# Total GULP energy -83559.606197 kJ/mol
# GULP energy per Si atom -5570.640413 kJ/mol
# Density = 2.567974 g / cm^3
# Si number density = 25.738323 Si / 1000 Ang^3
#
#
#
# Elastic Constant Matrix: (Units=GPa)
#
#
# Indices 1 2 3 4 5 6 
#
# 1 123.3024 55.3713 35.0139 17.0671 42.5170 2.0191
# 2 55.3713 155.9295 36.5490 31.6828 12.2593 3.9716
# 3 35.0139 36.5490 96.6599 19.1139 21.7280 -5.1038
# 4 17.0671 31.6828 19.1139 45.9271 13.1255 5.5257
# 5 42.5170 12.2593 21.7280 13.1255 40.9865 5.9425
# 6 2.0191 3.9716 -5.1038 5.5257 5.9425 51.4943
#
#
#
# Elastic Compliance Matrix: (Units=1/GPa)
#
#
# Indices 1 2 3 4 5 6 
#
# 1 0.015119 -0.004427 -0.000800 0.001826 -0.014689 0.001169
# 2 -0.004427 0.009122 -0.001914 -0.005084 0.004609 -0.000706
# 3 -0.000800 -0.001914 0.013151 -0.002697 -0.005047 0.002354
# 4 0.001826 -0.005084 -0.002697 0.028165 -0.007661 -0.002085
# 5 -0.014689 0.004609 -0.005047 -0.007661 0.044045 -0.004540
# 6 0.001169 -0.000706 0.002354 -0.002085 -0.004540 0.020409
#
#
# Mechanical properties :
#
#
# Convention : Reuss Voigt Hill
#
# Bulk Modulus (GPa) = 43.27065 69.97336 56.62200
# Shear Modulus (GPa) = 32.89569 44.27875 38.58722
#
# Velocity S-wave (km/s) = 3.57891 4.15220 3.87617
# Velocity P-wave (km/s) = 5.82463 7.08754 6.48689
#
# Compressibility (1/GPa) = 0.02311036
#
# Stress axis : x y z
#
# Youngs Moduli (GPa) = 66.14397 109.62075 76.03956
#
# Poissons Ratio (x) = 0.48530 0.06083
# Poissons Ratio (y) = 0.29282 0.14552
# Poissons Ratio (z) = 0.05292 0.20978
#
# Static dielectric constant tensor:
#      x y z
#    x 2.037940 0.096160 -0.014030 
#    y 0.096160 2.089840 0.085080 
#    z -0.014030 0.085080 2.071550 
# 
# From -- ./inp_files/94924.got.cif
#   From: 2010.05.17/outbox.cif.g08.bks.cpg/sg2_48_cif.got.tgz:94924.got - 2010.06.03 11:33:40.
