data_PCOD9008625
_publ_section_title
;
Structure prediction by ZEFSAII (Michael W. Deem and Ramdas Pophale) SiO2 
 PCOD9008625
Probable space group: P -1
;
_chemical_formula_sum "Si O2"
_cell_formula_units_Z 14
_cell_length_a 6.456749
_cell_length_b 16.087295
_cell_length_c 15.204119
_cell_angle_alpha 152.090227
_cell_angle_beta 105.855514
_cell_angle_gamma 87.029972
_cell_volume 644.973215
_symmetry_space_group_name_H-M "P -1"
_symmetry_group_IT_number 2
_symmetry_cell_setting 'triclinic'
loop_
_space_group_symop_operation_xyz
x,y,z
-x,-y,-z
loop_
_atom_site_type_symbol
_atom_site_label
_atom_site_fract_x
_atom_site_fract_y
_atom_site_fract_z
Si Si1 0.841389 0.854689 0.718129
Si Si2 0.358004 0.135197 0.103235
Si Si3 0.788798 0.193501 0.951435
Si Si4 0.354822 0.105431 0.698422
Si Si5 0.908731 0.676978 0.054452
Si Si6 0.348083 0.717319 0.262650
Si Si7 0.205304 0.555884 0.649756
O O1 0.718220 0.827197 0.773823
O O2 0.820814 0.642927 0.492036
O O3 0.735100 0.966702 0.747258
O O4 0.115490 0.008140 0.905242
O O5 0.537532 0.331398 0.259841
O O6 0.500000 0.000000 0.000000
O O7 0.823295 0.296402 0.145533
O O8 0.568848 0.205004 0.885714
O O9 0.019812 0.294255 0.011636
O O10 0.138807 0.143043 0.746225
O O11 0.424814 0.200629 0.698228
O O12 0.332546 0.886996 0.479265
O O13 0.133108 0.671931 0.126438
O O14 0.691394 0.474801 0.867077
O O15 0.000000 0.500000 0.500000
#
# Coordination Sequence:
#
# PCOD9008625 Si02
#       7
#     2   2   2   2   2   2   2
#     4  11  24  42  65  92 126 167 214 273 327 375
#     4  11  21  44  69  89 120 164 225 273 316 392
#     4  11  26  40  56  99 130 157 218 261 314 387
#     4  10  21  40  63  90 129 163 201 258 313 373
#     4  10  21  39  65  92 128 161 204 259 308 378
#     4   9  20  40  66  94 118 165 212 242 311 388
#     4  12  24  45  68  91 125 178 221 265 327 381
#
# _framework density 21.706326000000001
#
# number of rings (size 3 to 8) (size 9 to 14) (size 15 to 20)
#    0.000    1.429    2.857    2.143    2.000    2.286 
#    2.571    2.857    0.000    0.000    0.000    0.000 
#    0.000    0.000    0.000    0.000    0.000    0.000 
#
# Total GULP energy -78255.013414 kJ/mol
# GULP energy per Si atom -5589.643815 kJ/mol
# Density = 2.165692 g / cm^3
# Si number density = 21.706326 Si / 1000 Ang^3
#
#
#
# Elastic Constant Matrix: (Units=GPa)
#
#
# Indices 1 2 3 4 5 6 
#
# 1 68.0063 24.3222 5.0752 9.4608 3.2861 15.1858
# 2 24.3222 85.7883 32.3785 17.0513 2.9466 7.9925
# 3 5.0752 32.3785 73.8024 18.1745 1.0230 12.9141
# 4 9.4608 17.0513 18.1745 21.7080 2.6502 -4.3484
# 5 3.2861 2.9466 1.0230 2.6502 26.8936 5.3756
# 6 15.1858 7.9925 12.9141 -4.3484 5.3756 20.6628
#
#
#
# Elastic Compliance Matrix: (Units=1/GPa)
#
#
# Indices 1 2 3 4 5 6 
#
# 1 0.025104 -0.003924 0.011098 -0.023868 0.005345 -0.030281
# 2 -0.003924 0.016213 -0.004598 -0.007609 0.000053 -0.002129
# 3 0.011098 -0.004598 0.028568 -0.032758 0.007923 -0.033187
# 4 -0.023868 -0.007609 -0.032758 0.105859 -0.019067 0.068196
# 5 0.005345 0.000053 0.007923 -0.019067 0.042915 -0.024078
# 6 -0.030281 -0.002129 -0.033187 0.068196 -0.024078 0.112831
#
#
# Mechanical properties :
#
#
# Convention : Reuss Voigt Hill
#
# Bulk Modulus (GPa) = 13.32692 39.01652 26.17172
# Shear Modulus (GPa) = 14.23078 24.90763 19.56920
#
# Velocity S-wave (km/s) = 2.56326 3.39113 3.00583
# Velocity P-wave (km/s) = 3.86178 5.77466 4.91223
#
# Compressibility (1/GPa) = 0.07503608
#
# Stress axis : x y z
#
# Youngs Moduli (GPa) = 39.83477 61.67792 35.00412
#
# Poissons Ratio (x) = 0.24204 -0.38846
# Poissons Ratio (y) = 0.15632 0.16094
# Poissons Ratio (z) = -0.44207 0.28358
#
# Static dielectric constant tensor:
#      x y z
#    x 1.793970 -0.004900 0.030940 
#    y -0.004900 1.791200 0.018190 
#    z 0.030940 0.018190 1.788940 
# 
# From -- ./inp_files/97871.got.cif
#   From: 2010.05.17/outbox.cif.g08.bks.cpg/sg2_49_cif.got.tgz:97871.got - 2010.06.03 11:33:40.
