data_PCOD9008212
_publ_section_title
;
Structure prediction by ZEFSAII (Michael W. Deem and Ramdas Pophale) SiO2 
 PCOD9008212
Probable space group: P -1
;
_chemical_formula_sum "Si O2"
_cell_formula_units_Z 16
_cell_length_a 9.084254
_cell_length_b 13.323982
_cell_length_c 17.663078
_cell_angle_alpha 22.237289
_cell_angle_beta 59.759782
_cell_angle_gamma 72.786575
_cell_volume 596.751289
_symmetry_space_group_name_H-M "P -1"
_symmetry_group_IT_number 2
_symmetry_cell_setting 'triclinic'
loop_
_space_group_symop_operation_xyz
x,y,z
-x,-y,-z
loop_
_atom_site_type_symbol
_atom_site_label
_atom_site_fract_x
_atom_site_fract_y
_atom_site_fract_z
Si Si1 0.334870 0.441406 0.327565
Si Si2 0.375372 0.633372 0.478873
Si Si3 0.990392 0.866462 0.484836
Si Si4 0.658165 0.101751 0.207261
Si Si5 0.298801 0.016755 0.426558
Si Si6 0.252015 0.395951 0.937149
Si Si7 0.021775 0.188648 0.988998
Si Si8 0.796558 0.469163 0.550588
O O1 0.137573 0.373293 0.381857
O O2 0.308609 0.117109 0.590911
O O3 0.346407 0.617660 0.279064
O O4 0.533938 0.574839 0.133567
O O5 0.500000 0.500000 0.500000
O O6 0.512835 0.885894 0.328599
O O7 0.302483 0.739673 0.351157
O O8 0.178954 0.371623 0.755358
O O9 0.168799 0.888195 0.473034
O O10 0.814131 0.844446 0.597291
O O11 0.107295 0.202407 0.177541
O O12 0.532251 0.220241 0.201736
O O13 0.873285 0.307211 0.970381
O O14 0.280795 0.733359 0.679063
O O15 0.150350 0.220913 0.007074
O O16 0.873878 0.828779 0.258854
O O17 0.000000 0.500000 0.500000
#
# Coordination Sequence:
#
# PCOD9008212 Si02
#       8
#     2   2   2   2   2   2   2   2
#     4  10  21  42  63  93 129 166 215 268 313 387
#     4  12  21  40  65  87 125 165 214 262 303 382
#     4  11  23  45  66  95 136 163 210 279 316 380
#     4  10  21  39  64  90 124 167 213 260 320 379
#     4  10  24  44  66  98 128 169 217 261 328 388
#     4  11  21  43  70  92 128 175 211 262 326 383
#     4  11  21  41  66  90 127 167 213 260 316 378
#     4  11  24  39  62  92 127 168 208 262 320 366
#
# _framework density 26.811841000000001
#
# number of rings (size 3 to 8) (size 9 to 14) (size 15 to 20)
#    0.000    1.250    7.500    0.750    1.750    2.000 
#    6.750    3.750    0.000    0.000    0.000    0.000 
#    0.000    0.000    0.000    0.000    0.000    0.000 
#
# Total GULP energy -89615.223044 kJ/mol
# GULP energy per Si atom -5600.951440 kJ/mol
# Density = 2.675082 g / cm^3
# Si number density = 26.811841 Si / 1000 Ang^3
#
#
#
# Elastic Constant Matrix: (Units=GPa)
#
#
# Indices 1 2 3 4 5 6 
#
# 1 131.9465 24.9972 39.3898 19.0375 -22.2722 -4.9027
# 2 24.9972 68.3641 35.6362 30.1182 -7.4828 -11.1205
# 3 39.3898 35.6362 105.0372 38.6284 -22.3598 -13.4829
# 4 19.0375 30.1182 38.6284 51.1141 -12.8833 -15.9248
# 5 -22.2722 -7.4828 -22.3598 -12.8833 41.7946 6.2668
# 6 -4.9027 -11.1205 -13.4829 -15.9248 6.2668 53.9052
#
#
#
# Elastic Compliance Matrix: (Units=1/GPa)
#
#
# Indices 1 2 3 4 5 6 
#
# 1 0.009141 -0.001977 -0.002107 0.000080 0.003488 -0.000485
# 2 -0.001977 0.021157 -0.003270 -0.009535 -0.002073 0.000791
# 3 -0.002107 -0.003270 0.015102 -0.007637 0.003989 0.000191
# 4 0.000080 -0.009535 -0.007637 0.033628 0.003772 0.005626
# 5 0.003488 -0.002073 0.003989 0.003772 0.028915 -0.001360
# 6 -0.000485 0.000791 0.000191 0.005626 -0.001360 0.020538
#
#
# Mechanical properties :
#
#
# Convention : Reuss Voigt Hill
#
# Bulk Modulus (GPa) = 32.57942 56.15491 44.36717
# Shear Modulus (GPa) = 32.59045 43.05109 37.82077
#
# Velocity S-wave (km/s) = 3.49022 4.01143 3.75987
# Velocity P-wave (km/s) = 5.33101 6.51498 5.95251
#
# Compressibility (1/GPa) = 0.03069422
#
# Stress axis : x y z
#
# Youngs Moduli (GPa) = 109.39250 47.26460 66.21678
#
# Poissons Ratio (x) = 0.09343 0.13950
# Poissons Ratio (y) = 0.21625 0.21651
# Poissons Ratio (z) = 0.23046 0.15454
#
# Static dielectric constant tensor:
#      x y z
#    x 2.097910 -0.025520 0.078090 
#    y -0.025520 2.121920 -0.049070 
#    z 0.078090 -0.049070 2.147720 
# 
# From -- ./inp_files/495440.got.cif
#   From: 2010.05.17/outbox.cif.g08.bks.cpg/sg2_248_cif.got.tgz:495440.got - 2010.06.03 11:33:40.
