data_PCOD9008194
_publ_section_title
;
Structure prediction by ZEFSAII (Michael W. Deem and Ramdas Pophale) SiO2 
 PCOD9008194
Probable space group: P -1
;
_chemical_formula_sum "Si O2"
_cell_formula_units_Z 14
_cell_length_a 18.250900
_cell_length_b 15.205470
_cell_length_c 10.053672
_cell_angle_alpha 144.391553
_cell_angle_beta 146.223744
_cell_angle_gamma 27.133706
_cell_volume 677.228414
_symmetry_space_group_name_H-M "P -1"
_symmetry_group_IT_number 2
_symmetry_cell_setting 'triclinic'
loop_
_space_group_symop_operation_xyz
x,y,z
-x,-y,-z
loop_
_atom_site_type_symbol
_atom_site_label
_atom_site_fract_x
_atom_site_fract_y
_atom_site_fract_z
Si Si1 0.375292 0.998653 0.987073
Si Si2 0.550715 0.596361 0.596780
Si Si3 0.850974 0.587619 0.992902
Si Si4 0.762290 0.043096 0.007256
Si Si5 0.612582 0.466630 0.255834
Si Si6 0.423801 0.203313 0.519928
Si Si7 0.933786 0.629653 0.690794
O O1 0.475434 0.799448 0.807521
O O2 0.279420 0.179097 0.958732
O O3 0.477599 0.037438 0.287238
O O4 0.258860 0.996476 0.919885
O O5 0.500000 0.500000 0.500000
O O6 0.747838 0.505222 0.745530
O O7 0.490084 0.585776 0.346828
O O8 0.000000 0.500000 0.000000
O O9 0.944811 0.524490 0.198206
O O10 0.585368 0.133613 0.768272
O O11 0.920281 0.823533 0.914223
O O12 0.756550 0.229066 0.214572
O O13 0.666834 0.592138 0.446873
O O14 0.500000 0.500000 0.000000
O O15 0.266946 0.262662 0.447558
O O16 0.000000 0.500000 0.500000
#
# Coordination Sequence:
#
# PCOD9008194 Si02
#       7
#     2   2   2   2   2   2   2
#     4  11  21  39  66  93 128 168 228 262 320 383
#     4  12  25  41  66 101 128 168 227 274 315 388
#     4  12  24  42  64  95 136 172 212 270 333 383
#     4  10  21  39  65  94 129 169 215 266 336 376
#     4  10  21  39  64  89 131 162 210 268 329 374
#     4  10  21  40  66  93 128 172 218 267 324 390
#     4  11  24  39  63  95 126 169 219 267 321 390
#
# _framework density 20.672492999999999
#
# number of rings (size 3 to 8) (size 9 to 14) (size 15 to 20)
#    0.000    1.143    5.714    2.143    4.000    1.143 
#    0.000    5.000    0.000    0.000    0.000    0.000 
#    0.000    0.000    0.000    0.000    0.000    0.000 
#
# Total GULP energy -77952.290086 kJ/mol
# GULP energy per Si atom -5568.020720 kJ/mol
# Density = 2.062544 g / cm^3
# Si number density = 20.672493 Si / 1000 Ang^3
#
#
#
# Elastic Constant Matrix: (Units=GPa)
#
#
# Indices 1 2 3 4 5 6 
#
# 1 123.9939 56.4207 57.2848 17.3407 -12.3261 21.4742
# 2 56.4207 97.2682 49.9057 22.6769 -7.1424 30.0768
# 3 57.2848 49.9057 108.2720 21.7395 -33.4088 -0.6015
# 4 17.3407 22.6769 21.7395 48.7441 4.0153 -0.0720
# 5 -12.3261 -7.1424 -33.4088 4.0153 45.6137 9.1511
# 6 21.4742 30.0768 -0.6015 -0.0720 9.1511 40.5317
#
#
#
# Elastic Compliance Matrix: (Units=1/GPa)
#
#
# Indices 1 2 3 4 5 6 
#
# 1 0.012792 -0.003207 -0.005088 -0.000814 0.000207 -0.004522
# 2 -0.003207 0.021694 -0.006884 -0.005983 0.000971 -0.014731
# 3 -0.005088 -0.006884 0.019475 -0.004579 0.011095 0.005580
# 4 -0.000814 -0.005983 -0.004579 0.026313 -0.008170 0.006694
# 5 0.000207 0.000971 0.011095 -0.008170 0.032589 -0.008038
# 6 -0.004522 -0.014731 0.005580 0.006694 -0.008038 0.039909
#
#
# Mechanical properties :
#
#
# Convention : Reuss Voigt Hill
#
# Bulk Modulus (GPa) = 42.36570 72.97296 57.66933
# Shear Modulus (GPa) = 26.17853 38.03945 32.10899
#
# Velocity S-wave (km/s) = 3.56244 4.29429 3.94537
# Velocity P-wave (km/s) = 6.12042 7.74365 6.97938
#
# Compressibility (1/GPa) = 0.02360400
#
# Stress axis : x y z
#
# Youngs Moduli (GPa) = 78.17362 46.09537 51.34882
#
# Poissons Ratio (x) = 0.14781 0.26126
# Poissons Ratio (y) = 0.25067 0.35348
# Poissons Ratio (z) = 0.39775 0.31731
#
# Static dielectric constant tensor:
#      x y z
#    x 1.761360 0.046880 0.043870 
#    y 0.046880 1.762200 0.004780 
#    z 0.043870 0.004780 1.822840 
# 
# From -- ./inp_files/274756.got.cif
#   From: 2010.05.17/outbox.cif.g08.bks.cpg/sg2_138_cif.got.tgz:274756.got - 2010.06.03 11:33:40.
