data_PCOD9008845
_publ_section_title
;
Structure prediction by ZEFSAII (Michael W. Deem and Ramdas Pophale) SiO2 
 PCOD9008845
Probable space group: P -1
;
_chemical_formula_sum "Si O2"
_cell_formula_units_Z 16
_cell_length_a 29.105465
_cell_length_b 5.010399
_cell_length_c 6.474973
_cell_angle_alpha 101.543878
_cell_angle_beta 127.568397
_cell_angle_gamma 68.796212
_cell_volume 697.498329
_symmetry_space_group_name_H-M "P -1"
_symmetry_group_IT_number 2
_symmetry_cell_setting 'triclinic'
loop_
_space_group_symop_operation_xyz
x,y,z
-x,-y,-z
loop_
_atom_site_type_symbol
_atom_site_label
_atom_site_fract_x
_atom_site_fract_y
_atom_site_fract_z
Si Si1 0.541073 0.773436 0.242796
Si Si2 0.123789 0.941902 0.424403
Si Si3 0.314778 0.966756 0.579680
Si Si4 0.954405 0.816277 0.372247
Si Si5 0.424941 0.724187 0.081567
Si Si6 0.930533 0.530971 0.880375
Si Si7 0.739294 0.427731 0.340731
Si Si8 0.641968 0.456839 0.745497
O O1 0.565385 0.508939 0.111624
O O2 0.601537 0.731426 0.542823
O O3 0.491033 0.761913 0.275485
O O4 0.500000 0.000000 0.000000
O O5 0.081770 0.769962 0.171827
O O6 0.192079 0.746173 0.554131
O O7 0.095618 0.997443 0.581179
O O8 0.113744 0.267432 0.375417
O O9 0.374676 0.986363 0.872291
O O10 0.288581 0.767113 0.621855
O O11 0.333140 0.807618 0.387747
O O12 0.268191 0.283236 0.506543
O O13 0.000000 0.500000 0.500000
O O14 0.918429 0.737689 0.073625
O O15 0.000000 0.000000 0.500000
O O16 0.400499 0.626784 0.209378
O O17 0.000000 0.500000 0.000000
O O18 0.698944 0.496307 0.032024
#
# Coordination Sequence:
#
# PCOD9008845 Si02
#       8
#     2   2   2   2   2   2   2   2
#     4  10  21  39  66 103 138 169 230 293 349 424
#     4  12  25  43  68 101 141 179 229 282 336 418
#     4  10  24  45  70  95 137 177 239 293 338 409
#     4  12  23  40  68 104 137 172 224 271 336 415
#     4   9  21  40  62 100 134 174 227 285 354 418
#     4  12  23  42  71  99 139 180 213 278 353 391
#     4  11  26  47  66  99 136 185 238 285 338 415
#     4  10  23  45  71  95 136 190 228 288 359 408
#
# _framework density 22.939122000000001
#
# number of rings (size 3 to 8) (size 9 to 14) (size 15 to 20)
#    0.000    1.250    2.500    2.250    5.250    4.500 
#    9.000    0.000    0.000    0.000    0.000    0.000 
#    0.000    0.000    0.000    0.000    0.000    0.000 
#
# Total GULP energy -89288.667191 kJ/mol
# GULP energy per Si atom -5580.541699 kJ/mol
# Density = 2.288691 g / cm^3
# Si number density = 22.939122 Si / 1000 Ang^3
#
#
#
# Elastic Constant Matrix: (Units=GPa)
#
#
# Indices 1 2 3 4 5 6 
#
# 1 96.5825 33.7065 31.4250 3.0041 -6.7417 -31.3780
# 2 33.7065 117.1395 10.1034 -0.9434 -1.3848 -20.0962
# 3 31.4250 10.1034 59.3334 8.2474 -1.2880 -14.8166
# 4 3.0041 -0.9434 8.2474 40.3781 -11.2042 1.3195
# 5 -6.7417 -1.3848 -1.2880 -11.2042 20.8999 1.4746
# 6 -31.3780 -20.0962 -14.8166 1.3195 1.4746 49.0546
#
#
#
# Elastic Compliance Matrix: (Units=1/GPa)
#
#
# Indices 1 2 3 4 5 6 
#
# 1 0.015923 -0.002779 -0.006267 0.001095 0.004660 0.006984
# 2 -0.002779 0.009700 0.000362 0.000205 -0.000284 0.002308
# 3 -0.006267 0.000362 0.021440 -0.004983 -0.003549 0.002856
# 4 0.001095 0.000205 -0.004983 0.030343 0.016470 -0.002032
# 5 0.004660 -0.000284 -0.003549 0.016470 0.057970 -0.000393
# 6 0.006984 0.002308 0.002856 -0.002032 -0.000393 0.026728
#
#
# Mechanical properties :
#
#
# Convention : Reuss Voigt Hill
#
# Bulk Modulus (GPa) = 33.67635 47.05837 40.36736
# Shear Modulus (GPa) = 26.40316 35.25455 30.82886
#
# Velocity S-wave (km/s) = 3.39633 3.92455 3.66996
# Velocity P-wave (km/s) = 5.48568 6.41055 5.96607
#
# Compressibility (1/GPa) = 0.02969443
#
# Stress axis : x y z
#
# Youngs Moduli (GPa) = 62.80123 103.09704 46.64093
#
# Poissons Ratio (x) = 0.28652 0.29231
# Poissons Ratio (y) = 0.17454 -0.01688
# Poissons Ratio (z) = 0.39359 -0.03732
#
# Static dielectric constant tensor:
#      x y z
#    x 1.867330 0.052900 -0.010750 
#    y 0.052900 1.894780 -0.088790 
#    z -0.010750 -0.088790 1.984920 
# 
# From -- ./inp_files/125892.got.cif
#   From: 2010.05.17/outbox.cif.g08.bks.cpg/sg2_63_cif.got.tgz:125892.got - 2010.06.03 11:33:40.
