data_PCOD9008485
_publ_section_title
;
Structure prediction by ZEFSAII (Michael W. Deem and Ramdas Pophale) SiO2 
 PCOD9008485
Probable space group: P -1
;
_chemical_formula_sum "Si O2"
_cell_formula_units_Z 14
_cell_length_a 22.111330
_cell_length_b 5.396907
_cell_length_c 5.204459
_cell_angle_alpha 82.589826
_cell_angle_beta 119.155134
_cell_angle_gamma 80.761108
_cell_volume 519.645630
_symmetry_space_group_name_H-M "P -1"
_symmetry_group_IT_number 2
_symmetry_cell_setting 'triclinic'
loop_
_space_group_symop_operation_xyz
x,y,z
-x,-y,-z
loop_
_atom_site_type_symbol
_atom_site_label
_atom_site_fract_x
_atom_site_fract_y
_atom_site_fract_z
Si Si1 0.911812 0.806445 0.913418
Si Si2 0.180573 0.459341 0.605421
Si Si3 0.224440 0.844324 0.244994
Si Si4 0.547949 0.709883 0.095465
Si Si5 0.953990 0.210555 0.571698
Si Si6 0.583917 0.487382 0.699552
Si Si7 0.707892 0.043642 0.116186
O O1 0.873530 0.669758 0.646682
O O2 0.850066 0.936520 0.968375
O O3 0.930748 0.045006 0.773612
O O4 0.986146 0.652661 0.213768
O O5 0.207214 0.624287 0.417776
O O6 0.124546 0.611236 0.686328
O O7 0.251244 0.240302 0.857442
O O8 0.256535 0.787951 0.034428
O O9 0.274589 0.944919 0.545353
O O10 0.600576 0.611505 0.453783
O O11 0.500000 0.500000 0.000000
O O12 0.591679 0.666500 0.929152
O O13 0.500000 0.000000 0.000000
O O14 0.000000 0.000000 0.500000
O O15 0.500000 0.500000 0.500000
O O16 0.626166 0.194721 0.881966
#
# Coordination Sequence:
#
# PCOD9008485 Si02
#       7
#     2   2   2   2   2   2   2
#     4   9  21  40  62  92 135 172 232 287 345 418
#     4  10  23  44  69  95 136 194 229 287 362 419
#     4  10  24  43  68  99 140 183 235 291 345 428
#     4  10  21  42  71 105 144 183 230 294 363 437
#     4  10  21  39  65 101 130 174 236 295 349 413
#     4  10  22  44  73 105 141 181 237 300 362 436
#     4  11  24  48  67 102 144 182 240 292 355 433
#
# _framework density 26.941434000000001
#
# number of rings (size 3 to 8) (size 9 to 14) (size 15 to 20)
#    0.000    2.000    0.000    1.714    6.000    2.857 
#   25.714    0.000    0.000    0.000    0.000    0.000 
#    0.000    0.000    0.000    0.000    0.000    0.000 
#
# Total GULP energy -78242.583835 kJ/mol
# GULP energy per Si atom -5588.755988 kJ/mol
# Density = 2.688011 g / cm^3
# Si number density = 26.941434 Si / 1000 Ang^3
#
#
#
# Elastic Constant Matrix: (Units=GPa)
#
#
# Indices 1 2 3 4 5 6 
#
# 1 81.2292 23.3182 33.5045 -6.2702 14.2230 -18.8341
# 2 23.3182 119.8051 47.3486 -28.9368 7.8030 -27.3371
# 3 33.5045 47.3486 137.5326 -27.7879 -7.3796 -28.4350
# 4 -6.2702 -28.9368 -27.7879 57.1082 -27.5643 -3.5918
# 5 14.2230 7.8030 -7.3796 -27.5643 52.9471 -7.8298
# 6 -18.8341 -27.3371 -28.4350 -3.5918 -7.8298 36.8218
#
#
#
# Elastic Compliance Matrix: (Units=1/GPa)
#
#
# Indices 1 2 3 4 5 6 
#
# 1 0.015670 -0.001524 -0.003969 -0.003859 -0.006234 0.002116
# 2 -0.001524 0.013174 0.000627 0.010263 0.005626 0.011682
# 3 -0.003969 0.000627 0.014001 0.013162 0.011703 0.013020
# 4 -0.003859 0.010263 0.013162 0.043869 0.028050 0.026053
# 5 -0.006234 0.005626 0.011703 0.028050 0.039082 0.021072
# 6 0.002116 0.011682 0.013020 0.026053 0.021072 0.053989
#
#
# Mechanical properties :
#
#
# Convention : Reuss Voigt Hill
#
# Bulk Modulus (GPa) = 30.20139 60.76771 45.48455
# Shear Modulus (GPa) = 24.93055 45.00179 34.96617
#
# Velocity S-wave (km/s) = 3.04527 4.09143 3.60649
# Velocity P-wave (km/s) = 4.85791 6.70255 5.85335
#
# Compressibility (1/GPa) = 0.03311106
#
# Stress axis : x y z
#
# Youngs Moduli (GPa) = 63.81618 75.90701 71.42187
#
# Poissons Ratio (x) = 0.11572 0.28350
# Poissons Ratio (y) = 0.09729 -0.04476
# Poissons Ratio (z) = 0.25331 -0.04757
#
# Static dielectric constant tensor:
#      x y z
#    x 2.110970 -0.063810 -0.108920 
#    y -0.063810 2.167660 0.023940 
#    z -0.108920 0.023940 2.251870 
# 
# From -- ./inp_files/9934.got.cif
#   From: 2010.05.17/outbox.cif.g08.bks.cpg/sg2_5_cif.got.tgz:9934.got - 2010.06.03 11:33:40.
