data_PCOD9008848
_publ_section_title
;
Structure prediction by ZEFSAII (Michael W. Deem and Ramdas Pophale) SiO2 
 PCOD9008848
Probable space group: P -1
;
_chemical_formula_sum "Si O2"
_cell_formula_units_Z 14
_cell_length_a 11.271923
_cell_length_b 8.886861
_cell_length_c 8.918010
_cell_angle_alpha 53.669873
_cell_angle_beta 59.736281
_cell_angle_gamma 73.085363
_cell_volume 621.565915
_symmetry_space_group_name_H-M "P -1"
_symmetry_group_IT_number 2
_symmetry_cell_setting 'triclinic'
loop_
_space_group_symop_operation_xyz
x,y,z
-x,-y,-z
loop_
_atom_site_type_symbol
_atom_site_label
_atom_site_fract_x
_atom_site_fract_y
_atom_site_fract_z
Si Si1 0.619776 0.927041 0.860225
Si Si2 0.620927 0.518704 0.624053
Si Si3 0.129086 0.450179 0.346692
Si Si4 0.664561 0.615412 0.217970
Si Si5 0.872416 0.989832 0.476225
Si Si6 0.536473 0.177579 0.270239
Si Si7 0.816863 0.308849 0.108922
O O1 0.732873 0.044359 0.624609
O O2 0.533617 0.827368 0.842611
O O3 0.709413 0.791676 0.986996
O O4 0.500000 0.000000 0.000000
O O5 0.740979 0.465104 0.692615
O O6 0.686361 0.622598 0.376953
O O7 0.502232 0.388728 0.701942
O O8 0.528176 0.651112 0.704004
O O9 0.146228 0.225068 0.444628
O O10 0.000000 0.500000 0.500000
O O11 0.113123 0.550442 0.136531
O O12 0.741292 0.438083 0.204562
O O13 0.894543 0.144299 0.241641
O O14 0.000000 0.000000 0.500000
O O15 0.698358 0.203381 0.151892
O O16 0.500000 0.000000 0.500000
#
# Coordination Sequence:
#
# PCOD9008848 Si02
#       7
#     2   2   2   2   2   2   2
#     4  12  24  41  69 107 143 183 237 297 357 423
#     4  10  21  39  66 104 138 172 234 288 352 424
#     4  12  27  48  73 101 142 194 243 294 358 437
#     4  10  22  38  72 106 136 181 227 294 364 417
#     4  12  29  48  69 104 148 190 247 299 359 435
#     4  11  19  39  70 101 143 175 227 298 359 419
#     4  11  24  46  75 100 140 189 236 298 365 429
#
# _framework density 22.523759999999999
#
# number of rings (size 3 to 8) (size 9 to 14) (size 15 to 20)
#    0.000    0.857    4.286    1.714    6.000    5.714 
#    0.000    0.000    0.000    0.000    0.000    0.000 
#    0.000    0.000    0.000    0.000    0.000    0.000 
#
# Total GULP energy -78165.384103 kJ/mol
# GULP energy per Si atom -5583.241722 kJ/mol
# Density = 2.247249 g / cm^3
# Si number density = 22.523760 Si / 1000 Ang^3
#
#
#
# Elastic Constant Matrix: (Units=GPa)
#
#
# Indices 1 2 3 4 5 6 
#
# 1 90.1546 22.9308 31.5265 8.1587 18.0334 -7.3202
# 2 22.9308 69.8073 53.7401 4.8304 8.0951 -11.4372
# 3 31.5265 53.7401 121.1941 -2.2995 43.0722 -12.5129
# 4 8.1587 4.8304 -2.2995 41.5662 -5.2506 9.3989
# 5 18.0334 8.0951 43.0722 -5.2506 44.0075 4.7633
# 6 -7.3202 -11.4372 -12.5129 9.3989 4.7633 27.5042
#
#
#
# Elastic Compliance Matrix: (Units=1/GPa)
#
#
# Indices 1 2 3 4 5 6 
#
# 1 0.013857 -0.003093 0.000698 -0.004421 -0.006908 0.005427
# 2 -0.003093 0.025223 -0.013357 -0.002570 0.009081 0.002894
# 3 0.000698 -0.013357 0.022326 -0.002052 -0.020912 0.009111
# 4 -0.004421 -0.002570 -0.002052 0.029688 0.009454 -0.014961
# 5 -0.006908 0.009081 -0.020912 0.009454 0.047540 -0.019040
# 6 0.005427 0.002894 0.009111 -0.014961 -0.019040 0.051561
#
#
# Mechanical properties :
#
#
# Convention : Reuss Voigt Hill
#
# Bulk Modulus (GPa) = 33.44249 55.28343 44.36296
# Shear Modulus (GPa) = 21.58263 34.14614 27.86439
#
# Velocity S-wave (km/s) = 3.09886 3.89782 3.52107
# Velocity P-wave (km/s) = 5.26154 6.69739 6.02241
#
# Compressibility (1/GPa) = 0.02990208
#
# Stress axis : x y z
#
# Youngs Moduli (GPa) = 72.16482 39.64629 44.79023
#
# Poissons Ratio (x) = 0.12265 -0.03128
# Poissons Ratio (y) = 0.22324 0.59827
# Poissons Ratio (z) = -0.05041 0.52956
#
# Static dielectric constant tensor:
#      x y z
#    x 1.874820 0.027810 -0.039700 
#    y 0.027810 1.846190 -0.079000 
#    z -0.039700 -0.079000 1.908250 
# 
# From -- ./inp_files/195562.got.cif
#   From: 2010.05.17/outbox.cif.g08.bks.cpg/sg2_98_cif.got.tgz:195562.got - 2010.06.03 11:33:40.
