data_PCOD9008070
_publ_section_title
;
Structure prediction by ZEFSAII (Michael W. Deem and Ramdas Pophale) SiO2 
 PCOD9008070
Probable space group: P -1
;
_chemical_formula_sum "Si O2"
_cell_formula_units_Z 16
_cell_length_a 12.848955
_cell_length_b 5.170969
_cell_length_c 18.763751
_cell_angle_alpha 127.612468
_cell_angle_beta 136.695665
_cell_angle_gamma 65.543342
_cell_volume 676.309463
_symmetry_space_group_name_H-M "P -1"
_symmetry_group_IT_number 2
_symmetry_cell_setting 'triclinic'
loop_
_space_group_symop_operation_xyz
x,y,z
-x,-y,-z
loop_
_atom_site_type_symbol
_atom_site_label
_atom_site_fract_x
_atom_site_fract_y
_atom_site_fract_z
Si Si1 0.004895 0.399090 0.405175
Si Si2 0.743890 0.930957 0.141022
Si Si3 0.639598 0.021745 0.834684
Si Si4 0.689926 0.837112 0.460524
Si Si5 0.458769 0.615213 0.796736
Si Si6 0.124805 0.475411 0.350419
Si Si7 0.831339 0.231893 0.086304
Si Si8 0.599004 0.832208 0.620443
O O1 0.184600 0.360047 0.468414
O O2 0.991588 0.608289 0.362980
O O3 0.000000 0.500000 0.500000
O O4 0.895069 0.090301 0.281933
O O5 0.732388 0.552499 0.090768
O O6 0.610795 0.140468 0.141189
O O7 0.774404 0.002536 0.084942
O O8 0.577565 0.378815 0.849459
O O9 0.524505 0.819193 0.796206
O O10 0.637665 0.863520 0.728893
O O11 0.794463 0.059178 0.963333
O O12 0.670297 0.643594 0.343374
O O13 0.773142 0.191620 0.554673
O O14 0.518260 0.885286 0.408290
O O15 0.246968 0.186589 0.349479
O O16 0.003962 0.355557 0.207792
O O17 0.500000 0.500000 0.500000
#
# Coordination Sequence:
#
# PCOD9008070 Si02
#       8
#     2   2   2   2   2   2   2   2
#     4  11  22  36  63  98 135 170 211 267 335 389
#     4  11  23  40  64  99 129 181 215 265 322 394
#     4  11  25  45  63  97 127 175 218 274 321 383
#     4  10  21  39  63  96 127 172 209 275 323 386
#     4  11  24  40  67  95 135 170 223 266 328 382
#     4  10  23  42  62  96 130 173 217 269 325 390
#     4  11  24  42  65  91 136 169 225 263 322 391
#     4   9  22  43  66  94 125 169 219 272 327 384
#
# _framework density 23.657807999999999
#
# number of rings (size 3 to 8) (size 9 to 14) (size 15 to 20)
#    0.000    1.500    2.500    1.500    5.250    5.500 
#    6.750    0.000    0.000    6.000    0.000    0.000 
#    0.000    0.000    0.000    0.000    0.000    0.000 
#
# Total GULP energy -89140.681000 kJ/mol
# GULP energy per Si atom -5571.292563 kJ/mol
# Density = 2.360396 g / cm^3
# Si number density = 23.657808 Si / 1000 Ang^3
#
#
#
# Elastic Constant Matrix: (Units=GPa)
#
#
# Indices 1 2 3 4 5 6 
#
# 1 194.6366 -49.0031 -56.9271 60.0047 -19.2117 10.3978
# 2 -49.0031 138.0202 87.7593 -57.1935 -7.2871 1.2358
# 3 -56.9271 87.7593 294.1715 -103.1718 -20.6758 -14.7996
# 4 60.0047 -57.1935 -103.1718 89.8239 16.0029 7.4330
# 5 -19.2117 -7.2871 -20.6758 16.0029 24.5630 4.3955
# 6 10.3978 1.2358 -14.7996 7.4330 4.3955 32.7874
#
#
#
# Elastic Compliance Matrix: (Units=1/GPa)
#
#
# Indices 1 2 3 4 5 6 
#
# 1 0.009194 0.000939 -0.000687 -0.008376 0.012901 -0.003092
# 2 0.000939 0.010395 -0.001454 0.004503 0.000087 -0.002378
# 3 -0.000687 -0.001454 0.005974 0.006326 -0.000345 0.001581
# 4 -0.008376 0.004503 0.006326 0.030302 -0.019835 0.001132
# 5 0.012901 0.000087 -0.000345 -0.019835 0.064975 -0.008464
# 6 -0.003092 -0.002378 0.001581 0.001132 -0.008464 0.033162
#
#
# Mechanical properties :
#
#
# Convention : Reuss Voigt Hill
#
# Bulk Modulus (GPa) = 43.17850 65.60963 54.39406
# Shear Modulus (GPa) = 30.46465 72.43480 51.44973
#
# Velocity S-wave (km/s) = 3.59238 5.53933 4.66848
# Velocity P-wave (km/s) = 5.95800 8.28886 7.21814
#
# Compressibility (1/GPa) = 0.02315968
#
# Stress axis : x y z
#
# Youngs Moduli (GPa) = 108.76536 96.20088 167.39339
#
# Poissons Ratio (x) = -0.09037 0.11508
# Poissons Ratio (y) = -0.10217 0.24332
# Poissons Ratio (z) = 0.07477 0.13983
#
# Static dielectric constant tensor:
#      x y z
#    x 1.789270 -0.191900 0.088290 
#    y -0.191900 1.817210 0.010390 
#    z 0.088290 0.010390 1.924610 
# 
# From -- ./inp_files/370124.got.cif
#   From: 2010.05.17/outbox.cif.g08.bks.cpg/sg2_186_cif.got.tgz:370124.got - 2010.06.03 11:33:40.
