data_PCOD9008743
_publ_section_title
;
Structure prediction by ZEFSAII (Michael W. Deem and Ramdas Pophale) SiO2 
 PCOD9008743
Probable space group: P -1
;
_chemical_formula_sum "Si O2"
_cell_formula_units_Z 16
_cell_length_a 22.522556
_cell_length_b 17.179271
_cell_length_c 10.406006
_cell_angle_alpha 135.969733
_cell_angle_beta 32.977904
_cell_angle_gamma 159.707873
_cell_volume 709.271668
_symmetry_space_group_name_H-M "P -1"
_symmetry_group_IT_number 2
_symmetry_cell_setting 'triclinic'
loop_
_space_group_symop_operation_xyz
x,y,z
-x,-y,-z
loop_
_atom_site_type_symbol
_atom_site_label
_atom_site_fract_x
_atom_site_fract_y
_atom_site_fract_z
Si Si1 0.537744 0.718122 0.372067
Si Si2 0.322451 0.323506 0.396474
Si Si3 0.157939 0.171780 0.219371
Si Si4 0.717657 0.296574 0.893854
Si Si5 0.306746 0.509546 0.167076
Si Si6 0.707740 0.164978 0.017343
Si Si7 0.927014 0.253710 0.357289
Si Si8 0.744865 0.382179 0.400104
O O1 0.468601 0.571074 0.437725
O O2 0.315915 0.580412 0.552208
O O3 0.723830 0.981484 0.381603
O O4 0.669447 0.763007 0.078261
O O5 0.223315 0.246728 0.339041
O O6 0.490763 0.369297 0.134868
O O7 0.110244 0.112795 0.628827
O O8 0.201182 0.321380 0.234010
O O9 0.821123 0.274852 0.622266
O O10 0.908309 0.565786 0.847854
O O11 0.480058 0.096299 0.003644
O O12 0.686651 0.238617 0.029622
O O13 0.382484 0.686066 0.323122
O O14 0.102283 0.364482 0.274981
O O15 0.660585 0.187319 0.262958
O O16 0.977533 0.371576 0.782396
#
# Coordination Sequence:
#
# PCOD9008743 Si02
#       8
#     2   2   2   2   2   2   2   2
#     4  11  21  42  63  93 131 168 207 264 315 371
#     4  10  21  39  65  96 128 163 209 261 320 379
#     4  10  21  39  65  96 128 163 209 261 320 379
#     4  10  22  44  60  90 129 172 212 257 319 377
#     4  11  21  42  63  93 131 168 207 264 315 371
#     4  10  22  40  66  92 128 162 220 268 304 380
#     4  11  24  41  64  86 131 176 208 254 323 377
#     4  11  20  37  67  95 122 166 208 264 320 361
#
# _framework density 22.558353
#
# number of rings (size 3 to 8) (size 9 to 14) (size 15 to 20)
#    0.000    1.500    5.000    0.750    0.000    4.000 
#    0.000    5.000    0.000    0.000    0.000    0.000 
#    0.000    0.000    0.000    0.000    0.000    0.000 
#
# Total GULP energy -89368.381554 kJ/mol
# GULP energy per Si atom -5585.523847 kJ/mol
# Density = 2.250701 g / cm^3
# Si number density = 22.558353 Si / 1000 Ang^3
#
#
#
# Elastic Constant Matrix: (Units=GPa)
#
#
# Indices 1 2 3 4 5 6 
#
# 1 6.2205 12.8567 -1.0919 9.1361 48.1314 23.9728
# 2 12.8567 118.1895 35.5921 -9.9696 11.8536 -3.6582
# 3 -1.0919 35.5921 55.4217 -8.7462 21.8826 0.3002
# 4 9.1361 -9.9696 -8.7462 24.2580 -24.8455 -8.0385
# 5 48.1314 11.8536 21.8826 -24.8455 -55.8749 -33.7375
# 6 23.9728 -3.6582 0.3002 -8.0385 -33.7375 18.1507
#
#
#
# Elastic Compliance Matrix: (Units=1/GPa)
#
#
# Indices 1 2 3 4 5 6 
#
# 1 0.025149 -0.002915 -0.003462 0.005602 0.016998 0.000331
# 2 -0.002915 0.010884 -0.005745 0.000552 -0.003087 0.000645
# 3 -0.003462 -0.005745 0.023285 0.007645 -0.001109 0.004353
# 4 0.005602 0.000552 0.007645 0.035078 -0.005920 -0.002883
# 5 0.016998 -0.003087 -0.001109 -0.005920 0.006499 -0.013597
# 6 0.000331 0.000645 0.004353 -0.002883 -0.013597 0.028165
#
#
# Mechanical properties :
#
#
# Convention : Reuss Voigt Hill
#
# Bulk Modulus (GPa) = 28.51058 30.50505 29.50781
# Shear Modulus (GPa) = 30.30400 6.13841 18.22121
#
# Velocity S-wave (km/s) = 3.66916 1.65137 2.84515
# Velocity P-wave (km/s) = 5.53321 4.14586 4.88899
#
# Compressibility (1/GPa) = 0.03507470
#
# Stress axis : x y z
#
# Youngs Moduli (GPa) = 39.76373 91.87555 42.94527
#
# Poissons Ratio (x) = 0.26784 0.14866
# Poissons Ratio (y) = 0.11592 0.24672
# Poissons Ratio (z) = 0.13765 0.52781
#
# Static dielectric constant tensor:
#      x y z
#    x 1.820750 0.009200 0.024850 
#    y 0.009200 1.913820 0.012260 
#    z 0.024850 0.012260 1.864650 
# 
# From -- ./inp_files/455542.got.cif
#   From: 2010.05.17/outbox.cif.g08.bks.cpg/sg2_228_cif.got.tgz:455542.got - 2010.06.03 11:33:40.
