data_PCOD9008262
_publ_section_title
;
Structure prediction by ZEFSAII (Michael W. Deem and Ramdas Pophale) SiO2 
 PCOD9008262
Probable space group: P -1
;
_chemical_formula_sum "Si O2"
_cell_formula_units_Z 14
_cell_length_a 9.570027
_cell_length_b 20.965849
_cell_length_c 11.877266
_cell_angle_alpha 139.530397
_cell_angle_beta 122.434503
_cell_angle_gamma 28.233253
_cell_volume 658.448257
_symmetry_space_group_name_H-M "P -1"
_symmetry_group_IT_number 2
_symmetry_cell_setting 'triclinic'
loop_
_space_group_symop_operation_xyz
x,y,z
-x,-y,-z
loop_
_atom_site_type_symbol
_atom_site_label
_atom_site_fract_x
_atom_site_fract_y
_atom_site_fract_z
Si Si1 0.543424 0.699912 0.146031
Si Si2 0.211908 0.984763 0.031101
Si Si3 0.251146 0.406990 0.146898
Si Si4 0.110489 0.266022 0.419275
Si Si5 0.392164 0.956014 0.834612
Si Si6 0.812670 0.269705 0.825475
Si Si7 0.663109 0.994941 0.484268
O O1 0.348892 0.749241 0.229871
O O2 0.904818 0.540929 0.134106
O O3 0.347533 0.900083 0.309430
O O4 0.584428 0.632230 0.948703
O O5 0.552587 0.785252 0.973779
O O6 0.268190 0.951570 0.876145
O O7 0.084141 0.161611 0.242548
O O8 0.000000 0.000000 0.000000
O O9 0.191778 0.522056 0.369135
O O10 0.272711 0.242028 0.352532
O O11 0.400311 0.131180 0.453587
O O12 0.097478 0.134121 0.860872
O O13 0.500000 0.000000 0.000000
O O14 0.989119 0.192744 0.678480
O O15 0.500000 0.500000 0.000000
O O16 0.500000 0.000000 0.500000
#
# Coordination Sequence:
#
# PCOD9008262 Si02
#       7
#     2   2   2   2   2   2   2
#     4  10  22  39  62  94 133 159 217 272 317 387
#     4  11  22  39  65  87 124 170 217 265 320 383
#     4  10  22  38  66  92 126 172 213 264 330 382
#     4   9  21  39  60  87 126 165 213 259 321 385
#     4   9  21  41  62  86 129 167 206 262 321 383
#     4  11  24  37  65 100 126 165 221 269 318 384
#     4  10  21  39  64  91 130 172 204 265 337 382
#
# _framework density 21.26211
#
# number of rings (size 3 to 8) (size 9 to 14) (size 15 to 20)
#    0.000    2.000    0.000    2.143   12.000    1.143 
#    0.000    0.000    6.286    0.000    0.000    0.000 
#    0.000    0.000    0.000    0.000    0.000    0.000 
#
# Total GULP energy -77937.304926 kJ/mol
# GULP energy per Si atom -5566.950352 kJ/mol
# Density = 2.121372 g / cm^3
# Si number density = 21.262110 Si / 1000 Ang^3
#
#
#
# Elastic Constant Matrix: (Units=GPa)
#
#
# Indices 1 2 3 4 5 6 
#
# 1 160.5111 10.4608 72.1924 5.1009 -28.7468 4.0386
# 2 10.4608 49.2744 24.4346 8.2971 -11.4675 1.4357
# 3 72.1924 24.4346 125.0361 3.9480 -21.0742 5.7816
# 4 5.1009 8.2971 3.9480 25.7230 2.4477 -1.8668
# 5 -28.7468 -11.4675 -21.0742 2.4477 40.6177 -2.6925
# 6 4.0386 1.4357 5.7816 -1.8668 -2.6925 30.3123
#
#
#
# Elastic Compliance Matrix: (Units=1/GPa)
#
#
# Indices 1 2 3 4 5 6 
#
# 1 0.009174 0.001883 -0.004808 -0.002139 0.004651 -0.000113
# 2 0.001883 0.025130 -0.004611 -0.008427 0.006509 -0.000502
# 3 -0.004808 -0.004611 0.011956 0.000381 0.001391 -0.001274
# 4 -0.002139 -0.008427 0.000381 0.042735 -0.006092 0.002702
# 5 0.004651 0.006509 0.001391 -0.006092 0.030916 0.001178
# 6 -0.000113 -0.000502 -0.001274 0.002702 0.001178 0.033543
#
#
# Mechanical properties :
#
#
# Convention : Reuss Voigt Hill
#
# Bulk Modulus (GPa) = 32.06522 60.99969 46.53245
# Shear Modulus (GPa) = 27.94492 34.51287 31.22890
#
# Velocity S-wave (km/s) = 3.62927 4.03328 3.83660
# Velocity P-wave (km/s) = 5.71627 7.10221 6.44660
#
# Compressibility (1/GPa) = 0.03118644
#
# Stress axis : x y z
#
# Youngs Moduli (GPa) = 109.00862 39.79279 83.63897
#
# Poissons Ratio (x) = -0.07491 0.40212
# Poissons Ratio (y) = -0.20521 0.38570
# Poissons Ratio (z) = 0.52409 0.18350
#
# Static dielectric constant tensor:
#      x y z
#    x 1.595240 -0.062030 -0.028930 
#    y -0.062030 1.771180 0.017240 
#    z -0.028930 0.017240 1.889790 
# 
# From -- ./inp_files/271810.got.cif
#   From: 2010.05.17/outbox.cif.g08.bks.cpg/sg2_136_cif.got.tgz:271810.got - 2010.06.03 11:33:40.
