data_PCOD9008761
_publ_section_title
;
Structure prediction by ZEFSAII (Michael W. Deem and Ramdas Pophale) SiO2 
 PCOD9008761
Probable space group: P -1
;
_chemical_formula_sum "Si O2"
_cell_formula_units_Z 16
_cell_length_a 15.559105
_cell_length_b 8.995111
_cell_length_c 16.600667
_cell_angle_alpha 142.940709
_cell_angle_beta 145.295487
_cell_angle_gamma 57.421492
_cell_volume 748.890744
_symmetry_space_group_name_H-M "P -1"
_symmetry_group_IT_number 2
_symmetry_cell_setting 'triclinic'
loop_
_space_group_symop_operation_xyz
x,y,z
-x,-y,-z
loop_
_atom_site_type_symbol
_atom_site_label
_atom_site_fract_x
_atom_site_fract_y
_atom_site_fract_z
Si Si1 0.527550 0.250925 0.823851
Si Si2 0.735862 0.273857 0.533551
Si Si3 0.420884 0.691042 0.288276
Si Si4 0.541604 0.223118 0.202116
Si Si5 0.995696 0.032797 0.604908
Si Si6 0.739320 0.506274 0.245360
Si Si7 0.848118 0.591301 0.907368
Si Si8 0.198883 0.968310 0.860678
O O1 0.622323 0.297235 0.833370
O O2 0.411191 0.426514 0.806645
O O3 0.400265 0.967444 0.629576
O O4 0.661605 0.350481 0.038020
O O5 0.682684 0.261833 0.393204
O O6 0.768970 0.516944 0.725751
O O7 0.908876 0.236792 0.647872
O O8 0.535382 0.510514 0.299720
O O9 0.282833 0.563955 0.192917
O O10 0.500000 0.000000 0.500000
O O11 0.500000 0.000000 0.000000
O O12 0.383749 0.104861 0.083987
O O13 0.878884 0.768607 0.441729
O O14 0.165918 0.071005 0.792724
O O15 0.000000 0.000000 0.500000
O O16 0.816165 0.332280 0.281716
O O17 0.000000 0.500000 0.000000
O O18 0.895546 0.902815 0.096774
#
# Coordination Sequence:
#
# PCOD9008761 Si02
#       8
#     2   2   2   2   2   2   2   2
#     4  10  21  39  65  97 126 166 217 277 330 388
#     4  11  22  43  67  90 133 173 215 267 335 395
#     4  11  24  40  66  97 133 171 223 276 329 395
#     4  11  24  40  67 102 131 163 224 288 326 387
#     4  11  24  38  62  93 130 174 212 267 337 398
#     4  10  22  38  64  94 127 166 218 273 333 389
#     4  11  24  43  65  92 132 178 222 264 334 397
#     4  11  22  40  63  92 127 171 219 267 324 400
#
# _framework density 21.364930999999999
#
# number of rings (size 3 to 8) (size 9 to 14) (size 15 to 20)
#    0.000    1.250    3.750    1.875    7.000    3.000 
#    0.000    1.250    0.000    2.250    0.000    0.000 
#    0.000    0.000    0.000    0.000    0.000    0.000 
#
# Total GULP energy -89080.329094 kJ/mol
# GULP energy per Si atom -5567.520568 kJ/mol
# Density = 2.131630 g / cm^3
# Si number density = 21.364931 Si / 1000 Ang^3
#
#
#
# Elastic Constant Matrix: (Units=GPa)
#
#
# Indices 1 2 3 4 5 6 
#
# 1 64.2880 16.7622 10.2186 -8.1035 -20.6153 7.8159
# 2 16.7622 104.8393 31.2828 -6.8817 -16.6776 -5.6024
# 3 10.2186 31.2828 72.4396 -12.0099 -27.1074 -0.4618
# 4 -8.1035 -6.8817 -12.0099 36.0509 -0.9514 0.8595
# 5 -20.6153 -16.6776 -27.1074 -0.9514 35.7340 -6.6297
# 6 7.8159 -5.6024 -0.4618 0.8595 -6.6297 25.0947
#
#
#
# Elastic Compliance Matrix: (Units=1/GPa)
#
#
# Indices 1 2 3 4 5 6 
#
# 1 0.021098 -0.002199 0.004126 0.006146 0.013779 -0.003556
# 2 -0.002199 0.011572 -0.003905 0.000375 0.001862 0.003676
# 3 0.004126 -0.003905 0.023506 0.008446 0.019181 0.003054
# 4 0.006146 0.000375 0.008446 0.032293 0.011012 0.000128
# 5 0.013779 0.001862 0.019181 0.011012 0.053548 0.010247
# 6 -0.003556 0.003676 0.003054 0.000128 0.010247 0.044536
#
#
# Mechanical properties :
#
#
# Convention : Reuss Voigt Hill
#
# Bulk Modulus (GPa) = 19.14936 39.78823 29.46880
# Shear Modulus (GPa) = 24.04808 31.59612 27.82210
#
# Velocity S-wave (km/s) = 3.35862 3.84979 3.61256
# Velocity P-wave (km/s) = 4.90131 6.19877 5.58783
#
# Compressibility (1/GPa) = 0.05222107
#
# Stress axis : x y z
#
# Youngs Moduli (GPa) = 47.39755 86.41217 42.54169
#
# Poissons Ratio (x) = 0.19003 -0.17552
# Poissons Ratio (y) = 0.10423 0.16612
# Poissons Ratio (z) = -0.19556 0.33742
#
# Static dielectric constant tensor:
#      x y z
#    x 1.796450 0.004660 -0.022890 
#    y 0.004660 1.863320 0.032510 
#    z -0.022890 0.032510 1.821160 
# 
# From -- ./inp_files/244902.got.cif
#   From: 2010.05.17/outbox.cif.g08.bks.cpg/sg2_123_cif.got.tgz:244902.got - 2010.06.03 11:33:40.
