data_PCOD9008570
_publ_section_title
;
Structure prediction by ZEFSAII (Michael W. Deem and Ramdas Pophale) SiO2 
 PCOD9008570
Probable space group: P -1
;
_chemical_formula_sum "Si O2"
_cell_formula_units_Z 14
_cell_length_a 14.555602
_cell_length_b 9.614810
_cell_length_c 18.665422
_cell_angle_alpha 48.409712
_cell_angle_beta 159.391368
_cell_angle_gamma 132.396773
_cell_volume 673.620604
_symmetry_space_group_name_H-M "P -1"
_symmetry_group_IT_number 2
_symmetry_cell_setting 'triclinic'
loop_
_space_group_symop_operation_xyz
x,y,z
-x,-y,-z
loop_
_atom_site_type_symbol
_atom_site_label
_atom_site_fract_x
_atom_site_fract_y
_atom_site_fract_z
Si Si1 0.711310 0.321578 0.489326
Si Si2 0.133472 0.313778 0.058800
Si Si3 0.755153 0.246430 0.011211
Si Si4 0.377803 0.958329 0.156260
Si Si5 0.868771 0.044035 0.591707
Si Si6 0.776737 0.660418 0.054630
Si Si7 0.648622 0.637813 0.218173
O O1 0.407375 0.289433 0.305355
O O2 0.748178 0.128102 0.544281
O O3 0.724257 0.487897 0.382169
O O4 0.951109 0.379585 0.700159
O O5 0.118540 0.532836 0.985155
O O6 0.172568 0.286930 0.010892
O O7 0.876369 0.172103 0.946882
O O8 0.586393 0.145749 0.855813
O O9 0.555809 0.250962 0.930171
O O10 0.984266 0.128600 0.229535
O O11 0.635479 0.986771 0.383937
O O12 0.304018 0.164200 0.023137
O O13 0.093127 0.219386 0.667980
O O14 0.525102 0.486033 0.928011
#
# Coordination Sequence:
#
# PCOD9008570 Si02
#       7
#     2   2   2   2   2   2   2
#     4  10  21  39  65  91 120 160 202 249 302 355
#     4  10  24  43  61  92 126 155 205 257 294 362
#     4  10  24  42  60  90 124 160 204 252 302 358
#     4  12  23  39  65  92 124 161 203 249 304 360
#     4  12  23  39  65  92 124 161 203 249 304 360
#     4  10  21  39  65  91 120 160 202 249 302 355
#     4  10  24  43  61  92 126 155 205 257 294 362
#
# _framework density 20.783213
#
# number of rings (size 3 to 8) (size 9 to 14) (size 15 to 20)
#    0.000    1.714    4.286    1.714    0.000    9.143 
#    0.000    0.000    0.000    0.000    0.000    0.000 
#    0.000    0.000    0.000    0.000    0.000    0.000 
#
# Total GULP energy -78267.962179 kJ/mol
# GULP energy per Si atom -5590.568727 kJ/mol
# Density = 2.073591 g / cm^3
# Si number density = 20.783213 Si / 1000 Ang^3
#
#
#
# Elastic Constant Matrix: (Units=GPa)
#
#
# Indices 1 2 3 4 5 6 
#
# 1 21.9861 32.8620 -3.2075 6.9044 9.3269 -0.9039
# 2 32.8620 115.9536 35.5367 22.4130 17.4069 -9.3926
# 3 -3.2075 35.5367 140.5214 23.5399 0.4534 8.7823
# 4 6.9044 22.4130 23.5399 48.1031 -6.3217 13.3793
# 5 9.3269 17.4069 0.4534 -6.3217 29.5652 7.2855
# 6 -0.9039 -9.3926 8.7823 13.3793 7.2855 25.3815
#
#
#
# Elastic Compliance Matrix: (Units=1/GPa)
#
#
# Indices 1 2 3 4 5 6 
#
# 1 0.096025 -0.026236 0.010368 -0.008698 -0.016745 -0.000485
# 2 -0.026236 0.023549 -0.005812 -0.011461 -0.012754 0.019493
# 3 0.010368 -0.005812 0.009443 -0.002210 0.000528 -0.004036
# 4 -0.008698 -0.011461 -0.002210 0.041134 0.026469 -0.033067
# 5 -0.016745 -0.012754 0.000528 0.026469 0.061403 -0.037076
# 6 -0.000485 0.019493 -0.004036 -0.033067 -0.037076 0.076064
#
#
# Mechanical properties :
#
#
# Convention : Reuss Voigt Hill
#
# Bulk Modulus (GPa) = 11.67418 45.42705 28.55061
# Shear Modulus (GPa) = 13.17416 34.82797 24.00106
#
# Velocity S-wave (km/s) = 2.52044 4.09806 3.40196
# Velocity P-wave (km/s) = 3.75492 6.65561 5.40355
#
# Compressibility (1/GPa) = 0.08565915
#
# Stress axis : x y z
#
# Youngs Moduli (GPa) = 10.41399 42.46386 105.89419
#
# Poissons Ratio (x) = 1.11407 -1.09792
# Poissons Ratio (y) = 0.27322 0.61541
# Poissons Ratio (z) = -0.10797 0.24678
#
# Static dielectric constant tensor:
#      x y z
#    x 1.770970 0.012460 -0.013390 
#    y 0.012460 1.728340 -0.012540 
#    z -0.013390 -0.012540 1.737610 
# 
# From -- ./inp_files/188135.got.cif
#   From: 2010.05.17/outbox.cif.g08.bks.cpg/sg2_95_cif.got.tgz:188135.got - 2010.06.03 11:33:40.
