data_PCOD9008294
_publ_section_title
;
Structure prediction by ZEFSAII (Michael W. Deem and Ramdas Pophale) SiO2 
 PCOD9008294
Probable space group: P -1
;
_chemical_formula_sum "Si O2"
_cell_formula_units_Z 16
_cell_length_a 12.034757
_cell_length_b 12.272796
_cell_length_c 13.052465
_cell_angle_alpha 81.021967
_cell_angle_beta 110.596510
_cell_angle_gamma 39.963174
_cell_volume 818.560886
_symmetry_space_group_name_H-M "P -1"
_symmetry_group_IT_number 2
_symmetry_cell_setting 'triclinic'
loop_
_space_group_symop_operation_xyz
x,y,z
-x,-y,-z
loop_
_atom_site_type_symbol
_atom_site_label
_atom_site_fract_x
_atom_site_fract_y
_atom_site_fract_z
Si Si1 0.538524 0.351180 0.478652
Si Si2 0.902079 0.467549 0.659852
Si Si3 0.673060 0.552440 0.949350
Si Si4 0.443533 0.974346 0.805186
Si Si5 0.299387 0.136980 0.504786
Si Si6 0.967024 0.216404 0.287251
Si Si7 0.289477 0.733408 0.670785
Si Si8 0.045379 0.360825 0.955993
O O1 0.500000 0.500000 0.500000
O O2 0.316153 0.447231 0.422782
O O3 0.535848 0.388757 0.353163
O O4 0.812098 0.059236 0.623620
O O5 0.824140 0.641811 0.547690
O O6 0.168384 0.209233 0.734336
O O7 0.948115 0.461445 0.794914
O O8 0.417861 0.702367 0.804036
O O9 0.577859 0.752195 0.921263
O O10 0.819737 0.371045 0.114333
O O11 0.880730 0.399548 0.947910
O O12 0.412856 0.996443 0.668415
O O13 0.644369 0.906606 0.905798
O O14 0.110928 0.201405 0.386655
O O15 0.500000 0.000000 0.500000
O O16 0.755656 0.347178 0.280644
O O17 0.000000 0.000000 0.500000
O O18 0.000000 0.500000 0.000000
#
# Coordination Sequence:
#
# PCOD9008294 Si02
#       8
#     2   2   2   2   2   2   2   2
#     4  11  25  44  67  96 134 177 220 275 337 391
#     4  12  24  42  66 100 137 172 221 281 340 392
#     4  11  21  43  66  97 130 176 224 268 334 399
#     4  11  24  38  66 100 138 172 214 283 339 394
#     4  12  22  42  67 100 131 176 229 267 329 401
#     4  11  24  41  70  96 130 172 230 275 318 403
#     4  10  22  42  67  94 124 172 230 268 319 397
#     4  10  21  39  64  92 131 177 217 265 330 400
#
# _framework density 19.546500000000002
#
# number of rings (size 3 to 8) (size 9 to 14) (size 15 to 20)
#    0.000    1.000    2.500    6.375    5.250    0.000 
#    0.000    1.875    0.000    0.000    0.000    0.000 
#    0.000    0.000    0.000    0.000    0.000    0.000 
#
# Total GULP energy -89244.378732 kJ/mol
# GULP energy per Si atom -5577.773671 kJ/mol
# Density = 1.950201 g / cm^3
# Si number density = 19.546500 Si / 1000 Ang^3
#
#
#
# Elastic Constant Matrix: (Units=GPa)
#
#
# Indices 1 2 3 4 5 6 
#
# 1 126.5023 30.5006 41.9445 -8.5158 8.3239 -0.8800
# 2 30.5006 72.0530 24.4688 -17.0471 -6.1865 0.8554
# 3 41.9445 24.4688 112.9897 2.7498 -1.9762 1.9155
# 4 -8.5158 -17.0471 2.7498 30.1437 -2.0876 5.1556
# 5 8.3239 -6.1865 -1.9762 -2.0876 42.4369 6.8555
# 6 -0.8800 0.8554 1.9155 5.1556 6.8555 32.8090
#
#
#
# Elastic Compliance Matrix: (Units=1/GPa)
#
#
# Indices 1 2 3 4 5 6 
#
# 1 0.009940 -0.003173 -0.003088 0.000951 -0.002661 0.000936
# 2 -0.003173 0.019341 -0.003154 0.011154 0.004339 -0.003065
# 3 -0.003088 -0.003154 0.010778 -0.003575 0.000500 -0.000173
# 4 0.000951 0.011154 -0.003575 0.041684 0.004544 -0.007556
# 5 -0.002661 0.004339 0.000500 0.004544 0.025993 -0.006359
# 6 0.000936 -0.003065 -0.000173 -0.007556 -0.006359 0.033111
#
#
# Mechanical properties :
#
#
# Convention : Reuss Voigt Hill
#
# Bulk Modulus (GPa) = 47.10788 56.15251 51.63020
# Shear Modulus (GPa) = 29.98439 35.38666 32.68553
#
# Velocity S-wave (km/s) = 3.92088 4.25948 4.09368
# Velocity P-wave (km/s) = 6.68210 7.27880 6.98682
#
# Compressibility (1/GPa) = 0.02122787
#
# Stress axis : x y z
#
# Youngs Moduli (GPa) = 100.60726 51.70402 92.77779
#
# Poissons Ratio (x) = 0.16408 0.28651
# Poissons Ratio (y) = 0.31927 0.29262
# Poissons Ratio (z) = 0.31069 0.16307
#
# Static dielectric constant tensor:
#      x y z
#    x 1.760910 0.029800 0.026770 
#    y 0.029800 1.761560 -0.007630 
#    z 0.026770 -0.007630 1.711580 
# 
# From -- ./inp_files/223473.got.cif
#   From: 2010.05.17/outbox.cif.g08.bks.cpg/sg2_112_cif.got.tgz:223473.got - 2010.06.03 11:33:40.
