data_PCOD9008967
_publ_section_title
;
Structure prediction by ZEFSAII (Michael W. Deem and Ramdas Pophale) SiO2 
 PCOD9008967
Probable space group: P -1
;
_chemical_formula_sum "Si O2"
_cell_formula_units_Z 16
_cell_length_a 17.759183
_cell_length_b 21.037090
_cell_length_c 11.947110
_cell_angle_alpha 158.459083
_cell_angle_beta 36.071448
_cell_angle_gamma 154.550716
_cell_volume 689.940901
_symmetry_space_group_name_H-M "P -1"
_symmetry_group_IT_number 2
_symmetry_cell_setting 'triclinic'
loop_
_space_group_symop_operation_xyz
x,y,z
-x,-y,-z
loop_
_atom_site_type_symbol
_atom_site_label
_atom_site_fract_x
_atom_site_fract_y
_atom_site_fract_z
Si Si1 0.793422 0.299405 0.380424
Si Si2 0.120916 0.310878 0.216699
Si Si3 0.340347 0.213294 0.721747
Si Si4 0.289612 0.949788 0.707793
Si Si5 0.151438 0.426699 0.623396
Si Si6 0.746084 0.181791 0.699663
Si Si7 0.577021 0.559485 0.629231
Si Si8 0.393195 0.073660 0.200996
O O1 0.771738 0.473247 0.648337
O O2 0.679434 0.117013 0.321564
O O3 0.000000 0.500000 0.500000
O O4 0.751477 0.141442 0.064124
O O5 0.188205 0.431242 0.455560
O O6 0.912982 0.165689 0.228520
O O7 0.171893 0.163263 0.887580
O O8 0.315208 0.096151 0.440817
O O9 0.375960 0.090716 0.562113
O O10 0.500000 0.500000 0.000000
O O11 0.287233 0.816524 0.387840
O O12 0.413497 0.233713 0.001386
O O13 0.218510 0.314858 0.416252
O O14 0.948343 0.298807 0.661205
O O15 0.263371 0.674740 0.964799
O O16 0.500000 0.500000 0.500000
O O17 0.482903 0.321492 0.429016
O O18 0.500000 0.000000 0.000000
#
# Coordination Sequence:
#
# PCOD9008967 Si02
#       8
#     2   2   2   2   2   2   2   2
#     4  10  21  41  63  91 130 176 212 262 333 392
#     4  10  21  40  67  92 128 169 220 271 315 388
#     4  12  23  37  62  99 130 163 220 271 321 380
#     4  10  21  41  63  93 131 171 211 267 335 383
#     4  10  21  40  67  95 122 170 219 273 323 380
#     4  10  21  39  66  95 125 164 224 271 317 390
#     4  12  23  41  64  93 133 168 212 266 337 385
#     4  12  25  44  71  95 131 178 222 269 326 397
#
# _framework density 23.190394000000001
#
# number of rings (size 3 to 8) (size 9 to 14) (size 15 to 20)
#    0.000    1.250    1.250    6.000    0.000    3.000 
#    2.250    3.125    0.000    0.000    0.000    0.000 
#    0.000    0.000    0.000    0.000    0.000    0.000 
#
# Total GULP energy -89304.928229 kJ/mol
# GULP energy per Si atom -5581.558014 kJ/mol
# Density = 2.313761 g / cm^3
# Si number density = 23.190394 Si / 1000 Ang^3
#
#
#
# Elastic Constant Matrix: (Units=GPa)
#
#
# Indices 1 2 3 4 5 6 
#
# 1 145.0833 34.5153 67.6278 -14.0769 12.2099 -24.8093
# 2 34.5153 71.3580 37.9330 -11.1918 3.3062 -9.0541
# 3 67.6278 37.9330 162.2103 -9.8239 7.1334 -27.5962
# 4 -14.0769 -11.1918 -9.8239 47.2751 -5.4274 3.9322
# 5 12.2099 3.3062 7.1334 -5.4274 43.5221 -0.8209
# 6 -24.8093 -9.0541 -27.5962 3.9322 -0.8209 34.8225
#
#
#
# Elastic Compliance Matrix: (Units=1/GPa)
#
#
# Indices 1 2 3 4 5 6 
#
# 1 0.009659 -0.002506 -0.002609 0.001195 -0.001868 0.003984
# 2 -0.002506 0.017145 -0.002779 0.002745 0.000201 0.000165
# 3 -0.002609 -0.002779 0.008643 -0.000039 -0.000398 0.004263
# 4 0.001195 0.002745 -0.000039 0.022488 0.002249 -0.000952
# 5 -0.001868 0.000201 -0.000398 0.002249 0.023807 -0.001286
# 6 0.003984 0.000165 0.004263 -0.000952 -0.001286 0.035054
#
#
# Mechanical properties :
#
#
# Convention : Reuss Voigt Hill
#
# Bulk Modulus (GPa) = 50.86606 73.20040 62.03323
# Shear Modulus (GPa) = 35.93586 41.02896 38.48241
#
# Velocity S-wave (km/s) = 3.94077 4.21078 4.07801
# Velocity P-wave (km/s) = 6.53360 7.43467 6.99865
#
# Compressibility (1/GPa) = 0.01965948
#
# Stress axis : x y z
#
# Youngs Moduli (GPa) = 103.52917 58.32461 115.70291
#
# Poissons Ratio (x) = 0.14615 0.30184
# Poissons Ratio (y) = 0.25942 0.32158
# Poissons Ratio (z) = 0.27009 0.16210
#
# Static dielectric constant tensor:
#      x y z
#    x 1.892320 0.080800 0.010330 
#    y 0.080800 2.057900 0.055670 
#    z 0.010330 0.055670 1.887750 
# 
# From -- ./inp_files/467225.got.cif
#   From: 2010.05.17/outbox.cif.g08.bks.cpg/sg2_234_cif.got.tgz:467225.got - 2010.06.03 11:33:40.
