data_PCOD9008810
_publ_section_title
;
Structure prediction by ZEFSAII (Michael W. Deem and Ramdas Pophale) SiO2 
 PCOD9008810
Probable space group: P -1
;
_chemical_formula_sum "Si O2"
_cell_formula_units_Z 12
_cell_length_a 5.002643
_cell_length_b 17.570107
_cell_length_c 7.776468
_cell_angle_alpha 52.783753
_cell_angle_beta 88.073705
_cell_angle_gamma 115.833560
_cell_volume 445.843233
_symmetry_space_group_name_H-M "P -1"
_symmetry_group_IT_number 2
_symmetry_cell_setting 'triclinic'
loop_
_space_group_symop_operation_xyz
x,y,z
-x,-y,-z
loop_
_atom_site_type_symbol
_atom_site_label
_atom_site_fract_x
_atom_site_fract_y
_atom_site_fract_z
Si Si1 0.475389 0.385860 0.808841
Si Si2 0.531397 0.064090 0.593582
Si Si3 0.779623 0.631677 0.623055
Si Si4 0.220404 0.726998 0.182452
Si Si5 0.118547 0.029437 0.256507
Si Si6 0.328434 0.683745 0.754369
O O1 0.600522 0.517806 0.661853
O O2 0.089125 0.311033 0.880745
O O3 0.676040 0.363649 0.697378
O O4 0.569453 0.344949 0.031916
O O5 0.187413 0.982674 0.807862
O O6 0.500000 0.000000 0.500000
O O7 0.000000 0.000000 0.500000
O O8 0.452609 0.152178 0.046989
O O9 0.088759 0.727629 0.371872
O O10 0.175093 0.932493 0.331130
O O11 0.542705 0.666868 0.638549
O O12 0.946662 0.608343 0.810782
O O13 0.409831 0.812377 0.594449
#
# Coordination Sequence:
#
# PCOD9008810 Si02
#       6
#     2   2   2   2   2   2
#     4  12  24  45  73 102 135 188 237 276 331 420
#     4  10  21  40  66  99 129 172 231 284 330 401
#     4  12  26  46  67 104 147 180 222 288 356 405
#     4  12  25  44  72 104 138 183 233 285 340 409
#     4  10  21  39  65  99 130 168 229 287 328 392
#     4  12  25  44  70 102 140 183 227 286 347 409
#
# _framework density 26.915291
#
# number of rings (size 3 to 8) (size 9 to 14) (size 15 to 20)
#    0.000    0.667    0.000    9.000    0.000    5.333 
#    0.000    5.000    0.000    0.000    0.000    0.000 
#    0.000    0.000    0.000    0.000    0.000    0.000 
#
# Total GULP energy -67214.495019 kJ/mol
# GULP energy per Si atom -5601.207918 kJ/mol
# Density = 2.685403 g / cm^3
# Si number density = 26.915291 Si / 1000 Ang^3
#
#
#
# Elastic Constant Matrix: (Units=GPa)
#
#
# Indices 1 2 3 4 5 6 
#
# 1 246.6848 53.1466 20.0964 -5.8659 -11.6891 -30.4118
# 2 53.1466 107.1820 23.3294 -4.8547 4.6545 -29.3706
# 3 20.0964 23.3294 86.5578 -2.0921 -2.7291 -12.3953
# 4 -5.8659 -4.8547 -2.0921 43.1493 3.3228 2.9294
# 5 -11.6891 4.6545 -2.7291 3.3228 38.5491 3.0615
# 6 -30.4118 -29.3706 -12.3953 2.9294 3.0615 67.3570
#
#
#
# Elastic Compliance Matrix: (Units=1/GPa)
#
#
# Indices 1 2 3 4 5 6 
#
# 1 0.004733 -0.002027 -0.000340 0.000204 0.001550 0.001112
# 2 -0.002027 0.012085 -0.002273 0.000904 -0.002632 0.004017
# 3 -0.000340 -0.002273 0.012435 0.000153 0.000952 0.001094
# 4 0.000204 0.000904 0.000153 0.023497 -0.002029 -0.000415
# 5 0.001550 -0.002632 0.000952 -0.002029 0.027083 -0.001415
# 6 0.001112 0.004017 0.001094 -0.000415 -0.001415 0.017383
#
#
# Mechanical properties :
#
#
# Convention : Reuss Voigt Hill
#
# Bulk Modulus (GPa) = 50.06126 70.39660 60.22893
# Shear Modulus (GPa) = 44.18774 52.73454 48.46114
#
# Velocity S-wave (km/s) = 4.05623 4.43118 4.24784
# Velocity P-wave (km/s) = 6.37003 7.23824 6.81797
#
# Compressibility (1/GPa) = 0.01997553
#
# Stress axis : x y z
#
# Youngs Moduli (GPa) = 211.26505 82.74428 80.41966
#
# Poissons Ratio (x) = 0.16769 0.02732
# Poissons Ratio (y) = 0.42814 0.18277
# Poissons Ratio (z) = 0.07178 0.18805
#
# Static dielectric constant tensor:
#      x y z
#    x 2.256020 0.163520 0.118810 
#    y 0.163520 2.267120 0.078650 
#    z 0.118810 0.078650 2.233980 
# 
# From -- ./inp_files/32114.got.cif
#   From: 2010.05.17/outbox.cif.g08.bks.cpg/sg2_17_cif.got.tgz:32114.got - 2010.06.03 11:33:40.
