data_PCOD9008086
_publ_section_title
;
Structure prediction by ZEFSAII (Michael W. Deem and Ramdas Pophale) SiO2 
 PCOD9008086
Probable space group: P -1
;
_chemical_formula_sum "Si O2"
_cell_formula_units_Z 16
_cell_length_a 6.253453
_cell_length_b 13.369135
_cell_length_c 9.273149
_cell_angle_alpha 74.267584
_cell_angle_beta 102.642093
_cell_angle_gamma 96.648278
_cell_volume 726.816095
_symmetry_space_group_name_H-M "P -1"
_symmetry_group_IT_number 2
_symmetry_cell_setting 'triclinic'
loop_
_space_group_symop_operation_xyz
x,y,z
-x,-y,-z
loop_
_atom_site_type_symbol
_atom_site_label
_atom_site_fract_x
_atom_site_fract_y
_atom_site_fract_z
Si Si1 0.616381 0.722214 0.194380
Si Si2 0.448531 0.966060 0.766073
Si Si3 0.228174 0.294651 0.318464
Si Si4 0.783537 0.229059 0.340585
Si Si5 0.506910 0.377920 0.078416
Si Si6 0.762473 0.547445 0.490426
Si Si7 0.595596 0.185261 0.601160
Si Si8 0.806834 0.932917 0.073923
O O1 0.718036 0.626030 0.324262
O O2 0.445692 0.770761 0.262910
O O3 0.808401 0.810624 0.154085
O O4 0.494030 0.682812 0.048067
O O5 0.374894 0.866653 0.700659
O O6 0.565534 0.061283 0.657694
O O7 0.247749 0.013748 0.803353
O O8 0.606836 0.935419 0.930252
O O9 0.297963 0.336948 0.157127
O O10 0.185672 0.391560 0.377328
O O11 0.410278 0.234708 0.455453
O O12 0.016799 0.217704 0.308778
O O13 0.698078 0.337260 0.225311
O O14 0.802658 0.222752 0.519332
O O15 0.500000 0.500000 0.000000
O O16 0.500000 0.500000 0.500000
O O17 0.000000 0.500000 0.500000
O O18 0.000000 0.000000 0.000000
#
# Coordination Sequence:
#
# PCOD9008086 Si02
#       8
#     2   2   2   2   2   2   2   2
#     4  10  22  45  67 100 133 182 228 293 349 424
#     4  10  21  39  63  97 130 175 220 279 345 418
#     4  10  25  42  64  99 131 174 231 283 349 424
#     4  11  23  41  67  95 133 174 222 286 348 416
#     4  11  24  44  65  92 138 172 228 284 351 417
#     4  11  26  48  75 104 139 190 244 299 358 420
#     4   9  22  41  64  94 135 172 224 278 345 419
#     4  10  22  40  63  98 136 174 226 278 352 424
#
# _framework density 22.013822999999999
#
# number of rings (size 3 to 8) (size 9 to 14) (size 15 to 20)
#    0.000    1.750    1.250    1.125    8.750    4.000 
#    6.750    0.000    0.000    0.000    0.000    0.000 
#    0.000    0.000    0.000    0.000    0.000    0.000 
#
# Total GULP energy -89199.279188 kJ/mol
# GULP energy per Si atom -5574.954949 kJ/mol
# Density = 2.196372 g / cm^3
# Si number density = 22.013823 Si / 1000 Ang^3
#
#
#
# Elastic Constant Matrix: (Units=GPa)
#
#
# Indices 1 2 3 4 5 6 
#
# 1 63.8636 26.5298 25.6393 -7.9101 -17.1161 9.6042
# 2 26.5298 99.9952 50.0476 -9.2246 -4.6218 0.5328
# 3 25.6393 50.0476 125.0419 -14.1474 -28.6538 9.2986
# 4 -7.9101 -9.2246 -14.1474 51.4561 0.7845 -3.5450
# 5 -17.1161 -4.6218 -28.6538 0.7845 26.7414 -4.8384
# 6 9.6042 0.5328 9.2986 -3.5450 -4.8384 21.4883
#
#
#
# Elastic Compliance Matrix: (Units=1/GPa)
#
#
# Indices 1 2 3 4 5 6 
#
# 1 0.022501 -0.005954 0.001723 0.002159 0.013857 -0.007178
# 2 -0.005954 0.014529 -0.006602 0.000230 -0.007757 0.003449
# 3 0.001723 -0.006602 0.014112 0.002531 0.014459 -0.003040
# 4 0.002159 0.000230 0.002531 0.020596 0.003931 0.002217
# 5 0.013857 -0.007757 0.014459 0.003931 0.060673 0.002052
# 6 -0.007178 0.003449 -0.003040 0.002217 0.002052 0.051803
#
#
# Mechanical properties :
#
#
# Convention : Reuss Voigt Hill
#
# Bulk Modulus (GPa) = 33.92695 54.81491 44.37093
# Shear Modulus (GPa) = 23.17969 32.38276 27.78123
#
# Velocity S-wave (km/s) = 3.24846 3.83955 3.55630
# Velocity P-wave (km/s) = 5.43278 6.67911 6.08792
#
# Compressibility (1/GPa) = 0.02947509
#
# Stress axis : x y z
#
# Youngs Moduli (GPa) = 44.44271 68.82817 70.85952
#
# Poissons Ratio (x) = 0.40981 -0.12208
# Poissons Ratio (y) = 0.26462 0.46784
# Poissons Ratio (z) = -0.07657 0.45443
#
# Static dielectric constant tensor:
#      x y z
#    x 1.941940 -0.001670 -0.029900 
#    y -0.001670 1.821150 0.003600 
#    z -0.029900 0.003600 1.815960 
# 
# From -- ./inp_files/135037.got.cif
#   From: 2010.05.17/outbox.cif.g08.bks.cpg/sg2_68_cif.got.tgz:135037.got - 2010.06.03 11:33:40.
