data_PCOD9008768
_publ_section_title
;
Structure prediction by ZEFSAII (Michael W. Deem and Ramdas Pophale) SiO2 
 PCOD9008768
Probable space group: P -1
;
_chemical_formula_sum "Si O2"
_cell_formula_units_Z 14
_cell_length_a 9.483938
_cell_length_b 12.588333
_cell_length_c 15.047343
_cell_angle_alpha 124.008117
_cell_angle_beta 151.070051
_cell_angle_gamma 47.812736
_cell_volume 641.871522
_symmetry_space_group_name_H-M "P -1"
_symmetry_group_IT_number 2
_symmetry_cell_setting 'triclinic'
loop_
_space_group_symop_operation_xyz
x,y,z
-x,-y,-z
loop_
_atom_site_type_symbol
_atom_site_label
_atom_site_fract_x
_atom_site_fract_y
_atom_site_fract_z
Si Si1 0.478317 0.849312 0.333869
Si Si2 0.208130 0.466502 0.686355
Si Si3 0.519117 0.126868 0.447998
Si Si4 0.094307 0.109044 0.655841
Si Si5 0.880202 0.459900 0.005989
Si Si6 0.805850 0.870263 0.918838
Si Si7 0.121473 0.571786 0.350974
O O1 0.618743 0.704654 0.288521
O O2 0.571989 0.814934 0.474053
O O3 0.619122 0.958278 0.436516
O O4 0.095642 0.912088 0.124463
O O5 0.000000 0.500000 0.500000
O O6 0.971018 0.512135 0.662129
O O7 0.501552 0.503016 0.839750
O O8 0.273509 0.159445 0.242155
O O9 0.830360 0.153498 0.610202
O O10 0.005417 0.257886 0.626537
O O11 0.476118 0.006359 0.835007
O O12 0.000000 0.000000 0.500000
O O13 0.083276 0.286433 0.048900
O O14 0.954146 0.549947 0.162155
O O15 0.000000 0.500000 0.000000
O O16 0.500000 0.500000 0.500000
#
# Coordination Sequence:
#
# PCOD9008768 Si02
#       7
#     2   2   2   2   2   2   2
#     4  10  23  41  64  99 136 169 232 282 349 405
#     4  11  25  43  68  96 138 178 233 280 345 417
#     4  10  21  39  65  97 130 178 221 280 346 413
#     4  10  22  40  68  98 132 177 236 271 351 404
#     4  11  26  46  69 103 140 178 234 285 355 421
#     4  10  22  43  70  91 140 176 227 288 346 407
#     4  12  25  44  72  99 140 187 226 287 350 413
#
# _framework density 21.811219999999999
#
# number of rings (size 3 to 8) (size 9 to 14) (size 15 to 20)
#    0.000    1.429    0.000    5.143    8.000    2.857 
#    5.143    0.000    0.000    0.000    0.000    0.000 
#    0.000    0.000    0.000    0.000    0.000    0.000 
#
# Total GULP energy -77944.698669 kJ/mol
# GULP energy per Si atom -5567.478476 kJ/mol
# Density = 2.176158 g / cm^3
# Si number density = 21.811220 Si / 1000 Ang^3
#
#
#
# Elastic Constant Matrix: (Units=GPa)
#
#
# Indices 1 2 3 4 5 6 
#
# 1 172.9944 11.7312 62.1609 2.3965 3.6361 29.1856
# 2 11.7312 58.8343 26.3782 0.8061 15.9459 10.2492
# 3 62.1609 26.3782 135.8139 3.0891 13.9009 11.5294
# 4 2.3965 0.8061 3.0891 32.5134 -0.7741 -4.3264
# 5 3.6361 15.9459 13.9009 -0.7741 37.8273 4.3316
# 6 29.1856 10.2492 11.5294 -4.3264 4.3316 28.4043
#
#
#
# Elastic Compliance Matrix: (Units=1/GPa)
#
#
# Indices 1 2 3 4 5 6 
#
# 1 0.008236 0.001001 -0.003363 -0.001329 0.000888 -0.007797
# 2 0.001001 0.021371 -0.003291 -0.001328 -0.007177 -0.006512
# 3 -0.003363 -0.003291 0.009674 -0.000512 -0.001962 0.000937
# 4 -0.001329 -0.001328 -0.000512 0.031857 0.000750 0.006790
# 5 0.000888 -0.007177 -0.001962 0.000750 0.030346 -0.002039
# 6 -0.007797 -0.006512 0.000937 0.006790 -0.002039 0.046532
#
#
# Mechanical properties :
#
#
# Convention : Reuss Voigt Hill
#
# Bulk Modulus (GPa) = 35.74572 63.13148 49.43860
# Shear Modulus (GPa) = 29.64772 37.57382 33.61077
#
# Velocity S-wave (km/s) = 3.69085 4.15502 3.92980
# Velocity P-wave (km/s) = 5.88111 7.21293 6.58080
#
# Compressibility (1/GPa) = 0.02797538
#
# Stress axis : x y z
#
# Youngs Moduli (GPa) = 121.41677 46.79301 103.36644
#
# Poissons Ratio (x) = -0.04686 0.34760
# Poissons Ratio (y) = -0.12158 0.34022
# Poissons Ratio (z) = 0.40830 0.15401
#
# Static dielectric constant tensor:
#      x y z
#    x 1.932590 -0.116250 0.079170 
#    y -0.116250 1.952930 -0.153530 
#    z 0.079170 -0.153530 1.851920 
# 
# From -- ./inp_files/271890.got.cif
#   From: 2010.05.17/outbox.cif.g08.bks.cpg/sg2_136_cif.got.tgz:271890.got - 2010.06.03 11:33:40.
