data_PCOD9008932
_publ_section_title
;
Structure prediction by ZEFSAII (Michael W. Deem and Ramdas Pophale) SiO2 
 PCOD9008932
Probable space group: P -1
;
_chemical_formula_sum "Si O2"
_cell_formula_units_Z 16
_cell_length_a 12.470896
_cell_length_b 16.442280
_cell_length_c 9.686965
_cell_angle_alpha 59.880622
_cell_angle_beta 96.844875
_cell_angle_gamma 146.326270
_cell_volume 745.753591
_symmetry_space_group_name_H-M "P -1"
_symmetry_group_IT_number 2
_symmetry_cell_setting 'triclinic'
loop_
_space_group_symop_operation_xyz
x,y,z
-x,-y,-z
loop_
_atom_site_type_symbol
_atom_site_label
_atom_site_fract_x
_atom_site_fract_y
_atom_site_fract_z
Si Si1 0.362700 0.451904 0.904116
Si Si2 0.330278 0.781008 0.619973
Si Si3 0.248265 0.631518 0.448236
Si Si4 0.844018 0.503050 0.730065
Si Si5 0.531195 0.288752 0.126324
Si Si6 0.428482 0.567553 0.526904
Si Si7 0.103656 0.991255 0.939074
Si Si8 0.037654 0.839235 0.327812
O O1 0.362544 0.553062 0.886888
O O2 0.492908 0.564134 0.679577
O O3 0.500000 0.500000 0.000000
O O4 0.098737 0.202577 0.036216
O O5 0.380013 0.785056 0.466343
O O6 0.393020 0.750790 0.764873
O O7 0.044274 0.587769 0.747889
O O8 0.500000 0.000000 0.500000
O O9 0.318593 0.676200 0.259540
O O10 0.262323 0.530638 0.575375
O O11 0.000000 0.500000 0.500000
O O12 0.009911 0.715060 0.501065
O O13 0.667457 0.407774 0.899526
O O14 0.232529 0.053249 0.263001
O O15 0.252308 0.367748 0.570295
O O16 0.657452 0.787840 0.293049
O O17 0.138890 0.936379 0.105005
O O18 0.000000 0.000000 0.000000
#
# Coordination Sequence:
#
# PCOD9008932 Si02
#       8
#     2   2   2   2   2   2   2   2
#     4  11  26  43  68 100 139 180 227 288 349 405
#     4  11  21  39  64  95 138 181 226 288 344 397
#     4   9  19  38  66  91 134 179 223 270 331 407
#     4  10  22  39  64  94 134 188 225 277 343 409
#     4  12  23  41  66 100 141 176 231 284 343 412
#     4  10  22  44  68  96 136 184 228 285 342 405
#     4  11  25  45  71  99 132 179 238 284 344 417
#     4  10  21  39  66  93 132 171 221 275 337 403
#
# _framework density 21.454808
#
# number of rings (size 3 to 8) (size 9 to 14) (size 15 to 20)
#    0.000    1.500    2.500    2.625    0.000    5.500 
#    0.000    0.625    0.000    0.000    0.000    0.000 
#    0.000    0.000    0.000    0.000    0.000    0.000 
#
# Total GULP energy -89103.170668 kJ/mol
# GULP energy per Si atom -5568.948167 kJ/mol
# Density = 2.140598 g / cm^3
# Si number density = 21.454808 Si / 1000 Ang^3
#
#
#
# Elastic Constant Matrix: (Units=GPa)
#
#
# Indices 1 2 3 4 5 6 
#
# 1 60.1037 20.9242 40.3170 -4.2248 9.4871 -7.5916
# 2 20.9242 165.6604 61.0488 -7.7721 -9.3219 -12.3773
# 3 40.3170 61.0488 144.5892 -6.5622 0.3147 7.6763
# 4 -4.2248 -7.7721 -6.5622 38.2040 3.8367 8.0544
# 5 9.4871 -9.3219 0.3147 3.8367 35.2902 10.9204
# 6 -7.5916 -12.3773 7.6763 8.0544 10.9204 38.8929
#
#
#
# Elastic Compliance Matrix: (Units=1/GPa)
#
#
# Indices 1 2 3 4 5 6 
#
# 1 0.023942 -0.000328 -0.006938 0.000536 -0.009115 0.008386
# 2 -0.000328 0.007540 -0.003218 0.000278 0.001289 0.002551
# 3 -0.006938 -0.003218 0.010550 0.001285 0.002458 -0.005417
# 4 0.000536 0.000278 0.001285 0.027797 -0.001428 -0.005416
# 5 -0.009115 0.001289 0.002458 -0.001428 0.034763 -0.011319
# 6 0.008386 0.002551 -0.005417 -0.005416 -0.011319 0.033529
#
#
# Mechanical properties :
#
#
# Convention : Reuss Voigt Hill
#
# Bulk Modulus (GPa) = 47.47595 68.32591 57.90093
# Shear Modulus (GPa) = 30.10029 39.01497 34.55763
#
# Velocity S-wave (km/s) = 3.74968 4.26898 4.01773
# Velocity P-wave (km/s) = 6.39712 7.49763 6.96913
#
# Compressibility (1/GPa) = 0.02106330
#
# Stress axis : x y z
#
# Youngs Moduli (GPa) = 41.76740 132.62952 94.78716
#
# Poissons Ratio (x) = 0.04354 0.65767
# Poissons Ratio (y) = 0.01371 0.30498
# Poissons Ratio (z) = 0.28980 0.42675
#
# Static dielectric constant tensor:
#      x y z
#    x 1.839330 0.015140 -0.011790 
#    y 0.015140 1.788190 0.002690 
#    z -0.011790 0.002690 1.775060 
# 
# From -- ./inp_files/317586.got.cif
#   From: 2010.05.17/outbox.cif.g08.bks.cpg/sg2_159_cif.got.tgz:317586.got - 2010.06.03 11:33:40.
