data_PCOD9008026
_publ_section_title
;
Structure prediction by ZEFSAII (Michael W. Deem and Ramdas Pophale) SiO2 
 PCOD9008026
Probable space group: P -1
;
_chemical_formula_sum "Si O2"
_cell_formula_units_Z 16
_cell_length_a 9.600535
_cell_length_b 19.385421
_cell_length_c 12.182185
_cell_angle_alpha 151.908551
_cell_angle_beta 45.718596
_cell_angle_gamma 135.851558
_cell_volume 728.771535
_symmetry_space_group_name_H-M "P -1"
_symmetry_group_IT_number 2
_symmetry_cell_setting 'triclinic'
loop_
_space_group_symop_operation_xyz
x,y,z
-x,-y,-z
loop_
_atom_site_type_symbol
_atom_site_label
_atom_site_fract_x
_atom_site_fract_y
_atom_site_fract_z
Si Si1 0.438185 0.611782 0.775054
Si Si2 0.637560 0.880625 0.598968
Si Si3 0.230474 0.813391 0.464980
Si Si4 0.325136 0.049152 0.942790
Si Si5 0.019224 0.472204 0.079931
Si Si6 0.557499 0.551218 0.221708
Si Si7 0.980435 0.985031 0.736676
Si Si8 0.344400 0.234275 0.817040
O O1 0.500000 0.500000 0.500000
O O2 0.443419 0.532456 0.778699
O O3 0.208224 0.615973 0.882419
O O4 0.588411 0.782247 0.919147
O O5 0.511726 0.712426 0.480064
O O6 0.683019 0.841543 0.394497
O O7 0.503407 0.996023 0.828621
O O8 0.833763 0.947829 0.660761
O O9 0.096760 0.641698 0.328009
O O10 0.456116 0.805833 0.301828
O O11 0.246485 0.927857 0.717933
O O12 0.121805 0.872387 0.508107
O O13 0.156828 0.043581 0.119293
O O14 0.209599 0.406432 0.892196
O O15 0.000000 0.500000 0.000000
O O16 0.407925 0.418411 0.044094
O O17 0.139282 0.154164 0.882398
#
# Coordination Sequence:
#
# PCOD9008026 Si02
#       8
#     2   2   2   2   2   2   2   2
#     4  11  22  39  63  94 127 165 209 260 315 376
#     4  11  24  42  62  91 128 167 208 261 314 370
#     4  10  21  39  63  94 126 162 209 262 313 372
#     4  11  25  42  62  95 132 165 208 260 315 377
#     4   9  19  35  59  88 120 160 205 251 303 362
#     4  10  21  41  64  88 123 166 209 258 312 373
#     4  12  22  39  63  91 126 168 208 258 314 373
#     4  10  23  39  62  93 125 163 210 260 313 371
#
# _framework density 21.954754999999999
#
# number of rings (size 3 to 8) (size 9 to 14) (size 15 to 20)
#    0.000    1.500    0.000    5.625    0.000    9.000 
#    0.000    0.625    0.000    0.000    0.000    0.000 
#    0.000    0.000    0.000    0.000    0.000    0.000 
#
# Total GULP energy -89484.846639 kJ/mol
# GULP energy per Si atom -5592.802915 kJ/mol
# Density = 2.190479 g / cm^3
# Si number density = 21.954755 Si / 1000 Ang^3
#
#
#
# Elastic Constant Matrix: (Units=GPa)
#
#
# Indices 1 2 3 4 5 6 
#
# 1 106.4364 22.5748 18.9996 -6.2759 -5.0543 -0.3660
# 2 22.5748 118.9952 26.9622 -3.4423 0.9517 11.7063
# 3 18.9996 26.9622 76.9578 6.7249 9.3013 -2.3746
# 4 -6.2759 -3.4423 6.7249 26.6339 -7.1912 -3.4515
# 5 -5.0543 0.9517 9.3013 -7.1912 29.3453 13.0896
# 6 -0.3660 11.7063 -2.3746 -3.4515 13.0896 24.8534
#
#
#
# Elastic Compliance Matrix: (Units=1/GPa)
#
#
# Indices 1 2 3 4 5 6 
#
# 1 0.010660 -0.001058 -0.003233 0.004240 0.004597 -0.001486
# 2 -0.001058 0.010382 -0.004420 0.002546 0.004869 -0.007539
# 3 -0.003233 -0.004420 0.017751 -0.007886 -0.011956 0.008932
# 4 0.004240 0.002546 -0.007886 0.044631 0.015897 -0.004065
# 5 0.004597 0.004869 -0.011956 0.015897 0.056091 -0.030702
# 6 -0.001486 -0.007539 0.008932 -0.004065 -0.030702 0.060223
#
#
# Mechanical properties :
#
#
# Convention : Reuss Voigt Hill
#
# Bulk Modulus (GPa) = 46.79154 48.82919 47.81037
# Shear Modulus (GPa) = 22.29328 31.75672 27.02500
#
# Velocity S-wave (km/s) = 3.19002 3.80736 3.51228
# Velocity P-wave (km/s) = 5.90993 6.45113 6.18645
#
# Compressibility (1/GPa) = 0.02137139
#
# Stress axis : x y z
#
# Youngs Moduli (GPa) = 93.80905 96.31944 56.33616
#
# Poissons Ratio (x) = 0.10187 0.18215
# Poissons Ratio (y) = 0.09922 0.24899
# Poissons Ratio (z) = 0.30330 0.42571
#
# Static dielectric constant tensor:
#      x y z
#    x 1.846500 -0.015500 -0.001420 
#    y -0.015500 1.809890 0.001780 
#    z -0.001420 0.001780 1.800240 
# 
# From -- ./inp_files/403496.got.cif
#   From: 2010.05.17/outbox.cif.g08.bks.cpg/sg2_202_cif.got.tgz:403496.got - 2010.06.03 11:33:40.
