data_PCOD9008742
_publ_section_title
;
Structure prediction by ZEFSAII (Michael W. Deem and Ramdas Pophale) SiO2 
 PCOD9008742
Probable space group: P -1
;
_chemical_formula_sum "Si O2"
_cell_formula_units_Z 16
_cell_length_a 11.128583
_cell_length_b 11.990197
_cell_length_c 6.981833
_cell_angle_alpha 94.711530
_cell_angle_beta 120.491695
_cell_angle_gamma 88.694608
_cell_volume 799.867264
_symmetry_space_group_name_H-M "P -1"
_symmetry_group_IT_number 2
_symmetry_cell_setting 'triclinic'
loop_
_space_group_symop_operation_xyz
x,y,z
-x,-y,-z
loop_
_atom_site_type_symbol
_atom_site_label
_atom_site_fract_x
_atom_site_fract_y
_atom_site_fract_z
Si Si1 0.230490 0.893424 0.520134
Si Si2 0.223060 0.235034 0.966888
Si Si3 0.761472 0.361880 0.159724
Si Si4 0.000255 0.797224 0.553060
Si Si5 0.157418 0.476175 0.063151
Si Si6 0.129252 0.075057 0.192643
Si Si7 0.461804 0.746064 0.780096
Si Si8 0.302245 0.690539 0.312783
O O1 0.374997 0.861201 0.734278
O O2 0.106398 0.893950 0.572142
O O3 0.066830 0.166925 0.297472
O O4 0.226384 0.997903 0.392026
O O5 0.204521 0.131637 0.081632
O O6 0.381820 0.244532 0.026087
O O7 0.116092 0.224258 0.703876
O O8 0.189429 0.347073 0.074052
O O9 0.804699 0.479864 0.115773
O O10 0.634623 0.346353 0.201758
O O11 0.898698 0.306881 0.347941
O O12 0.709817 0.291593 0.920292
O O13 0.250353 0.562528 0.277749
O O14 0.000000 0.500000 0.000000
O O15 0.793992 0.218947 0.646774
O O16 0.000000 0.000000 0.000000
O O17 0.448844 0.712638 0.539623
#
# Coordination Sequence:
#
# PCOD9008742 Si02
#       8
#     2   2   2   2   2   2   2   2
#     4   9  19  41  66  85 121 166 210 250 308 374
#     4  12  26  40  60 100 131 157 214 262 305 381
#     4   9  20  39  66  84 123 174 195 254 314 364
#     4  11  22  39  64  96 121 156 213 261 310 368
#     4  10  21  39  65  96 128 161 212 257 310 370
#     4  12  24  40  67  91 125 166 207 267 322 352
#     4   9  22  42  62  91 128 169 210 247 314 383
#     4   8  19  41  63  88 123 166 208 244 309 369
#
# _framework density 20.003316999999999
#
# number of rings (size 3 to 8) (size 9 to 14) (size 15 to 20)
#    1.500    0.500    1.250    2.625    0.000    3.000 
#    2.250    0.625    0.000    0.000    0.000    0.000 
#    0.000    0.000    0.000    0.000    0.000    0.000 
#
# Total GULP energy -89086.077502 kJ/mol
# GULP energy per Si atom -5567.879844 kJ/mol
# Density = 1.995779 g / cm^3
# Si number density = 20.003317 Si / 1000 Ang^3
#
#
#
# Elastic Constant Matrix: (Units=GPa)
#
#
# Indices 1 2 3 4 5 6 
#
# 1 71.0697 14.8910 37.7469 -2.9208 13.7863 5.6113
# 2 14.8910 46.4368 -6.3774 -10.6389 7.1495 12.9608
# 3 37.7469 -6.3774 72.6224 -4.3957 8.5431 8.1109
# 4 -2.9208 -10.6389 -4.3957 18.3883 1.7455 -9.7881
# 5 13.7863 7.1495 8.5431 1.7455 29.0422 -5.6245
# 6 5.6113 12.9608 8.1109 -9.7881 -5.6245 24.8355
#
#
#
# Elastic Compliance Matrix: (Units=1/GPa)
#
#
# Indices 1 2 3 4 5 6 
#
# 1 0.023705 -0.010096 -0.013120 -0.003909 -0.004349 0.001672
# 2 -0.010096 0.036837 0.012861 0.014186 -0.012471 -0.018377
# 3 -0.013120 0.012861 0.024033 0.006029 -0.006438 -0.010678
# 4 -0.003909 0.014186 0.006029 0.074396 -0.004023 0.019921
# 5 -0.004349 -0.012471 -0.006438 -0.004023 0.045238 0.018253
# 6 0.001672 -0.018377 -0.010678 0.019921 0.018253 0.064949
#
#
# Mechanical properties :
#
#
# Convention : Reuss Voigt Hill
#
# Bulk Modulus (GPa) = 15.65779 31.40554 23.53167
# Shear Modulus (GPa) = 16.06900 24.04439 20.05670
#
# Velocity S-wave (km/s) = 2.83736 3.47078 3.16993
# Velocity P-wave (km/s) = 4.31031 5.63879 5.01870
#
# Compressibility (1/GPa) = 0.06386596
#
# Stress axis : x y z
#
# Youngs Moduli (GPa) = 42.18464 27.14629 41.60897
#
# Poissons Ratio (x) = 0.27407 0.54589
# Poissons Ratio (y) = 0.42590 -0.53512
# Poissons Ratio (z) = 0.55345 -0.34912
#
# Static dielectric constant tensor:
#      x y z
#    x 1.718250 0.003090 -0.016860 
#    y 0.003090 1.720940 -0.011420 
#    z -0.016860 -0.011420 1.719460 
# 
# From -- ./inp_files/258646.got.cif
#   From: 2010.05.17/outbox.cif.g08.bks.cpg/sg2_130_cif.got.tgz:258646.got - 2010.06.03 11:33:40.
