data_PCOD9008704
_publ_section_title
;
Structure prediction by ZEFSAII (Michael W. Deem and Ramdas Pophale) SiO2 
 PCOD9008704
Probable space group: P -1
;
_chemical_formula_sum "Si O2"
_cell_formula_units_Z 16
_cell_length_a 11.194247
_cell_length_b 25.858851
_cell_length_c 8.253493
_cell_angle_alpha 136.995249
_cell_angle_beta 32.100328
_cell_angle_gamma 148.387436
_cell_volume 665.069790
_symmetry_space_group_name_H-M "P -1"
_symmetry_group_IT_number 2
_symmetry_cell_setting 'triclinic'
loop_
_space_group_symop_operation_xyz
x,y,z
-x,-y,-z
loop_
_atom_site_type_symbol
_atom_site_label
_atom_site_fract_x
_atom_site_fract_y
_atom_site_fract_z
Si Si1 0.357427 0.090902 0.197291
Si Si2 0.635571 0.738016 0.548638
Si Si3 0.890283 0.743563 0.941294
Si Si4 0.531997 0.534055 0.727702
Si Si5 0.157412 0.867560 0.430847
Si Si6 0.146981 0.102963 0.790294
Si Si7 0.909925 0.469447 0.221914
Si Si8 0.515600 0.098056 0.540029
O O1 0.308089 0.163497 0.349547
O O2 0.256806 0.068401 0.446160
O O3 0.692344 0.143891 0.916605
O O4 0.193192 0.991398 0.049653
O O5 0.760142 0.713029 0.201819
O O6 0.303939 0.646874 0.760312
O O7 0.824299 0.773448 0.575685
O O8 0.770626 0.796726 0.129773
O O9 0.773736 0.649841 0.753473
O O10 0.237903 0.831178 0.717392
O O11 0.500000 0.500000 0.500000
O O12 0.680901 0.493184 0.560332
O O13 0.214436 0.511044 0.063272
O O14 0.295894 0.867861 0.437755
O O15 0.283426 0.979335 0.521387
O O16 0.290991 0.118805 0.831589
O O17 0.000000 0.500000 0.000000
#
# Coordination Sequence:
#
# PCOD9008704 Si02
#       8
#     2   2   2   2   2   2   2   2
#     4  10  21  39  65  94 141 185 231 283 347 431
#     4  11  25  43  70 103 135 188 236 294 357 434
#     4  11  25  43  71 101 138 184 239 289 361 432
#     4  10  25  49  73 104 136 188 239 310 370 428
#     4  11  24  39  62 100 143 188 233 284 348 429
#     4  10  21  40  63  98 138 188 230 282 349 426
#     4  10  25  48  75 102 139 186 242 309 372 428
#     4  11  24  39  63  99 143 187 233 287 346 430
#
# _framework density 24.057625000000002
#
# number of rings (size 3 to 8) (size 9 to 14) (size 15 to 20)
#    0.000    1.500    2.500    0.750    7.000    4.500 
#    0.000    0.000    0.000    0.000    0.000    0.000 
#    0.000    0.000    0.000    0.000    0.000    0.000 
#
# Total GULP energy -89123.310867 kJ/mol
# GULP energy per Si atom -5570.206929 kJ/mol
# Density = 2.400287 g / cm^3
# Si number density = 24.057625 Si / 1000 Ang^3
#
#
#
# Elastic Constant Matrix: (Units=GPa)
#
#
# Indices 1 2 3 4 5 6 
#
# 1 94.7145 48.4050 16.5369 0.0691 -20.4371 8.6280
# 2 48.4050 97.5494 15.9494 -5.8896 -1.7948 6.0235
# 3 16.5369 15.9494 68.8685 -6.7143 8.4739 5.8345
# 4 0.0691 -5.8896 -6.7143 44.3525 -0.4259 0.4715
# 5 -20.4371 -1.7948 8.4739 -0.4259 41.1274 -7.0499
# 6 8.6280 6.0235 5.8345 0.4715 -7.0499 25.3177
#
#
#
# Elastic Compliance Matrix: (Units=1/GPa)
#
#
# Indices 1 2 3 4 5 6 
#
# 1 0.017102 -0.007806 -0.003458 -0.001495 0.008732 -0.000714
# 2 -0.007806 0.014388 -0.000739 0.001795 -0.003347 -0.001558
# 3 -0.003458 -0.000739 0.016847 0.002446 -0.005920 -0.004222
# 4 -0.001495 0.001795 0.002446 0.023160 -0.001140 -0.001230
# 5 0.008732 -0.003347 -0.005920 -0.001140 0.031062 0.007856
# 6 -0.000714 -0.001558 -0.004222 -0.001230 0.007856 0.043296
#
#
# Mechanical properties :
#
#
# Convention : Reuss Voigt Hill
#
# Bulk Modulus (GPa) = 41.10147 46.99054 44.04600
# Shear Modulus (GPa) = 28.09443 34.17559 31.13501
#
# Velocity S-wave (km/s) = 3.42101 3.77314 3.60138
# Velocity P-wave (km/s) = 5.72067 6.20943 5.97005
#
# Compressibility (1/GPa) = 0.02433003
#
# Stress axis : x y z
#
# Youngs Moduli (GPa) = 58.47409 69.50001 59.35924
#
# Poissons Ratio (x) = 0.54252 0.20529
# Poissons Ratio (y) = 0.45645 0.04386
# Poissons Ratio (z) = 0.20222 0.05136
#
# Static dielectric constant tensor:
#      x y z
#    x 2.003360 0.002960 -0.087750 
#    y 0.002960 1.835080 -0.019120 
#    z -0.087750 -0.019120 2.097870 
# 
# From -- ./inp_files/285838.got.cif
#   From: 2010.05.17/outbox.cif.g08.bks.cpg/sg2_143_cif.got.tgz:285838.got - 2010.06.03 11:33:40.
