data_PCOD9008850
_publ_section_title
;
Structure prediction by ZEFSAII (Michael W. Deem and Ramdas Pophale) SiO2 
 PCOD9008850
Probable space group: P -1
;
_chemical_formula_sum "Si O2"
_cell_formula_units_Z 16
_cell_length_a 14.266468
_cell_length_b 5.434372
_cell_length_c 8.386113
_cell_angle_alpha 104.353461
_cell_angle_beta 69.325094
_cell_angle_gamma 93.025010
_cell_volume 588.876231
_symmetry_space_group_name_H-M "P -1"
_symmetry_group_IT_number 2
_symmetry_cell_setting 'triclinic'
loop_
_space_group_symop_operation_xyz
x,y,z
-x,-y,-z
loop_
_atom_site_type_symbol
_atom_site_label
_atom_site_fract_x
_atom_site_fract_y
_atom_site_fract_z
Si Si1 0.477330 0.084399 0.759502
Si Si2 0.244224 0.484387 0.816056
Si Si3 0.840124 0.976940 0.393366
Si Si4 0.626617 0.813062 0.833348
Si Si5 0.260553 0.654740 0.177463
Si Si6 0.943636 0.256532 0.123627
Si Si7 0.641088 0.226079 0.464686
Si Si8 0.023426 0.650028 0.350497
O O1 0.391373 0.983163 0.681215
O O2 0.552222 0.851278 0.734061
O O3 0.543814 0.264217 0.639939
O O4 0.440257 0.195178 0.967441
O O5 0.186314 0.240152 0.754394
O O6 0.156578 0.703603 0.909539
O O7 0.318298 0.555443 0.639085
O O8 0.281681 0.494774 0.974144
O O9 0.729015 0.100668 0.504354
O O10 0.927452 0.848133 0.427899
O O11 0.895516 0.202411 0.314530
O O12 0.697725 0.559036 0.753723
O O13 0.686649 0.076961 0.843812
O O14 0.141569 0.711009 0.288774
O O15 0.011924 0.488287 0.165517
O O16 0.000000 0.000000 0.000000
O O17 0.000000 0.500000 0.500000
#
# Coordination Sequence:
#
# PCOD9008850 Si02
#       8
#     2   2   2   2   2   2   2   2
#     4  10  23  46  72 103 139 191 247 310 377 439
#     4  10  21  39  66 104 139 184 244 304 363 435
#     4  10  22  40  66 101 141 182 238 301 363 445
#     4  11  27  48  72 107 148 193 251 306 375 454
#     4  12  26  46  75 104 151 197 245 306 373 453
#     4  10  21  39  67  96 137 184 245 299 356 437
#     4  10  21  44  71 103 141 185 245 312 370 441
#     4  11  27  43  67 107 147 200 242 301 378 458
#
# _framework density 27.170392
#
# number of rings (size 3 to 8) (size 9 to 14) (size 15 to 20)
#    0.000    1.500    1.250    2.250    7.000    7.500 
#    4.500    1.875    0.000    0.000    0.000    0.000 
#    0.000    0.000    0.000    0.000    0.000    0.000 
#
# Total GULP energy -89468.271929 kJ/mol
# GULP energy per Si atom -5591.766996 kJ/mol
# Density = 2.710855 g / cm^3
# Si number density = 27.170392 Si / 1000 Ang^3
#
#
#
# Elastic Constant Matrix: (Units=GPa)
#
#
# Indices 1 2 3 4 5 6 
#
# 1 173.8474 59.2067 26.5542 -8.3065 5.1412 -17.3010
# 2 59.2067 83.2051 4.8965 9.1652 -8.0035 -15.2726
# 3 26.5542 4.8965 128.9026 -17.1012 -24.3583 2.2299
# 4 -8.3065 9.1652 -17.1012 49.8594 -4.0112 2.1572
# 5 5.1412 -8.0035 -24.3583 -4.0112 45.5020 -7.6308
# 6 -17.3010 -15.2726 2.2299 2.1572 -7.6308 55.2534
#
#
#
# Elastic Compliance Matrix: (Units=1/GPa)
#
#
# Indices 1 2 3 4 5 6 
#
# 1 0.008346 -0.006185 -0.001793 0.001668 -0.002755 0.000531
# 2 -0.006185 0.017923 0.000897 -0.003808 0.004628 0.003769
# 3 -0.001793 0.000897 0.009629 0.003307 0.005801 -0.000030
# 4 0.001668 -0.003808 0.003307 0.022436 0.002694 -0.001168
# 5 -0.002755 0.004628 0.005801 0.002694 0.027086 0.003818
# 6 0.000531 0.003769 -0.000030 -0.001168 0.003818 0.019881
#
#
# Mechanical properties :
#
#
# Convention : Reuss Voigt Hill
#
# Bulk Modulus (GPa) = 46.00350 63.03001 54.51675
# Shear Modulus (GPa) = 39.46133 49.80947 44.63540
#
# Velocity S-wave (km/s) = 3.81513 4.28626 4.05754
# Velocity P-wave (km/s) = 6.03118 6.90974 6.48535
#
# Compressibility (1/GPa) = 0.02173748
#
# Stress axis : x y z
#
# Youngs Moduli (GPa) = 119.81303 55.79382 103.85811
#
# Poissons Ratio (x) = 0.34507 0.18620
# Poissons Ratio (y) = 0.74102 -0.09321
# Poissons Ratio (z) = 0.21481 -0.05007
#
# Static dielectric constant tensor:
#      x y z
#    x 2.403910 -0.067690 0.013550 
#    y -0.067690 2.151490 0.088520 
#    z 0.013550 0.088520 2.215620 
# 
# From -- ./inp_files/118374.got.cif
#   From: 2010.05.17/outbox.cif.g08.bks.cpg/sg2_60_cif.got.tgz:118374.got - 2010.06.03 11:33:40.
