data_PCOD9008961
_publ_section_title
;
Structure prediction by ZEFSAII (Michael W. Deem and Ramdas Pophale) SiO2 
 PCOD9008961
Probable space group: P -1
;
_chemical_formula_sum "Si O2"
_cell_formula_units_Z 12
_cell_length_a 10.093831
_cell_length_b 5.710763
_cell_length_c 8.231792
_cell_angle_alpha 58.922676
_cell_angle_beta 88.302640
_cell_angle_gamma 96.642294
_cell_volume 401.444015
_symmetry_space_group_name_H-M "P -1"
_symmetry_group_IT_number 2
_symmetry_cell_setting 'triclinic'
loop_
_space_group_symop_operation_xyz
x,y,z
-x,-y,-z
loop_
_atom_site_type_symbol
_atom_site_label
_atom_site_fract_x
_atom_site_fract_y
_atom_site_fract_z
Si Si1 0.018441 0.173316 0.765498
Si Si2 0.708564 0.516872 0.503051
Si Si3 0.291923 0.590871 0.918410
Si Si4 0.513177 0.697915 0.653844
Si Si5 0.974119 0.329931 0.230768
Si Si6 0.655866 0.028494 0.916242
O O1 0.166506 0.297847 0.650935
O O2 0.966473 0.463219 0.703525
O O3 0.971551 0.954178 0.703269
O O4 0.000000 0.000000 0.000000
O O5 0.660348 0.655463 0.618502
O O6 0.590676 0.513424 0.373848
O O7 0.692005 0.203839 0.685526
O O8 0.271801 0.771045 0.014474
O O9 0.283908 0.257148 0.017887
O O10 0.447552 0.677165 0.837574
O O11 0.188532 0.696085 0.754666
O O12 0.500000 0.000000 0.500000
O O13 0.000000 0.500000 0.000000
O O14 0.500000 0.000000 0.000000
#
# Coordination Sequence:
#
# PCOD9008961 Si02
#       6
#     2   2   2   2   2   2
#     4  10  21  39  66  95 122 162 224 277 325 370
#     4  11  24  39  62  99 129 175 217 276 321 399
#     4  12  24  42  65  96 134 181 213 267 334 406
#     4  11  23  37  66  96 129 168 234 267 320 394
#     4  10  21  40  68  95 120 166 229 280 323 371
#     4  12  26  42  61  95 148 179 208 258 348 406
#
# _framework density 29.892088000000001
#
# number of rings (size 3 to 8) (size 9 to 14) (size 15 to 20)
#    0.000    1.000    3.333    3.500    4.667    0.000 
#    0.000    0.000    0.000   24.000    0.000    0.000 
#    0.000    0.000    0.000    0.000    0.000    0.000 
#
# Total GULP energy -67006.213008 kJ/mol
# GULP energy per Si atom -5583.851084 kJ/mol
# Density = 2.982405 g / cm^3
# Si number density = 29.892088 Si / 1000 Ang^3
#
#
#
# Elastic Constant Matrix: (Units=GPa)
#
#
# Indices 1 2 3 4 5 6 
#
# 1 135.8486 35.9367 54.1795 -8.3541 -46.2927 -5.5752
# 2 35.9367 294.6940 34.2470 1.6639 12.6736 -37.7826
# 3 54.1795 34.2470 143.0919 -15.0995 -24.6030 1.4079
# 4 -8.3541 1.6639 -15.0995 57.5748 -5.0516 11.5435
# 5 -46.2927 12.6736 -24.6030 -5.0516 70.0470 -0.8553
# 6 -5.5752 -37.7826 1.4079 11.5435 -0.8553 41.8822
#
#
#
# Elastic Compliance Matrix: (Units=1/GPa)
#
#
# Indices 1 2 3 4 5 6 
#
# 1 0.011176 -0.001362 -0.002562 0.001580 0.006847 0.000049
# 2 -0.001362 0.004322 -0.001099 -0.001632 -0.002135 0.004160
# 3 -0.002562 -0.001099 0.008821 0.002590 0.001762 -0.002307
# 4 0.001580 -0.001632 0.002590 0.020002 0.003609 -0.006788
# 5 0.006847 -0.002135 0.001762 0.003609 0.020046 -0.001659
# 6 0.000049 0.004160 -0.002307 -0.006788 -0.001659 0.029551
#
#
# Mechanical properties :
#
#
# Convention : Reuss Voigt Hill
#
# Bulk Modulus (GPa) = 70.06747 91.37344 80.72045
# Shear Modulus (GPa) = 45.98948 63.85223 54.92086
#
# Velocity S-wave (km/s) = 3.92665 4.62680 4.29103
# Velocity P-wave (km/s) = 6.63695 7.69267 7.18423
#
# Compressibility (1/GPa) = 0.01427196
#
# Stress axis : x y z
#
# Youngs Moduli (GPa) = 89.48051 231.39622 113.37065
#
# Poissons Ratio (x) = 0.31519 0.29046
# Poissons Ratio (y) = 0.12188 0.12457
# Poissons Ratio (z) = 0.22925 0.25426
#
# Static dielectric constant tensor:
#      x y z
#    x 2.668790 0.014640 0.001400 
#    y 0.014640 2.306650 0.054480 
#    z 0.001400 0.054480 2.388860 
# 
# From -- ./inp_files/19699.got.cif
#   From: 2010.05.17/outbox.cif.g08.bks.cpg/sg2_10_cif.got.tgz:19699.got - 2010.06.03 11:33:40.
