data_PCOD9008414
_publ_section_title
;
Structure prediction by ZEFSAII (Michael W. Deem and Ramdas Pophale) SiO2 
 PCOD9008414
Probable space group: P -1
;
_chemical_formula_sum "Si O2"
_cell_formula_units_Z 14
_cell_length_a 10.615597
_cell_length_b 8.943005
_cell_length_c 11.652429
_cell_angle_alpha 141.384889
_cell_angle_beta 50.230015
_cell_angle_gamma 127.644354
_cell_volume 516.258145
_symmetry_space_group_name_H-M "P -1"
_symmetry_group_IT_number 2
_symmetry_cell_setting 'triclinic'
loop_
_space_group_symop_operation_xyz
x,y,z
-x,-y,-z
loop_
_atom_site_type_symbol
_atom_site_label
_atom_site_fract_x
_atom_site_fract_y
_atom_site_fract_z
Si Si1 0.339361 0.766651 0.452806
Si Si2 0.245936 0.964952 0.270127
Si Si3 0.059241 0.406398 0.648113
Si Si4 0.802082 0.804685 0.220121
Si Si5 0.476436 0.306185 0.497167
Si Si6 0.823867 0.160054 0.999377
Si Si7 0.201167 0.325359 0.121776
O O1 0.354306 0.671238 0.514634
O O2 0.334587 0.549192 0.236663
O O3 0.500000 0.000000 0.500000
O O4 0.192693 0.905174 0.598609
O O5 0.398884 0.051489 0.322312
O O6 0.159119 0.195857 0.435378
O O7 0.107421 0.752072 0.283639
O O8 0.295026 0.885778 0.069069
O O9 0.972442 0.576470 0.717581
O O10 0.172262 0.602659 0.785352
O O11 0.662174 0.673642 0.313064
O O12 0.986660 0.778650 0.125694
O O13 0.765990 0.728485 0.062739
O O14 0.500000 0.500000 0.500000
O O15 0.808547 0.920888 0.946030
#
# Coordination Sequence:
#
# PCOD9008414 Si02
#       7
#     2   2   2   2   2   2   2
#     4  10  22  42  64  88 127 171 213 254 300 368
#     4  11  22  40  63  89 130 171 199 255 319 368
#     4  10  21  39  64  96 127 160 205 254 324 385
#     4  10  22  42  65  90 124 162 202 263 320 362
#     4  11  24  40  61  89 121 167 218 250 293 369
#     4  11  23  39  66 100 127 157 205 262 321 382
#     4  11  23  40  67  99 125 159 210 263 316 371
#
# _framework density 27.118213000000001
#
# number of rings (size 3 to 8) (size 9 to 14) (size 15 to 20)
#    0.000    1.429    0.000    7.286    0.000    9.143 
#    0.000    1.429    0.000   17.143    0.000    0.000 
#    0.000    0.000    0.000    0.000    0.000    0.000 
#
# Total GULP energy -78449.116165 kJ/mol
# GULP energy per Si atom -5603.508298 kJ/mol
# Density = 2.705649 g / cm^3
# Si number density = 27.118213 Si / 1000 Ang^3
#
#
#
# Elastic Constant Matrix: (Units=GPa)
#
#
# Indices 1 2 3 4 5 6 
#
# 1 73.9290 15.2000 23.9952 -6.3990 23.8930 -12.8960
# 2 15.2000 125.0351 49.6765 6.0874 2.5586 -21.8777
# 3 23.9952 49.6765 153.6662 21.8424 42.0856 -0.8897
# 4 -6.3990 6.0874 21.8424 52.3112 -0.6078 -0.2207
# 5 23.8930 2.5586 42.0856 -0.6078 65.4696 0.6256
# 6 -12.8960 -21.8777 -0.8897 -0.2207 0.6256 42.0676
#
#
#
# Elastic Compliance Matrix: (Units=1/GPa)
#
#
# Indices 1 2 3 4 5 6 
#
# 1 0.016894 -0.000703 -0.001301 0.002651 -0.005324 0.004879
# 2 -0.000703 0.010479 -0.003943 0.000390 0.002337 0.005118
# 3 -0.001301 -0.003943 0.010167 -0.004024 -0.005923 -0.002168
# 4 0.002651 0.000390 -0.004024 0.021100 0.001790 0.001014
# 5 -0.005324 0.002337 -0.005923 0.001790 0.020958 -0.000844
# 6 0.004879 0.005118 -0.002168 0.001014 -0.000844 0.027901
#
#
# Mechanical properties :
#
#
# Convention : Reuss Voigt Hill
#
# Bulk Modulus (GPa) = 38.99466 58.93040 48.96253
# Shear Modulus (GPa) = 39.07972 49.55359 44.31665
#
# Velocity S-wave (km/s) = 3.80028 4.27935 4.04691
# Velocity P-wave (km/s) = 5.80232 6.79671 6.31910
#
# Compressibility (1/GPa) = 0.02564454
#
# Stress axis : x y z
#
# Youngs Moduli (GPa) = 59.19104 95.43192 98.35463
#
# Poissons Ratio (x) = 0.06711 0.12798
# Poissons Ratio (y) = 0.04163 0.38786
# Poissons Ratio (z) = 0.07702 0.37633
#
# Static dielectric constant tensor:
#      x y z
#    x 2.216310 0.009040 -0.022740 
#    y 0.009040 2.184360 -0.008090 
#    z -0.022740 -0.008090 2.092910 
# 
# From -- ./inp_files/420174.got.cif
#   From: 2010.05.17/outbox.cif.g08.bks.cpg/sg2_211_cif.got.tgz:420174.got - 2010.06.03 11:33:40.
