data_PCOD9008477
_publ_section_title
;
Structure prediction by ZEFSAII (Michael W. Deem and Ramdas Pophale) SiO2 
 PCOD9008477
Probable space group: P -1
;
_chemical_formula_sum "Si O2"
_cell_formula_units_Z 14
_cell_length_a 20.648181
_cell_length_b 14.337421
_cell_length_c 9.437970
_cell_angle_alpha 134.113742
_cell_angle_beta 29.467597
_cell_angle_gamma 151.170540
_cell_volume 636.083399
_symmetry_space_group_name_H-M "P -1"
_symmetry_group_IT_number 2
_symmetry_cell_setting 'triclinic'
loop_
_space_group_symop_operation_xyz
x,y,z
-x,-y,-z
loop_
_atom_site_type_symbol
_atom_site_label
_atom_site_fract_x
_atom_site_fract_y
_atom_site_fract_z
Si Si1 0.301744 0.352302 0.619695
Si Si2 0.634968 0.231151 0.479744
Si Si3 0.679258 0.350354 0.203445
Si Si4 0.685904 0.048755 0.647639
Si Si5 0.529854 0.430198 0.006381
Si Si6 0.097522 0.286330 0.205393
Si Si7 0.901770 0.419707 0.433709
O O1 0.500000 0.500000 0.500000
O O2 0.262996 0.457607 0.722666
O O3 0.363509 0.309633 0.323679
O O4 0.129992 0.226828 0.937580
O O5 0.684385 0.300024 0.297643
O O6 0.828909 0.358717 0.346523
O O7 0.500000 0.000000 0.500000
O O8 0.533408 0.285035 0.792232
O O9 0.447864 0.165821 0.393873
O O10 0.854140 0.403272 0.843577
O O11 0.804905 0.223382 0.488608
O O12 0.852626 0.115176 0.508251
O O13 0.500000 0.000000 0.000000
O O14 0.500000 0.500000 0.000000
O O15 0.747861 0.637104 0.883018
O O16 0.163742 0.490031 0.281900
#
# Coordination Sequence:
#
# PCOD9008477 Si02
#       7
#     2   2   2   2   2   2   2
#     4  10  21  40  66  96 131 183 228 272 343 414
#     4  11  23  41  67 104 135 176 234 291 341 408
#     4  12  22  39  70  95 139 184 223 284 351 399
#     4  12  22  36  64 101 140 175 229 287 342 404
#     4  10  21  41  71  96 136 189 227 277 349 417
#     4  10  21  39  65 100 137 175 228 280 338 403
#     4  11  22  40  63 101 140 174 228 287 344 407
#
# _framework density 22.009691
#
# number of rings (size 3 to 8) (size 9 to 14) (size 15 to 20)
#    0.000    1.143    5.714    1.714    0.000    0.000 
#    0.000    2.857    6.286    6.857    0.000    0.000 
#    0.000    0.000    0.000    0.000    0.000    0.000 
#
# Total GULP energy -78019.623483 kJ/mol
# GULP energy per Si atom -5572.830249 kJ/mol
# Density = 2.195960 g / cm^3
# Si number density = 22.009691 Si / 1000 Ang^3
#
#
#
# Elastic Constant Matrix: (Units=GPa)
#
#
# Indices 1 2 3 4 5 6 
#
# 1 152.1503 36.3451 32.8755 -14.6070 -2.6021 10.1458
# 2 36.3451 64.9549 35.3935 -7.4202 -0.0149 6.7537
# 3 32.8755 35.3935 118.3353 0.7816 -2.4552 -1.5512
# 4 -14.6070 -7.4202 0.7816 25.4149 6.7880 -8.9882
# 5 -2.6021 -0.0149 -2.4552 6.7880 34.3476 -5.5413
# 6 10.1458 6.7537 -1.5512 -8.9882 -5.5413 32.0255
#
#
#
# Elastic Compliance Matrix: (Units=1/GPa)
#
#
# Indices 1 2 3 4 5 6 
#
# 1 0.008028 -0.003295 -0.001287 0.003422 -0.000324 -0.001006
# 2 -0.003295 0.020951 -0.005453 0.003871 -0.001859 -0.002874
# 3 -0.001287 -0.005453 0.010505 -0.002455 0.001398 0.001619
# 4 0.003422 0.003871 -0.002455 0.048195 -0.007801 0.010157
# 5 -0.000324 -0.001859 0.001398 -0.007801 0.031343 0.003796
# 6 -0.001006 -0.002874 0.001619 0.010157 0.003796 0.035736
#
#
# Mechanical properties :
#
#
# Convention : Reuss Voigt Hill
#
# Bulk Modulus (GPa) = 51.50882 60.51875 56.01378
# Shear Modulus (GPa) = 27.57880 33.74604 30.66242
#
# Velocity S-wave (km/s) = 3.54366 3.91990 3.73652
# Velocity P-wave (km/s) = 6.34010 6.93135 6.64231
#
# Compressibility (1/GPa) = 0.01941415
#
# Stress axis : x y z
#
# Youngs Moduli (GPa) = 124.56741 47.73119 95.18846
#
# Poissons Ratio (x) = 0.15727 0.12253
# Poissons Ratio (y) = 0.41045 0.51903
# Poissons Ratio (z) = 0.16035 0.26026
#
# Static dielectric constant tensor:
#      x y z
#    x 1.851540 0.018870 -0.015330 
#    y 0.018870 1.887340 0.033920 
#    z -0.015330 0.033920 1.925350 
# 
# From -- ./inp_files/347668.got.cif
#   From: 2010.05.17/outbox.cif.g08.bks.cpg/sg2_174_cif.got.tgz:347668.got - 2010.06.03 11:33:40.
