data_PCOD9008392
_publ_section_title
;
Structure prediction by ZEFSAII (Michael W. Deem and Ramdas Pophale) SiO2 
 PCOD9008392
Probable space group: P -1
;
_chemical_formula_sum "Si O2"
_cell_formula_units_Z 10
_cell_length_a 17.720212
_cell_length_b 8.785858
_cell_length_c 8.953504
_cell_angle_alpha 134.546546
_cell_angle_beta 137.785678
_cell_angle_gamma 30.622842
_cell_volume 468.636967
_symmetry_space_group_name_H-M "P -1"
_symmetry_group_IT_number 2
_symmetry_cell_setting 'triclinic'
loop_
_space_group_symop_operation_xyz
x,y,z
-x,-y,-z
loop_
_atom_site_type_symbol
_atom_site_label
_atom_site_fract_x
_atom_site_fract_y
_atom_site_fract_z
Si Si1 0.855136 0.292988 0.585321
Si Si2 0.391979 0.452713 0.370793
Si Si3 0.819272 0.454011 0.133647
Si Si4 0.312967 0.173789 0.507751
Si Si5 0.937890 0.822040 0.946678
O O1 0.754574 0.287579 0.553733
O O2 0.729661 0.563150 0.471906
O O3 0.000000 0.000000 0.500000
O O4 0.943155 0.350016 0.857300
O O5 0.500000 0.500000 0.500000
O O6 0.506126 0.139797 0.415173
O O7 0.316510 0.433117 0.105504
O O8 0.756809 0.685190 0.332961
O O9 0.958463 0.368786 0.179868
O O10 0.886979 0.139394 0.081410
O O11 0.217827 0.111397 0.244603
#
# Coordination Sequence:
#
# PCOD9008392 Si02
#       5
#     2   2   2   2   2
#     4  11  24  43  65  95 132 167 212 263 315 379
#     4  11  24  43  65  95 132 167 212 263 315 379
#     4  10  21  39  64  95 129 167 213 258 312 386
#     4  12  22  40  68  94 125 168 211 266 323 362
#     4  10  21  39  64  95 129 167 213 258 312 386
#
# _framework density 21.338479
#
# number of rings (size 3 to 8) (size 9 to 14) (size 15 to 20)
#    0.000    1.200    4.000    2.400    0.000    1.600 
#    0.000    6.000    0.000    0.000    0.000    0.000 
#    0.000    0.000    0.000    0.000    0.000    0.000 
#
# Total GULP energy -55838.425853 kJ/mol
# GULP energy per Si atom -5583.842585 kJ/mol
# Density = 2.128991 g / cm^3
# Si number density = 21.338479 Si / 1000 Ang^3
#
#
#
# Elastic Constant Matrix: (Units=GPa)
#
#
# Indices 1 2 3 4 5 6 
#
# 1 87.6528 34.1488 32.0663 3.3224 -15.4388 -18.6276
# 2 34.1488 109.5264 15.4392 -19.0498 -13.9707 -1.4867
# 3 32.0663 15.4392 55.9642 -18.6567 -15.1052 -7.8763
# 4 3.3224 -19.0498 -18.6567 40.1804 -6.7656 -15.3960
# 5 -15.4388 -13.9707 -15.1052 -6.7656 34.1084 -0.9627
# 6 -18.6276 -1.4867 -7.8763 -15.3960 -0.9627 35.3158
#
#
#
# Elastic Compliance Matrix: (Units=1/GPa)
#
#
# Indices 1 2 3 4 5 6 
#
# 1 0.018894 -0.005766 -0.011830 -0.008637 -0.000669 0.003301
# 2 -0.005766 0.013583 0.007575 0.014158 0.009276 0.005645
# 3 -0.011830 0.007575 0.045424 0.038342 0.026080 0.021636
# 4 -0.008637 0.014158 0.038342 0.069509 0.033668 0.035812
# 5 -0.000669 0.009276 0.026080 0.033668 0.051662 0.021940
# 6 0.003301 0.005645 0.021636 0.035812 0.021940 0.051331
#
#
# Mechanical properties :
#
#
# Convention : Reuss Voigt Hill
#
# Bulk Modulus (GPa) = 17.28399 46.27244 31.77822
# Shear Modulus (GPa) = 17.25743 33.35352 25.30548
#
# Velocity S-wave (km/s) = 2.84693 3.95786 3.44744
# Velocity P-wave (km/s) = 4.35020 6.52826 5.54718
#
# Compressibility (1/GPa) = 0.05785700
#
# Stress axis : x y z
#
# Youngs Moduli (GPa) = 52.92667 73.62408 22.01503
#
# Poissons Ratio (x) = 0.42451 0.26044
# Poissons Ratio (y) = 0.30517 -0.16675
# Poissons Ratio (z) = 0.62613 -0.55767
#
# Static dielectric constant tensor:
#      x y z
#    x 1.818770 0.031730 -0.003660 
#    y 0.031730 1.796020 -0.002350 
#    z -0.003660 -0.002350 1.716700 
# 
# From -- ./inp_files/15169.got.cif
#   From: 2010.05.17/outbox.cif.g08.bks.cpg/sg2_8_cif.got.tgz:15169.got - 2010.06.03 11:33:40.
