data_PCOD9008866
_publ_section_title
;
Structure prediction by ZEFSAII (Michael W. Deem and Ramdas Pophale) SiO2 
 PCOD9008866
Probable space group: P -1
;
_chemical_formula_sum "Si O2"
_cell_formula_units_Z 16
_cell_length_a 15.045800
_cell_length_b 11.097107
_cell_length_c 7.918145
_cell_angle_alpha 98.714430
_cell_angle_beta 138.497661
_cell_angle_gamma 63.005905
_cell_volume 739.799281
_symmetry_space_group_name_H-M "P -1"
_symmetry_group_IT_number 2
_symmetry_cell_setting 'triclinic'
loop_
_space_group_symop_operation_xyz
x,y,z
-x,-y,-z
loop_
_atom_site_type_symbol
_atom_site_label
_atom_site_fract_x
_atom_site_fract_y
_atom_site_fract_z
Si Si1 0.294024 0.609118 0.548475
Si Si2 0.937434 0.945700 0.640589
Si Si3 0.432878 0.376154 0.205289
Si Si4 0.418536 0.913987 0.806472
Si Si5 0.749784 0.299318 0.112384
Si Si6 0.542781 0.701727 0.390182
Si Si7 0.644666 0.913318 0.568359
Si Si8 0.972164 0.833727 0.047057
O O1 0.395043 0.642220 0.568906
O O2 0.288676 0.669195 0.738289
O O3 0.381746 0.441031 0.641084
O O4 0.119364 0.677531 0.249169
O O5 0.067991 0.819299 0.683118
O O6 0.753068 0.028472 0.340381
O O7 0.957054 0.871506 0.835281
O O8 0.987557 0.061197 0.773915
O O9 0.457915 0.254487 0.080124
O O10 0.407982 0.338657 0.351605
O O11 0.310750 0.542730 0.021130
O O12 0.366294 0.972484 0.554880
O O13 0.500000 0.000000 0.000000
O O14 0.642710 0.240213 0.872271
O O15 0.608093 0.795461 0.426159
O O16 0.500000 0.000000 0.500000
O O17 0.812075 0.846839 0.879284
#
# Coordination Sequence:
#
# PCOD9008866 Si02
#       8
#     2   2   2   2   2   2   2   2
#     4  11  23  39  64  96 124 163 207 268 308 363
#     4  10  21  42  65  93 120 169 207 256 305 377
#     4  11  21  43  64  94 121 173 206 253 310 376
#     4  11  25  40  68  93 130 161 204 258 320 370
#     4  11  24  38  67  96 126 161 213 260 312 360
#     4  11  22  39  66  90 129 163 213 253 308 375
#     4  11  23  39  61  97 121 167 207 257 310 368
#     4  10  21  39  66  87 128 158 217 250 307 374
#
# _framework density 21.627486999999999
#
# number of rings (size 3 to 8) (size 9 to 14) (size 15 to 20)
#    0.000    1.250    2.500    5.250    5.250    2.000 
#    0.000    0.625    0.000    0.000    0.000    0.000 
#    0.000    0.000    0.000    0.000    0.000    0.000 
#
# Total GULP energy -89316.010103 kJ/mol
# GULP energy per Si atom -5582.250631 kJ/mol
# Density = 2.157826 g / cm^3
# Si number density = 21.627487 Si / 1000 Ang^3
#
#
#
# Elastic Constant Matrix: (Units=GPa)
#
#
# Indices 1 2 3 4 5 6 
#
# 1 69.7324 19.6835 14.1614 -14.5568 9.0558 -9.1182
# 2 19.6835 70.4102 11.7070 4.6719 18.6371 -9.7233
# 3 14.1614 11.7070 51.5389 -1.2109 12.7690 -8.0357
# 4 -14.5568 4.6719 -1.2109 28.5316 5.0957 5.1820
# 5 9.0558 18.6371 12.7690 5.0957 39.0506 -5.2603
# 6 -9.1182 -9.7233 -8.0357 5.1820 -5.2603 35.6191
#
#
#
# Elastic Compliance Matrix: (Units=1/GPa)
#
#
# Indices 1 2 3 4 5 6 
#
# 1 0.018947 -0.004714 -0.003152 0.010550 -0.002359 0.000969
# 2 -0.004714 0.018084 -0.000882 -0.004910 -0.006159 0.003335
# 3 -0.003152 -0.000882 0.022381 -0.000065 -0.005732 0.003165
# 4 0.010550 -0.004910 -0.000065 0.043484 -0.006558 -0.005949
# 5 -0.002359 -0.006159 -0.005732 -0.006558 0.032110 0.002118
# 6 0.000969 0.003335 0.003165 -0.005949 0.002118 0.031125
#
#
# Mechanical properties :
#
#
# Convention : Reuss Voigt Hill
#
# Bulk Modulus (GPa) = 23.85721 31.42061 27.63891
# Shear Modulus (GPa) = 25.30382 30.38224 27.84303
#
# Velocity S-wave (km/s) = 3.42421 3.75213 3.59192
# Velocity P-wave (km/s) = 5.16610 5.77329 5.47812
#
# Compressibility (1/GPa) = 0.04191605
#
# Stress axis : x y z
#
# Youngs Moduli (GPa) = 52.77928 55.29869 44.68064
#
# Poissons Ratio (x) = 0.26070 0.14082
# Poissons Ratio (y) = 0.24882 0.03939
# Poissons Ratio (z) = 0.16634 0.04876
#
# Static dielectric constant tensor:
#      x y z
#    x -1.467000 -3.815470 -1.439540 
#    y -3.815470 -2.644660 -1.669850 
#    z -1.439540 -1.669850 1.219040 
# 
# From -- ./inp_files/279531.got.cif
#   From: 2010.05.17/outbox.cif.g08.bks.cpg/sg2_140_cif.got.tgz:279531.got - 2010.06.03 11:33:40.
