data_PCOD9008522
_publ_section_title
;
Structure prediction by ZEFSAII (Michael W. Deem and Ramdas Pophale) SiO2 
 PCOD9008522
Probable space group: P -1
;
_chemical_formula_sum "Si O2"
_cell_formula_units_Z 16
_cell_length_a 11.874545
_cell_length_b 8.629919
_cell_length_c 8.785743
_cell_angle_alpha 96.267605
_cell_angle_beta 90.086278
_cell_angle_gamma 117.864053
_cell_volume 789.773413
_symmetry_space_group_name_H-M "P -1"
_symmetry_group_IT_number 2
_symmetry_cell_setting 'triclinic'
loop_
_space_group_symop_operation_xyz
x,y,z
-x,-y,-z
loop_
_atom_site_type_symbol
_atom_site_label
_atom_site_fract_x
_atom_site_fract_y
_atom_site_fract_z
Si Si1 0.439509 0.104391 0.094926
Si Si2 0.272471 0.079645 0.349222
Si Si3 0.195367 0.293708 0.158430
Si Si4 0.829677 0.005869 0.071990
Si Si5 0.381023 0.504271 0.918590
Si Si6 0.021368 0.733505 0.394704
Si Si7 0.030836 0.646027 0.730428
Si Si8 0.783154 0.794955 0.343983
O O1 0.376115 0.045733 0.255241
O O2 0.556518 0.299200 0.121624
O O3 0.318753 0.078968 0.987757
O O4 0.500000 0.000000 0.000000
O O5 0.273711 0.246743 0.278093
O O6 0.286706 0.140250 0.528908
O O7 0.136174 0.900817 0.329614
O O8 0.104214 0.357639 0.243412
O O9 0.124985 0.101227 0.054771
O O10 0.275013 0.433938 0.043689
O O11 0.845789 0.942022 0.230532
O O12 0.885112 0.215197 0.122043
O O13 0.318283 0.374930 0.763808
O O14 0.500000 0.500000 0.000000
O O15 0.981242 0.548975 0.286707
O O16 0.066981 0.711453 0.561948
O O17 0.898078 0.766215 0.410002
#
# Coordination Sequence:
#
# PCOD9008522 Si02
#       8
#     2   2   2   2   2   2   2   2
#     4  11  26  44  63  89 127 163 204 263 302 359
#     4  11  21  42  65  94 118 168 208 248 309 367
#     4  10  21  39  65  87 124 167 204 249 303 368
#     4  10  21  41  65  87 125 164 206 246 312 363
#     4  11  22  44  61  90 122 161 213 253 298 360
#     4  11  24  36  62  98 132 151 199 262 310 367
#     4  11  22  39  59  96 132 158 194 257 318 365
#     4  11  21  40  69  89 123 163 208 253 300 374
#
# _framework density 20.258977000000002
#
# number of rings (size 3 to 8) (size 9 to 14) (size 15 to 20)
#    0.000    1.250    6.250    1.500    3.500    3.500 
#    0.000    5.625    0.000    0.000    0.000    0.000 
#    0.000    0.000    0.000    0.000    0.000    0.000 
#
# Total GULP energy -89134.152306 kJ/mol
# GULP energy per Si atom -5570.884519 kJ/mol
# Density = 2.021287 g / cm^3
# Si number density = 20.258977 Si / 1000 Ang^3
#
#
#
# Elastic Constant Matrix: (Units=GPa)
#
#
# Indices 1 2 3 4 5 6 
#
# 1 53.6759 14.6833 -2.7828 -3.3465 -26.9745 -0.8330
# 2 14.6833 98.1152 22.1393 17.5632 -15.2579 17.6128
# 3 -2.7828 22.1393 67.7211 -8.0995 -29.1918 1.7789
# 4 -3.3465 17.5632 -8.0995 30.7140 0.5649 -2.7119
# 5 -26.9745 -15.2579 -29.1918 0.5649 39.1017 3.2403
# 6 -0.8330 17.6128 1.7789 -2.7119 3.2403 26.0770
#
#
#
# Elastic Compliance Matrix: (Units=1/GPa)
#
#
# Indices 1 2 3 4 5 6 
#
# 1 0.051343 -0.009729 0.030862 0.018410 0.054292 0.001274
# 2 -0.009729 0.017989 -0.010442 -0.015093 -0.006230 -0.012544
# 3 0.030862 -0.010442 0.042832 0.019829 0.048814 0.001113
# 4 0.018410 -0.015093 0.019829 0.049123 0.019905 0.012065
# 5 0.054292 -0.006230 0.048814 0.019905 0.097367 -0.007417
# 6 0.001274 -0.012544 0.001113 0.012065 -0.007417 0.048962
#
#
# Mechanical properties :
#
#
# Convention : Reuss Voigt Hill
#
# Bulk Modulus (GPa) = 7.48800 31.95464 19.72132
# Shear Modulus (GPa) = 15.11716 31.54336 23.33026
#
# Velocity S-wave (km/s) = 2.73462 3.95017 3.39721
# Velocity P-wave (km/s) = 3.69798 6.05082 5.01435
#
# Compressibility (1/GPa) = 0.13354701
#
# Stress axis : x y z
#
# Youngs Moduli (GPa) = 19.47668 55.58947 23.34684
#
# Poissons Ratio (x) = 0.54082 -0.72053
# Poissons Ratio (y) = 0.18949 0.24378
# Poissons Ratio (z) = -0.60109 0.58046
#
# Static dielectric constant tensor:
#      x y z
#    x 1.767530 0.009590 0.022080 
#    y 0.009590 1.882290 0.025140 
#    z 0.022080 0.025140 1.740080 
# 
# From -- ./inp_files/206343.got.cif
#   From: 2010.05.17/outbox.cif.g08.bks.cpg/sg2_104_cif.got.tgz:206343.got - 2010.06.03 11:33:40.
