data_PCOD9008715
_publ_section_title
;
Structure prediction by ZEFSAII (Michael W. Deem and Ramdas Pophale) SiO2 
 PCOD9008715
Probable space group: P -1
;
_chemical_formula_sum "Si O2"
_cell_formula_units_Z 16
_cell_length_a 6.559581
_cell_length_b 28.911474
_cell_length_c 16.741870
_cell_angle_alpha 19.256328
_cell_angle_beta 45.927572
_cell_angle_gamma 46.953023
_cell_volume 747.787250
_symmetry_space_group_name_H-M "P -1"
_symmetry_group_IT_number 2
_symmetry_cell_setting 'triclinic'
loop_
_space_group_symop_operation_xyz
x,y,z
-x,-y,-z
loop_
_atom_site_type_symbol
_atom_site_label
_atom_site_fract_x
_atom_site_fract_y
_atom_site_fract_z
Si Si1 0.005904 0.834093 0.022047
Si Si2 0.674777 0.101704 0.884614
Si Si3 0.016041 0.862957 0.429011
Si Si4 0.964924 0.623979 0.244046
Si Si5 0.378845 0.220897 0.546239
Si Si6 0.297288 0.668807 0.358764
Si Si7 0.251347 0.384272 0.155160
Si Si8 0.191579 0.484424 0.252844
O O1 0.668946 0.868436 0.076928
O O2 0.038974 0.764211 0.040033
O O3 0.149057 0.727706 0.221933
O O4 0.121259 0.984419 0.755495
O O5 0.832307 0.121146 0.725645
O O6 0.738358 0.212502 0.755612
O O7 0.278876 0.064357 0.832713
O O8 0.277705 0.807213 0.506742
O O9 0.788648 0.752020 0.665079
O O10 0.627479 0.640862 0.292738
O O11 0.000000 0.500000 0.500000
O O12 0.154358 0.567214 0.210925
O O13 0.235569 0.320051 0.353355
O O14 0.318988 0.319873 0.478851
O O15 0.137802 0.534833 0.649173
O O16 0.559254 0.441169 0.978471
O O17 0.000000 0.500000 0.000000
#
# Coordination Sequence:
#
# PCOD9008715 Si02
#       8
#     2   2   2   2   2   2   2   2
#     4  10  21  39  65  95 128 164 216 278 329 374
#     4  10  22  38  70 102 128 165 216 278 340 386
#     4  11  22  41  67  98 133 171 216 274 331 387
#     4  11  25  41  63  99 130 167 224 274 320 388
#     4  11  23  42  66 100 133 167 217 269 335 394
#     4  11  22  40  64  95 131 168 212 277 327 380
#     4  12  27  43  63  98 138 178 217 259 324 408
#     4  12  24  41  63  93 133 174 213 261 328 388
#
# _framework density 21.396460999999999
#
# number of rings (size 3 to 8) (size 9 to 14) (size 15 to 20)
#    0.000    1.000    2.500    5.250    1.750    2.500 
#    0.000    0.625    0.000   10.500    0.000    0.000 
#    0.000    0.000    0.000    0.000    0.000    0.000 
#
# Total GULP energy -89246.409939 kJ/mol
# GULP energy per Si atom -5577.900621 kJ/mol
# Density = 2.134776 g / cm^3
# Si number density = 21.396461 Si / 1000 Ang^3
#
#
#
# Elastic Constant Matrix: (Units=GPa)
#
#
# Indices 1 2 3 4 5 6 
#
# 1 92.1231 21.5339 49.6858 -3.2211 -0.1951 -0.7036
# 2 21.5339 86.5770 44.5868 -17.3780 2.6391 14.5645
# 3 49.6858 44.5868 129.7437 -9.4516 -24.6567 15.0899
# 4 -3.2211 -17.3780 -9.4516 25.3773 4.3817 -8.3574
# 5 -0.1951 2.6391 -24.6567 4.3817 54.8257 -13.2337
# 6 -0.7036 14.5645 15.0899 -8.3574 -13.2337 25.5052
#
#
#
# Elastic Compliance Matrix: (Units=1/GPa)
#
#
# Indices 1 2 3 4 5 6 
#
# 1 0.014281 -0.001037 -0.005828 0.000443 -0.001658 0.003719
# 2 -0.001037 0.017611 -0.005274 0.008609 -0.005615 -0.007057
# 3 -0.005828 -0.005274 0.013000 -0.001248 0.005615 -0.002336
# 4 0.000443 0.008609 -0.001248 0.048789 -0.002309 0.010623
# 5 -0.001658 -0.005615 0.005615 -0.002309 0.023998 0.011533
# 6 0.003719 -0.007057 -0.002336 0.010623 0.011533 0.054187
#
#
# Mechanical properties :
#
#
# Convention : Reuss Voigt Hill
#
# Bulk Modulus (GPa) = 48.51131 60.00631 54.25881
# Shear Modulus (GPa) = 24.62874 33.98413 29.30643
#
# Velocity S-wave (km/s) = 3.39642 3.98968 3.70494
# Velocity P-wave (km/s) = 6.17274 7.02348 6.61180
#
# Compressibility (1/GPa) = 0.02061375
#
# Stress axis : x y z
#
# Youngs Moduli (GPa) = 70.02265 56.78338 76.92482
#
# Poissons Ratio (x) = 0.05887 0.44832
# Poissons Ratio (y) = 0.07260 0.40571
# Poissons Ratio (z) = 0.40810 0.29948
#
# Static dielectric constant tensor:
#      x y z
#    x 1.532020 0.689690 0.098480 
#    y 0.689690 0.481820 -0.233460 
#    z 0.098480 -0.233460 1.772940 
# 
# From -- ./inp_files/551524.got.cif
#   From: 2010.05.17/outbox.cif.g08.bks.cpg/sg2_276_cif.got.tgz:551524.got - 2010.06.03 11:33:40.
