data_PCOD9008249
_publ_section_title
;
Structure prediction by ZEFSAII (Michael W. Deem and Ramdas Pophale) SiO2 
 PCOD9008249
Probable space group: P -1
;
_chemical_formula_sum "Si O2"
_cell_formula_units_Z 14
_cell_length_a 10.482729
_cell_length_b 14.159688
_cell_length_c 7.262410
_cell_angle_alpha 84.076962
_cell_angle_beta 89.702740
_cell_angle_gamma 147.697408
_cell_volume 564.258700
_symmetry_space_group_name_H-M "P -1"
_symmetry_group_IT_number 2
_symmetry_cell_setting 'triclinic'
loop_
_space_group_symop_operation_xyz
x,y,z
-x,-y,-z
loop_
_atom_site_type_symbol
_atom_site_label
_atom_site_fract_x
_atom_site_fract_y
_atom_site_fract_z
Si Si1 0.319944 0.392861 0.827383
Si Si2 0.560677 0.072628 0.692219
Si Si3 0.157705 0.105636 0.762748
Si Si4 0.360842 0.231080 0.320205
Si Si5 0.037913 0.287151 0.522737
Si Si6 0.895847 0.145168 0.148404
Si Si7 0.265368 0.621845 0.484420
O O1 0.312131 0.274061 0.856886
O O2 0.550359 0.608044 0.776544
O O3 0.204588 0.329665 0.638833
O O4 0.132858 0.316863 0.992547
O O5 0.820150 0.185306 0.680409
O O6 0.589315 0.204409 0.654167
O O7 0.500000 0.000000 0.500000
O O8 0.324489 0.917697 0.855105
O O9 0.272666 0.176510 0.543925
O O10 0.872296 0.949792 0.757199
O O11 0.159167 0.999795 0.863182
O O12 0.600459 0.315766 0.333053
O O13 0.949509 0.182871 0.359467
O O14 0.205382 0.482183 0.426923
O O15 0.000000 0.500000 0.500000
#
# Coordination Sequence:
#
# PCOD9008249 Si02
#       7
#     2   2   2   2   2   2   2
#     4  11  24  40  62  95 126 164 214 262 311 370
#     4   9  18  34  62  88 119 162 202 254 306 375
#     4  11  22  39  63  89 128 173 207 254 318 372
#     4  10  21  39  64  91 127 163 217 255 311 379
#     4   9  20  38  63  86 123 164 207 258 313 368
#     4  11  22  40  60  93 126 163 212 258 313 372
#     4   9  17  35  62  90 117 162 208 250 315 367
#
# _framework density 24.811312999999998
#
# number of rings (size 3 to 8) (size 9 to 14) (size 15 to 20)
#    0.000    2.000    1.429    2.571    2.000    2.286 
#    2.571    0.000    0.000   16.286    0.000    0.000 
#    0.000    0.000    0.000    0.000    0.000    0.000 
#
# Total GULP energy -78055.717459 kJ/mol
# GULP energy per Si atom -5575.408390 kJ/mol
# Density = 2.475484 g / cm^3
# Si number density = 24.811313 Si / 1000 Ang^3
#
#
#
# Elastic Constant Matrix: (Units=GPa)
#
#
# Indices 1 2 3 4 5 6 
#
# 1 76.6685 21.0339 6.1371 2.3020 -5.0375 20.1464
# 2 21.0339 111.9106 24.1519 -10.8911 -2.4985 3.0091
# 3 6.1371 24.1519 100.4373 -7.9285 -25.9266 0.1951
# 4 2.3020 -10.8911 -7.9285 41.5984 10.0840 5.3172
# 5 -5.0375 -2.4985 -25.9266 10.0840 22.0276 -2.4529
# 6 20.1464 3.0091 0.1951 5.3172 -2.4529 45.1242
#
#
#
# Elastic Compliance Matrix: (Units=1/GPa)
#
#
# Indices 1 2 3 4 5 6 
#
# 1 0.015838 -0.003034 0.000723 -0.001729 0.004203 -0.006440
# 2 -0.003034 0.010459 -0.003361 0.003496 -0.005066 -0.000016
# 3 0.000723 -0.003361 0.015527 -0.002844 0.019498 0.001229
# 4 -0.001729 0.003496 -0.002844 0.029144 -0.017113 -0.003813
# 5 0.004203 -0.005066 0.019498 -0.017113 0.077078 0.004583
# 6 -0.006440 -0.000016 0.001229 -0.003813 0.004583 0.025730
#
#
# Mechanical properties :
#
#
# Convention : Reuss Voigt Hill
#
# Bulk Modulus (GPa) = 32.80994 43.51801 38.16397
# Shear Modulus (GPa) = 25.60410 37.59628 31.60019
#
# Velocity S-wave (km/s) = 3.21589 3.89689 3.57265
# Velocity P-wave (km/s) = 5.20017 6.15023 5.69505
#
# Compressibility (1/GPa) = 0.03047857
#
# Stress axis : x y z
#
# Youngs Moduli (GPa) = 63.13953 95.61246 64.40440
#
# Poissons Ratio (x) = 0.29009 -0.04655
# Poissons Ratio (y) = 0.19157 0.21649
# Poissons Ratio (z) = -0.04564 0.32139
#
# Static dielectric constant tensor:
#      x y z
#    x 2.140280 -0.001040 -0.020340 
#    y -0.001040 2.098840 -0.054130 
#    z -0.020340 -0.054130 1.977690 
# 
# From -- ./inp_files/273133.got.cif
#   From: 2010.05.17/outbox.cif.g08.bks.cpg/sg2_137_cif.got.tgz:273133.got - 2010.06.03 11:33:40.
