data_PCOD9008989
_publ_section_title
;
Structure prediction by ZEFSAII (Michael W. Deem and Ramdas Pophale) SiO2 
 PCOD9008989
Probable space group: P -1
;
_chemical_formula_sum "Si O2"
_cell_formula_units_Z 16
_cell_length_a 5.383939
_cell_length_b 9.101344
_cell_length_c 30.560367
_cell_angle_alpha 33.146656
_cell_angle_beta 97.084912
_cell_angle_gamma 109.329674
_cell_volume 737.522815
_symmetry_space_group_name_H-M "P -1"
_symmetry_group_IT_number 2
_symmetry_cell_setting 'triclinic'
loop_
_space_group_symop_operation_xyz
x,y,z
-x,-y,-z
loop_
_atom_site_type_symbol
_atom_site_label
_atom_site_fract_x
_atom_site_fract_y
_atom_site_fract_z
Si Si1 0.177829 0.345271 0.018379
Si Si2 0.825331 0.918052 0.766286
Si Si3 0.800375 0.439259 0.131621
Si Si4 0.283236 0.144436 0.496755
Si Si5 0.317353 0.296490 0.281591
Si Si6 0.057171 0.344175 0.820955
Si Si7 0.038469 0.749857 0.472328
Si Si8 0.243235 0.560770 0.613032
O O1 0.500000 0.500000 0.000000
O O2 0.161438 0.378927 0.957259
O O3 0.058792 0.994883 0.112178
O O4 0.000000 0.500000 0.000000
O O5 0.523728 0.779159 0.815821
O O6 0.779206 0.887097 0.720397
O O7 0.004617 0.733402 0.825833
O O8 0.013929 0.255190 0.699621
O O9 0.884107 0.621508 0.133623
O O10 0.469000 0.428074 0.400897
O O11 0.243911 0.243182 0.518968
O O12 0.336314 0.849012 0.573396
O O13 0.000000 0.000000 0.500000
O O14 0.646439 0.474624 0.240515
O O15 0.159599 0.511731 0.227775
O O16 0.216575 0.064247 0.376472
O O17 0.152651 0.653681 0.541799
O O18 0.000000 0.500000 0.500000
#
# Coordination Sequence:
#
# PCOD9008989 Si02
#       8
#     2   2   2   2   2   2   2   2
#     4  12  25  46  69 103 135 164 212 269 339 392
#     4  10  21  39  66  96 126 164 221 270 309 387
#     4  10  23  43  69  97 125 173 219 255 326 401
#     4   9  22  39  54  80 117 171 220 259 317 397
#     4  10  22  40  63 102 127 167 221 270 326 372
#     4  10  23  45  69  91 137 174 215 269 317 407
#     4  11  22  37  62  92 128 169 220 273 329 368
#     4  10  21  40  59  85 124 175 215 269 322 380
#
# _framework density 21.694246
#
# number of rings (size 3 to 8) (size 9 to 14) (size 15 to 20)
#    0.000    1.750    1.250    1.875    5.250    1.500 
#    6.750    5.000    0.000    0.000    0.000    0.000 
#    0.000    0.000    0.000    0.000    0.000    0.000 
#
# Total GULP energy -89270.009764 kJ/mol
# GULP energy per Si atom -5579.375610 kJ/mol
# Density = 2.164487 g / cm^3
# Si number density = 21.694246 Si / 1000 Ang^3
#
#
#
# Elastic Constant Matrix: (Units=GPa)
#
#
# Indices 1 2 3 4 5 6 
#
# 1 113.1156 32.8326 26.6397 -7.0445 -9.8675 -3.7736
# 2 32.8326 65.2640 24.3522 -25.6031 5.9056 -16.3625
# 3 26.6397 24.3522 78.8920 -12.3011 -3.5877 -0.4961
# 4 -7.0445 -25.6031 -12.3011 37.5508 6.3686 -1.0260
# 5 -9.8675 5.9056 -3.5877 6.3686 25.5110 -0.2021
# 6 -3.7736 -16.3625 -0.4961 -1.0260 -0.2021 29.5221
#
#
#
# Elastic Compliance Matrix: (Units=1/GPa)
#
#
# Indices 1 2 3 4 5 6 
#
# 1 0.012320 -0.009905 -0.001769 -0.006562 0.008415 -0.004115
# 2 -0.009905 0.041100 -0.005721 0.028474 -0.021082 0.022262
# 3 -0.001769 -0.005721 0.015172 0.000195 0.002701 -0.003117
# 4 -0.006562 0.028474 0.000195 0.048922 -0.021184 0.016502
# 5 0.008415 -0.021082 0.002701 -0.021184 0.052916 -0.010938
# 6 -0.004115 0.022262 -0.003117 0.016502 -0.010938 0.046132
#
#
# Mechanical properties :
#
#
# Convention : Reuss Voigt Hill
#
# Bulk Modulus (GPa) = 29.58368 47.21341 38.39854
# Shear Modulus (GPa) = 19.03894 30.07990 24.55942
#
# Velocity S-wave (km/s) = 2.96565 3.72766 3.36828
# Velocity P-wave (km/s) = 5.03915 6.35119 5.73283
#
# Compressibility (1/GPa) = 0.03380242
#
# Stress axis : x y z
#
# Youngs Moduli (GPa) = 81.16633 24.33100 65.90943
#
# Poissons Ratio (x) = 0.24101 0.11659
# Poissons Ratio (y) = 0.80398 0.37705
# Poissons Ratio (z) = 0.14358 0.13919
#
# Static dielectric constant tensor:
#      x y z
#    x 2.013440 -0.155880 -0.040480 
#    y -0.155880 1.799270 0.010270 
#    z -0.040480 0.010270 1.749120 
# 
# From -- ./inp_files/55300.got.cif
#   From: 2010.05.17/outbox.cif.g08.bks.cpg/sg2_28_cif.got.tgz:55300.got - 2010.06.03 11:33:40.
