data_PCOD9008281
_publ_section_title
;
Structure prediction by ZEFSAII (Michael W. Deem and Ramdas Pophale) SiO2 
 PCOD9008281
Probable space group: P -1
;
_chemical_formula_sum "Si O2"
_cell_formula_units_Z 10
_cell_length_a 18.673769
_cell_length_b 8.966559
_cell_length_c 14.102846
_cell_angle_alpha 146.953971
_cell_angle_beta 20.665298
_cell_angle_gamma 151.448974
_cell_volume 396.413668
_symmetry_space_group_name_H-M "P -1"
_symmetry_group_IT_number 2
_symmetry_cell_setting 'triclinic'
loop_
_space_group_symop_operation_xyz
x,y,z
-x,-y,-z
loop_
_atom_site_type_symbol
_atom_site_label
_atom_site_fract_x
_atom_site_fract_y
_atom_site_fract_z
Si Si1 0.578761 0.263110 0.665118
Si Si2 0.740711 0.812666 0.147706
Si Si3 0.610868 0.174399 0.055569
Si Si4 0.889799 0.122921 0.424673
Si Si5 0.168258 0.057306 0.199978
O O1 0.477985 0.334385 0.732646
O O2 0.725242 0.579855 0.709844
O O3 0.721441 0.090633 0.369752
O O4 0.345854 0.045205 0.896739
O O5 0.710812 0.538242 0.107227
O O6 0.968328 0.921205 0.859487
O O7 0.384917 0.031946 0.327424
O O8 0.500000 0.000000 0.000000
O O9 0.806990 0.113616 0.828937
O O10 0.940452 0.976742 0.378847
O O11 0.000000 0.500000 0.500000
#
# Coordination Sequence:
#
# PCOD9008281 Si02
#       5
#     2   2   2   2   2
#     4   9  18  39  64  88 128 164 200 260 307 359
#     4  10  21  39  64  92 126 162 205 258 307 363
#     4  12  22  41  65  92 126 163 206 260 306 362
#     4  11  22  41  66  92 123 167 207 250 313 371
#     4  10  21  40  66  92 123 165 209 251 308 374
#
# _framework density 25.226174
#
# number of rings (size 3 to 8) (size 9 to 14) (size 15 to 20)
#    0.000    1.600    4.000    2.400    0.000    1.600 
#    0.000   13.000    0.000    2.400    0.000    0.000 
#    0.000    0.000    0.000    0.000    0.000    0.000 
#
# Total GULP energy -56047.478242 kJ/mol
# GULP energy per Si atom -5604.747824 kJ/mol
# Density = 2.516876 g / cm^3
# Si number density = 25.226174 Si / 1000 Ang^3
#
#
#
# Elastic Constant Matrix: (Units=GPa)
#
#
# Indices 1 2 3 4 5 6 
#
# 1 122.6345 33.3108 30.8317 14.6941 -46.3129 -20.5293
# 2 33.3108 56.2897 32.5941 -1.9727 -3.7354 -21.9481
# 3 30.8317 32.5941 155.2433 2.0927 13.3402 -0.3623
# 4 14.6941 -1.9727 2.0927 35.7268 -0.9223 -4.7868
# 5 -46.3129 -3.7354 13.3402 -0.9223 53.9411 7.3878
# 6 -20.5293 -21.9481 -0.3623 -4.7868 7.3878 36.4732
#
#
#
# Elastic Compliance Matrix: (Units=1/GPa)
#
#
# Indices 1 2 3 4 5 6 
#
# 1 0.017785 -0.007263 -0.003218 -0.006918 0.015223 0.001616
# 2 -0.007263 0.031176 -0.004725 0.007076 -0.005058 0.016579
# 3 -0.003218 -0.004725 0.008468 -0.000040 -0.004689 -0.003626
# 4 -0.006918 0.007076 -0.000040 0.031845 -0.005675 0.005693
# 5 0.015223 -0.005058 -0.004689 -0.005675 0.032577 -0.001865
# 6 0.001616 0.016579 -0.003626 0.005693 -0.001865 0.039392
#
#
# Mechanical properties :
#
#
# Convention : Reuss Voigt Hill
#
# Bulk Modulus (GPa) = 37.01587 58.62674 47.82130
# Shear Modulus (GPa) = 24.91776 41.05693 32.98735
#
# Velocity S-wave (km/s) = 3.14630 4.03867 3.62009
# Velocity P-wave (km/s) = 5.28246 6.71109 6.03917
#
# Compressibility (1/GPa) = 0.02701544
#
# Stress axis : x y z
#
# Youngs Moduli (GPa) = 56.22829 32.07597 118.09593
#
# Poissons Ratio (x) = 0.23297 0.38006
# Poissons Ratio (y) = 0.40839 0.55802
# Poissons Ratio (z) = 0.18096 0.15156
#
# Static dielectric constant tensor:
#      x y z
#    x 2.048420 -0.032400 0.026850 
#    y -0.032400 1.933960 -0.020420 
#    z 0.026850 -0.020420 1.948150 
# 
# From -- ./inp_files/144010.got.cif
#   From: 2010.05.17/outbox.cif.g08.bks.cpg/sg2_73_cif.got.tgz:144010.got - 2010.06.03 11:33:40.
