data_PCOD9008018
_publ_section_title
;
Structure prediction by ZEFSAII (Michael W. Deem and Ramdas Pophale) SiO2 
 PCOD9008018
Probable space group: P -1
;
_chemical_formula_sum "Si O2"
_cell_formula_units_Z 16
_cell_length_a 18.190827
_cell_length_b 8.841740
_cell_length_c 8.642756
_cell_angle_alpha 137.026427
_cell_angle_beta 106.692984
_cell_angle_gamma 53.901908
_cell_volume 739.077476
_symmetry_space_group_name_H-M "P -1"
_symmetry_group_IT_number 2
_symmetry_cell_setting 'triclinic'
loop_
_space_group_symop_operation_xyz
x,y,z
-x,-y,-z
loop_
_atom_site_type_symbol
_atom_site_label
_atom_site_fract_x
_atom_site_fract_y
_atom_site_fract_z
Si Si1 0.907082 0.493959 0.940067
Si Si2 0.399644 0.736320 0.186232
Si Si3 0.271233 0.805624 0.928846
Si Si4 0.462971 0.760414 0.567783
Si Si5 0.900522 0.567022 0.653967
Si Si6 0.305416 0.116119 0.960896
Si Si7 0.347109 0.291126 0.416750
Si Si8 0.055915 0.680187 0.826325
O O1 0.910245 0.355512 0.000765
O O2 0.000000 0.500000 0.000000
O O3 0.907945 0.405737 0.694657
O O4 0.798196 0.763393 0.079138
O O5 0.411267 0.737210 0.374470
O O6 0.365115 0.032315 0.323715
O O7 0.500000 0.500000 0.000000
O O8 0.323616 0.694755 0.040521
O O9 0.179265 0.109373 0.126340
O O10 0.332182 0.855477 0.884601
O O11 0.273225 0.569090 0.669368
O O12 0.500000 0.500000 0.500000
O O13 0.384533 0.025660 0.814707
O O14 0.550920 0.762939 0.572172
O O15 0.886096 0.466717 0.407338
O O16 0.993932 0.559787 0.702420
O O17 0.308551 0.303581 0.231498
O O18 0.000000 0.000000 0.000000
#
# Coordination Sequence:
#
# PCOD9008018 Si02
#       8
#     2   2   2   2   2   2   2   2
#     4   9  20  42  66  89 130 169 209 265 327 382
#     4  11  23  39  61  89 122 168 215 254 323 382
#     4  10  21  41  62  87 121 168 210 257 318 387
#     4  12  22  40  62  91 129 167 212 272 314 375
#     4   9  21  40  62  88 123 164 203 259 322 382
#     4  10  22  39  63  94 122 166 216 261 324 384
#     4  11  22  42  62  88 131 167 212 261 323 386
#     4  10  21  39  63  94 122 157 210 264 321 379
#
# _framework density 21.648610000000001
#
# number of rings (size 3 to 8) (size 9 to 14) (size 15 to 20)
#    0.000    1.750    2.500    1.500    1.750    3.500 
#    0.000    7.500    0.000    0.000    0.000    0.000 
#    0.000    0.000    0.000    0.000    0.000    0.000 
#
# Total GULP energy -89074.197070 kJ/mol
# GULP energy per Si atom -5567.137317 kJ/mol
# Density = 2.159934 g / cm^3
# Si number density = 21.648610 Si / 1000 Ang^3
#
#
#
# Elastic Constant Matrix: (Units=GPa)
#
#
# Indices 1 2 3 4 5 6 
#
# 1 62.0672 9.1054 24.6831 -13.3375 -7.6054 -10.0530
# 2 9.1054 126.2003 68.6442 -33.2374 -17.0116 3.1990
# 3 24.6831 68.6442 169.4018 -14.3099 -27.5649 4.5909
# 4 -13.3375 -33.2374 -14.3099 41.6830 3.9719 -1.8906
# 5 -7.6054 -17.0116 -27.5649 3.9719 22.7293 -2.8979
# 6 -10.0530 3.1990 4.5909 -1.8906 -2.8979 30.3053
#
#
#
# Elastic Compliance Matrix: (Units=1/GPa)
#
#
# Indices 1 2 3 4 5 6 
#
# 1 0.020306 0.002437 -0.002716 0.007384 0.005033 0.007832
# 2 0.002437 0.013023 -0.004229 0.009385 0.003926 0.001035
# 3 -0.002716 -0.004229 0.009036 -0.001868 0.007050 -0.001266
# 4 0.007384 0.009385 -0.001868 0.033192 0.001939 0.003998
# 5 0.005033 0.003926 0.007050 0.001939 0.057571 0.005813
# 6 0.007832 0.001035 -0.001266 0.003998 0.005813 0.036483
#
#
# Mechanical properties :
#
#
# Convention : Reuss Voigt Hill
#
# Bulk Modulus (GPa) = 29.98526 62.50386 46.24456
# Shear Modulus (GPa) = 26.35147 35.95928 31.15538
#
# Velocity S-wave (km/s) = 3.49268 4.08001 3.79772
# Velocity P-wave (km/s) = 5.49054 7.15052 6.37479
#
# Compressibility (1/GPa) = 0.03334972
#
# Stress axis : x y z
#
# Youngs Moduli (GPa) = 49.24645 76.78795 110.66916
#
# Poissons Ratio (x) = -0.18710 0.30054
# Poissons Ratio (y) = -0.11999 0.46797
# Poissons Ratio (z) = 0.13374 0.32470
#
# Static dielectric constant tensor:
#      x y z
#    x 1.846450 -0.020640 -0.056440 
#    y -0.020640 1.803730 0.011130 
#    z -0.056440 0.011130 2.149830 
# 
# From -- ./inp_files/343037.got.cif
#   From: 2010.05.17/outbox.cif.g08.bks.cpg/sg2_172_cif.got.tgz:343037.got - 2010.06.03 11:33:40.
