data_PCOD9008813
_publ_section_title
;
Structure prediction by ZEFSAII (Michael W. Deem and Ramdas Pophale) SiO2 
 PCOD9008813
Probable space group: P -1
;
_chemical_formula_sum "Si O2"
_cell_formula_units_Z 15
_cell_length_a 8.976470
_cell_length_b 11.496039
_cell_length_c 11.921634
_cell_angle_alpha 122.188747
_cell_angle_beta 143.831268
_cell_angle_gamma 63.378151
_cell_volume 614.048306
_symmetry_space_group_name_H-M "P -1"
_symmetry_group_IT_number 2
_symmetry_cell_setting 'triclinic'
loop_
_space_group_symop_operation_xyz
x,y,z
-x,-y,-z
loop_
_atom_site_type_symbol
_atom_site_label
_atom_site_fract_x
_atom_site_fract_y
_atom_site_fract_z
Si Si1 0.863727 0.166871 0.592525
Si Si2 0.980686 0.551974 0.139368
Si Si3 0.478685 0.641186 0.993523
Si Si4 0.326889 0.046574 0.221667
Si Si5 0.088432 0.343971 0.297508
Si Si6 0.155267 0.221917 0.577262
Si Si7 0.965449 0.009669 0.786115
Si Si8 0.000000 0.500000 0.500000
O O1 0.613863 0.081045 0.399188
O O2 0.817682 0.330353 0.659383
O O3 0.002711 0.154759 0.552166
O O4 0.005953 0.118279 0.767821
O O5 0.703294 0.626092 0.032163
O O6 0.029345 0.428691 0.193014
O O7 0.000000 0.500000 0.000000
O O8 0.565565 0.758938 0.191606
O O9 0.500000 0.500000 0.000000
O O10 0.180353 0.647903 0.786236
O O11 0.188068 0.194804 0.245291
O O12 0.206391 0.995474 0.006733
O O13 0.255571 0.956448 0.240390
O O14 0.233923 0.426684 0.523131
O O15 0.051980 0.375527 0.565020
O O16 0.113577 0.126635 0.396838
#
# Coordination Sequence:
#
# PCOD9008813 Si02
#       8
#     2   2   2   2   2   2   2   1
#     4  11  24  46  64  99 135 171 222 272 335 386
#     4  10  21  39  65  99 133 170 214 273 337 388
#     4   9  19  39  65  92 125 170 217 258 325 395
#     4  11  26  44  68  99 130 178 223 271 332 392
#     4  11  22  42  64  97 131 170 219 267 323 395
#     4  11  23  44  69  97 128 173 222 272 331 393
#     4  11  25  46  66  93 133 177 227 268 325 398
#     4  12  20  42  66  98 132 164 220 270 324 400
#
# _framework density 24.428044
#
# number of rings (size 3 to 8) (size 9 to 14) (size 15 to 20)
#    0.000    1.333    5.333    1.600    0.000    7.467 
#    7.200    0.000    0.000    0.000    0.000    0.000 
#    0.000    0.000    0.000    0.000    0.000    0.000 
#
# Total GULP energy -83609.198855 kJ/mol
# GULP energy per Si atom -5573.946590 kJ/mol
# Density = 2.437244 g / cm^3
# Si number density = 24.428044 Si / 1000 Ang^3
#
#
#
# Elastic Constant Matrix: (Units=GPa)
#
#
# Indices 1 2 3 4 5 6 
#
# 1 133.0316 39.9568 56.7982 -6.9933 -34.7022 24.3957
# 2 39.9568 92.8648 9.8257 -7.3958 -7.3925 13.0307
# 3 56.7982 9.8257 98.2698 4.7959 -17.8451 11.5201
# 4 -6.9933 -7.3958 4.7959 34.5714 2.2896 -9.7522
# 5 -34.7022 -7.3925 -17.8451 2.2896 48.3860 5.9172
# 6 24.3957 13.0307 11.5201 -9.7522 5.9172 47.0999
#
#
#
# Elastic Compliance Matrix: (Units=1/GPa)
#
#
# Indices 1 2 3 4 5 6 
#
# 1 0.014508 -0.004089 -0.005809 0.000658 0.008325 -0.005872
# 2 -0.004089 0.012666 0.001090 0.001398 -0.000502 -0.001300
# 3 -0.005809 0.001090 0.014068 -0.003461 0.001554 -0.001646
# 4 0.000658 0.001398 -0.003461 0.032046 -0.002979 0.007128
# 5 0.008325 -0.000502 0.001554 -0.002979 0.028343 -0.008731
# 6 -0.005872 -0.001300 -0.001646 0.007128 -0.008731 0.027608
#
#
# Mechanical properties :
#
#
# Convention : Reuss Voigt Hill
#
# Bulk Modulus (GPa) = 42.32324 59.70307 51.01315
# Shear Modulus (GPa) = 32.31414 40.51718 36.41566
#
# Velocity S-wave (km/s) = 3.64102 4.07705 3.86519
# Velocity P-wave (km/s) = 5.91940 6.83056 6.39124
#
# Compressibility (1/GPa) = 0.02362768
#
# Stress axis : x y z
#
# Youngs Moduli (GPa) = 68.92618 78.95102 71.08135
#
# Poissons Ratio (x) = 0.32281 0.41288
# Poissons Ratio (y) = 0.28182 -0.07746
# Poissons Ratio (z) = 0.40036 -0.08604
#
# Static dielectric constant tensor:
#      x y z
#    x 1.895500 0.012960 0.174280 
#    y 0.012960 1.927590 -0.232680 
#    z 0.174280 -0.232680 1.486000 
# 
# From -- ./inp_files/391233.got.cif
#   From: 2010.05.17/outbox.cif.g08.bks.cpg/sg2_196_cif.got.tgz:391233.got - 2010.06.03 11:33:40.
