data_PCOD9008894
_publ_section_title
;
Structure prediction by ZEFSAII (Michael W. Deem and Ramdas Pophale) SiO2 
 PCOD9008894
Probable space group: P -1
;
_chemical_formula_sum "Si O2"
_cell_formula_units_Z 16
_cell_length_a 8.031069
_cell_length_b 17.331690
_cell_length_c 10.075459
_cell_angle_alpha 131.464159
_cell_angle_beta 133.598210
_cell_angle_gamma 46.648153
_cell_volume 689.439064
_symmetry_space_group_name_H-M "P -1"
_symmetry_group_IT_number 2
_symmetry_cell_setting 'triclinic'
loop_
_space_group_symop_operation_xyz
x,y,z
-x,-y,-z
loop_
_atom_site_type_symbol
_atom_site_label
_atom_site_fract_x
_atom_site_fract_y
_atom_site_fract_z
Si Si1 0.770281 0.247727 0.517126
Si Si2 0.761721 0.119384 0.985898
Si Si3 0.606242 0.506997 0.419633
Si Si4 0.998612 0.725693 0.608809
Si Si5 0.484538 0.232968 0.719607
Si Si6 0.489952 0.123084 0.114208
Si Si7 0.216483 0.471791 0.977068
Si Si8 0.059798 0.712699 0.069638
O O1 0.499260 0.358954 0.507961
O O2 0.688244 0.144988 0.343275
O O3 0.948307 0.252062 0.739045
O O4 0.901391 0.257051 0.462242
O O5 0.580564 0.137103 0.032085
O O6 0.871334 0.214968 0.157619
O O7 0.607722 0.134305 0.782749
O O8 0.000000 0.000000 0.000000
O O9 0.500000 0.500000 0.500000
O O10 0.456613 0.469639 0.185774
O O11 0.889674 0.409629 0.457886
O O12 0.695276 0.786560 0.509200
O O13 0.708665 0.260939 0.820280
O O14 0.293403 0.349489 0.818133
O O15 0.199421 0.215197 0.066144
O O16 0.500000 0.000000 0.000000
O O17 0.127562 0.578789 0.950884
O O18 0.000000 0.500000 0.000000
#
# Coordination Sequence:
#
# PCOD9008894 Si02
#       8
#     2   2   2   2   2   2   2   2
#     4   9  21  40  62  93 121 165 214 256 315 376
#     4  11  24  44  68  94 125 167 221 264 314 380
#     4   9  17  34  60  94 120 157 209 256 309 372
#     4  10  21  39  66  91 125 165 215 261 313 379
#     4  12  24  40  62  96 132 167 206 264 324 379
#     4  11  24  43  68  92 123 171 214 264 316 374
#     4  11  21  38  64  92 130 170 213 259 312 382
#     4  11  25  40  60  96 133 164 208 260 322 382
#
# _framework density 23.207270999999999
#
# number of rings (size 3 to 8) (size 9 to 14) (size 15 to 20)
#    0.000    1.500    1.250    4.875    5.250    3.000 
#    0.000    1.250    0.000    0.000    0.000    0.000 
#    0.000    0.000    0.000    0.000    0.000    0.000 
#
# Total GULP energy -89477.091440 kJ/mol
# GULP energy per Si atom -5592.318215 kJ/mol
# Density = 2.315445 g / cm^3
# Si number density = 23.207271 Si / 1000 Ang^3
#
#
#
# Elastic Constant Matrix: (Units=GPa)
#
#
# Indices 1 2 3 4 5 6 
#
# 1 63.5292 0.3465 -8.7341 -7.1444 19.4041 -6.4089
# 2 0.3465 103.6560 13.2452 -11.3058 17.9741 -2.1706
# 3 -8.7341 13.2452 68.0545 -2.0771 19.6304 6.5493
# 4 -7.1444 -11.3058 -2.0771 35.6080 1.2080 8.1797
# 5 19.4041 17.9741 19.6304 1.2080 32.1214 -3.8527
# 6 -6.4089 -2.1706 6.5493 8.1797 -3.8527 29.2710
#
#
#
# Elastic Compliance Matrix: (Units=1/GPa)
#
#
# Indices 1 2 3 4 5 6 
#
# 1 0.024945 0.003579 0.009693 0.007905 -0.023502 -0.001744
# 2 0.003579 0.011715 0.001323 0.005170 -0.009887 -0.001390
# 3 0.009693 0.001323 0.022840 0.006146 -0.021680 -0.007461
# 4 0.007905 0.005170 0.006146 0.034622 -0.014019 -0.010781
# 5 -0.023502 -0.009887 -0.021680 -0.014019 0.066027 0.011580
# 6 -0.001744 -0.001390 -0.007461 -0.010781 0.011580 0.039885
#
#
# Mechanical properties :
#
#
# Convention : Reuss Voigt Hill
#
# Bulk Modulus (GPa) = 11.27523 27.21721 19.24622
# Shear Modulus (GPa) = 24.94908 34.75889 29.85399
#
# Velocity S-wave (km/s) = 3.28236 3.87429 3.59054
# Velocity P-wave (km/s) = 4.38568 5.63621 5.04980
#
# Compressibility (1/GPa) = 0.08869002
#
# Stress axis : x y z
#
# Youngs Moduli (GPa) = 40.08777 85.35717 43.78300
#
# Poissons Ratio (x) = -0.30549 -0.42440
# Poissons Ratio (y) = -0.14347 -0.05791
# Poissons Ratio (z) = -0.38858 -0.11289
#
# Static dielectric constant tensor:
#      x y z
#    x 1.887320 -0.002290 -0.028340 
#    y -0.002290 1.862060 0.001760 
#    z -0.028340 0.001760 1.900210 
# 
# From -- ./inp_files/273805.got.cif
#   From: 2010.05.17/outbox.cif.g08.bks.cpg/sg2_137_cif.got.tgz:273805.got - 2010.06.03 11:33:40.
