data_PCOD9008108
_publ_section_title
;
Structure prediction by ZEFSAII (Michael W. Deem and Ramdas Pophale) SiO2 
 PCOD9008108
Probable space group: P -1
;
_chemical_formula_sum "Si O2"
_cell_formula_units_Z 14
_cell_length_a 5.141837
_cell_length_b 27.054504
_cell_length_c 11.147365
_cell_angle_alpha 156.709086
_cell_angle_beta 75.020022
_cell_angle_gamma 104.885746
_cell_volume 591.542280
_symmetry_space_group_name_H-M "P -1"
_symmetry_group_IT_number 2
_symmetry_cell_setting 'triclinic'
loop_
_space_group_symop_operation_xyz
x,y,z
-x,-y,-z
loop_
_atom_site_type_symbol
_atom_site_label
_atom_site_fract_x
_atom_site_fract_y
_atom_site_fract_z
Si Si1 0.346521 0.613085 0.628706
Si Si2 0.721586 0.111793 0.722460
Si Si3 0.151538 0.972878 0.735450
Si Si4 0.726656 0.127500 0.017723
Si Si5 0.843349 0.477155 0.286528
Si Si6 0.496229 0.348323 0.665606
Si Si7 0.914259 0.262943 0.617802
O O1 0.597752 0.539676 0.389850
O O2 0.262473 0.565962 0.666779
O O3 0.084821 0.577990 0.504143
O O4 0.421461 0.757848 0.960010
O O5 0.869650 0.103979 0.560296
O O6 0.500000 0.000000 0.500000
O O7 0.865241 0.111020 0.833641
O O8 0.107139 0.875097 0.630459
O O9 0.447671 0.041851 0.862287
O O10 0.926164 0.074369 0.974026
O O11 0.646197 0.268719 0.368696
O O12 0.936155 0.359377 0.941259
O O13 0.652824 0.300277 0.657544
O O14 0.187725 0.295579 0.585644
O O15 0.500000 0.500000 0.000000
#
# Coordination Sequence:
#
# PCOD9008108 Si02
#       7
#     2   2   2   2   2   2   2
#     4  10  21  39  63  99 139 169 227 265 351 401
#     4  10  23  44  68 104 142 181 217 282 345 414
#     4  11  24  46  72 107 132 176 235 282 348 400
#     4  11  26  44  70  99 144 184 225 281 339 407
#     4  10  22  38  65 100 129 178 216 289 330 395
#     4  12  29  49  69 102 136 186 231 278 345 407
#     4  12  25  46  75  97 141 175 235 290 329 400
#
# _framework density 23.666944999999998
#
# number of rings (size 3 to 8) (size 9 to 14) (size 15 to 20)
#    0.000    1.143    1.429    3.429    4.000    8.000 
#    0.000    0.000    0.000    0.000    0.000    0.000 
#    0.000    0.000    0.000    0.000    0.000    0.000 
#
# Total GULP energy -78313.195896 kJ/mol
# GULP energy per Si atom -5593.799707 kJ/mol
# Density = 2.361308 g / cm^3
# Si number density = 23.666945 Si / 1000 Ang^3
#
#
#
# Elastic Constant Matrix: (Units=GPa)
#
#
# Indices 1 2 3 4 5 6 
#
# 1 98.9270 23.6227 25.5667 17.0384 -7.2009 -6.8659
# 2 23.6227 93.5405 51.2590 20.8962 0.0853 -9.3167
# 3 25.5667 51.2590 139.8337 12.0758 -3.1596 1.3470
# 4 17.0384 20.8962 12.0758 50.0253 -2.7110 -1.9034
# 5 -7.2009 0.0853 -3.1596 -2.7110 36.1627 3.4097
# 6 -6.8659 -9.3167 1.3470 -1.9034 3.4097 20.7615
#
#
#
# Elastic Compliance Matrix: (Units=1/GPa)
#
#
# Indices 1 2 3 4 5 6 
#
# 1 0.011584 -0.001228 -0.001407 -0.002893 0.001703 0.002826
# 2 -0.001228 0.015557 -0.005179 -0.004665 -0.001722 0.006766
# 3 -0.001407 -0.005179 0.009335 0.000304 0.000902 -0.003515
# 4 -0.002893 -0.004665 0.000304 0.022875 0.001288 -0.001184
# 5 0.001703 -0.001722 0.000902 0.001288 0.028629 -0.004851
# 6 0.002826 0.006766 -0.003515 -0.001184 -0.004851 0.053053
#
#
# Mechanical properties :
#
#
# Convention : Reuss Voigt Hill
#
# Bulk Modulus (GPa) = 47.96857 59.24423 53.60640
# Shear Modulus (GPa) = 30.56058 36.84676 33.70367
#
# Velocity S-wave (km/s) = 3.59733 3.95002 3.77780
# Velocity P-wave (km/s) = 6.12916 6.77424 6.45976
#
# Compressibility (1/GPa) = 0.02084698
#
# Stress axis : x y z
#
# Youngs Moduli (GPa) = 86.32864 64.28160 107.12356
#
# Poissons Ratio (x) = 0.07897 0.15067
# Poissons Ratio (y) = 0.10605 0.55481
# Poissons Ratio (z) = 0.12142 0.33292
#
# Static dielectric constant tensor:
#      x y z
#    x 1.843260 -0.043810 -0.018410 
#    y -0.043810 1.916450 -0.044980 
#    z -0.018410 -0.044980 1.883470 
# 
# From -- ./inp_files/371574.got.cif
#   From: 2010.05.17/outbox.cif.g08.bks.cpg/sg2_186_cif.got.tgz:371574.got - 2010.06.03 11:33:40.
