data_PCOD9008127
_publ_section_title
;
Structure prediction by ZEFSAII (Michael W. Deem and Ramdas Pophale) SiO2 
 PCOD9008127
Probable space group: P -1
;
_chemical_formula_sum "Si O2"
_cell_formula_units_Z 16
_cell_length_a 25.184617
_cell_length_b 5.575579
_cell_length_c 15.813525
_cell_angle_alpha 87.055647
_cell_angle_beta 17.108011
_cell_angle_gamma 83.889664
_cell_volume 639.805297
_symmetry_space_group_name_H-M "P -1"
_symmetry_group_IT_number 2
_symmetry_cell_setting 'triclinic'
loop_
_space_group_symop_operation_xyz
x,y,z
-x,-y,-z
loop_
_atom_site_type_symbol
_atom_site_label
_atom_site_fract_x
_atom_site_fract_y
_atom_site_fract_z
Si Si1 0.732185 0.002053 0.725436
Si Si2 0.896293 0.061446 0.745191
Si Si3 0.768999 0.657519 0.064331
Si Si4 0.553503 0.537078 0.532501
Si Si5 0.807917 0.509823 0.524414
Si Si6 0.247952 0.924227 0.706042
Si Si7 0.087944 0.676435 0.803356
Si Si8 0.458946 0.820742 0.813518
O O1 0.745182 0.262496 0.658104
O O2 0.935089 0.887714 0.456622
O O3 0.699836 0.771975 0.721289
O O4 0.597016 0.088307 0.009413
O O5 0.814602 0.864089 0.928001
O O6 0.000000 0.000000 0.500000
O O7 0.716855 0.218185 0.972096
O O8 0.633758 0.732301 0.349361
O O9 0.638424 0.507221 0.213363
O O10 0.974350 0.526526 0.783204
O O11 0.706942 0.289771 0.290700
O O12 0.583716 0.578579 0.586993
O O13 0.794597 0.487550 0.444026
O O14 0.181065 0.849078 0.717402
O O15 0.445305 0.981167 0.380628
O O16 0.081627 0.135999 0.985284
O O17 0.000000 0.500000 0.000000
#
# Coordination Sequence:
#
# PCOD9008127 Si02
#       8
#     2   2   2   2   2   2   2   2
#     4  10  25  41  70 100 142 188 236 285 339 418
#     4   9  19  39  63  97 140 193 231 275 332 418
#     4  10  21  39  64 104 144 179 233 284 355 412
#     4  11  23  39  66 104 142 179 224 294 354 422
#     4  11  24  45  69 103 138 185 235 291 344 416
#     4  11  24  43  71  98 133 178 227 293 350 431
#     4  11  26  47  73  97 128 177 235 292 363 419
#     4  11  22  41  64  99 138 186 230 279 348 416
#
# _framework density 25.007608000000001
#
# number of rings (size 3 to 8) (size 9 to 14) (size 15 to 20)
#    0.000    1.500    1.250    3.000    7.000    0.500 
#    2.250    6.250    0.000    0.000    0.000    0.000 
#    0.000    0.000    0.000    0.000    0.000    0.000 
#
# Total GULP energy -89070.083054 kJ/mol
# GULP energy per Si atom -5566.880191 kJ/mol
# Density = 2.495069 g / cm^3
# Si number density = 25.007608 Si / 1000 Ang^3
#
#
#
# Elastic Constant Matrix: (Units=GPa)
#
#
# Indices 1 2 3 4 5 6 
#
# 1 98.9782 38.9358 32.0979 13.3258 33.4465 35.7092
# 2 38.9358 82.6681 19.8191 24.0297 33.7714 21.8682
# 3 32.0979 19.8191 79.9067 3.0399 25.9208 12.7289
# 4 13.3258 24.0297 3.0399 10.7499 -7.7741 11.4445
# 5 33.4465 33.7714 25.9208 -7.7741 52.1549 11.7479
# 6 35.7092 21.8682 12.7289 11.4445 11.7479 44.7681
#
#
#
# Elastic Compliance Matrix: (Units=1/GPa)
#
#
# Indices 1 2 3 4 5 6 
#
# 1 0.016411 -0.009062 -0.003730 0.015565 0.002260 -0.012175
# 2 -0.009062 -0.011174 -0.003358 0.069034 0.027536 -0.011232
# 3 -0.003730 -0.003358 0.015223 0.008380 -0.001416 -0.001483
# 4 0.015565 0.069034 0.008380 -0.162233 -0.086559 0.015668
# 5 0.002260 0.027536 -0.001416 -0.086559 -0.014820 0.011166
# 6 -0.012175 -0.011232 -0.001483 0.015668 0.011166 0.031022
#
#
# Mechanical properties :
#
#
# Convention : Reuss Voigt Hill
#
# Bulk Modulus (GPa) = -84.45201 49.25097 -17.60052
# Shear Modulus (GPa) = -51.43026 32.91459 -9.25784
#
# Velocity S-wave (km/s) = -4.53988 3.63186 -1.92615
# Velocity P-wave (km/s) = 7.83100 6.10937 3.46411
#
# Compressibility (1/GPa) = -0.01184104
#
# Stress axis : x y z
#
# Youngs Moduli (GPa) = 60.93497 -89.48981 65.69143
#
# Poissons Ratio (x) = -0.81098 0.24505
# Poissons Ratio (y) = 0.55221 0.22056
# Poissons Ratio (z) = 0.22731 -0.30046
#
# Static dielectric constant tensor:
#      x y z
#    x 1.866020 -0.098420 -0.349010 
#    y -0.098420 1.843090 -0.382950 
#    z -0.349010 -0.382950 1.366720 
# 
# From -- ./inp_files/542160.got.cif
#   From: 2010.05.17/outbox.cif.g08.bks.cpg/sg2_272_cif.got.tgz:542160.got - 2010.06.03 11:33:40.
