data_PCOD9008689
_publ_section_title
;
Structure prediction by ZEFSAII (Michael W. Deem and Ramdas Pophale) SiO2 
 PCOD9008689
Probable space group: P -1
;
_chemical_formula_sum "Si O2"
_cell_formula_units_Z 16
_cell_length_a 11.236426
_cell_length_b 22.881593
_cell_length_c 6.438964
_cell_angle_alpha 107.295589
_cell_angle_beta 58.189218
_cell_angle_gamma 146.276098
_cell_volume 745.309388
_symmetry_space_group_name_H-M "P -1"
_symmetry_group_IT_number 2
_symmetry_cell_setting 'triclinic'
loop_
_space_group_symop_operation_xyz
x,y,z
-x,-y,-z
loop_
_atom_site_type_symbol
_atom_site_label
_atom_site_fract_x
_atom_site_fract_y
_atom_site_fract_z
Si Si1 0.804849 0.435444 0.803344
Si Si2 0.040649 0.951657 0.665221
Si Si3 0.411893 0.030360 0.724244
Si Si4 0.547318 0.684561 0.354796
Si Si5 0.404616 0.171409 0.301621
Si Si6 0.132269 0.461240 0.757988
Si Si7 0.819147 0.236875 0.803178
Si Si8 0.087997 0.861452 0.198828
O O1 0.540767 0.339817 0.826862
O O2 0.000000 0.500000 0.500000
O O3 0.884547 0.407868 0.845621
O O4 0.831492 0.503774 0.000698
O O5 0.046012 0.892065 0.460007
O O6 0.756368 0.872838 0.807428
O O7 0.180482 0.982326 0.778829
O O8 0.216228 0.066628 0.517389
O O9 0.655296 0.161915 0.669869
O O10 0.500000 0.000000 0.500000
O O11 0.313732 0.972269 0.976212
O O12 0.518819 0.738234 0.560142
O O13 0.367000 0.571270 0.523065
O O14 0.836385 0.770984 0.196845
O O15 0.637772 0.212699 0.085146
O O16 0.070437 0.368040 0.682651
O O17 0.869117 0.190784 0.816680
#
# Coordination Sequence:
#
# PCOD9008689 Si02
#       8
#     2   2   2   2   2   2   2   2
#     4   9  18  39  62  91 126 159 204 256 311 364
#     4  10  22  42  61  96 128 160 206 255 319 371
#     4  12  24  41  66  91 125 171 209 250 315 381
#     4  10  23  42  66  90 127 166 203 259 310 374
#     4  10  21  39  65  94 130 158 201 267 307 364
#     4  10  22  39  62  94 125 161 208 258 310 365
#     4  12  23  40  66  91 127 168 206 260 306 366
#     4  11  24  45  62  89 131 166 205 262 313 363
#
# _framework density 21.467597000000001
#
# number of rings (size 3 to 8) (size 9 to 14) (size 15 to 20)
#    0.000    1.500    2.500    3.375    1.750    4.000 
#    4.500    0.625    0.000    0.000    0.000    0.000 
#    0.000    0.000    0.000    0.000    0.000    0.000 
#
# Total GULP energy -89408.567296 kJ/mol
# GULP energy per Si atom -5588.035456 kJ/mol
# Density = 2.141874 g / cm^3
# Si number density = 21.467597 Si / 1000 Ang^3
#
#
#
# Elastic Constant Matrix: (Units=GPa)
#
#
# Indices 1 2 3 4 5 6 
#
# 1 94.6596 38.9866 9.4352 9.3050 9.9477 5.0913
# 2 38.9866 130.8784 15.3527 5.9286 14.1005 -6.0107
# 3 9.4352 15.3527 32.4180 7.2629 1.1892 -1.5117
# 4 9.3050 5.9286 7.2629 29.5425 6.4751 10.4660
# 5 9.9477 14.1005 1.1892 6.4751 27.7831 3.8732
# 6 5.0913 -6.0107 -1.5117 10.4660 3.8732 42.0565
#
#
#
# Elastic Compliance Matrix: (Units=1/GPa)
#
#
# Indices 1 2 3 4 5 6 
#
# 1 0.012575 -0.003300 -0.001648 -0.001943 -0.002112 -0.001375
# 2 -0.003300 0.009510 -0.003331 0.000085 -0.003796 0.001967
# 3 -0.001648 -0.003331 0.034973 -0.009012 0.002467 0.002996
# 4 -0.001943 0.000085 -0.009012 0.041733 -0.007324 -0.009787
# 5 -0.002112 -0.003796 0.002467 -0.007324 0.040572 -0.002112
# 6 -0.001375 0.001967 0.002996 -0.009787 -0.002112 0.026963
#
#
# Mechanical properties :
#
#
# Convention : Reuss Voigt Hill
#
# Bulk Modulus (GPa) = 24.69256 42.83388 33.76322
# Shear Modulus (GPa) = 25.46038 32.82185 29.14111
#
# Velocity S-wave (km/s) = 3.44756 3.91436 3.68835
# Velocity P-wave (km/s) = 5.23209 6.35812 5.82239
#
# Compressibility (1/GPa) = 0.04049802
#
# Stress axis : x y z
#
# Youngs Moduli (GPa) = 79.52581 105.15249 28.59367
#
# Poissons Ratio (x) = 0.34700 0.04713
# Poissons Ratio (y) = 0.26243 0.09526
# Poissons Ratio (z) = 0.13108 0.35030
#
# Static dielectric constant tensor:
#      x y z
#    x 1.792040 0.032040 0.014740 
#    y 0.032040 1.813400 -0.001750 
#    z 0.014740 -0.001750 1.772550 
# 
# From -- ./inp_files/84423.got.cif
#   From: 2010.05.17/outbox.cif.g08.bks.cpg/sg2_43_cif.got.tgz:84423.got - 2010.06.03 11:33:40.
