data_PCOD9008532
_publ_section_title
;
Structure prediction by ZEFSAII (Michael W. Deem and Ramdas Pophale) SiO2 
 PCOD9008532
Probable space group: P -1
;
_chemical_formula_sum "Si O2"
_cell_formula_units_Z 16
_cell_length_a 18.257743
_cell_length_b 10.019003
_cell_length_c 17.210003
_cell_angle_alpha 29.255815
_cell_angle_beta 142.718402
_cell_angle_gamma 142.725943
_cell_volume 875.360294
_symmetry_space_group_name_H-M "P -1"
_symmetry_group_IT_number 2
_symmetry_cell_setting 'triclinic'
loop_
_space_group_symop_operation_xyz
x,y,z
-x,-y,-z
loop_
_atom_site_type_symbol
_atom_site_label
_atom_site_fract_x
_atom_site_fract_y
_atom_site_fract_z
Si Si1 0.975743 0.156855 0.641928
Si Si2 0.691263 0.679578 0.663601
Si Si3 0.261782 0.529379 0.349317
Si Si4 0.071010 0.879687 0.003728
Si Si5 0.524929 0.225642 0.475704
Si Si6 0.923816 0.083878 0.461717
Si Si7 0.160814 0.398787 0.934924
Si Si8 0.413972 0.669795 0.102941
O O1 0.997802 0.121019 0.587358
O O2 0.000000 0.500000 0.500000
O O3 0.829077 0.936300 0.644549
O O4 0.055956 0.037437 0.831207
O O5 0.665126 0.501476 0.651788
O O6 0.672353 0.436537 0.838008
O O7 0.589781 0.830337 0.529427
O O8 0.148258 0.657436 0.170695
O O9 0.348186 0.715608 0.396572
O O10 0.203653 0.196372 0.496401
O O11 0.932602 0.718602 0.009670
O O12 0.143457 0.128619 0.000621
O O13 0.517391 0.508571 0.281711
O O14 0.500000 0.000000 0.500000
O O15 0.891206 0.370277 0.268887
O O16 0.000000 0.000000 0.500000
O O17 0.308582 0.549590 0.007924
O O18 0.500000 0.000000 0.000000
#
# Coordination Sequence:
#
# PCOD9008532 Si02
#       8
#     2   2   2   2   2   2   2   2
#     4  11  22  42  62  92 131 166 206 256 326 370
#     4   9  23  39  62  88 124 167 202 261 309 374
#     4  11  22  39  62  91 124 165 207 256 321 366
#     4  11  22  37  66  91 129 164 206 264 316 379
#     4  10  21  40  64  87 119 163 209 254 305 372
#     4  11  23  37  60  93 127 163 205 257 309 382
#     4  11  21  39  61  96 128 161 212 263 313 371
#     4  10  21  39  65  88 124 165 210 258 307 369
#
# _framework density 18.278188
#
# number of rings (size 3 to 8) (size 9 to 14) (size 15 to 20)
#    0.750    0.750    3.750    1.875    0.000    4.000 
#    0.000    1.250    0.000    2.250    0.000    0.000 
#    0.000    0.000    0.000    0.000    0.000    0.000 
#
# Total GULP energy -89087.184629 kJ/mol
# GULP energy per Si atom -5567.949039 kJ/mol
# Density = 1.823659 g / cm^3
# Si number density = 18.278188 Si / 1000 Ang^3
#
#
#
# Elastic Constant Matrix: (Units=GPa)
#
#
# Indices 1 2 3 4 5 6 
#
# 1 69.8536 30.2129 24.3216 -0.4339 -11.0198 -22.4895
# 2 30.2129 114.5032 32.3873 1.9992 -12.4582 -8.5066
# 3 24.3216 32.3873 97.5100 -5.8941 -12.1261 -2.5635
# 4 -0.4339 1.9992 -5.8941 38.2956 -1.3304 -2.5925
# 5 -11.0198 -12.4582 -12.1261 -1.3304 26.6663 -0.4209
# 6 -22.4895 -8.5066 -2.5635 -2.5925 -0.4209 28.5541
#
#
#
# Elastic Compliance Matrix: (Units=1/GPa)
#
#
# Indices 1 2 3 4 5 6 
#
# 1 0.023702 -0.003233 -0.003413 0.001351 0.007078 0.017625
# 2 -0.003233 0.010587 -0.002447 -0.000857 0.002460 0.000347
# 3 -0.003413 -0.002447 0.012373 0.001962 0.003138 -0.002082
# 4 0.001351 -0.000857 0.001962 0.026793 0.002441 0.003453
# 5 0.007078 0.002460 0.003138 0.002441 0.043241 0.007449
# 6 0.017625 0.000347 -0.002082 0.003453 0.007449 0.049243
#
#
# Mechanical properties :
#
#
# Convention : Reuss Voigt Hill
#
# Bulk Modulus (GPa) = 35.11582 50.63449 42.87515
# Shear Modulus (GPa) = 25.82430 31.69954 28.76192
#
# Velocity S-wave (km/s) = 3.76286 4.16899 3.97112
# Velocity P-wave (km/s) = 6.17515 7.13696 6.67341
#
# Compressibility (1/GPa) = 0.02847720
#
# Stress axis : x y z
#
# Youngs Moduli (GPa) = 42.19128 94.45709 80.81863
#
# Poissons Ratio (x) = 0.30535 0.27582
# Poissons Ratio (y) = 0.13639 0.19774
# Poissons Ratio (z) = 0.14399 0.23111
#
# Static dielectric constant tensor:
#      x y z
#    x 1.680870 0.006710 -0.048890 
#    y 0.006710 1.616460 0.027320 
#    z -0.048890 0.027320 1.629510 
# 
# From -- ./inp_files/331814.got.cif
#   From: 2010.05.17/outbox.cif.g08.bks.cpg/sg2_166_cif.got.tgz:331814.got - 2010.06.03 11:33:40.
