data_PCOD9008154
_publ_section_title
;
Structure prediction by ZEFSAII (Michael W. Deem and Ramdas Pophale) SiO2 
 PCOD9008154
Probable space group: P -1
;
_chemical_formula_sum "Si O2"
_cell_formula_units_Z 16
_cell_length_a 10.042148
_cell_length_b 19.866392
_cell_length_c 6.401557
_cell_angle_alpha 63.237621
_cell_angle_beta 137.452333
_cell_angle_gamma 130.823145
_cell_volume 652.281616
_symmetry_space_group_name_H-M "P -1"
_symmetry_group_IT_number 2
_symmetry_cell_setting 'triclinic'
loop_
_space_group_symop_operation_xyz
x,y,z
-x,-y,-z
loop_
_atom_site_type_symbol
_atom_site_label
_atom_site_fract_x
_atom_site_fract_y
_atom_site_fract_z
Si Si1 0.766818 0.613128 0.638104
Si Si2 0.208163 0.742146 0.676659
Si Si3 0.134232 0.920575 0.777654
Si Si4 0.736756 0.906372 0.558727
Si Si5 0.923680 0.380487 0.650963
Si Si6 0.824714 0.489851 0.628757
Si Si7 0.408763 0.901826 0.465552
Si Si8 0.352395 0.240722 0.642030
O O1 0.667876 0.524467 0.499110
O O2 0.646507 0.667743 0.479979
O O3 0.995833 0.683261 0.667425
O O4 0.866093 0.595487 0.985701
O O5 0.159489 0.713022 0.418031
O O6 0.274363 0.842165 0.592898
O O7 0.431213 0.738101 0.995860
O O8 0.004177 0.937792 0.795017
O O9 0.914846 0.840727 0.507518
O O10 0.269938 0.013890 0.681138
O O11 0.273561 0.885183 0.112393
O O12 0.630343 0.895458 0.676460
O O13 0.609084 0.808211 0.442253
O O14 0.744743 0.396842 0.550171
O O15 0.019985 0.442241 0.470514
O O16 0.000000 0.500000 0.000000
O O17 0.500000 0.000000 0.500000
#
# Coordination Sequence:
#
# PCOD9008154 Si02
#       8
#     2   2   2   2   2   2   2   2
#     4  10  21  39  64  87 125 162 202 242 303 367
#     4  11  25  37  58  94 120 160 206 256 300 354
#     4   9  21  40  61  77 110 165 201 253 315 355
#     4   9  22  39  60  80 116 160 203 254 308 358
#     4   9  18  37  64  92 123 158 202 242 300 355
#     4   8  16  35  65  96 121 157 196 246 295 360
#     4  12  25  37  60  90 118 157 214 256 305 361
#     4  10  22  38  59  82 122 160 202 248 306 359
#
# _framework density 24.529284000000001
#
# number of rings (size 3 to 8) (size 9 to 14) (size 15 to 20)
#    0.750    1.500    0.000    1.875    5.250    1.500 
#    2.250    0.625    0.000   25.500    0.000    0.000 
#    0.000    0.000    0.000    0.000    0.000    0.000 
#
# Total GULP energy -89130.852780 kJ/mol
# GULP energy per Si atom -5570.678299 kJ/mol
# Density = 2.447345 g / cm^3
# Si number density = 24.529284 Si / 1000 Ang^3
#
#
#
# Elastic Constant Matrix: (Units=GPa)
#
#
# Indices 1 2 3 4 5 6 
#
# 1 108.0823 4.5554 19.4271 -5.6914 -2.2899 -16.7972
# 2 4.5554 88.5454 25.2703 -23.4245 -1.3025 -20.3986
# 3 19.4271 25.2703 59.7332 -8.7233 2.7920 -0.4433
# 4 -5.6914 -23.4245 -8.7233 39.1087 -3.5600 -0.3412
# 5 -2.2899 -1.3025 2.7920 -3.5600 27.2852 -5.3385
# 6 -16.7972 -20.3986 -0.4433 -0.3412 -5.3385 45.2472
#
#
#
# Elastic Compliance Matrix: (Units=1/GPa)
#
#
# Indices 1 2 3 4 5 6 
#
# 1 0.011012 0.002725 -0.004456 0.002558 0.002947 0.005640
# 2 0.002725 0.018307 -0.007295 0.010287 0.005123 0.009875
# 3 -0.004456 -0.007295 0.021327 -0.000671 -0.004012 -0.005213
# 4 0.002558 0.010287 -0.000671 0.032586 0.006312 0.006571
# 5 0.002947 0.005123 -0.004012 0.006312 0.039966 0.008128
# 6 0.005640 0.009875 -0.005213 0.006571 0.008128 0.029604
#
#
# Mechanical properties :
#
#
# Convention : Reuss Voigt Hill
#
# Bulk Modulus (GPa) = 30.68130 39.42959 35.05544
# Shear Modulus (GPa) = 27.51480 36.13543 31.82512
#
# Velocity S-wave (km/s) = 3.35283 3.84233 3.60590
# Velocity P-wave (km/s) = 5.24631 5.98282 5.62663
#
# Compressibility (1/GPa) = 0.03259315
#
# Stress axis : x y z
#
# Youngs Moduli (GPa) = 90.80989 54.62316 46.88803
#
# Poissons Ratio (x) = -0.14883 0.20895
# Poissons Ratio (y) = -0.24742 0.34204
# Poissons Ratio (z) = 0.40469 0.39847
#
# Static dielectric constant tensor:
#      x y z
#    x 1.948860 -0.049970 0.023470 
#    y -0.049970 2.124460 -0.017990 
#    z 0.023470 -0.017990 1.944670 
# 
# From -- ./inp_files/52640.got.cif
#   From: 2010.05.17/outbox.cif.g08.bks.cpg/sg2_27_cif.got.tgz:52640.got - 2010.06.03 11:33:40.
