data_PCOD9008126
_publ_section_title
;
Structure prediction by ZEFSAII (Michael W. Deem and Ramdas Pophale) SiO2 
 PCOD9008126
Probable space group: P -1
;
_chemical_formula_sum "Si O2"
_cell_formula_units_Z 14
_cell_length_a 5.494124
_cell_length_b 18.423739
_cell_length_c 14.330476
_cell_angle_alpha 34.692548
_cell_angle_beta 62.639626
_cell_angle_gamma 82.046484
_cell_volume 645.731400
_symmetry_space_group_name_H-M "P -1"
_symmetry_group_IT_number 2
_symmetry_cell_setting 'triclinic'
loop_
_space_group_symop_operation_xyz
x,y,z
-x,-y,-z
loop_
_atom_site_type_symbol
_atom_site_label
_atom_site_fract_x
_atom_site_fract_y
_atom_site_fract_z
Si Si1 0.426146 0.169003 0.485945
Si Si2 0.668937 0.657298 0.509890
Si Si3 0.382590 0.318199 0.882642
Si Si4 0.454288 0.629052 0.908042
Si Si5 0.047781 0.909989 0.504442
Si Si6 0.281084 0.633022 0.425836
Si Si7 0.845539 0.332351 0.908079
O O1 0.381490 0.255261 0.489408
O O2 0.628148 0.292272 0.243512
O O3 0.103008 0.079703 0.579320
O O4 0.618513 0.084852 0.565699
O O5 0.484484 0.480122 0.735287
O O6 0.531258 0.689906 0.405309
O O7 0.028698 0.691161 0.408168
O O8 0.550471 0.339744 0.731171
O O9 0.522775 0.244840 0.004308
O O10 0.018319 0.246856 0.004829
O O11 0.797529 0.747796 0.751452
O O12 0.500000 0.500000 0.000000
O O13 0.217600 0.590645 0.074541
O O14 0.000000 0.000000 0.500000
O O15 0.921849 0.540683 0.336360
#
# Coordination Sequence:
#
# PCOD9008126 Si02
#       7
#     2   2   2   2   2   2   2
#     4  10  22  35  58  78 111 145 190 224 272 321
#     4  10  17  29  47  71  99 137 179 217 259 320
#     4  10  19  29  46  67 111 148 174 212 270 326
#     4  10  23  34  55  84 117 147 176 226 281 327
#     4  10  23  41  57  74 111 153 192 227 268 321
#     4  10  18  30  45  68 110 149 172 213 270 326
#     4  10  19  29  45  69 104 142 180 205 264 323
#
# _framework density 21.68084
#
# number of rings (size 3 to 8) (size 9 to 14) (size 15 to 20)
#    0.857    1.143    0.000    7.286    6.000    0.571 
#    0.000    0.000    0.000    0.000    0.000    0.000 
#    0.000   38.857    0.000    0.000    0.000    0.000 
#
# Total GULP energy -78080.865036 kJ/mol
# GULP energy per Si atom -5577.204645 kJ/mol
# Density = 2.163149 g / cm^3
# Si number density = 21.680840 Si / 1000 Ang^3
#
#
#
# Elastic Constant Matrix: (Units=GPa)
#
#
# Indices 1 2 3 4 5 6 
#
# 1 247.5516 93.5477 18.3534 10.7359 -7.5288 -13.7947
# 2 93.5477 124.2753 21.3278 2.9232 -0.2298 7.9277
# 3 18.3534 21.3278 19.4991 2.9494 1.6731 -2.6641
# 4 10.7359 2.9232 2.9494 28.2193 1.5016 -1.1151
# 5 -7.5288 -0.2298 1.6731 1.5016 20.3787 6.9718
# 6 -13.7947 7.9277 -2.6641 -1.1151 6.9718 37.0737
#
#
#
# Elastic Compliance Matrix: (Units=1/GPa)
#
#
# Indices 1 2 3 4 5 6 
#
# 1 0.006120 -0.004754 0.000006 -0.001788 0.001315 0.002993
# 2 -0.004754 0.014023 -0.011967 0.001308 0.001282 -0.005829
# 3 0.000006 -0.011967 0.067031 -0.004981 -0.008274 0.008784
# 4 -0.001788 0.001308 -0.004981 0.036680 -0.003069 0.000377
# 5 0.001315 0.001282 -0.008274 -0.003069 0.054120 -0.010649
# 6 0.002993 -0.005829 0.008784 0.000377 -0.010649 0.031979
#
#
# Mechanical properties :
#
#
# Convention : Reuss Voigt Hill
#
# Bulk Modulus (GPa) = 18.60672 73.08709 45.84690
# Shear Modulus (GPa) = 19.13526 34.34080 26.73803
#
# Velocity S-wave (km/s) = 2.97406 3.98417 3.51558
# Velocity P-wave (km/s) = 4.51599 7.41272 6.13769
#
# Compressibility (1/GPa) = 0.05374404
#
# Stress axis : x y z
#
# Youngs Moduli (GPa) = 163.39651 71.31269 14.91840
#
# Poissons Ratio (x) = 0.33905 -0.00010
# Poissons Ratio (y) = 0.77686 0.17853
# Poissons Ratio (z) = -0.00106 0.85341
#
# Static dielectric constant tensor:
#      x y z
#    x 1.901000 0.006400 -0.006580 
#    y 0.006400 1.724110 -0.014840 
#    z -0.006580 -0.014840 1.769970 
# 
# From -- ./inp_files/483540.got.cif
#   From: 2010.05.17/outbox.cif.g08.bks.cpg/sg2_242_cif.got.tgz:483540.got - 2010.06.03 11:33:40.
