data_PCOD9008385
_publ_section_title
;
Structure prediction by ZEFSAII (Michael W. Deem and Ramdas Pophale) SiO2 
 PCOD9008385
Probable space group: P -1
;
_chemical_formula_sum "Si O2"
_cell_formula_units_Z 14
_cell_length_a 8.497761
_cell_length_b 7.972313
_cell_length_c 9.819432
_cell_angle_alpha 81.954341
_cell_angle_beta 57.898222
_cell_angle_gamma 76.268653
_cell_volume 547.341301
_symmetry_space_group_name_H-M "P -1"
_symmetry_group_IT_number 2
_symmetry_cell_setting 'triclinic'
loop_
_space_group_symop_operation_xyz
x,y,z
-x,-y,-z
loop_
_atom_site_type_symbol
_atom_site_label
_atom_site_fract_x
_atom_site_fract_y
_atom_site_fract_z
Si Si1 0.066122 0.669203 0.286760
Si Si2 0.349211 0.980188 0.870649
Si Si3 0.385563 0.672698 0.682402
Si Si4 0.202706 0.480046 0.987960
Si Si5 0.666624 0.838076 0.400605
Si Si6 0.756924 0.876198 0.829834
Si Si7 0.108853 0.678997 0.557820
O O1 0.882171 0.821880 0.348221
O O2 0.978490 0.494099 0.365195
O O3 0.178174 0.626659 0.100445
O O4 0.177766 0.689707 0.370782
O O5 0.315852 0.833780 0.797643
O O6 0.565673 0.937154 0.827142
O O7 0.322366 0.150297 0.768768
O O8 0.228322 0.001260 0.061935
O O9 0.590612 0.684150 0.529392
O O10 0.257318 0.686250 0.606744
O O11 0.356979 0.513052 0.804491
O O12 0.254498 0.301800 0.065659
O O13 0.000000 0.500000 0.000000
O O14 0.500000 0.000000 0.500000
O O15 0.933284 0.833936 0.654150
#
# Coordination Sequence:
#
# PCOD9008385 Si02
#       7
#     2   2   2   2   2   2   2
#     4  10  21  41  66  88 133 172 208 260 333 369
#     4  10  23  42  64  94 131 180 204 265 323 388
#     4  11  23  41  67 101 126 163 226 264 317 378
#     4  11  21  43  69  99 125 167 215 275 315 379
#     4  10  22  42  62  90 132 172 207 260 322 385
#     4  10  21  43  67  90 137 168 213 260 334 376
#     4  10  21  39  64  95 125 169 215 269 311 380
#
# _framework density 25.578192000000001
#
# number of rings (size 3 to 8) (size 9 to 14) (size 15 to 20)
#    0.000    1.714    2.857    2.571    0.000    1.714 
#    7.714    3.571    0.000    0.000    0.000    0.000 
#    0.000    0.000    0.000    0.000    0.000    0.000 
#
# Total GULP energy -78333.637826 kJ/mol
# GULP energy per Si atom -5595.259845 kJ/mol
# Density = 2.551998 g / cm^3
# Si number density = 25.578192 Si / 1000 Ang^3
#
#
#
# Elastic Constant Matrix: (Units=GPa)
#
#
# Indices 1 2 3 4 5 6 
#
# 1 68.2842 25.7555 65.8678 0.7425 23.6688 -2.6442
# 2 25.7555 77.9558 18.7769 4.7182 12.5872 7.8784
# 3 65.8678 18.7769 149.5504 -1.8402 45.4885 0.6962
# 4 0.7425 4.7182 -1.8402 54.5483 6.4025 5.8718
# 5 23.6688 12.5872 45.4885 6.4025 45.8522 3.9243
# 6 -2.6442 7.8784 0.6962 5.8718 3.9243 31.9711
#
#
#
# Elastic Compliance Matrix: (Units=1/GPa)
#
#
# Indices 1 2 3 4 5 6 
#
# 1 0.029161 -0.007000 -0.011303 -0.000417 -0.002265 0.004737
# 2 -0.007000 0.015480 0.001743 -0.000516 -0.001943 -0.004098
# 3 -0.011303 0.001743 0.014159 0.001614 -0.008840 -0.000884
# 4 -0.000417 -0.000516 0.001614 0.019192 -0.003666 -0.003017
# 5 -0.002265 -0.001943 -0.008840 -0.003666 0.033042 -0.002899
# 6 0.004737 -0.004098 -0.000884 -0.003017 -0.002899 0.033609
#
#
# Mechanical properties :
#
#
# Convention : Reuss Voigt Hill
#
# Bulk Modulus (GPa) = 38.94030 57.39899 48.16964
# Shear Modulus (GPa) = 26.83527 38.83367 32.83447
#
# Velocity S-wave (km/s) = 3.24257 3.90068 3.58675
# Velocity P-wave (km/s) = 5.41074 6.54036 6.00218
#
# Compressibility (1/GPa) = 0.02568034
#
# Stress axis : x y z
#
# Youngs Moduli (GPa) = 34.29251 64.60126 70.62626
#
# Poissons Ratio (x) = 0.45218 0.79828
# Poissons Ratio (y) = 0.24003 -0.12310
# Poissons Ratio (z) = 0.38761 -0.11260
#
# Static dielectric constant tensor:
#      x y z
#    x 1.937530 0.072610 -0.014720 
#    y 0.072610 2.156080 -0.000480 
#    z -0.014720 -0.000480 2.008610 
# 
# From -- ./inp_files/158486.got.cif
#   From: 2010.05.17/outbox.cif.g08.bks.cpg/sg2_80_cif.got.tgz:158486.got - 2010.06.03 11:33:40.
