data_PCOD9008871
_publ_section_title
;
Structure prediction by ZEFSAII (Michael W. Deem and Ramdas Pophale) SiO2 
 PCOD9008871
Probable space group: P -1
;
_chemical_formula_sum "Si O2"
_cell_formula_units_Z 16
_cell_length_a 13.902344
_cell_length_b 12.007129
_cell_length_c 9.204240
_cell_angle_alpha 124.223307
_cell_angle_beta 101.676551
_cell_angle_gamma 39.050270
_cell_volume 714.765193
_symmetry_space_group_name_H-M "P -1"
_symmetry_group_IT_number 2
_symmetry_cell_setting 'triclinic'
loop_
_space_group_symop_operation_xyz
x,y,z
-x,-y,-z
loop_
_atom_site_type_symbol
_atom_site_label
_atom_site_fract_x
_atom_site_fract_y
_atom_site_fract_z
Si Si1 0.193891 0.519648 0.293213
Si Si2 0.963369 0.272582 0.881312
Si Si3 0.115596 0.320814 0.165453
Si Si4 0.443019 0.860729 0.755108
Si Si5 0.914538 0.141004 0.274398
Si Si6 0.579530 0.374638 0.230075
Si Si7 0.711239 0.088179 0.504858
Si Si8 0.195730 0.032907 0.221355
O O1 0.078532 0.519799 0.297301
O O2 0.374198 0.290577 0.255884
O O3 0.127063 0.733867 0.497321
O O4 0.197482 0.529569 0.128163
O O5 0.978674 0.113966 0.850599
O O6 0.124006 0.088446 0.681040
O O7 0.987982 0.368269 0.069922
O O8 0.147546 0.222932 0.261363
O O9 0.291381 0.106609 0.970930
O O10 0.437928 0.712953 0.708500
O O11 0.403664 0.895924 0.598743
O O12 0.735170 0.300968 0.264462
O O13 0.034885 0.112285 0.209157
O O14 0.404629 0.647385 0.344107
O O15 0.647046 0.211370 0.996027
O O16 0.756675 0.011085 0.628233
#
# Coordination Sequence:
#
# PCOD9008871 Si02
#       8
#     2   2   2   2   2   2   2   2
#     4  12  23  39  69  93 119 163 212 248 307 361
#     4  11  23  41  65  95 122 154 210 264 302 350
#     4  10  24  45  61  89 129 166 199 251 305 370
#     4  10  21  39  66  89 121 160 207 258 299 356
#     4  12  22  39  65  95 123 155 207 256 308 356
#     4  11  21  39  62  91 128 159 199 258 315 350
#     4  11  20  38  61  93 123 159 201 256 304 359
#     4  11  24  39  61  90 130 164 199 249 309 369
#
# _framework density 22.384974
#
# number of rings (size 3 to 8) (size 9 to 14) (size 15 to 20)
#    0.000    1.000    6.250    3.000    1.750    0.500 
#    0.000    0.625    0.000    0.000    0.000    0.000 
#    0.000    0.000    0.000    0.000    0.000    0.000 
#
# Total GULP energy -89475.355995 kJ/mol
# GULP energy per Si atom -5592.209750 kJ/mol
# Density = 2.233402 g / cm^3
# Si number density = 22.384974 Si / 1000 Ang^3
#
#
#
# Elastic Constant Matrix: (Units=GPa)
#
#
# Indices 1 2 3 4 5 6 
#
# 1 70.6700 26.0495 26.0303 -3.1431 22.7597 11.5822
# 2 26.0495 97.0574 53.6104 -22.2984 14.8889 8.6051
# 3 26.0303 53.6104 68.1560 -26.5856 9.2237 -4.0361
# 4 -3.1431 -22.2984 -26.5856 35.8607 -1.2358 -1.7832
# 5 22.7597 14.8889 9.2237 -1.2358 31.0317 -2.5548
# 6 11.5822 8.6051 -4.0361 -1.7832 -2.5548 21.0140
#
#
#
# Elastic Compliance Matrix: (Units=1/GPa)
#
#
# Indices 1 2 3 4 5 6 
#
# 1 0.029028 0.005040 -0.017188 -0.009015 -0.020990 -0.024681
# 2 0.005040 0.022801 -0.020094 -0.001489 -0.010151 -0.017335
# 3 -0.017188 -0.020094 0.045666 0.021748 0.011991 0.029776
# 4 -0.009015 -0.001489 0.021748 0.043110 0.003720 0.013866
# 5 -0.020990 -0.010151 0.011991 0.003720 0.051096 0.024557
# 6 -0.024681 -0.017335 0.029776 0.013866 0.024557 0.078170
#
#
# Mechanical properties :
#
#
# Convention : Reuss Voigt Hill
#
# Bulk Modulus (GPa) = 30.29259 49.69596 39.99428
# Shear Modulus (GPa) = 14.47773 26.26082 20.36928
#
# Velocity S-wave (km/s) = 2.54591 3.42884 3.01982
# Velocity P-wave (km/s) = 4.71213 6.15830 5.48310
#
# Compressibility (1/GPa) = 0.03301137
#
# Stress axis : x y z
#
# Youngs Moduli (GPa) = 34.45004 43.85714 21.89833
#
# Poissons Ratio (x) = -0.22106 0.37639
# Poissons Ratio (y) = -0.17364 0.44002
# Poissons Ratio (z) = 0.59214 0.88125
#
# Static dielectric constant tensor:
#      x y z
#    x 1.834670 -0.042310 0.008210 
#    y -0.042310 1.837950 0.014020 
#    z 0.008210 0.014020 1.880290 
# 
# From -- ./inp_files/271768.got.cif
#   From: 2010.05.17/outbox.cif.g08.bks.cpg/sg2_136_cif.got.tgz:271768.got - 2010.06.03 11:33:40.
