data_PCOD9008425
_publ_section_title
;
Structure prediction by ZEFSAII (Michael W. Deem and Ramdas Pophale) SiO2 
 PCOD9008425
Probable space group: P -1
;
_chemical_formula_sum "Si O2"
_cell_formula_units_Z 14
_cell_length_a 17.480337
_cell_length_b 11.095946
_cell_length_c 9.684567
_cell_angle_alpha 124.339407
_cell_angle_beta 148.989550
_cell_angle_gamma 44.946893
_cell_volume 678.992378
_symmetry_space_group_name_H-M "P -1"
_symmetry_group_IT_number 2
_symmetry_cell_setting 'triclinic'
loop_
_space_group_symop_operation_xyz
x,y,z
-x,-y,-z
loop_
_atom_site_type_symbol
_atom_site_label
_atom_site_fract_x
_atom_site_fract_y
_atom_site_fract_z
Si Si1 0.132196 0.428948 0.474952
Si Si2 0.396378 0.745407 0.709493
Si Si3 0.473240 0.874445 0.472171
Si Si4 0.211161 0.528347 0.944878
Si Si5 0.628719 0.516867 0.321319
Si Si6 0.528372 0.936751 0.160862
Si Si7 0.199899 0.871658 0.213593
O O1 0.131025 0.535976 0.675233
O O2 0.212258 0.487789 0.516324
O O3 0.936333 0.466385 0.180194
O O4 0.275912 0.224693 0.599839
O O5 0.331675 0.627024 0.596275
O O6 0.280346 0.863551 0.482188
O O7 0.590354 0.629724 0.868179
O O8 0.414251 0.848233 0.930557
O O9 0.546528 0.694101 0.394247
O O10 0.541957 0.901821 0.742571
O O11 0.279731 0.928366 0.253042
O O12 0.500000 0.000000 0.500000
O O13 0.233686 0.685524 0.114098
O O14 0.500000 0.500000 0.000000
O O15 0.500000 0.000000 0.000000
O O16 0.000000 0.000000 0.000000
#
# Coordination Sequence:
#
# PCOD9008425 Si02
#       7
#     2   2   2   2   2   2   2
#     4  10  21  39  64  96 133 171 221 275 330 399
#     4  11  23  42  68  94 129 179 225 271 336 404
#     4  12  23  39  68 100 133 175 220 274 346 392
#     4  10  21  39  65  94 125 173 227 263 330 398
#     4  12  21  40  67 100 137 177 221 276 334 403
#     4  11  21  38  64  99 134 173 223 275 329 398
#     4  12  25  41  66  95 134 170 229 281 332 399
#
# _framework density 20.618789
#
# number of rings (size 3 to 8) (size 9 to 14) (size 15 to 20)
#    0.000    0.857    7.143    1.286    0.000    0.000 
#    0.000    2.143    0.000    2.571    0.000    0.000 
#    0.000    0.000    0.000    0.000    0.000    0.000 
#
# Total GULP energy -78030.515479 kJ/mol
# GULP energy per Si atom -5573.608248 kJ/mol
# Density = 2.057186 g / cm^3
# Si number density = 20.618789 Si / 1000 Ang^3
#
#
#
# Elastic Constant Matrix: (Units=GPa)
#
#
# Indices 1 2 3 4 5 6 
#
# 1 143.9345 23.9425 40.5459 -3.5303 36.1384 1.4996
# 2 23.9425 37.7796 31.2699 14.5250 -1.0877 -8.9522
# 3 40.5459 31.2699 98.8718 8.6413 15.5105 -14.2982
# 4 -3.5303 14.5250 8.6413 47.1007 -10.2127 -7.0141
# 5 36.1384 -1.0877 15.5105 -10.2127 51.5122 10.7405
# 6 1.4996 -8.9522 -14.2982 -7.0141 10.7405 34.6243
#
#
#
# Elastic Compliance Matrix: (Units=1/GPa)
#
#
# Indices 1 2 3 4 5 6 
#
# 1 0.009962 -0.005984 -0.001358 0.001419 -0.006367 -0.000277
# 2 -0.005984 0.044376 -0.011103 -0.010365 0.005742 0.003267
# 3 -0.001358 -0.011103 0.015738 0.000117 -0.005101 0.005293
# 4 0.001419 -0.010365 0.000117 0.025480 0.003514 0.001379
# 5 -0.006367 0.005742 -0.005101 0.003514 0.027966 -0.008309
# 6 -0.000277 0.003267 0.005293 0.001379 -0.008309 0.034781
#
#
# Mechanical properties :
#
#
# Convention : Reuss Voigt Hill
#
# Bulk Modulus (GPa) = 30.13363 52.45583 41.29473
# Shear Modulus (GPa) = 24.24195 38.96928 31.60561
#
# Velocity S-wave (km/s) = 3.43260 4.35212 3.91942
# Velocity P-wave (km/s) = 5.50969 7.12394 6.36817
#
# Compressibility (1/GPa) = 0.03318551
#
# Stress axis : x y z
#
# Youngs Moduli (GPa) = 100.38324 22.53477 63.54029
#
# Poissons Ratio (x) = 0.13484 0.08628
# Poissons Ratio (y) = 0.60068 0.70551
# Poissons Ratio (z) = 0.13631 0.25021
#
# Static dielectric constant tensor:
#      x y z
#    x 1.766650 0.018970 0.018380 
#    y 0.018970 1.725410 0.035410 
#    z 0.018380 0.035410 1.787400 
# 
# From -- ./inp_files/267061.got.cif
#   From: 2010.05.17/outbox.cif.g08.bks.cpg/sg2_134_cif.got.tgz:267061.got - 2010.06.03 11:33:40.
