data_PCOD9008038
_publ_section_title
;
Structure prediction by ZEFSAII (Michael W. Deem and Ramdas Pophale) SiO2 
 PCOD9008038
Probable space group: P -1
;
_chemical_formula_sum "Si O2"
_cell_formula_units_Z 15
_cell_length_a 21.167337
_cell_length_b 12.109612
_cell_length_c 18.095564
_cell_angle_alpha 28.990922
_cell_angle_beta 161.124237
_cell_angle_gamma 151.417385
_cell_volume 688.592106
_symmetry_space_group_name_H-M "P -1"
_symmetry_group_IT_number 2
_symmetry_cell_setting 'triclinic'
loop_
_space_group_symop_operation_xyz
x,y,z
-x,-y,-z
loop_
_atom_site_type_symbol
_atom_site_label
_atom_site_fract_x
_atom_site_fract_y
_atom_site_fract_z
Si Si1 0.787488 0.978042 0.665776
Si Si2 0.749400 0.893526 0.900454
Si Si3 0.242184 0.944472 0.890063
Si Si4 0.256426 0.434330 0.258135
Si Si5 0.459882 0.218662 0.114015
Si Si6 0.437606 0.695844 0.561156
Si Si7 0.500000 0.000000 0.000000
Si Si8 0.205849 0.238763 0.476422
O O1 0.808865 0.788418 0.739478
O O2 0.628782 0.824690 0.641840
O O3 0.666619 0.152265 0.399518
O O4 0.026502 0.110395 0.873331
O O5 0.709521 0.894881 0.943022
O O6 0.561054 0.677217 0.782982
O O7 0.700488 0.131638 0.678760
O O8 0.011535 0.953054 0.632555
O O9 0.216577 0.665767 0.043775
O O10 0.335113 0.016553 0.870360
O O11 0.376060 0.106337 0.008364
O O12 0.500000 0.500000 0.500000
O O13 0.172255 0.355469 0.292743
O O14 0.500000 0.500000 0.000000
O O15 0.294078 0.458338 0.502744
O O16 0.618859 0.886515 0.260896
#
# Coordination Sequence:
#
# PCOD9008038 Si02
#       8
#     2   2   2   2   2   2   1   2
#     4  11  20  40  66  96 126 164 216 267 329 378
#     4  10  22  39  63  93 125 173 212 264 319 380
#     4  12  25  45  70 100 132 173 222 275 339 385
#     4  12  19  41  72  98 127 165 219 287 327 374
#     4  11  25  43  62  89 132 175 218 262 309 395
#     4  10  21  39  63  94 131 159 214 268 321 387
#     4  12  26  44  62  98 140 170 214 272 328 402
#     4  12  24  42  68 100 133 173 213 278 336 390
#
# _framework density 21.783580000000001
#
# number of rings (size 3 to 8) (size 9 to 14) (size 15 to 20)
#    0.000    0.800    4.000    3.600    1.867    0.533 
#    2.400    0.000    0.000    0.000    0.000    0.000 
#    0.000    0.000    0.000    0.000    0.000    0.000 
#
# Total GULP energy -83589.183000 kJ/mol
# GULP energy per Si atom -5572.612200 kJ/mol
# Density = 2.173400 g / cm^3
# Si number density = 21.783580 Si / 1000 Ang^3
#
#
#
# Elastic Constant Matrix: (Units=GPa)
#
#
# Indices 1 2 3 4 5 6 
#
# 1 114.9065 27.9897 15.7272 10.4865 -5.8871 8.3681
# 2 27.9897 57.5707 33.1061 -7.8415 1.9704 -11.1517
# 3 15.7272 33.1061 115.2218 0.3057 9.0396 -2.4187
# 4 10.4865 -7.8415 0.3057 35.9649 4.4663 4.1279
# 5 -5.8871 1.9704 9.0396 4.4663 33.1236 2.2662
# 6 8.3681 -11.1517 -2.4187 4.1279 2.2662 22.6196
#
#
#
# Elastic Compliance Matrix: (Units=1/GPa)
#
#
# Indices 1 2 3 4 5 6 
#
# 1 0.011885 -0.008279 0.000311 -0.004823 0.003713 -0.007937
# 2 -0.008279 0.029496 -0.006759 0.007514 -0.003480 0.015859
# 3 0.000311 -0.006759 0.010713 -0.001170 -0.002181 -0.001870
# 4 -0.004823 0.007514 -0.001170 0.031494 -0.005241 0.000142
# 5 0.003713 -0.003480 -0.002181 -0.005241 0.032745 -0.005647
# 6 -0.007937 0.015859 -0.001870 0.000142 -0.005647 0.055305
#
#
# Mechanical properties :
#
#
# Convention : Reuss Voigt Hill
#
# Bulk Modulus (GPa) = 44.16607 49.03833 46.60220
# Shear Modulus (GPa) = 23.96478 32.40002 28.18240
#
# Velocity S-wave (km/s) = 3.32042 3.86081 3.60077
# Velocity P-wave (km/s) = 5.91770 6.51421 6.22311
#
# Compressibility (1/GPa) = 0.02264181
#
# Stress axis : x y z
#
# Youngs Moduli (GPa) = 84.13826 33.90237 93.34102
#
# Poissons Ratio (x) = 0.28067 -0.02906
# Poissons Ratio (y) = 0.69657 0.63090
# Poissons Ratio (z) = -0.02619 0.22915
#
# Static dielectric constant tensor:
#      x y z
#    x 1.816590 0.055480 -0.023790 
#    y 0.055480 1.725490 -0.019400 
#    z -0.023790 -0.019400 1.758260 
# 
# From -- ./inp_files/472390.got.cif
#   From: 2010.05.17/outbox.cif.g08.bks.cpg/sg2_237_cif.got.tgz:472390.got - 2010.06.03 11:33:40.
