data_PCOD9008160
_publ_section_title
;
Structure prediction by ZEFSAII (Michael W. Deem and Ramdas Pophale) SiO2 
 PCOD9008160
Probable space group: P -1
;
_chemical_formula_sum "Si O2"
_cell_formula_units_Z 14
_cell_length_a 11.651205
_cell_length_b 7.246794
_cell_length_c 11.682016
_cell_angle_alpha 139.838374
_cell_angle_beta 98.188754
_cell_angle_gamma 102.813443
_cell_volume 538.627746
_symmetry_space_group_name_H-M "P -1"
_symmetry_group_IT_number 2
_symmetry_cell_setting 'triclinic'
loop_
_space_group_symop_operation_xyz
x,y,z
-x,-y,-z
loop_
_atom_site_type_symbol
_atom_site_label
_atom_site_fract_x
_atom_site_fract_y
_atom_site_fract_z
Si Si1 0.106179 0.952456 0.570059
Si Si2 0.699682 0.862120 0.635447
Si Si3 0.611084 0.463806 0.206732
Si Si4 0.960650 0.464897 0.828868
Si Si5 0.577107 0.261973 0.738257
Si Si6 0.245288 0.873080 0.010012
Si Si7 0.870300 0.924297 0.106764
O O1 0.254416 0.247892 0.700374
O O2 0.093508 0.630462 0.353493
O O3 0.090185 0.926136 0.690334
O O4 0.000000 0.000000 0.500000
O O5 0.844797 0.142730 0.730743
O O6 0.601504 0.017237 0.706657
O O7 0.635120 0.563612 0.392440
O O8 0.716159 0.820531 0.752889
O O9 0.499785 0.531762 0.168346
O O10 0.627445 0.151930 0.026681
O O11 0.972311 0.810893 0.026773
O O12 0.117099 0.555660 0.907190
O O13 0.730622 0.566738 0.903783
O O14 0.500000 0.000000 0.500000
O O15 0.167600 0.865782 0.881546
#
# Coordination Sequence:
#
# PCOD9008160 Si02
#       7
#     2   2   2   2   2   2   2
#     4  11  23  40  64  94 117 162 214 252 300 368
#     4   9  21  37  65  88 117 165 214 249 293 367
#     4  10  21  39  64  88 120 159 213 258 292 366
#     4  10  22  39  61  86 127 167 205 245 295 371
#     4   9  20  44  66  88 116 164 217 256 301 361
#     4  12  23  36  59  97 127 164 196 251 325 359
#     4  11  26  40  60  93 131 160 202 258 314 368
#
# _framework density 25.991976999999999
#
# number of rings (size 3 to 8) (size 9 to 14) (size 15 to 20)
#    0.000    1.714    1.429    3.429    4.000    4.571 
#    0.000    2.857    0.000    0.000    0.000    0.000 
#    0.000    0.000    0.000    0.000    0.000    0.000 
#
# Total GULP energy -77985.306883 kJ/mol
# GULP energy per Si atom -5570.379063 kJ/mol
# Density = 2.593282 g / cm^3
# Si number density = 25.991977 Si / 1000 Ang^3
#
#
#
# Elastic Constant Matrix: (Units=GPa)
#
#
# Indices 1 2 3 4 5 6 
#
# 1 162.7225 13.3202 25.3427 -17.8329 -1.2567 -19.7113
# 2 13.3202 52.9995 50.1228 -35.6472 -7.8537 -7.5138
# 3 25.3427 50.1228 115.7466 -40.9763 -27.1170 6.8007
# 4 -17.8329 -35.6472 -40.9763 44.9756 11.0239 3.6634
# 5 -1.2567 -7.8537 -27.1170 11.0239 46.7117 -1.5437
# 6 -19.7113 -7.5138 6.8007 3.6634 -1.5437 20.5823
#
#
#
# Elastic Compliance Matrix: (Units=1/GPa)
#
#
# Indices 1 2 3 4 5 6 
#
# 1 0.007818 0.004619 -0.003517 0.003130 -0.001474 0.009667
# 2 0.004619 0.059107 -0.018816 0.031214 -0.007365 0.026110
# 3 -0.003517 -0.018816 0.021345 0.002586 0.007956 -0.017153
# 4 0.003130 0.031214 0.002586 0.051521 -0.005194 0.003979
# 5 -0.001474 -0.007365 0.007956 -0.005194 0.025846 -0.003866
# 6 0.009667 0.026110 -0.017153 0.003979 -0.003866 0.072045
#
#
# Mechanical properties :
#
#
# Convention : Reuss Voigt Hill
#
# Bulk Modulus (GPa) = 18.92459 56.55999 37.74229
# Shear Modulus (GPa) = 17.19848 38.63280 27.91564
#
# Velocity S-wave (km/s) = 2.57511 3.85948 3.28076
# Velocity P-wave (km/s) = 4.01726 6.45512 5.37620
#
# Compressibility (1/GPa) = 0.05284129
#
# Stress axis : x y z
#
# Youngs Moduli (GPa) = 127.91312 16.91855 46.84966
#
# Poissons Ratio (x) = -0.07814 0.16477
# Poissons Ratio (y) = -0.59080 0.88151
# Poissons Ratio (z) = 0.44988 0.31834
#
# Static dielectric constant tensor:
#      x y z
#    x 2.284350 -0.114410 -0.130180 
#    y -0.114410 2.288330 0.118620 
#    z -0.130180 0.118620 2.188700 
# 
# From -- ./inp_files/418659.got.cif
#   From: 2010.05.17/outbox.cif.g08.bks.cpg/sg2_210_cif.got.tgz:418659.got - 2010.06.03 11:33:40.
