data_PCOD9008237
_publ_section_title
;
Structure prediction by ZEFSAII (Michael W. Deem and Ramdas Pophale) SiO2 
 PCOD9008237
Probable space group: P -1
;
_chemical_formula_sum "Si O2"
_cell_formula_units_Z 16
_cell_length_a 21.259031
_cell_length_b 10.819861
_cell_length_c 16.686149
_cell_angle_alpha 146.472114
_cell_angle_beta 22.982806
_cell_angle_gamma 149.737359
_cell_volume 740.691184
_symmetry_space_group_name_H-M "P -1"
_symmetry_group_IT_number 2
_symmetry_cell_setting 'triclinic'
loop_
_space_group_symop_operation_xyz
x,y,z
-x,-y,-z
loop_
_atom_site_type_symbol
_atom_site_label
_atom_site_fract_x
_atom_site_fract_y
_atom_site_fract_z
Si Si1 0.421053 0.295509 0.111793
Si Si2 0.737586 0.861934 0.621834
Si Si3 0.926471 0.642774 0.498734
Si Si4 0.539666 0.192145 0.209481
Si Si5 0.041345 0.827914 0.797585
Si Si6 0.820344 0.710352 0.828396
Si Si7 0.679301 0.711155 0.350253
Si Si8 0.959795 0.734837 0.170357
O O1 0.400452 0.287965 0.228240
O O2 0.256532 0.343894 0.300757
O O3 0.612533 0.506262 0.969736
O O4 0.391202 0.014535 0.972733
O O5 0.632597 0.931670 0.713377
O O6 0.843720 0.729388 0.381715
O O7 0.898483 0.113173 0.602118
O O8 0.945206 0.411486 0.314167
O O9 0.917864 0.629072 0.599157
O O10 0.647831 0.476529 0.203200
O O11 0.486045 0.277694 0.402012
O O12 0.909993 0.742382 0.828159
O O13 0.238328 0.021336 0.642759
O O14 0.000000 0.000000 0.000000
O O15 0.867990 0.994155 0.896491
O O16 0.829958 0.719872 0.240927
O O17 0.000000 0.500000 0.000000
#
# Coordination Sequence:
#
# PCOD9008237 Si02
#       8
#     2   2   2   2   2   2   2   2
#     4  12  24  38  67  97 126 157 214 272 310 356
#     4  10  23  40  63  93 126 166 209 258 314 372
#     4  11  24  44  64  92 129 170 215 253 316 382
#     4  10  21  39  64  91 124 165 209 255 311 376
#     4  11  24  41  66  90 128 167 212 257 317 376
#     4  10  23  43  65  93 124 172 211 255 313 380
#     4   9  21  38  61  91 121 167 210 248 309 390
#     4   9  20  41  65  88 126 171 203 251 318 384
#
# _framework density 21.601445999999999
#
# number of rings (size 3 to 8) (size 9 to 14) (size 15 to 20)
#    0.000    1.750    0.000    3.750    7.000    2.000 
#    4.500    1.250    0.000    0.000    0.000    0.000 
#    0.000    0.000    0.000    0.000    0.000    0.000 
#
# Total GULP energy -89230.280949 kJ/mol
# GULP energy per Si atom -5576.892559 kJ/mol
# Density = 2.155228 g / cm^3
# Si number density = 21.601446 Si / 1000 Ang^3
#
#
#
# Elastic Constant Matrix: (Units=GPa)
#
#
# Indices 1 2 3 4 5 6 
#
# 1 42.0541 3.4075 19.1936 9.5407 1.8501 6.9473
# 2 3.4075 91.3409 39.0196 6.8484 -2.1660 11.5262
# 3 19.1936 39.0196 88.3795 34.3721 4.3347 -6.6525
# 4 9.5407 6.8484 34.3721 50.1959 -7.2762 0.0824
# 5 1.8501 -2.1660 4.3347 -7.2762 25.7499 -2.5750
# 6 6.9473 11.5262 -6.6525 0.0824 -2.5750 22.7990
#
#
#
# Elastic Compliance Matrix: (Units=1/GPa)
#
#
# Indices 1 2 3 4 5 6 
#
# 1 0.030348 0.004876 -0.009807 0.000078 -0.001572 -0.014752
# 2 0.004876 0.017210 -0.011914 0.005382 0.003293 -0.013310
# 3 -0.009807 -0.011914 0.026380 -0.015700 -0.007584 0.015909
# 4 0.000078 0.005382 -0.015700 0.031586 0.011400 -0.006153
# 5 -0.001572 0.003293 -0.007584 0.011400 0.043875 0.001516
# 6 -0.014752 -0.013310 0.015909 -0.006153 0.001516 0.059921
#
#
# Mechanical properties :
#
#
# Convention : Reuss Voigt Hill
#
# Bulk Modulus (GPa) = 24.84617 38.33510 31.59064
# Shear Modulus (GPa) = 19.49884 30.42588 24.96236
#
# Velocity S-wave (km/s) = 3.00770 3.75709 3.40308
# Velocity P-wave (km/s) = 4.85682 6.05029 5.48610
#
# Compressibility (1/GPa) = 0.04024765
#
# Stress axis : x y z
#
# Youngs Moduli (GPa) = 32.95079 58.10739 37.90762
#
# Poissons Ratio (x) = -0.28332 0.37177
# Poissons Ratio (y) = -0.16066 0.45161
# Poissons Ratio (z) = 0.32316 0.69227
#
# Static dielectric constant tensor:
#      x y z
#    x 1.871910 -0.122260 0.083020 
#    y -0.122260 2.248740 -0.194590 
#    z 0.083020 -0.194590 1.850150 
# 
# From -- ./inp_files/266712.got.cif
#   From: 2010.05.17/outbox.cif.g08.bks.cpg/sg2_134_cif.got.tgz:266712.got - 2010.06.03 11:33:40.
