data_PCOD9008529
_publ_section_title
;
Structure prediction by ZEFSAII (Michael W. Deem and Ramdas Pophale) SiO2 
 PCOD9008529
Probable space group: P -1
;
_chemical_formula_sum "Si O2"
_cell_formula_units_Z 16
_cell_length_a 11.849540
_cell_length_b 18.818835
_cell_length_c 5.356893
_cell_angle_alpha 103.004211
_cell_angle_beta 122.971453
_cell_angle_gamma 51.768318
_cell_volume 775.811120
_symmetry_space_group_name_H-M "P -1"
_symmetry_group_IT_number 2
_symmetry_cell_setting 'triclinic'
loop_
_space_group_symop_operation_xyz
x,y,z
-x,-y,-z
loop_
_atom_site_type_symbol
_atom_site_label
_atom_site_fract_x
_atom_site_fract_y
_atom_site_fract_z
Si Si1 0.259554 0.700702 0.705304
Si Si2 0.650942 0.731025 0.450337
Si Si3 0.345049 0.106106 0.416260
Si Si4 0.859711 0.808799 0.277848
Si Si5 0.074113 0.367741 0.936208
Si Si6 0.810501 0.555808 0.201377
Si Si7 0.299673 0.519039 0.609544
Si Si8 0.567274 0.311170 0.600784
O O1 0.333182 0.593636 0.725293
O O2 0.343392 0.710406 0.573833
O O3 0.057768 0.762995 0.472127
O O4 0.304500 0.723582 0.039206
O O5 0.588907 0.832648 0.409851
O O6 0.673803 0.658817 0.223353
O O7 0.533472 0.731170 0.516743
O O8 0.844955 0.676776 0.737044
O O9 0.228619 0.129275 0.535764
O O10 0.500000 0.000000 0.500000
O O11 0.238305 0.139815 0.055651
O O12 0.856936 0.720874 0.222642
O O13 0.149752 0.421140 0.997865
O O14 0.874149 0.429604 0.718442
O O15 0.742902 0.501834 0.185208
O O16 0.000000 0.500000 0.500000
O O17 0.438419 0.422122 0.570584
#
# Coordination Sequence:
#
# PCOD9008529 Si02
#       8
#     2   2   2   2   2   2   2   2
#     4  11  23  42  55  83 117 169 209 231 281 341
#     4  10  22  36  57  87 118 155 195 244 310 355
#     4  11  22  40  69  99 119 139 184 253 317 362
#     4  10  21  39  65  88 121 153 191 240 297 364
#     4   9  18  35  54  81 116 155 198 246 306 352
#     4   9  17  31  49  80 112 152 187 240 289 348
#     4   9  20  34  53  81 113 160 206 256 280 333
#     4  11  24  37  58  79 121 164 206 247 274 338
#
# _framework density 20.623577000000001
#
# number of rings (size 3 to 8) (size 9 to 14) (size 15 to 20)
#    0.000    2.000    1.250    1.875    3.500    4.500 
#    4.500    0.000    0.000    4.500    0.000    0.000 
#    0.000    0.000    0.000    0.000    0.000    0.000 
#
# Total GULP energy -89290.831033 kJ/mol
# GULP energy per Si atom -5580.676940 kJ/mol
# Density = 2.057664 g / cm^3
# Si number density = 20.623577 Si / 1000 Ang^3
#
#
#
# Elastic Constant Matrix: (Units=GPa)
#
#
# Indices 1 2 3 4 5 6 
#
# 1 109.2797 39.6022 33.3859 -1.6499 -13.0617 -13.5245
# 2 39.6022 114.3797 29.3270 -11.1792 -4.9593 -15.8049
# 3 33.3859 29.3270 102.1021 -11.8423 -3.1116 -6.3731
# 4 -1.6499 -11.1792 -11.8423 22.2433 -3.2124 0.0224
# 5 -13.0617 -4.9593 -3.1116 -3.2124 32.5823 6.6410
# 6 -13.5245 -15.8049 -6.3731 0.0224 6.6410 28.3800
#
#
#
# Elastic Compliance Matrix: (Units=1/GPa)
#
#
# Indices 1 2 3 4 5 6 
#
# 1 0.011825 -0.003017 -0.002942 -0.001729 0.003316 0.002520
# 2 -0.003017 0.011225 -0.001420 0.004643 -0.000099 0.004514
# 3 -0.002942 -0.001420 0.011820 0.005387 0.000180 0.000415
# 4 -0.001729 0.004643 0.005387 0.050777 0.005184 0.001718
# 5 0.003316 -0.000099 0.000180 0.005184 0.033829 -0.006355
# 6 0.002520 0.004514 0.000415 0.001718 -0.006355 0.040530
#
#
# Mechanical properties :
#
#
# Convention : Reuss Voigt Hill
#
# Bulk Modulus (GPa) = 49.72412 58.93240 54.32826
# Shear Modulus (GPa) = 27.55288 31.53754 29.54521
#
# Velocity S-wave (km/s) = 3.65908 3.91474 3.78907
# Velocity P-wave (km/s) = 6.48186 7.00506 6.74853
#
# Compressibility (1/GPa) = 0.02011096
#
# Stress axis : x y z
#
# Youngs Moduli (GPa) = 84.56549 89.08873 84.59998
#
# Poissons Ratio (x) = 0.26877 0.24892
# Poissons Ratio (y) = 0.25513 0.12017
# Poissons Ratio (z) = 0.24882 0.12654
#
# Static dielectric constant tensor:
#      x y z
#    x 1.770140 -0.008900 -0.035180 
#    y -0.008900 1.744840 0.029830 
#    z -0.035180 0.029830 1.843370 
# 
# From -- ./inp_files/80749.got.cif
#   From: 2010.05.17/outbox.cif.g08.bks.cpg/sg2_41_cif.got.tgz:80749.got - 2010.06.03 11:33:40.
