data_PCOD9008548
_publ_section_title
;
Structure prediction by ZEFSAII (Michael W. Deem and Ramdas Pophale) SiO2 
 PCOD9008548
Probable space group: P -1
;
_chemical_formula_sum "Si O2"
_cell_formula_units_Z 16
_cell_length_a 9.213374
_cell_length_b 13.209212
_cell_length_c 10.952286
_cell_angle_alpha 150.269687
_cell_angle_beta 75.161604
_cell_angle_gamma 95.551373
_cell_volume 616.632169
_symmetry_space_group_name_H-M "P -1"
_symmetry_group_IT_number 2
_symmetry_cell_setting 'triclinic'
loop_
_space_group_symop_operation_xyz
x,y,z
-x,-y,-z
loop_
_atom_site_type_symbol
_atom_site_label
_atom_site_fract_x
_atom_site_fract_y
_atom_site_fract_z
Si Si1 0.327889 0.973837 0.162170
Si Si2 0.931158 0.702955 0.846901
Si Si3 0.214777 0.480667 0.940248
Si Si4 0.031395 0.340076 0.634502
Si Si5 0.724760 0.887673 0.280673
Si Si6 0.255726 0.509724 0.489300
Si Si7 0.438741 0.727906 0.120848
Si Si8 0.487222 0.727388 0.630306
O O1 0.152988 0.120143 0.348241
O O2 0.445583 0.123950 0.315565
O O3 0.353846 0.817145 0.106014
O O4 0.387550 0.862341 0.904364
O O5 0.807192 0.681944 0.749559
O O6 0.958490 0.479667 0.680752
O O7 0.100292 0.690550 0.744857
O O8 0.856335 0.882946 0.147639
O O9 0.385072 0.516249 0.933748
O O10 0.105119 0.655911 0.235091
O O11 0.133554 0.478772 0.826461
O O12 0.212438 0.257490 0.767466
O O13 0.611651 0.755658 0.107780
O O14 0.634446 0.111926 0.585640
O O15 0.372206 0.595011 0.466779
O O16 0.362550 0.422701 0.492130
#
# Coordination Sequence:
#
# PCOD9008548 Si02
#       8
#     2   2   2   2   2   2   2   2
#     4  11  22  39  60  90 129 157 208 263 302 366
#     4  10  21  39  65  89 127 160 205 260 307 366
#     4  10  22  40  64  89 126 167 206 248 310 370
#     4  10  21  40  59  91 127 163 202 257 306 372
#     4  10  22  42  60  97 127 159 208 257 305 373
#     4  10  21  41  66  89 115 168 213 251 314 368
#     4  11  23  39  65  92 126 167 203 255 313 368
#     4  10  23  40  63  91 119 161 212 259 307 366
#
# _framework density 25.947396000000001
#
# number of rings (size 3 to 8) (size 9 to 14) (size 15 to 20)
#    0.000    1.750    2.500    1.125    1.750    2.500 
#    9.000    0.625    0.000    0.000    0.000    0.000 
#    0.000    0.000    0.000    0.000    0.000    0.000 
#
# Total GULP energy -89559.167472 kJ/mol
# GULP energy per Si atom -5597.447967 kJ/mol
# Density = 2.588834 g / cm^3
# Si number density = 25.947396 Si / 1000 Ang^3
#
#
#
# Elastic Constant Matrix: (Units=GPa)
#
#
# Indices 1 2 3 4 5 6 
#
# 1 128.5894 17.7247 17.3422 -1.4707 -2.0629 13.9717
# 2 17.7247 39.4163 6.9645 -8.4998 0.6186 6.6884
# 3 17.3422 6.9645 93.7360 -19.0448 -17.8707 4.6821
# 4 -1.4707 -8.4998 -19.0448 27.7924 7.3831 -5.0470
# 5 -2.0629 0.6186 -17.8707 7.3831 41.1457 1.1662
# 6 13.9717 6.6884 4.6821 -5.0470 1.1662 36.4587
#
#
#
# Elastic Compliance Matrix: (Units=1/GPa)
#
#
# Indices 1 2 3 4 5 6 
#
# 1 0.008792 -0.003703 -0.001638 -0.002379 0.000292 -0.002818
# 2 -0.003703 0.029440 0.000035 0.008912 -0.002136 -0.002684
# 3 -0.001638 0.000035 0.013413 0.007942 0.004322 -0.000140
# 4 -0.002379 0.008912 0.007942 0.046295 -0.005248 0.004833
# 5 0.000292 -0.002136 0.004322 -0.005248 0.027223 -0.001872
# 6 -0.002818 -0.002684 -0.000140 0.004833 -0.001872 0.029748
#
#
# Mechanical properties :
#
#
# Convention : Reuss Voigt Hill
#
# Bulk Modulus (GPa) = 24.37117 38.42270 31.39694
# Shear Modulus (GPa) = 27.90163 35.72672 31.81418
#
# Velocity S-wave (km/s) = 3.28276 3.71467 3.50537
# Velocity P-wave (km/s) = 4.87664 5.76528 5.33948
#
# Compressibility (1/GPa) = 0.04103208
#
# Stress axis : x y z
#
# Youngs Moduli (GPa) = 113.74228 33.96724 74.55244
#
# Poissons Ratio (x) = 0.12580 0.12215
# Poissons Ratio (y) = 0.42124 -0.00263
# Poissons Ratio (z) = 0.18636 -0.00120
#
# Static dielectric constant tensor:
#      x y z
#    x 2.043730 0.003430 0.024090 
#    y 0.003430 2.020020 -0.002080 
#    z 0.024090 -0.002080 2.092280 
# 
# From -- ./inp_files/239883.got.cif
#   From: 2010.05.17/outbox.cif.g08.bks.cpg/sg2_120_cif.got.tgz:239883.got - 2010.06.03 11:33:40.
