data_PCOD9008559
_publ_section_title
;
Structure prediction by ZEFSAII (Michael W. Deem and Ramdas Pophale) SiO2 
 PCOD9008559
Probable space group: P -1
;
_chemical_formula_sum "Si O2"
_cell_formula_units_Z 16
_cell_length_a 8.206441
_cell_length_b 19.940955
_cell_length_c 7.364889
_cell_angle_alpha 90.885201
_cell_angle_beta 58.187392
_cell_angle_gamma 122.621152
_cell_volume 799.501963
_symmetry_space_group_name_H-M "P -1"
_symmetry_group_IT_number 2
_symmetry_cell_setting 'triclinic'
loop_
_space_group_symop_operation_xyz
x,y,z
-x,-y,-z
loop_
_atom_site_type_symbol
_atom_site_label
_atom_site_fract_x
_atom_site_fract_y
_atom_site_fract_z
Si Si1 0.143561 0.905254 0.353355
Si Si2 0.600133 0.370682 0.328585
Si Si3 0.674735 0.959094 0.058087
Si Si4 0.885786 0.762498 0.193128
Si Si5 0.080120 0.660710 0.034250
Si Si6 0.100174 0.476294 0.598955
Si Si7 0.960680 0.891406 0.866367
Si Si8 0.442681 0.502942 0.826596
O O1 0.031195 0.896995 0.615159
O O2 0.968658 0.824694 0.319912
O O3 0.220411 0.986279 0.189199
O O4 0.391908 0.916921 0.236024
O O5 0.389513 0.319774 0.600472
O O6 0.839318 0.457232 0.278151
O O7 0.525210 0.410605 0.227311
O O8 0.684021 0.316946 0.205984
O O9 0.735964 0.894176 0.017650
O O10 0.818974 0.025298 0.144273
O O11 0.057358 0.734757 0.074221
O O12 0.904500 0.810673 0.002796
O O13 0.076868 0.619620 0.224448
O O14 0.825918 0.581949 0.080240
O O15 0.351123 0.492385 0.405926
O O16 0.000000 0.500000 0.500000
O O17 0.500000 0.500000 0.000000
#
# Coordination Sequence:
#
# PCOD9008559 Si02
#       8
#     2   2   2   2   2   2   2   2
#     4  10  21  39  65  90 124 157 200 239 300 353
#     4  11  22  41  58  81 122 157 198 259 308 349
#     4   9  20  40  66  95 116 154 204 251 278 352
#     4  11  24  41  54  89 132 160 188 253 300 371
#     4  11  22  41  58  81 122 157 198 259 308 349
#     4  11  20  39  62  86 108 150 217 255 296 362
#     4  10  21  39  65  90 124 157 200 239 300 353
#     4  11  20  37  64  86 110 154 211 258 305 359
#
# _framework density 20.012459
#
# number of rings (size 3 to 8) (size 9 to 14) (size 15 to 20)
#    0.000    1.500    2.500    4.500    0.000    3.000 
#    6.750    2.500    0.000    0.000    0.000    0.000 
#    0.000    0.000    0.000    0.000    0.000    0.000 
#
# Total GULP energy -89336.338203 kJ/mol
# GULP energy per Si atom -5583.521138 kJ/mol
# Density = 1.996691 g / cm^3
# Si number density = 20.012459 Si / 1000 Ang^3
#
#
#
# Elastic Constant Matrix: (Units=GPa)
#
#
# Indices 1 2 3 4 5 6 
#
# 1 85.3860 20.0024 14.4217 12.0857 10.4423 -27.7153
# 2 20.0024 59.6804 28.9052 6.7499 5.5408 -33.8363
# 3 14.4217 28.9052 81.4654 27.0357 8.0838 -15.9451
# 4 12.0857 6.7499 27.0357 20.3393 -2.6394 -5.2030
# 5 10.4423 5.5408 8.0838 -2.6394 38.3117 4.8533
# 6 -27.7153 -33.8363 -15.9451 -5.2030 4.8533 36.9491
#
#
#
# Elastic Compliance Matrix: (Units=1/GPa)
#
#
# Indices 1 2 3 4 5 6 
#
# 1 0.020560 0.006430 0.005435 -0.017276 -0.011755 0.022767
# 2 0.006430 0.043790 -0.007259 0.000863 -0.012004 0.043490
# 3 0.005435 -0.007259 0.029019 -0.039220 -0.009984 0.005741
# 4 -0.017276 0.000863 -0.039220 0.109963 0.022534 -0.016569
# 5 -0.011755 -0.012004 -0.009984 0.022534 0.037986 -0.025935
# 6 0.022767 0.043490 0.005741 -0.016569 -0.025935 0.087519
#
#
# Mechanical properties :
#
#
# Convention : Reuss Voigt Hill
#
# Bulk Modulus (GPa) = 9.74834 39.24338 24.49586
# Shear Modulus (GPa) = 14.13154 30.00020 22.06587
#
# Velocity S-wave (km/s) = 2.66021 3.87599 3.32415
# Velocity P-wave (km/s) = 3.78382 6.29945 5.19617
#
# Compressibility (1/GPa) = 0.10258159
#
# Stress axis : x y z
#
# Youngs Moduli (GPa) = 48.63802 22.83605 34.46061
#
# Poissons Ratio (x) = -0.14684 -0.18729
# Poissons Ratio (y) = -0.31275 0.25014
# Poissons Ratio (z) = -0.26434 0.16576
#
# Static dielectric constant tensor:
#      x y z
#    x 1.728900 -0.020490 -0.043230 
#    y -0.020490 1.756260 0.046900 
#    z -0.043230 0.046900 1.861040 
# 
# From -- ./inp_files/219572.got.cif
#   From: 2010.05.17/outbox.cif.g08.bks.cpg/sg2_110_cif.got.tgz:219572.got - 2010.06.03 11:33:40.
