data_PCOD9008925
_publ_section_title
;
Structure prediction by ZEFSAII (Michael W. Deem and Ramdas Pophale) SiO2 
 PCOD9008925
Probable space group: P -1
;
_chemical_formula_sum "Si O2"
_cell_formula_units_Z 16
_cell_length_a 14.993335
_cell_length_b 20.926878
_cell_length_c 26.242605
_cell_angle_alpha 163.703194
_cell_angle_beta 161.088628
_cell_angle_gamma 26.622903
_cell_volume 739.893953
_symmetry_space_group_name_H-M "P -1"
_symmetry_group_IT_number 2
_symmetry_cell_setting 'triclinic'
loop_
_space_group_symop_operation_xyz
x,y,z
-x,-y,-z
loop_
_atom_site_type_symbol
_atom_site_label
_atom_site_fract_x
_atom_site_fract_y
_atom_site_fract_z
Si Si1 0.516871 0.869117 0.573706
Si Si2 0.304950 0.958706 0.719376
Si Si3 0.915350 0.153180 0.191161
Si Si4 0.640447 0.372463 0.596754
Si Si5 0.724154 0.438710 0.532641
Si Si6 0.238288 0.490493 0.700241
Si Si7 0.313567 0.627402 0.960300
Si Si8 0.211944 0.478627 0.039258
O O1 0.544941 0.776618 0.574863
O O2 0.300934 0.673601 0.279299
O O3 0.795649 0.900047 0.714543
O O4 0.483837 0.134239 0.761766
O O5 0.254656 0.802286 0.521535
O O6 0.191890 0.803042 0.587521
O O7 0.639163 0.986342 0.927873
O O8 0.223167 0.214335 0.862798
O O9 0.814307 0.287750 0.190823
O O10 0.005716 0.301609 0.404111
O O11 0.454445 0.542992 0.600934
O O12 0.916517 0.494044 0.866762
O O13 0.500000 0.500000 0.500000
O O14 0.012489 0.614072 0.815553
O O15 0.229476 0.511158 0.771354
O O16 0.548129 0.462706 0.828744
O O17 0.500000 0.500000 0.000000
#
# Coordination Sequence:
#
# PCOD9008925 Si02
#       8
#     2   2   2   2   2   2   2   2
#     4  11  22  40  64  93 130 163 222 270 313 382
#     4  10  21  39  66  93 128 167 211 265 322 387
#     4   9  18  39  65  94 124 163 212 268 324 374
#     4  11  22  38  66  95 127 171 216 262 319 384
#     4  10  24  42  64  96 131 168 210 265 323 378
#     4   9  20  39  64  94 126 163 217 266 317 382
#     4  12  27  43  66  95 130 174 221 266 322 385
#     4  10  22  39  66  96 126 172 212 267 322 379
#
# _framework density 21.62472
#
# number of rings (size 3 to 8) (size 9 to 14) (size 15 to 20)
#    0.000    1.750    0.000    5.250    5.250    1.500 
#    2.250    2.500    0.000    0.000    0.000    0.000 
#    0.000    0.000    0.000    0.000    0.000    0.000 
#
# Total GULP energy -89170.160314 kJ/mol
# GULP energy per Si atom -5573.135020 kJ/mol
# Density = 2.157550 g / cm^3
# Si number density = 21.624720 Si / 1000 Ang^3
#
#
#
# Elastic Constant Matrix: (Units=GPa)
#
#
# Indices 1 2 3 4 5 6 
#
# 1 86.7129 31.6541 42.0236 2.8150 -10.4013 18.6770
# 2 31.6541 73.2494 55.2418 -14.9129 -10.6592 23.2247
# 3 42.0236 55.2418 44.7735 -43.9022 38.6169 40.1431
# 4 2.8150 -14.9129 -43.9022 11.0953 18.0772 20.2447
# 5 -10.4013 -10.6592 38.6169 18.0772 9.0647 -13.9748
# 6 18.6770 23.2247 40.1431 20.2447 -13.9748 29.6228
#
#
#
# Elastic Compliance Matrix: (Units=1/GPa)
#
#
# Indices 1 2 3 4 5 6 
#
# 1 0.014510 -0.002421 -0.000998 0.002920 0.000239 -0.007780
# 2 -0.002421 0.036753 -0.011771 0.022917 0.011960 -0.021356
# 3 -0.000998 -0.011771 0.007443 -0.015810 0.004175 0.012546
# 4 0.002920 0.022917 -0.015810 0.030621 0.024997 -0.007517
# 5 0.000239 0.011960 0.004175 0.024997 0.026672 -0.019686
# 6 -0.007780 -0.021356 0.012546 -0.007517 -0.019686 0.034255
#
#
# Mechanical properties :
#
#
# Convention : Reuss Voigt Hill
#
# Bulk Modulus (GPa) = 35.30572 51.39720 43.35146
# Shear Modulus (GPa) = 26.30514 15.01097 20.65806
#
# Velocity S-wave (km/s) = 3.49153 2.63755 3.09414
# Velocity P-wave (km/s) = 5.71108 5.75282 5.73199
#
# Compressibility (1/GPa) = 0.02832402
#
# Stress axis : x y z
#
# Youngs Moduli (GPa) = 68.91987 27.20875 134.35128
#
# Poissons Ratio (x) = 0.06588 0.13415
# Poissons Ratio (y) = 0.16688 1.58145
# Poissons Ratio (z) = 0.06881 0.32028
#
# Static dielectric constant tensor:
#      x y z
#    x 1.836090 -0.054330 0.023460 
#    y -0.054330 1.832630 0.037700 
#    z 0.023460 0.037700 1.841510 
# 
# From -- ./inp_files/612223.got.cif
#   From: 2010.05.17/outbox.cif.g08.bks.cpg/sg2_307_cif.got.tgz:612223.got - 2010.06.03 11:33:40.
