data_PCOD9008112
_publ_section_title
;
Structure prediction by ZEFSAII (Michael W. Deem and Ramdas Pophale) SiO2 
 PCOD9008112
Probable space group: P -1
;
_chemical_formula_sum "Si O2"
_cell_formula_units_Z 16
_cell_length_a 12.964366
_cell_length_b 14.264019
_cell_length_c 5.521356
_cell_angle_alpha 126.720086
_cell_angle_beta 94.797778
_cell_angle_gamma 69.917442
_cell_volume 758.558207
_symmetry_space_group_name_H-M "P -1"
_symmetry_group_IT_number 2
_symmetry_cell_setting 'triclinic'
loop_
_space_group_symop_operation_xyz
x,y,z
-x,-y,-z
loop_
_atom_site_type_symbol
_atom_site_label
_atom_site_fract_x
_atom_site_fract_y
_atom_site_fract_z
Si Si1 0.333166 0.013114 0.330173
Si Si2 0.750241 0.384464 0.403262
Si Si3 0.497202 0.879229 0.532270
Si Si4 0.000899 0.641561 0.694613
Si Si5 0.577637 0.526238 0.259270
Si Si6 0.320345 0.358930 0.926326
Si Si7 0.125440 0.255621 0.677557
Si Si8 0.385042 0.754266 0.699237
O O1 0.409180 0.069449 0.267206
O O2 0.208243 0.110310 0.460249
O O3 0.399696 0.993359 0.564823
O O4 0.345254 0.872802 0.051509
O O5 0.668935 0.399419 0.181856
O O6 0.719649 0.289141 0.423931
O O7 0.875781 0.357306 0.315324
O O8 0.702509 0.523589 0.722943
O O9 0.574872 0.768392 0.196079
O O10 0.435053 0.810976 0.579469
O O11 0.935868 0.701873 0.526438
O O12 0.000000 0.500000 0.500000
O O13 0.950156 0.711707 0.045257
O O14 0.650343 0.597867 0.260552
O O15 0.489108 0.624373 0.571972
O O16 0.500000 0.500000 0.000000
O O17 0.209847 0.328841 0.842580
#
# Coordination Sequence:
#
# PCOD9008112 Si02
#       8
#     2   2   2   2   2   2   2   2
#     4  10  22  42  65  93 131 173 224 266 337 399
#     4  12  25  38  65  95 135 175 223 277 343 397
#     4   9  21  39  64  94 129 171 217 268 331 411
#     4  12  26  47  73 100 133 174 236 285 340 386
#     4  11  23  37  60  98 141 172 212 267 343 418
#     4  10  21  39  64 100 130 173 219 275 343 400
#     4  11  26  46  72 100 130 179 230 292 327 393
#     4  11  23  37  63  95 132 173 211 270 336 411
#
# _framework density 21.092646999999999
#
# number of rings (size 3 to 8) (size 9 to 14) (size 15 to 20)
#    0.000    1.250    2.500    2.625    7.000    0.000 
#    4.500    1.250    0.000    0.000    0.000    0.000 
#    0.000    0.000    0.000    0.000    0.000    0.000 
#
# Total GULP energy -89225.066823 kJ/mol
# GULP energy per Si atom -5576.566676 kJ/mol
# Density = 2.104464 g / cm^3
# Si number density = 21.092647 Si / 1000 Ang^3
#
#
#
# Elastic Constant Matrix: (Units=GPa)
#
#
# Indices 1 2 3 4 5 6 
#
# 1 158.0040 58.2237 43.9972 2.3464 -20.5358 6.6143
# 2 58.2237 110.8067 44.3849 5.8043 -13.2036 -14.4798
# 3 43.9972 44.3849 103.9878 12.4762 -10.4595 -10.9328
# 4 2.3464 5.8043 12.4762 30.0754 4.7248 4.4385
# 5 -20.5358 -13.2036 -10.4595 4.7248 38.8050 2.3968
# 6 6.6143 -14.4798 -10.9328 4.4385 2.3968 39.8249
#
#
#
# Elastic Compliance Matrix: (Units=1/GPa)
#
#
# Indices 1 2 3 4 5 6 
#
# 1 0.008976 -0.004005 -0.002352 0.001175 0.002851 -0.003895
# 2 -0.004005 0.013267 -0.003088 -0.001906 0.001500 0.004763
# 3 -0.002352 -0.003088 0.013104 -0.005419 0.001688 0.003367
# 4 0.001175 -0.001906 -0.005419 0.037584 -0.005679 -0.006223
# 5 0.002851 0.001500 0.001688 -0.005679 0.028971 -0.000575
# 6 -0.003895 0.004763 0.003367 -0.006223 -0.000575 0.029141
#
#
# Mechanical properties :
#
#
# Convention : Reuss Voigt Hill
#
# Bulk Modulus (GPa) = 60.76587 74.00112 67.38350
# Shear Modulus (GPa) = 32.17117 36.82057 34.49587
#
# Velocity S-wave (km/s) = 3.90966 4.18264 4.04845
# Velocity P-wave (km/s) = 7.01799 7.64761 7.33956
#
# Compressibility (1/GPa) = 0.01645661
#
# Stress axis : x y z
#
# Youngs Moduli (GPa) = 111.40958 75.37389 76.31495
#
# Poissons Ratio (x) = 0.30189 0.17949
# Poissons Ratio (y) = 0.44622 0.23565
# Poissons Ratio (z) = 0.26203 0.23275
#
# Static dielectric constant tensor:
#      x y z
#    x 1.758130 0.021680 0.018530 
#    y 0.021680 1.851170 -0.034800 
#    z 0.018530 -0.034800 1.838800 
# 
# From -- ./inp_files/78777.got.cif
#   From: 2010.05.17/outbox.cif.g08.bks.cpg/sg2_40_cif.got.tgz:78777.got - 2010.06.03 11:33:40.
