data_PCOD9008293
_publ_section_title
;
Structure prediction by ZEFSAII (Michael W. Deem and Ramdas Pophale) SiO2 
 PCOD9008293
Probable space group: P -1
;
_chemical_formula_sum "Si O2"
_cell_formula_units_Z 16
_cell_length_a 15.391546
_cell_length_b 11.854803
_cell_length_c 6.934010
_cell_angle_alpha 129.149557
_cell_angle_beta 78.852352
_cell_angle_gamma 133.949060
_cell_volume 634.861244
_symmetry_space_group_name_H-M "P -1"
_symmetry_group_IT_number 2
_symmetry_cell_setting 'triclinic'
loop_
_space_group_symop_operation_xyz
x,y,z
-x,-y,-z
loop_
_atom_site_type_symbol
_atom_site_label
_atom_site_fract_x
_atom_site_fract_y
_atom_site_fract_z
Si Si1 0.687731 0.560126 0.576314
Si Si2 0.948562 0.702372 0.571395
Si Si3 0.606753 0.833622 0.168519
Si Si4 0.546915 0.160793 0.978295
Si Si5 0.328232 0.354591 0.892028
Si Si6 0.810956 0.989171 0.933219
Si Si7 0.823245 0.554297 0.074019
Si Si8 0.994612 0.438617 0.154229
O O1 0.806650 0.589671 0.581564
O O2 0.566398 0.333584 0.278567
O O3 0.652439 0.582639 0.820872
O O4 0.742899 0.759991 0.637001
O O5 0.938149 0.719348 0.365365
O O6 0.068892 0.917174 0.875496
O O7 0.976035 0.562687 0.419366
O O8 0.464062 0.574968 0.968986
O O9 0.704420 0.935299 0.056383
O O10 0.554894 0.934431 0.258853
O O11 0.686038 0.839407 0.308393
O O12 0.694502 0.323290 0.991875
O O13 0.500000 0.000000 0.000000
O O14 0.217080 0.335970 0.861953
O O15 0.872588 0.180233 0.969243
O O16 0.875917 0.508184 0.838923
O O17 0.000000 0.500000 0.000000
#
# Coordination Sequence:
#
# PCOD9008293 Si02
#       8
#     2   2   2   2   2   2   2   2
#     4  10  22  40  66  94 126 171 217 263 317 381
#     4  10  21  39  64  92 131 170 211 260 328 375
#     4   9  21  38  62  89 130 167 210 256 325 372
#     4  10  22  42  67  94 126 171 215 270 325 382
#     4   9  18  40  61  90 128 165 211 268 308 380
#     4  11  22  38  62  96 133 171 215 258 321 394
#     4   9  20  40  63  93 129 166 217 262 318 379
#     4  10  22  40  62  93 130 172 213 267 317 382
#
# _framework density 25.202356000000002
#
# number of rings (size 3 to 8) (size 9 to 14) (size 15 to 20)
#    0.000    2.250    0.000    1.500    5.250    3.000 
#    2.250   26.875    0.000    0.000    0.000    0.000 
#    0.000    0.000    0.000    0.000    0.000    0.000 
#
# Total GULP energy -89170.411914 kJ/mol
# GULP energy per Si atom -5573.150745 kJ/mol
# Density = 2.514499 g / cm^3
# Si number density = 25.202356 Si / 1000 Ang^3
#
#
#
# Elastic Constant Matrix: (Units=GPa)
#
#
# Indices 1 2 3 4 5 6 
#
# 1 131.2914 36.7831 3.8295 9.6789 -4.9944 -10.9112
# 2 36.7831 157.6572 14.9081 21.9536 -14.9497 -15.4694
# 3 3.8295 14.9081 53.0005 11.5254 -2.6282 -11.6927
# 4 9.6789 21.9536 11.5254 24.7613 2.7983 -16.0414
# 5 -4.9944 -14.9497 -2.6282 2.7983 23.7652 3.7693
# 6 -10.9112 -15.4694 -11.6927 -16.0414 3.7693 50.4679
#
#
#
# Elastic Compliance Matrix: (Units=1/GPa)
#
#
# Indices 1 2 3 4 5 6 
#
# 1 0.008266 -0.001588 0.000417 -0.001571 0.000837 0.000835
# 2 -0.001588 0.008309 -0.000425 -0.007725 0.005881 -0.000789
# 3 0.000417 -0.000425 0.021450 -0.008879 0.002938 0.001888
# 4 -0.001571 -0.007725 -0.008879 0.064933 -0.016531 0.017109
# 5 0.000837 0.005881 0.002938 -0.016531 0.049219 -0.006266
# 6 0.000835 -0.000789 0.001888 0.017109 -0.006266 0.026097
#
#
# Mechanical properties :
#
#
# Convention : Reuss Voigt Hill
#
# Bulk Modulus (GPa) = 28.70844 50.33229 39.52036
# Shear Modulus (GPa) = 25.89606 38.89410 32.39508
#
# Velocity S-wave (km/s) = 3.20898 3.93271 3.58914
# Velocity P-wave (km/s) = 5.01458 6.37466 5.73508
#
# Compressibility (1/GPa) = 0.03483297
#
# Stress axis : x y z
#
# Youngs Moduli (GPa) = 120.97100 120.34483 46.61945
#
# Poissons Ratio (x) = 0.19111 -0.01943
# Poissons Ratio (y) = 0.19210 0.01983
# Poissons Ratio (z) = -0.05041 0.05118
#
# Static dielectric constant tensor:
#      x y z
#    x 2.137890 -0.072270 -0.000440 
#    y -0.072270 2.000120 -0.033110 
#    z -0.000440 -0.033110 2.055820 
# 
# From -- ./inp_files/308540.got.cif
#   From: 2010.05.17/outbox.cif.g08.bks.cpg/sg2_155_cif.got.tgz:308540.got - 2010.06.03 11:33:40.
