data_PCOD9008372
_publ_section_title
;
Structure prediction by ZEFSAII (Michael W. Deem and Ramdas Pophale) SiO2 
 PCOD9008372
Probable space group: P -1
;
_chemical_formula_sum "Si O2"
_cell_formula_units_Z 16
_cell_length_a 9.042566
_cell_length_b 10.943416
_cell_length_c 16.853279
_cell_angle_alpha 149.512374
_cell_angle_beta 55.096108
_cell_angle_gamma 127.501666
_cell_volume 666.559174
_symmetry_space_group_name_H-M "P -1"
_symmetry_group_IT_number 2
_symmetry_cell_setting 'triclinic'
loop_
_space_group_symop_operation_xyz
x,y,z
-x,-y,-z
loop_
_atom_site_type_symbol
_atom_site_label
_atom_site_fract_x
_atom_site_fract_y
_atom_site_fract_z
Si Si1 0.446958 0.716823 0.427712
Si Si2 0.102049 0.882961 0.196611
Si Si3 0.523860 0.672131 0.667125
Si Si4 0.811330 0.993150 0.247937
Si Si5 0.125225 0.962314 0.514237
Si Si6 0.318709 0.576584 0.043582
Si Si7 0.760068 0.485340 0.778294
Si Si8 0.291146 0.019658 0.898589
O O1 0.451727 0.486651 0.353456
O O2 0.650196 0.914805 0.491520
O O3 0.400443 0.620130 0.298158
O O4 0.282496 0.838178 0.574180
O O5 0.167392 0.642961 0.068769
O O6 0.013993 0.950683 0.180396
O O7 0.941095 0.901272 0.316772
O O8 0.286463 0.108960 0.281826
O O9 0.500000 0.500000 0.500000
O O10 0.355946 0.804871 0.804088
O O11 0.803364 0.090334 0.216071
O O12 0.682859 0.706798 0.130339
O O13 0.089857 0.666001 0.373217
O O14 0.000000 0.000000 0.500000
O O15 0.273652 0.584152 0.155736
O O16 0.512089 0.776688 0.073668
O O17 0.812181 0.786474 0.924620
#
# Coordination Sequence:
#
# PCOD9008372 Si02
#       8
#     2   2   2   2   2   2   2   2
#     4  12  25  40  69  94 129 171 215 261 320 384
#     4  11  24  39  68  97 129 166 215 267 312 380
#     4  11  24  47  65  89 129 179 215 252 323 391
#     4  11  21  39  64 102 123 165 218 266 310 379
#     4  12  23  39  63 100 131 160 208 272 330 363
#     4  10  21  39  64  94 135 167 207 263 327 373
#     4  11  22  39  63  95 130 164 211 264 321 373
#     4  10  22  40  67  88 129 177 214 255 317 388
#
# _framework density 24.003869999999999
#
# number of rings (size 3 to 8) (size 9 to 14) (size 15 to 20)
#    0.000    1.000    3.750    4.500    3.500    1.000 
#    0.000    0.000    0.000    4.500    0.000    0.000 
#    0.000    0.000    0.000    0.000    0.000    0.000 
#
# Total GULP energy -89372.735984 kJ/mol
# GULP energy per Si atom -5585.795999 kJ/mol
# Density = 2.394924 g / cm^3
# Si number density = 24.003870 Si / 1000 Ang^3
#
#
#
# Elastic Constant Matrix: (Units=GPa)
#
#
# Indices 1 2 3 4 5 6 
#
# 1 159.9679 25.2329 28.0551 13.6274 -8.5732 -33.3802
# 2 25.2329 53.7155 16.9511 10.9480 -4.5149 -17.9291
# 3 28.0551 16.9511 100.0629 9.9091 -14.7831 -21.2432
# 4 13.6274 10.9480 9.9091 29.1282 -12.9545 -8.9655
# 5 -8.5732 -4.5149 -14.7831 -12.9545 55.1697 9.4955
# 6 -33.3802 -17.9291 -21.2432 -8.9655 9.4955 37.4513
#
#
#
# Elastic Compliance Matrix: (Units=1/GPa)
#
#
# Indices 1 2 3 4 5 6 
#
# 1 0.007879 -0.001314 -0.000682 -0.001349 -0.000377 0.005779
# 2 -0.001314 0.023516 -0.001512 -0.005837 -0.001468 0.008204
# 3 -0.000682 -0.001512 0.011801 -0.000829 0.001933 0.004674
# 4 -0.001349 -0.005837 -0.000829 0.042260 0.008408 0.003518
# 5 -0.000377 -0.001468 0.001933 0.008408 0.021000 -0.003254
# 6 0.005779 0.008204 0.004674 0.003518 -0.003254 0.040098
#
#
# Mechanical properties :
#
#
# Convention : Reuss Voigt Hill
#
# Bulk Modulus (GPa) = 27.63973 50.46940 39.05456
# Shear Modulus (GPa) = 30.18805 40.58364 35.38585
#
# Velocity S-wave (km/s) = 3.55016 4.11629 3.84366
# Velocity P-wave (km/s) = 5.32396 6.60779 6.00031
#
# Compressibility (1/GPa) = 0.03617980
#
# Stress axis : x y z
#
# Youngs Moduli (GPa) = 126.92447 42.52513 84.73894
#
# Poissons Ratio (x) = 0.05586 0.05776
# Poissons Ratio (y) = 0.16672 0.12817
# Poissons Ratio (z) = 0.08652 0.06432
#
# Static dielectric constant tensor:
#      x y z
#    x 2.113770 -0.040600 -0.036900 
#    y -0.040600 1.969210 0.025990 
#    z -0.036900 0.025990 1.952590 
# 
# From -- ./inp_files/559373.got.cif
#   From: 2010.05.17/outbox.cif.g08.bks.cpg/sg2_280_cif.got.tgz:559373.got - 2010.06.03 11:33:40.
