data_PCOD9008441
_publ_section_title
;
Structure prediction by ZEFSAII (Michael W. Deem and Ramdas Pophale) SiO2 
 PCOD9008441
Probable space group: P -1
;
_chemical_formula_sum "Si O2"
_cell_formula_units_Z 16
_cell_length_a 6.189189
_cell_length_b 22.367072
_cell_length_c 9.171340
_cell_angle_alpha 48.839436
_cell_angle_beta 53.298244
_cell_angle_gamma 82.719678
_cell_volume 687.548240
_symmetry_space_group_name_H-M "P -1"
_symmetry_group_IT_number 2
_symmetry_cell_setting 'triclinic'
loop_
_space_group_symop_operation_xyz
x,y,z
-x,-y,-z
loop_
_atom_site_type_symbol
_atom_site_label
_atom_site_fract_x
_atom_site_fract_y
_atom_site_fract_z
Si Si1 0.240969 0.401577 0.237455
Si Si2 0.150929 0.535720 0.537111
Si Si3 0.844773 0.619800 0.037020
Si Si4 0.449957 0.036793 0.636134
Si Si5 0.450733 0.127261 0.106166
Si Si6 0.979607 0.788924 0.879060
Si Si7 0.855991 0.760685 0.302781
Si Si8 0.758730 0.928227 0.047986
O O1 0.322723 0.327462 0.392183
O O2 0.966716 0.399856 0.445615
O O3 0.500000 0.500000 0.000000
O O4 0.157753 0.383893 0.130288
O O5 0.503118 0.585966 0.285312
O O6 0.064423 0.451961 0.813257
O O7 0.000000 0.500000 0.500000
O O8 0.013668 0.717969 0.875535
O O9 0.699310 0.132034 0.335933
O O10 0.430790 0.044346 0.807987
O O11 0.558241 0.961718 0.676436
O O12 0.103212 0.002933 0.785650
O O13 0.218053 0.165641 0.185104
O O14 0.368608 0.099381 0.016355
O O15 0.791316 0.200804 0.863515
O O16 0.826072 0.745117 0.165359
O O17 0.772026 0.839980 0.246503
#
# Coordination Sequence:
#
# PCOD9008441 Si02
#       8
#     2   2   2   2   2   2   2   2
#     4  12  25  46  72 100 134 183 225 276 344 403
#     4  11  23  47  71  99 137 171 225 284 336 402
#     4  11  26  44  70 102 134 180 225 276 343 405
#     4  10  21  39  64  97 131 174 222 271 329 395
#     4  10  21  41  66  91 132 176 219 273 332 393
#     4  11  24  41  64  99 134 173 222 278 333 394
#     4  10  24  43  63  94 139 168 223 283 327 394
#     4   9  21  41  63  96 132 175 218 277 325 398
#
# _framework density 23.271093
#
# number of rings (size 3 to 8) (size 9 to 14) (size 15 to 20)
#    0.000    1.500    1.250    2.625    3.500    6.500 
#    6.750    0.000    0.000    0.000    0.000    0.000 
#    0.000    0.000    0.000    0.000    0.000    0.000 
#
# Total GULP energy -89586.426013 kJ/mol
# GULP energy per Si atom -5599.151626 kJ/mol
# Density = 2.321813 g / cm^3
# Si number density = 23.271093 Si / 1000 Ang^3
#
#
#
# Elastic Constant Matrix: (Units=GPa)
#
#
# Indices 1 2 3 4 5 6 
#
# 1 65.5999 23.9374 21.2583 -15.1834 10.4577 3.9205
# 2 23.9374 128.4983 29.6212 -14.3139 10.9111 8.2067
# 3 21.2583 29.6212 98.2017 -19.4977 17.1141 3.2244
# 4 -15.1834 -14.3139 -19.4977 46.6935 1.0975 -0.1310
# 5 10.4577 10.9111 17.1141 1.0975 30.9098 3.0582
# 6 3.9205 8.2067 3.2244 -0.1310 3.0582 41.0343
#
#
#
# Elastic Compliance Matrix: (Units=1/GPa)
#
#
# Indices 1 2 3 4 5 6 
#
# 1 0.018426 -0.002082 -0.001553 0.004813 -0.004725 -0.000854
# 2 -0.002082 0.008917 -0.001669 0.001390 -0.001436 -0.001342
# 3 -0.001553 -0.001669 0.013021 0.004567 -0.006251 -0.000061
# 4 0.004813 0.001390 0.004567 0.025442 -0.005491 -0.000606
# 5 -0.004725 -0.001436 -0.006251 -0.005491 0.038276 -0.001640
# 6 -0.000854 -0.001342 -0.000061 -0.000606 -0.001640 0.024845
#
#
# Mechanical properties :
#
#
# Convention : Reuss Voigt Hill
#
# Bulk Modulus (GPa) = 33.60836 49.10376 41.35606
# Shear Modulus (GPa) = 33.45518 38.22638 35.84078
#
# Velocity S-wave (km/s) = 3.79572 4.05737 3.92872
# Velocity P-wave (km/s) = 5.80374 6.56477 6.19595
#
# Compressibility (1/GPa) = 0.02975450
#
# Stress axis : x y z
#
# Youngs Moduli (GPa) = 54.27257 112.14257 76.79937
#
# Poissons Ratio (x) = 0.23352 0.11930
# Poissons Ratio (y) = 0.11302 0.12816
# Poissons Ratio (z) = 0.08431 0.18714
#
# Static dielectric constant tensor:
#      x y z
#    x 1.914790 -0.001240 -0.006650 
#    y -0.001240 1.831760 -0.015930 
#    z -0.006650 -0.015930 1.947790 
# 
# From -- ./inp_files/142532.got.cif
#   From: 2010.05.17/outbox.cif.g08.bks.cpg/sg2_72_cif.got.tgz:142532.got - 2010.06.03 11:33:40.
