data_PCOD9008431
_publ_section_title
;
Structure prediction by ZEFSAII (Michael W. Deem and Ramdas Pophale) SiO2 
 PCOD9008431
Probable space group: P -1
;
_chemical_formula_sum "Si O2"
_cell_formula_units_Z 16
_cell_length_a 13.312302
_cell_length_b 5.955998
_cell_length_c 11.996763
_cell_angle_alpha 81.306147
_cell_angle_beta 57.389043
_cell_angle_gamma 55.313173
_cell_volume 642.013635
_symmetry_space_group_name_H-M "P -1"
_symmetry_group_IT_number 2
_symmetry_cell_setting 'triclinic'
loop_
_space_group_symop_operation_xyz
x,y,z
-x,-y,-z
loop_
_atom_site_type_symbol
_atom_site_label
_atom_site_fract_x
_atom_site_fract_y
_atom_site_fract_z
Si Si1 0.139330 0.262589 0.643718
Si Si2 0.298446 0.662511 0.177654
Si Si3 0.668279 0.274475 0.284565
Si Si4 0.856182 0.028888 0.543230
Si Si5 0.114893 0.354031 0.073917
Si Si6 0.635948 0.590587 0.492773
Si Si7 0.842475 0.203419 0.972939
Si Si8 0.554738 0.096677 0.058970
O O1 0.282288 0.263924 0.553692
O O2 0.994306 0.538346 0.761860
O O3 0.196179 0.001517 0.713519
O O4 0.106199 0.219029 0.541638
O O5 0.231383 0.894657 0.295497
O O6 0.191534 0.681625 0.144496
O O7 0.405056 0.350315 0.188259
O O8 0.382371 0.746009 0.044250
O O9 0.628642 0.527532 0.371361
O O10 0.526261 0.268723 0.371912
O O11 0.711557 0.300525 0.132751
O O12 0.746958 0.296630 0.510893
O O13 0.000000 0.000000 0.500000
O O14 0.080883 0.654121 0.036040
O O15 0.091534 0.123374 0.058676
O O16 0.293837 0.173909 0.965915
O O17 0.500000 0.000000 0.000000
#
# Coordination Sequence:
#
# PCOD9008431 Si02
#       8
#     2   2   2   2   2   2   2   2
#     4  11  26  49  74 107 149 204 256 318 379 456
#     4  10  23  42  65 104 149 189 250 299 380 450
#     4  10  25  49  76 103 147 197 262 319 378 447
#     4  11  26  44  72 106 150 200 244 315 382 460
#     4  11  26  43  74 108 153 193 252 310 386 453
#     4  10  25  48  74 106 143 200 262 312 377 457
#     4  11  25  47  73 111 148 197 249 318 381 453
#     4  10  21  39  64  96 142 197 233 305 362 454
#
# _framework density 24.921589000000001
#
# number of rings (size 3 to 8) (size 9 to 14) (size 15 to 20)
#    0.000    1.500    1.250    1.125   14.000    2.500 
#    0.000    0.000    0.000    0.000    0.000    0.000 
#    0.000    0.000    0.000    0.000    0.000    0.000 
#
# Total GULP energy -89087.134923 kJ/mol
# GULP energy per Si atom -5567.945933 kJ/mol
# Density = 2.486487 g / cm^3
# Si number density = 24.921589 Si / 1000 Ang^3
#
#
#
# Elastic Constant Matrix: (Units=GPa)
#
#
# Indices 1 2 3 4 5 6 
#
# 1 -427.5788 231.0437 -90.5682 28.4710 -4.3567 -409.4805
# 2 231.0437 45.9595 83.9238 17.6481 12.4989 141.1939
# 3 -90.5682 83.9238 109.2627 30.6717 16.3689 -99.0816
# 4 28.4710 17.6481 30.6717 27.6188 1.3029 4.6359
# 5 -4.3567 12.4989 16.3689 1.3029 28.3487 -15.1274
# 6 -409.4805 141.1939 -99.0816 4.6359 -15.1274 -254.2516
#
#
#
# Elastic Compliance Matrix: (Units=1/GPa)
#
#
# Indices 1 2 3 4 5 6 
#
# 1 0.005254 0.000754 -0.001741 -0.002635 -0.002281 -0.007277
# 2 0.000754 0.009288 -0.000734 -0.006549 -0.001029 0.004171
# 3 -0.001741 -0.000734 0.010366 -0.008712 -0.006291 -0.001427
# 4 -0.002635 -0.006549 -0.008712 0.051673 0.007537 0.004496
# 5 -0.002281 -0.001029 -0.006291 0.007537 0.040418 0.003287
# 6 -0.007277 0.004171 -0.001427 0.004496 0.003287 0.010545
#
#
# Mechanical properties :
#
#
# Convention : Reuss Voigt Hill
#
# Bulk Modulus (GPa) = 46.58555 19.60465 33.09510
# Shear Modulus (GPa) = 36.19491 -72.77389 -18.28949
#
# Velocity S-wave (km/s) = 3.81511 -5.40967 -2.71196
# Velocity P-wave (km/s) = 6.17577 5.57994 1.87141
#
# Compressibility (1/GPa) = 0.02146589
#
# Stress axis : x y z
#
# Youngs Moduli (GPa) = 190.33300 107.66844 96.46756
#
# Poissons Ratio (x) = -0.08121 0.16798
# Poissons Ratio (y) = -0.14356 0.07081
# Poissons Ratio (z) = 0.33142 0.07903
#
# Static dielectric constant tensor:
#      x y z
#    x 1.826000 -0.280430 -0.296910 
#    y -0.280430 2.004040 -0.086550 
#    z -0.296910 -0.086550 1.806470 
# 
# From -- ./inp_files/525690.got.cif
#   From: 2010.05.17/outbox.cif.g08.bks.cpg/sg2_263_cif.got.tgz:525690.got - 2010.06.03 11:33:40.
