data_PCOD9008417
_publ_section_title
;
Structure prediction by ZEFSAII (Michael W. Deem and Ramdas Pophale) SiO2 
 PCOD9008417
Probable space group: P -1
;
_chemical_formula_sum "Si O2"
_cell_formula_units_Z 15
_cell_length_a 14.167849
_cell_length_b 7.805556
_cell_length_c 7.803705
_cell_angle_alpha 63.139271
_cell_angle_beta 63.739324
_cell_angle_gamma 49.901517
_cell_volume 574.230830
_symmetry_space_group_name_H-M "P -1"
_symmetry_group_IT_number 2
_symmetry_cell_setting 'triclinic'
loop_
_space_group_symop_operation_xyz
x,y,z
-x,-y,-z
loop_
_atom_site_type_symbol
_atom_site_label
_atom_site_fract_x
_atom_site_fract_y
_atom_site_fract_z
Si Si1 0.891095 0.888886 0.393330
Si Si2 0.262703 0.690617 0.875005
Si Si3 0.537064 0.014195 0.714577
Si Si4 0.000000 0.500000 0.000000
Si Si5 0.510724 0.317133 0.273499
Si Si6 0.710620 0.319379 0.532923
Si Si7 0.872066 0.501208 0.454055
Si Si8 0.718775 0.757080 0.973950
O O1 0.831362 0.742884 0.462043
O O2 0.036710 0.702507 0.395952
O O3 0.862310 0.059888 0.179953
O O4 0.827983 0.054945 0.534159
O O5 0.364156 0.709019 0.890352
O O6 0.325796 0.626550 0.662084
O O7 0.240340 0.493319 0.022119
O O8 0.549891 0.777731 0.759771
O O9 0.545931 0.147023 0.486379
O O10 0.395230 0.163731 0.836351
O O11 0.642819 0.948200 0.801950
O O12 0.042191 0.528251 0.763434
O O13 0.153714 0.299483 0.014641
O O14 0.412312 0.576687 0.299915
O O15 0.767652 0.462362 0.488610
#
# Coordination Sequence:
#
# PCOD9008417 Si02
#       8
#     2   2   2   1   2   2   2   2
#     4   9  23  38  67  87 131 167 222 271 329 383
#     4  10  22  39  63  94 133 167 208 287 320 394
#     4  10  24  41  69  97 129 180 221 277 326 417
#     4  12  24  40  66  92 134 176 220 272 328 408
#     4  11  22  39  72  95 125 169 233 266 337 386
#     4  10  21  39  64  96 128 163 214 290 318 393
#     4  11  22  42  62  95 127 178 219 270 330 400
#     4  11  24  44  62  95 142 172 220 274 348 384
#
# _framework density 26.121898999999999
#
# number of rings (size 3 to 8) (size 9 to 14) (size 15 to 20)
#    0.800    0.800    2.667    0.800    7.467    1.600 
#    2.400    4.000    0.000    0.000    0.000    0.000 
#    0.000    0.000    0.000    0.000    0.000    0.000 
#
# Total GULP energy -83623.102353 kJ/mol
# GULP energy per Si atom -5574.873490 kJ/mol
# Density = 2.606244 g / cm^3
# Si number density = 26.121899 Si / 1000 Ang^3
#
#
#
# Elastic Constant Matrix: (Units=GPa)
#
#
# Indices 1 2 3 4 5 6 
#
# 1 84.9657 20.8354 9.9870 2.7614 14.2535 -8.1418
# 2 20.8354 143.7895 23.6999 -9.0317 5.5575 -9.0108
# 3 9.9870 23.6999 57.1377 -0.8175 3.8134 -21.9139
# 4 2.7614 -9.0317 -0.8175 26.2518 -11.0126 -10.4776
# 5 14.2535 5.5575 3.8134 -11.0126 27.6327 -2.8170
# 6 -8.1418 -9.0108 -21.9139 -10.4776 -2.8170 45.6916
#
#
#
# Elastic Compliance Matrix: (Units=1/GPa)
#
#
# Indices 1 2 3 4 5 6 
#
# 1 0.014098 -0.001888 -0.001350 -0.006262 -0.009254 -0.000514
# 2 -0.001888 0.007904 -0.002638 0.003756 0.001337 0.000901
# 3 -0.001350 -0.002638 0.023297 0.005142 0.001251 0.011669
# 4 -0.006262 0.003756 0.005142 0.058232 0.026715 0.017091
# 5 -0.009254 0.001337 0.001251 0.026715 0.052039 0.008549
# 6 -0.000514 0.000901 0.011669 0.017091 0.008549 0.032015
#
#
# Mechanical properties :
#
#
# Convention : Reuss Voigt Hill
#
# Bulk Modulus (GPa) = 29.81039 43.88195 36.84617
# Shear Modulus (GPa) = 23.75070 35.33992 29.54531
#
# Velocity S-wave (km/s) = 3.01861 3.68215 3.36677
# Velocity P-wave (km/s) = 4.85656 5.90872 5.40829
#
# Compressibility (1/GPa) = 0.03354535
#
# Stress axis : x y z
#
# Youngs Moduli (GPa) = 70.93302 126.52200 42.92340
#
# Poissons Ratio (x) = 0.23889 0.05795
# Poissons Ratio (y) = 0.13393 0.11325
# Poissons Ratio (z) = 0.09577 0.33382
#
# Static dielectric constant tensor:
#      x y z
#    x 2.048310 0.044200 -0.003570 
#    y 0.044200 2.077660 -0.025530 
#    z -0.003570 -0.025530 2.058570 
# 
# From -- ./inp_files/294802.got.cif
#   From: 2010.05.17/outbox.cif.g08.bks.cpg/sg2_148_cif.got.tgz:294802.got - 2010.06.03 11:33:40.
