data_PCOD9008540
_publ_section_title
;
Structure prediction by ZEFSAII (Michael W. Deem and Ramdas Pophale) SiO2 
 PCOD9008540
Probable space group: P -1
;
_chemical_formula_sum "Si O2"
_cell_formula_units_Z 16
_cell_length_a 7.749302
_cell_length_b 10.486831
_cell_length_c 10.473734
_cell_angle_alpha 75.181540
_cell_angle_beta 109.886719
_cell_angle_gamma 60.853968
_cell_volume 600.006432
_symmetry_space_group_name_H-M "P -1"
_symmetry_group_IT_number 2
_symmetry_cell_setting 'triclinic'
loop_
_space_group_symop_operation_xyz
x,y,z
-x,-y,-z
loop_
_atom_site_type_symbol
_atom_site_label
_atom_site_fract_x
_atom_site_fract_y
_atom_site_fract_z
Si Si1 0.314708 0.672967 0.483265
Si Si2 0.430544 0.118179 0.694593
Si Si3 0.302635 0.291948 0.362519
Si Si4 0.365127 0.719629 0.975137
Si Si5 0.803084 0.632096 0.214259
Si Si6 0.883329 0.183157 0.362253
Si Si7 0.836710 0.911389 0.164360
Si Si8 0.092216 0.197511 0.158823
O O1 0.500000 0.500000 0.500000
O O2 0.469504 0.718418 0.573253
O O3 0.173966 0.689424 0.570144
O O4 0.110205 0.802840 0.298433
O O5 0.373250 0.154120 0.523561
O O6 0.311206 0.295046 0.693425
O O7 0.306437 0.052108 0.749372
O O8 0.711387 0.978525 0.815977
O O9 0.216761 0.278040 0.206883
O O10 0.073570 0.470621 0.315343
O O11 0.338216 0.733288 0.811607
O O12 0.176650 0.696756 0.986448
O O13 0.264150 0.905020 0.954373
O O14 0.638346 0.601148 0.110222
O O15 0.793399 0.788735 0.117365
O O16 0.058768 0.152717 0.303981
O O17 0.000000 0.000000 0.500000
#
# Coordination Sequence:
#
# PCOD9008540 Si02
#       8
#     2   2   2   2   2   2   2   2
#     4  12  22  39  63  93 121 157 204 262 308 356
#     4  10  22  38  65  97 121 161 207 257 308 355
#     4  12  23  38  63  94 130 151 211 257 313 368
#     4  10  22  42  65  87 128 166 212 242 307 370
#     4  10  24  39  64  89 129 168 203 252 308 362
#     4  10  21  39  65  89 121 161 207 255 298 359
#     4  10  21  39  66  91 125 157 214 254 305 351
#     4  10  24  38  64  95 123 162 206 256 310 363
#
# _framework density 26.666381000000001
#
# number of rings (size 3 to 8) (size 9 to 14) (size 15 to 20)
#    1.500    0.000    2.500    3.375    1.750    2.000 
#    0.000    0.625    2.750    0.000    0.000    0.000 
#    0.000    0.000    0.000    0.000    0.000    0.000 
#
# Total GULP energy -89350.338478 kJ/mol
# GULP energy per Si atom -5584.396155 kJ/mol
# Density = 2.660569 g / cm^3
# Si number density = 26.666381 Si / 1000 Ang^3
#
#
#
# Elastic Constant Matrix: (Units=GPa)
#
#
# Indices 1 2 3 4 5 6 
#
# 1 88.2979 7.9905 24.4914 -8.9024 38.7423 -3.2622
# 2 7.9905 135.7205 11.9097 4.6678 -1.8577 -19.7788
# 3 24.4914 11.9097 85.3584 -1.4056 27.9656 -2.0146
# 4 -8.9024 4.6678 -1.4056 40.2298 -0.7631 13.0827
# 5 38.7423 -1.8577 27.9656 -0.7631 43.2949 0.6416
# 6 -3.2622 -19.7788 -2.0146 13.0827 0.6416 39.2002
#
#
#
# Elastic Compliance Matrix: (Units=1/GPa)
#
#
# Indices 1 2 3 4 5 6 
#
# 1 0.019584 -0.001637 0.000521 0.004305 -0.017851 -0.000314
# 2 -0.001637 0.008467 -0.001522 -0.002975 0.002685 0.005006
# 3 0.000521 -0.001522 0.015170 0.000621 -0.010320 0.000017
# 4 0.004305 -0.002975 0.000621 0.029668 -0.003696 -0.010952
# 5 -0.017851 0.002685 -0.010320 -0.003696 0.045790 -0.000177
# 6 -0.000314 0.005006 0.000017 -0.010952 -0.000177 0.031669
#
#
# Mechanical properties :
#
#
# Convention : Reuss Voigt Hill
#
# Bulk Modulus (GPa) = 26.35417 44.23999 35.29708
# Shear Modulus (GPa) = 29.71411 42.21064 35.96238
#
# Velocity S-wave (km/s) = 3.34172 3.98290 3.67632
# Velocity P-wave (km/s) = 4.97934 6.14634 5.59336
#
# Compressibility (1/GPa) = 0.03794466
#
# Stress axis : x y z
#
# Youngs Moduli (GPa) = 51.06301 118.11024 65.92076
#
# Poissons Ratio (x) = 0.19333 -0.03436
# Poissons Ratio (y) = 0.08359 0.10033
# Poissons Ratio (z) = -0.02662 0.17977
#
# Static dielectric constant tensor:
#      x y z
#    x 2.245730 0.041270 0.053250 
#    y 0.041270 2.115630 0.049030 
#    z 0.053250 0.049030 2.153630 
# 
# From -- ./inp_files/395873.got.cif
#   From: 2010.05.17/outbox.cif.g08.bks.cpg/sg2_198_cif.got.tgz:395873.got - 2010.06.03 11:33:40.
