data_PCOD9008229
_publ_section_title
;
Structure prediction by ZEFSAII (Michael W. Deem and Ramdas Pophale) SiO2 
 PCOD9008229
Probable space group: P -1
;
_chemical_formula_sum "Si O2"
_cell_formula_units_Z 12
_cell_length_a 17.887028
_cell_length_b 15.102824
_cell_length_c 7.987400
_cell_angle_alpha 50.543843
_cell_angle_beta 141.271242
_cell_angle_gamma 156.120662
_cell_volume 520.022920
_symmetry_space_group_name_H-M "P -1"
_symmetry_group_IT_number 2
_symmetry_cell_setting 'triclinic'
loop_
_space_group_symop_operation_xyz
x,y,z
-x,-y,-z
loop_
_atom_site_type_symbol
_atom_site_label
_atom_site_fract_x
_atom_site_fract_y
_atom_site_fract_z
Si Si1 0.653656 0.724937 0.408607
Si Si2 0.875304 0.871214 0.113331
Si Si3 0.420004 0.583036 0.815346
Si Si4 0.691114 0.018096 0.162527
Si Si5 0.633667 0.992338 0.723481
Si Si6 0.196871 0.753409 0.600207
O O1 0.500000 0.500000 0.500000
O O2 0.644911 0.845560 0.330431
O O3 0.547655 0.651954 0.128016
O O4 0.931882 0.921521 0.667378
O O5 0.817160 0.690228 0.275038
O O6 0.614351 0.710540 0.861629
O O7 0.000000 0.000000 0.000000
O O8 0.428342 0.725892 0.663248
O O9 0.837475 0.209860 0.327814
O O10 0.438921 0.878352 0.886211
O O11 0.773993 0.088211 0.027693
O O12 0.782279 0.131680 0.645670
O O13 0.500000 0.000000 0.500000
O O14 0.000000 0.500000 0.500000
#
# Coordination Sequence:
#
# PCOD9008229 Si02
#       6
#     2   2   2   2   2   2
#     4  11  22  39  62  91 130 166 208 269 316 381
#     4  11  23  39  64  92 121 172 215 259 322 376
#     4  10  23  42  61  91 130 163 218 263 317 388
#     4   9  22  39  58  91 125 160 211 257 317 381
#     4   9  20  40  61  87 127 163 201 266 316 374
#     4  10  21  39  64  91 121 165 212 261 318 380
#
# _framework density 23.075907000000001
#
# number of rings (size 3 to 8) (size 9 to 14) (size 15 to 20)
#    0.000    2.000    1.667    0.500    2.333    6.000 
#    0.000    8.333    0.000    0.000    0.000    0.000 
#    0.000    0.000    0.000    0.000    0.000    0.000 
#
# Total GULP energy -66984.816424 kJ/mol
# GULP energy per Si atom -5582.068035 kJ/mol
# Density = 2.302339 g / cm^3
# Si number density = 23.075907 Si / 1000 Ang^3
#
#
#
# Elastic Constant Matrix: (Units=GPa)
#
#
# Indices 1 2 3 4 5 6 
#
# 1 92.8371 55.8118 19.7534 -6.7822 -6.0372 -17.1783
# 2 55.8118 203.1842 47.6057 -6.8820 -17.1902 -17.1570
# 3 19.7534 47.6057 55.2310 -6.8138 -14.5004 -3.3785
# 4 -6.7822 -6.8820 -6.8138 45.4071 -9.0328 -1.3569
# 5 -6.0372 -17.1902 -14.5004 -9.0328 37.8347 -1.2877
# 6 -17.1783 -17.1570 -3.3785 -1.3569 -1.2877 41.7676
#
#
#
# Elastic Compliance Matrix: (Units=1/GPa)
#
#
# Indices 1 2 3 4 5 6 
#
# 1 0.013890 -0.002899 -0.001794 0.001650 0.000757 0.004454
# 2 -0.002899 0.007010 -0.004628 0.000182 0.001038 0.001351
# 3 -0.001794 -0.004628 0.025508 0.004537 0.008465 -0.000167
# 4 0.001650 0.000182 0.004537 0.024642 0.008042 0.002169
# 5 0.000757 0.001038 0.008465 0.008042 0.032279 0.002679
# 6 0.004454 0.001351 -0.000167 0.002169 0.002679 0.026468
#
#
# Mechanical properties :
#
#
# Convention : Reuss Voigt Hill
#
# Bulk Modulus (GPa) = 36.01502 66.39934 51.20718
# Shear Modulus (GPa) = 31.70659 40.20732 35.95695
#
# Velocity S-wave (km/s) = 3.71079 4.17873 3.95169
# Velocity P-wave (km/s) = 5.83104 7.21936 6.56202
#
# Compressibility (1/GPa) = 0.02776619
#
# Stress axis : x y z
#
# Youngs Moduli (GPa) = 71.99427 142.64605 39.20273
#
# Poissons Ratio (x) = 0.41353 0.07034
# Poissons Ratio (y) = 0.20871 0.18143
# Poissons Ratio (z) = 0.12918 0.66016
#
# Static dielectric constant tensor:
#      x y z
#    x 1.970200 0.033840 0.005920 
#    y 0.033840 1.865470 0.002850 
#    z 0.005920 0.002850 1.910450 
# 
# From -- ./inp_files/348369.got.cif
#   From: 2010.05.17/outbox.cif.g08.bks.cpg/sg2_175_cif.got.tgz:348369.got - 2010.06.03 11:33:40.
