data_PCOD9008805
_publ_section_title
;
Structure prediction by ZEFSAII (Michael W. Deem and Ramdas Pophale) SiO2 
 PCOD9008805
Probable space group: P -1
;
_chemical_formula_sum "Si O2"
_cell_formula_units_Z 16
_cell_length_a 10.588689
_cell_length_b 5.265321
_cell_length_c 11.473005
_cell_angle_alpha 65.784650
_cell_angle_beta 88.022900
_cell_angle_gamma 95.127239
_cell_volume 579.250136
_symmetry_space_group_name_H-M "P -1"
_symmetry_group_IT_number 2
_symmetry_cell_setting 'triclinic'
loop_
_space_group_symop_operation_xyz
x,y,z
-x,-y,-z
loop_
_atom_site_type_symbol
_atom_site_label
_atom_site_fract_x
_atom_site_fract_y
_atom_site_fract_z
Si Si1 0.133784 0.243657 0.872774
Si Si2 0.231873 0.211955 0.141869
Si Si3 0.490207 0.979721 0.142110
Si Si4 0.396469 0.231263 0.509012
Si Si5 0.884469 0.316420 0.971882
Si Si6 0.531009 0.347533 0.279416
Si Si7 0.177507 0.468186 0.602029
Si Si8 0.068131 0.904474 0.399057
O O1 0.194700 0.476758 0.739069
O O2 0.979970 0.231100 0.884165
O O3 0.195127 0.235097 0.000730
O O4 0.158020 0.933069 0.890859
O O5 0.235838 0.547980 0.098486
O O6 0.345003 0.020280 0.176672
O O7 0.123828 0.112938 0.258165
O O8 0.545994 0.686223 0.223829
O O9 0.552156 0.244684 0.167068
O O10 0.500000 0.000000 0.000000
O O11 0.500000 0.500000 0.500000
O O12 0.391703 0.286813 0.359756
O O13 0.271769 0.285550 0.570762
O O14 0.415514 0.906874 0.600243
O O15 0.000000 0.500000 0.000000
O O16 0.181882 0.752500 0.477957
O O17 0.036192 0.314348 0.618531
O O18 0.000000 0.000000 0.500000
#
# Coordination Sequence:
#
# PCOD9008805 Si02
#       8
#     2   2   2   2   2   2   2   2
#     4  10  21  39  65  98 138 181 241 303 362 443
#     4  11  25  41  71  98 145 195 240 301 383 445
#     4  12  28  48  76 112 153 198 254 318 380 461
#     4  11  25  47  79 108 145 204 254 324 379 456
#     4   9  18  36  60  92 131 178 228 284 362 432
#     4  11  26  50  76 108 154 190 258 316 391 438
#     4  11  25  43  70 103 144 185 249 303 371 452
#     4  11  25  43  66 105 145 191 237 297 373 456
#
# _framework density 27.621921
#
# number of rings (size 3 to 8) (size 9 to 14) (size 15 to 20)
#    0.000    1.250    1.250    4.125    5.250    4.000 
#    0.000    0.000    0.000    0.000    0.000    0.000 
#    0.000    0.000    0.000    0.000    0.000    0.000 
#
# Total GULP energy -89143.786096 kJ/mol
# GULP energy per Si atom -5571.486631 kJ/mol
# Density = 2.755905 g / cm^3
# Si number density = 27.621921 Si / 1000 Ang^3
#
#
#
# Elastic Constant Matrix: (Units=GPa)
#
#
# Indices 1 2 3 4 5 6 
#
# 1 74.3078 34.9391 23.3767 -9.3618 3.2294 -17.7625
# 2 34.9391 145.4895 40.2924 -10.4325 11.6197 -24.3226
# 3 23.3767 40.2924 162.1870 12.3705 -9.8936 -9.5093
# 4 -9.3618 -10.4325 12.3705 54.4235 -3.1619 4.1835
# 5 3.2294 11.6197 -9.8936 -3.1619 36.9370 -3.0696
# 6 -17.7625 -24.3226 -9.5093 4.1835 -3.0696 50.8448
#
#
#
# Elastic Compliance Matrix: (Units=1/GPa)
#
#
# Indices 1 2 3 4 5 6 
#
# 1 0.016496 -0.002609 -0.001713 0.002390 -0.000546 0.003965
# 2 -0.002609 0.008786 -0.001916 0.001309 -0.002716 0.002662
# 3 -0.001713 -0.001916 0.007217 -0.002169 0.002514 0.000165
# 4 0.002390 0.001309 -0.002169 0.019595 0.000432 -0.000531
# 5 -0.000546 -0.002716 0.002514 0.000432 0.028742 0.000680
# 6 0.003965 0.002662 0.000165 -0.000531 0.000680 0.022442
#
#
# Mechanical properties :
#
#
# Convention : Reuss Voigt Hill
#
# Bulk Modulus (GPa) = 49.94236 64.35562 57.14899
# Shear Modulus (GPa) = 40.84022 47.33280 44.08651
#
# Velocity S-wave (km/s) = 3.84936 4.14405 3.99942
# Velocity P-wave (km/s) = 6.15440 6.80050 6.48550
#
# Compressibility (1/GPa) = 0.02002308
#
# Stress axis : x y z
#
# Youngs Moduli (GPa) = 60.62167 113.81301 138.56117
#
# Poissons Ratio (x) = 0.29698 0.23729
# Poissons Ratio (y) = 0.15818 0.26550
# Poissons Ratio (z) = 0.10382 0.21808
#
# Static dielectric constant tensor:
#      x y z
#    x 2.299050 0.006100 0.060390 
#    y 0.006100 2.944320 0.128240 
#    z 0.060390 0.128240 2.214420 
# 
# From -- ./inp_files/409828.got.cif
#   From: 2010.05.17/outbox.cif.g08.bks.cpg/sg2_205_cif.got.tgz:409828.got - 2010.06.03 11:33:40.
