data_PCOD9008981
_publ_section_title
;
Structure prediction by ZEFSAII (Michael W. Deem and Ramdas Pophale) SiO2 
 PCOD9008981
Probable space group: P -1
;
_chemical_formula_sum "Si O2"
_cell_formula_units_Z 16
_cell_length_a 23.282835
_cell_length_b 16.944232
_cell_length_c 8.223006
_cell_angle_alpha 70.438987
_cell_angle_beta 118.036537
_cell_angle_gamma 164.340756
_cell_volume 671.815785
_symmetry_space_group_name_H-M "P -1"
_symmetry_group_IT_number 2
_symmetry_cell_setting 'triclinic'
loop_
_space_group_symop_operation_xyz
x,y,z
-x,-y,-z
loop_
_atom_site_type_symbol
_atom_site_label
_atom_site_fract_x
_atom_site_fract_y
_atom_site_fract_z
Si Si1 0.120707 0.560155 0.444095
Si Si2 0.638261 0.924409 0.009286
Si Si3 0.170137 0.812664 0.343782
Si Si4 0.690175 0.374587 0.456456
Si Si5 0.993878 0.714823 0.937128
Si Si6 0.809247 0.908293 0.521955
Si Si7 0.871461 0.713986 0.001511
Si Si8 0.579153 0.459630 0.552614
O O1 0.987795 0.379002 0.565675
O O2 0.235103 0.795619 0.428990
O O3 0.309705 0.717839 0.557166
O O4 0.894789 0.275071 0.203408
O O5 0.536246 0.854556 0.773977
O O6 0.738823 0.962657 0.035485
O O7 0.405241 0.634973 0.030230
O O8 0.986025 0.616697 0.089196
O O9 0.410971 0.178173 0.432888
O O10 0.950168 0.749805 0.484464
O O11 0.764925 0.451336 0.690182
O O12 0.972545 0.755637 0.022787
O O13 0.677306 0.661532 0.438423
O O14 0.607030 0.728216 0.430293
O O15 0.922082 0.012770 0.770623
O O16 0.817222 0.709665 0.785829
#
# Coordination Sequence:
#
# PCOD9008981 Si02
#       8
#     2   2   2   2   2   2   2   2
#     4  10  21  42  64  97 133 170 220 276 321 391
#     4  10  22  41  68  93 136 177 212 274 332 376
#     4  11  21  41  66  95 137 167 220 279 320 388
#     4  10  21  41  62  94 133 174 215 267 328 393
#     4  11  24  40  66  99 137 170 222 270 319 403
#     4  10  21  39  66  95 132 170 221 270 324 392
#     4  11  21  41  68  97 128 174 224 266 325 395
#     4  11  20  38  68  94 128 177 215 271 333 378
#
# _framework density 23.816054000000001
#
# number of rings (size 3 to 8) (size 9 to 14) (size 15 to 20)
#    0.000    1.500    3.750    1.875    1.750    2.000 
#    2.250    4.375    2.750    0.000    0.000    0.000 
#    0.000    0.000    0.000    0.000    0.000    0.000 
#
# Total GULP energy -89370.449390 kJ/mol
# GULP energy per Si atom -5585.653087 kJ/mol
# Density = 2.376185 g / cm^3
# Si number density = 23.816054 Si / 1000 Ang^3
#
#
#
# Elastic Constant Matrix: (Units=GPa)
#
#
# Indices 1 2 3 4 5 6 
#
# 1 131.1114 39.8727 22.4914 4.5070 20.6984 -6.6645
# 2 39.8727 73.0722 12.9687 -1.6988 5.4384 -6.4571
# 3 22.4914 12.9687 129.2816 -1.1398 21.8096 8.8321
# 4 4.5070 -1.6988 -1.1398 29.1830 10.1703 6.2184
# 5 20.6984 5.4384 21.8096 10.1703 43.9671 -3.1720
# 6 -6.6645 -6.4571 8.8321 6.2184 -3.1720 31.7339
#
#
#
# Elastic Compliance Matrix: (Units=1/GPa)
#
#
# Indices 1 2 3 4 5 6 
#
# 1 0.009874 -0.004928 -0.000736 -0.000898 -0.003386 0.001113
# 2 -0.004928 0.016765 -0.001129 0.000862 0.000794 0.002601
# 3 -0.000736 -0.001129 0.009125 0.003012 -0.005027 -0.004017
# 4 -0.000898 0.000862 0.003012 0.040627 -0.011293 -0.009941
# 5 -0.003386 0.000794 -0.005027 -0.011293 0.029781 0.006039
# 6 0.001113 0.002601 -0.004017 -0.009941 0.006039 0.035945
#
#
# Mechanical properties :
#
#
# Convention : Reuss Voigt Hill
#
# Bulk Modulus (GPa) = 45.08725 53.79230 49.43978
# Shear Modulus (GPa) = 30.65690 38.18563 34.42126
#
# Velocity S-wave (km/s) = 3.59170 4.00854 3.80583
# Velocity P-wave (km/s) = 6.01440 6.63778 6.33376
#
# Compressibility (1/GPa) = 0.02217922
#
# Stress axis : x y z
#
# Youngs Moduli (GPa) = 101.27698 59.64814 109.58472
#
# Poissons Ratio (x) = 0.29392 0.08069
# Poissons Ratio (y) = 0.49906 0.12367
# Poissons Ratio (z) = 0.07457 0.06732
#
# Static dielectric constant tensor:
#      x y z
#    x 1.960070 0.042680 -0.014800 
#    y 0.042680 1.976920 -0.012760 
#    z -0.014800 -0.012760 1.873340 
# 
# From -- ./inp_files/347571.got.cif
#   From: 2010.05.17/outbox.cif.g08.bks.cpg/sg2_174_cif.got.tgz:347571.got - 2010.06.03 11:33:40.
