data_PCOD9008928
_publ_section_title
;
Structure prediction by ZEFSAII (Michael W. Deem and Ramdas Pophale) SiO2 
 PCOD9008928
Probable space group: P -1
;
_chemical_formula_sum "Si O2"
_cell_formula_units_Z 16
_cell_length_a 19.049278
_cell_length_b 15.289167
_cell_length_c 11.913549
_cell_angle_alpha 42.189969
_cell_angle_beta 157.857106
_cell_angle_gamma 146.481327
_cell_volume 713.983018
_symmetry_space_group_name_H-M "P -1"
_symmetry_group_IT_number 2
_symmetry_cell_setting 'triclinic'
loop_
_space_group_symop_operation_xyz
x,y,z
-x,-y,-z
loop_
_atom_site_type_symbol
_atom_site_label
_atom_site_fract_x
_atom_site_fract_y
_atom_site_fract_z
Si Si1 0.752306 0.428839 0.156205
Si Si2 0.775695 0.598099 0.813267
Si Si3 0.251008 0.867964 0.204037
Si Si4 0.444684 0.123137 0.839253
Si Si5 0.648354 0.667042 0.174969
Si Si6 0.566237 0.336288 0.352296
Si Si7 0.867125 0.128510 0.216401
Si Si8 0.633068 0.313519 0.726651
O O1 0.000000 0.500000 0.500000
O O2 0.802352 0.558744 0.015684
O O3 0.635555 0.264872 0.067769
O O4 0.579896 0.399810 0.027316
O O5 0.500000 0.500000 0.500000
O O6 0.785680 0.495635 0.823687
O O7 0.988451 0.783428 0.936132
O O8 0.268162 0.716816 0.376415
O O9 0.500000 0.000000 0.500000
O O10 0.249770 0.934081 0.017479
O O11 0.446017 0.207055 0.647649
O O12 0.225614 0.011742 0.697287
O O13 0.500000 0.000000 0.000000
O O14 0.668672 0.522030 0.313674
O O15 0.862487 0.778100 0.466990
O O16 0.632257 0.740391 0.964263
O O17 0.520443 0.297937 0.454065
O O18 0.789198 0.246272 0.017421
#
# Coordination Sequence:
#
# PCOD9008928 Si02
#       8
#     2   2   2   2   2   2   2   2
#     4  11  24  40  67  91 129 173 222 273 323 399
#     4  11  22  40  65  94 127 167 223 270 326 393
#     4  11  24  41  66  95 135 177 219 271 335 400
#     4   9  21  40  64  93 129 172 218 265 333 394
#     4  11  23  40  67 102 128 169 222 280 329 389
#     4  10  22  41  65  95 137 169 220 275 332 394
#     4  10  21  39  66  93 129 170 218 270 329 395
#     4   9  19  41  66  91 124 179 221 262 325 403
#
# _framework density 22.409495
#
# number of rings (size 3 to 8) (size 9 to 14) (size 15 to 20)
#    0.000    1.750    0.000    3.750    3.500    7.500 
#    4.500    0.625    0.000    0.000    0.000    0.000 
#    0.000    0.000    0.000    0.000    0.000    0.000 
#
# Total GULP energy -89140.710763 kJ/mol
# GULP energy per Si atom -5571.294423 kJ/mol
# Density = 2.235849 g / cm^3
# Si number density = 22.409495 Si / 1000 Ang^3
#
#
#
# Elastic Constant Matrix: (Units=GPa)
#
#
# Indices 1 2 3 4 5 6 
#
# 1 88.2354 31.1346 65.6121 8.1964 -11.2447 12.1934
# 2 31.1346 49.3398 16.6119 3.0546 6.2545 7.8269
# 3 65.6121 16.6119 140.0252 1.4939 -20.8493 23.8428
# 4 8.1964 3.0546 1.4939 43.1065 10.5768 -3.8242
# 5 -11.2447 6.2545 -20.8493 10.5768 40.9590 -7.2147
# 6 12.1934 7.8269 23.8428 -3.8242 -7.2147 35.0508
#
#
#
# Elastic Compliance Matrix: (Units=1/GPa)
#
#
# Indices 1 2 3 4 5 6 
#
# 1 0.022995 -0.012132 -0.008746 -0.004340 0.005050 0.001225
# 2 -0.012132 0.029015 0.001865 0.001740 -0.008144 -0.005014
# 3 -0.008746 0.001865 0.012299 -0.000009 0.002663 -0.005193
# 4 -0.004340 0.001740 -0.000009 0.026015 -0.007763 0.002368
# 5 0.005050 -0.008144 0.002663 -0.007763 0.031074 0.003800
# 6 0.001225 -0.005014 -0.005193 0.002368 0.003800 0.033797
#
#
# Mechanical properties :
#
#
# Convention : Reuss Voigt Hill
#
# Bulk Modulus (GPa) = 38.04581 56.03530 47.04055
# Shear Modulus (GPa) = 24.75465 34.77270 29.76368
#
# Velocity S-wave (km/s) = 3.32723 3.94343 3.64836
# Velocity P-wave (km/s) = 5.63693 6.76710 6.22771
#
# Compressibility (1/GPa) = 0.02628411
#
# Stress axis : x y z
#
# Youngs Moduli (GPa) = 43.48761 34.46478 81.30544
#
# Poissons Ratio (x) = 0.41811 0.71110
# Poissons Ratio (y) = 0.52757 -0.15162
# Poissons Ratio (z) = 0.38034 -0.06427
#
# Static dielectric constant tensor:
#      x y z
#    x 1.895390 -0.032910 0.036150 
#    y -0.032910 1.887860 -0.005340 
#    z 0.036150 -0.005340 1.811400 
# 
# From -- ./inp_files/472411.got.cif
#   From: 2010.05.17/outbox.cif.g08.bks.cpg/sg2_237_cif.got.tgz:472411.got - 2010.06.03 11:33:40.
