data_PCOD9008449
_publ_section_title
;
Structure prediction by ZEFSAII (Michael W. Deem and Ramdas Pophale) SiO2 
 PCOD9008449
Probable space group: P -1
;
_chemical_formula_sum "Si O2"
_cell_formula_units_Z 13
_cell_length_a 8.777925
_cell_length_b 8.841594
_cell_length_c 17.563837
_cell_angle_alpha 70.950287
_cell_angle_beta 147.507397
_cell_angle_gamma 118.865702
_cell_volume 631.757640
_symmetry_space_group_name_H-M "P -1"
_symmetry_group_IT_number 2
_symmetry_cell_setting 'triclinic'
loop_
_space_group_symop_operation_xyz
x,y,z
-x,-y,-z
loop_
_atom_site_type_symbol
_atom_site_label
_atom_site_fract_x
_atom_site_fract_y
_atom_site_fract_z
Si Si1 0.262928 0.907085 0.484998
Si Si2 0.419506 0.310930 0.272853
Si Si3 0.000000 0.000000 0.500000
Si Si4 0.355727 0.378901 0.562456
Si Si5 0.008387 0.548083 0.736420
Si Si6 0.733281 0.200683 0.054424
Si Si7 0.330100 0.394121 0.793959
O O1 0.432872 0.828813 0.630215
O O2 0.975648 0.747360 0.352017
O O3 0.500000 0.000000 0.500000
O O4 0.153475 0.029651 0.471078
O O5 0.562558 0.452964 0.376953
O O6 0.515499 0.427809 0.218772
O O7 0.050385 0.220056 0.143925
O O8 0.221560 0.200947 0.581712
O O9 0.680367 0.412857 0.653749
O O10 0.093861 0.378121 0.393744
O O11 0.167974 0.700624 0.839301
O O12 0.219764 0.449306 0.816913
O O13 0.567802 0.304769 0.921590
O O14 0.500000 0.000000 0.000000
#
# Coordination Sequence:
#
# PCOD9008449 Si02
#       7
#     2   2   1   2   2   2   2
#     4  12  25  41  70 102 138 172 226 284 333 393
#     4  11  23  46  65  95 131 177 218 270 339 404
#     4  12  24  36  64 110 134 162 226 284 338 380
#     4  10  21  39  64  98 127 170 214 280 325 398
#     4  10  22  40  67  88 130 173 225 260 339 398
#     4  11  26  42  64  94 134 174 223 275 335 399
#     4  12  22  43  65  94 130 179 221 268 338 402
#
# _framework density 20.57751
#
# number of rings (size 3 to 8) (size 9 to 14) (size 15 to 20)
#    0.000    0.923    3.077    4.154    6.462    0.000 
#    0.000    0.769    0.000    0.000    0.000    0.000 
#    0.000    0.000    0.000    0.000    0.000    0.000 
#
# Total GULP energy -72433.221102 kJ/mol
# GULP energy per Si atom -5571.786239 kJ/mol
# Density = 2.053067 g / cm^3
# Si number density = 20.577510 Si / 1000 Ang^3
#
#
#
# Elastic Constant Matrix: (Units=GPa)
#
#
# Indices 1 2 3 4 5 6 
#
# 1 80.2116 6.7984 7.6781 14.0378 0.3601 2.0793
# 2 6.7984 83.8812 32.5503 13.6889 7.0824 18.1024
# 3 7.6781 32.5503 96.0359 4.1651 15.7168 7.2877
# 4 14.0378 13.6889 4.1651 37.9900 3.0750 1.7187
# 5 0.3601 7.0824 15.7168 3.0750 17.8494 -4.7158
# 6 2.0793 18.1024 7.2877 1.7187 -4.7158 23.3964
#
#
#
# Elastic Compliance Matrix: (Units=1/GPa)
#
#
# Indices 1 2 3 4 5 6 
#
# 1 0.013438 0.000085 -0.001107 -0.004981 0.001460 -0.000255
# 2 0.000085 0.017566 -0.003681 -0.004830 -0.006437 -0.013395
# 3 -0.001107 -0.003681 0.013968 0.001361 -0.012092 -0.003942
# 4 -0.004981 -0.004830 0.001361 0.030060 -0.004173 0.000707
# 5 0.001460 -0.006437 -0.012092 -0.004173 0.076338 0.024310
# 6 -0.000255 -0.013395 -0.003942 0.000707 0.024310 0.059204
#
#
# Mechanical properties :
#
#
# Convention : Reuss Voigt Hill
#
# Bulk Modulus (GPa) = 28.11717 39.35358 33.73538
# Shear Modulus (GPa) = 21.56716 30.05394 25.81055
#
# Velocity S-wave (km/s) = 3.24094 3.82583 3.54546
# Velocity P-wave (km/s) = 5.26295 6.21949 5.76110
#
# Compressibility (1/GPa) = 0.03556545
#
# Stress axis : x y z
#
# Youngs Moduli (GPa) = 74.41803 56.92935 71.59268
#
# Poissons Ratio (x) = -0.00484 0.07924
# Poissons Ratio (y) = -0.00633 0.26354
# Poissons Ratio (z) = 0.08236 0.20956
#
# Static dielectric constant tensor:
#      x y z
#    x 1.821040 -0.011060 0.022480 
#    y -0.011060 1.758810 -0.024580 
#    z 0.022480 -0.024580 1.740930 
# 
# From -- ./inp_files/146517.got.cif
#   From: 2010.05.17/outbox.cif.g08.bks.cpg/sg2_74_cif.got.tgz:146517.got - 2010.06.03 11:33:40.
