data_PCOD9008068
_publ_section_title
;
Structure prediction by ZEFSAII (Michael W. Deem and Ramdas Pophale) SiO2 
 PCOD9008068
Probable space group: P -1
;
_chemical_formula_sum "Si O2"
_cell_formula_units_Z 16
_cell_length_a 14.458690
_cell_length_b 10.504416
_cell_length_c 19.007715
_cell_angle_alpha 29.836501
_cell_angle_beta 147.109345
_cell_angle_gamma 129.870562
_cell_volume 738.080521
_symmetry_space_group_name_H-M "P -1"
_symmetry_group_IT_number 2
_symmetry_cell_setting 'triclinic'
loop_
_space_group_symop_operation_xyz
x,y,z
-x,-y,-z
loop_
_atom_site_type_symbol
_atom_site_label
_atom_site_fract_x
_atom_site_fract_y
_atom_site_fract_z
Si Si1 0.259041 0.758246 0.226826
Si Si2 0.967818 0.538177 0.143707
Si Si3 0.302934 0.853729 0.497570
Si Si4 0.365519 0.037985 0.293625
Si Si5 0.104804 0.167981 0.527130
Si Si6 0.950357 0.078862 0.252231
Si Si7 0.470065 0.717198 0.137626
Si Si8 0.552787 0.771249 0.320086
O O1 0.351281 0.884084 0.165533
O O2 0.353427 0.436254 0.457684
O O3 0.060469 0.763879 0.077305
O O4 0.300207 0.882138 0.265784
O O5 0.018942 0.290316 0.240463
O O6 0.026915 0.456078 0.301321
O O7 0.754537 0.655022 0.945859
O O8 0.426283 0.984599 0.560769
O O9 0.411037 0.532025 0.714641
O O10 0.312696 0.965641 0.371827
O O11 0.101745 0.942650 0.356808
O O12 0.315521 0.057834 0.694034
O O13 0.071123 0.143113 0.599131
O O14 0.000000 0.000000 0.500000
O O15 0.744956 0.231926 0.023566
O O16 0.540350 0.643400 0.297658
O O17 0.500000 0.000000 0.000000
#
# Coordination Sequence:
#
# PCOD9008068 Si02
#       8
#     2   2   2   2   2   2   2   2
#     4  10  22  37  66  93 132 171 217 273 328 389
#     4  10  22  41  67  96 132 175 220 269 336 390
#     4  11  27  43  67  99 136 174 219 277 331 393
#     4  11  23  44  63  99 141 165 221 281 323 399
#     4   9  20  40  63  92 130 168 218 275 317 387
#     4  11  24  44  69  96 133 178 222 268 333 397
#     4  12  24  47  68  92 137 176 226 272 323 403
#     4  10  21  39  63  96 125 173 221 268 333 377
#
# _framework density 21.677851
#
# number of rings (size 3 to 8) (size 9 to 14) (size 15 to 20)
#    0.000    1.500    3.750    0.375    8.750    1.000 
#    2.250    0.625    0.000    0.000    0.000    0.000 
#    0.000    0.000    0.000    0.000    0.000    0.000 
#
# Total GULP energy -89130.598318 kJ/mol
# GULP energy per Si atom -5570.662395 kJ/mol
# Density = 2.162851 g / cm^3
# Si number density = 21.677851 Si / 1000 Ang^3
#
#
#
# Elastic Constant Matrix: (Units=GPa)
#
#
# Indices 1 2 3 4 5 6 
#
# 1 87.9063 33.9244 9.1273 8.5854 17.0001 18.6239
# 2 33.9244 101.0303 14.2798 23.1114 18.2771 6.6025
# 3 9.1273 14.2798 52.8599 6.1796 9.9365 1.5486
# 4 8.5854 23.1114 6.1796 30.0167 4.5092 6.1807
# 5 17.0001 18.2771 9.9365 4.5092 25.8760 5.2288
# 6 18.6239 6.6025 1.5486 6.1807 5.2288 28.9942
#
#
#
# Elastic Compliance Matrix: (Units=1/GPa)
#
#
# Indices 1 2 3 4 5 6 
#
# 1 0.015721 -0.003866 -0.000447 0.001189 -0.005941 -0.008376
# 2 -0.003866 0.014436 -0.001062 -0.009358 -0.006092 0.002346
# 3 -0.000447 -0.001062 0.020815 -0.002570 -0.006740 0.001181
# 4 0.001189 -0.009358 -0.002570 0.042133 0.001022 -0.007661
# 5 -0.005941 -0.006092 -0.006740 0.001022 0.050004 -0.003672
# 6 -0.008376 0.002346 0.001181 -0.007661 -0.003672 0.041568
#
#
# Mechanical properties :
#
#
# Convention : Reuss Voigt Hill
#
# Bulk Modulus (GPa) = 24.86132 39.60661 32.23396
# Shear Modulus (GPa) = 23.94241 29.27505 26.60873
#
# Velocity S-wave (km/s) = 3.32695 3.67885 3.50732
# Velocity P-wave (km/s) = 5.12363 6.02955 5.59495
#
# Compressibility (1/GPa) = 0.04022313
#
# Stress axis : x y z
#
# Youngs Moduli (GPa) = 63.60759 69.27249 48.04264
#
# Poissons Ratio (x) = 0.26778 0.02148
# Poissons Ratio (y) = 0.24588 0.05101
# Poissons Ratio (z) = 0.02844 0.07355
#
# Static dielectric constant tensor:
#      x y z
#    x 1.841400 0.057780 0.003980 
#    y 0.057780 1.841040 -0.021000 
#    z 0.003980 -0.021000 1.928660 
# 
# From -- ./inp_files/514048.got.cif
#   From: 2010.05.17/outbox.cif.g08.bks.cpg/sg2_258_cif.got.tgz:514048.got - 2010.06.03 11:33:40.
