data_PCOD9008561
_publ_section_title
;
Structure prediction by ZEFSAII (Michael W. Deem and Ramdas Pophale) SiO2 
 PCOD9008561
Probable space group: P -1
;
_chemical_formula_sum "Si O2"
_cell_formula_units_Z 16
_cell_length_a 14.025770
_cell_length_b 21.075648
_cell_length_c 8.940952
_cell_angle_alpha 152.069605
_cell_angle_beta 135.545696
_cell_angle_gamma 37.968627
_cell_volume 760.258481
_symmetry_space_group_name_H-M "P -1"
_symmetry_group_IT_number 2
_symmetry_cell_setting 'triclinic'
loop_
_space_group_symop_operation_xyz
x,y,z
-x,-y,-z
loop_
_atom_site_type_symbol
_atom_site_label
_atom_site_fract_x
_atom_site_fract_y
_atom_site_fract_z
Si Si1 0.856315 0.990107 0.891631
Si Si2 0.023204 0.319160 0.781382
Si Si3 0.524329 0.129762 0.212603
Si Si4 0.515090 0.145626 0.874857
Si Si5 0.022939 0.649201 0.861266
Si Si6 0.239292 0.466207 0.268722
Si Si7 0.646484 0.519237 0.249875
Si Si8 0.870372 0.967467 0.216146
O O1 0.868978 0.836091 0.510797
O O2 0.679350 0.124621 0.955613
O O3 0.876325 0.977426 0.065505
O O4 0.000000 0.000000 0.000000
O O5 0.857711 0.400512 0.680996
O O6 0.003594 0.294239 0.880186
O O7 0.108303 0.423739 0.092701
O O8 0.401219 0.304144 0.480243
O O9 0.703393 0.086027 0.343750
O O10 0.511556 0.130614 0.019841
O O11 0.500000 0.000000 0.000000
O O12 0.500000 0.000000 0.500000
O O13 0.374824 0.312600 0.025516
O O14 0.198387 0.598192 0.904942
O O15 0.000000 0.500000 0.500000
O O16 0.907179 0.794030 0.934797
O O17 0.312862 0.502503 0.572313
O O18 0.500000 0.500000 0.000000
O O19 0.000000 0.000000 0.500000
#
# Coordination Sequence:
#
# PCOD9008561 Si02
#       8
#     2   2   2   2   2   2   2   2
#     4  11  24  42  65  97 132 174 217 269 335 392
#     4  11  23  40  66  94 131 169 223 270 321 398
#     4  10  23  39  62  95 127 161 211 267 321 386
#     4  10  21  39  65  90 125 165 214 265 320 388
#     4  12  24  40  67  98 127 173 228 267 327 398
#     4  10  22  41  65  93 128 172 216 267 331 387
#     4  11  23  43  65  93 132 171 215 274 331 388
#     4  11  24  42  65  95 133 171 216 268 327 394
#
# _framework density 21.045475
#
# number of rings (size 3 to 8) (size 9 to 14) (size 15 to 20)
#    0.000    1.250    2.500    3.000    3.500    4.000 
#    0.000    3.750    0.000    0.000    0.000    0.000 
#    0.000    0.000    0.000    0.000    0.000    0.000 
#
# Total GULP energy -89414.354340 kJ/mol
# GULP energy per Si atom -5588.397146 kJ/mol
# Density = 2.099757 g / cm^3
# Si number density = 21.045475 Si / 1000 Ang^3
#
#
#
# Elastic Constant Matrix: (Units=GPa)
#
#
# Indices 1 2 3 4 5 6 
#
# 1 75.1647 25.7536 -2.9542 -1.0391 -11.1312 -12.4789
# 2 25.7536 107.9202 6.3230 5.6133 -11.4394 -17.6506
# 3 -2.9542 6.3230 48.8837 -13.3220 -8.4660 -3.6794
# 4 -1.0391 5.6133 -13.3220 39.7765 -7.0250 2.1005
# 5 -11.1312 -11.4394 -8.4660 -7.0250 30.9867 7.9310
# 6 -12.4789 -17.6506 -3.6794 2.1005 7.9310 25.6151
#
#
#
# Elastic Compliance Matrix: (Units=1/GPa)
#
#
# Indices 1 2 3 4 5 6 
#
# 1 0.015930 -0.002858 0.003224 0.002539 0.004970 0.004507
# 2 -0.002858 0.011239 -0.001753 -0.002483 0.000507 0.006147
# 3 0.003224 -0.001753 0.025481 0.010600 0.009849 0.000104
# 4 0.002539 -0.002483 0.010600 0.031366 0.011287 -0.005018
# 5 0.004970 0.000507 0.009849 0.011287 0.041987 -0.009740
# 6 0.004507 0.006147 0.000104 -0.005018 -0.009740 0.048913
#
#
# Mechanical properties :
#
#
# Convention : Reuss Voigt Hill
#
# Bulk Modulus (GPa) = 20.04972 32.24594 26.14783
# Shear Modulus (GPa) = 25.73159 32.79872 29.26515
#
# Velocity S-wave (km/s) = 3.50046 3.95203 3.73308
# Velocity P-wave (km/s) = 5.08774 6.01498 5.57069
#
# Compressibility (1/GPa) = 0.04987600
#
# Stress axis : x y z
#
# Youngs Moduli (GPa) = 62.77626 88.97469 39.24566
#
# Poissons Ratio (x) = 0.25433 -0.12654
# Poissons Ratio (y) = 0.17944 0.06878
# Poissons Ratio (z) = -0.20241 0.15594
#
# Static dielectric constant tensor:
#      x y z
#    x 1.755100 -0.013210 0.021290 
#    y -0.013210 1.766110 0.011380 
#    z 0.021290 0.011380 1.786520 
# 
# From -- ./inp_files/283523.got.cif
#   From: 2010.05.17/outbox.cif.g08.bks.cpg/sg2_142_cif.got.tgz:283523.got - 2010.06.03 11:33:40.
