data_PCOD9008311
_publ_section_title
;
Structure prediction by ZEFSAII (Michael W. Deem and Ramdas Pophale) SiO2 
 PCOD9008311
Probable space group: P -1
;
_chemical_formula_sum "Si O2"
_cell_formula_units_Z 16
_cell_length_a 10.238549
_cell_length_b 11.720159
_cell_length_c 16.693050
_cell_angle_alpha 69.007250
_cell_angle_beta 40.678575
_cell_angle_gamma 39.245228
_cell_volume 686.841602
_symmetry_space_group_name_H-M "P -1"
_symmetry_group_IT_number 2
_symmetry_cell_setting 'triclinic'
loop_
_space_group_symop_operation_xyz
x,y,z
-x,-y,-z
loop_
_atom_site_type_symbol
_atom_site_label
_atom_site_fract_x
_atom_site_fract_y
_atom_site_fract_z
Si Si1 0.429727 0.194616 0.524331
Si Si2 0.779960 0.773242 0.881389
Si Si3 0.325271 0.412293 0.290156
Si Si4 0.558525 0.435178 0.681508
Si Si5 0.294381 0.418756 0.938607
Si Si6 0.771590 0.316904 0.987782
Si Si7 0.549662 0.059836 0.338157
Si Si8 0.178198 0.592871 0.584540
O O1 0.543482 0.033368 0.574165
O O2 0.337880 0.375853 0.551476
O O3 0.043751 0.347951 0.630566
O O4 0.665014 0.063783 0.368168
O O5 0.173429 0.601451 0.778824
O O6 0.846283 0.755234 0.759597
O O7 0.646396 0.706049 0.985737
O O8 0.500000 0.000000 0.000000
O O9 0.456449 0.430278 0.297018
O O10 0.599157 0.291008 0.121249
O O11 0.281869 0.294685 0.366742
O O12 0.598793 0.308615 0.761778
O O13 0.845940 0.315165 0.508712
O O14 0.173828 0.603506 0.991937
O O15 0.000000 0.500000 0.000000
O O16 0.500000 0.500000 0.000000
O O17 0.131370 0.105216 0.830043
O O18 0.500000 0.500000 0.500000
#
# Coordination Sequence:
#
# PCOD9008311 Si02
#       8
#     2   2   2   2   2   2   2   2
#     4  11  23  42  65  93 130 171 213 270 334 387
#     4  10  21  39  64  93 122 166 222 269 318 395
#     4  11  22  42  63  93 134 166 214 272 330 390
#     4   9  20  40  63  87 124 171 206 261 338 382
#     4   9  20  41  62  84 129 171 212 264 331 385
#     4  11  22  40  64  97 130 170 219 275 336 390
#     4  11  23  39  64  98 126 169 217 266 329 402
#     4  10  21  42  66  86 126 173 213 266 331 387
#
# _framework density 23.295038000000002
#
# number of rings (size 3 to 8) (size 9 to 14) (size 15 to 20)
#    0.000    1.750    2.500    1.500    0.000    1.000 
#    6.750    0.625    0.000    0.000    0.000    0.000 
#    0.000    0.000    0.000    0.000    0.000    0.000 
#
# Total GULP energy -89286.231684 kJ/mol
# GULP energy per Si atom -5580.389480 kJ/mol
# Density = 2.324202 g / cm^3
# Si number density = 23.295038 Si / 1000 Ang^3
#
#
#
# Elastic Constant Matrix: (Units=GPa)
#
#
# Indices 1 2 3 4 5 6 
#
# 1 71.8447 24.1143 25.3484 -5.6090 5.4789 6.9234
# 2 24.1143 126.3351 69.0896 -26.5582 2.4373 6.3288
# 3 25.3484 69.0896 177.8181 -46.7226 44.8838 6.2303
# 4 -5.6090 -26.5582 -46.7226 47.0927 1.4612 5.0955
# 5 5.4789 2.4373 44.8838 1.4612 30.9445 -3.5692
# 6 6.9234 6.3288 6.2303 5.0955 -3.5692 31.5466
#
#
#
# Elastic Compliance Matrix: (Units=1/GPa)
#
#
# Indices 1 2 3 4 5 6 
#
# 1 0.015393 -0.002380 -0.000508 0.000391 -0.002179 -0.003110
# 2 -0.002380 0.011747 -0.006954 -0.000946 0.009719 0.000792
# 3 -0.000508 -0.006954 0.023352 0.021431 -0.035466 -0.010580
# 4 0.000391 -0.000946 0.021431 0.044753 -0.034960 -0.015313
# 5 -0.002179 0.009719 -0.035466 -0.034960 0.087460 0.021075
# 6 -0.003110 0.000792 -0.010580 -0.015313 0.021075 0.039170
#
#
# Mechanical properties :
#
#
# Convention : Reuss Voigt Hill
#
# Bulk Modulus (GPa) = 32.45935 68.12251 50.29093
# Shear Modulus (GPa) = 19.85471 39.07979 29.46725
#
# Velocity S-wave (km/s) = 2.92261 4.10030 3.56048
# Velocity P-wave (km/s) = 5.03519 7.19190 6.20792
#
# Compressibility (1/GPa) = 0.03080777
#
# Stress axis : x y z
#
# Youngs Moduli (GPa) = 64.96258 85.12789 42.82266
#
# Poissons Ratio (x) = 0.20265 0.02174
# Poissons Ratio (y) = 0.15464 0.29780
# Poissons Ratio (z) = 0.03298 0.59200
#
# Static dielectric constant tensor:
#      x y z
#    x 1.937740 -0.025390 0.071210 
#    y -0.025390 1.887940 -0.048120 
#    z 0.071210 -0.048120 1.942550 
# 
# From -- ./inp_files/569163.got.cif
#   From: 2010.05.17/outbox.cif.g08.bks.cpg/sg2_285_cif.got.tgz:569163.got - 2010.06.03 11:33:40.
