data_PCOD9008992
_publ_section_title
;
Structure prediction by ZEFSAII (Michael W. Deem and Ramdas Pophale) SiO2 
 PCOD9008992
Probable space group: P -1
;
_chemical_formula_sum "Si O2"
_cell_formula_units_Z 16
_cell_length_a 8.984714
_cell_length_b 16.960926
_cell_length_c 20.080906
_cell_angle_alpha 19.569240
_cell_angle_beta 45.284614
_cell_angle_gamma 55.341010
_cell_volume 668.813430
_symmetry_space_group_name_H-M "P -1"
_symmetry_group_IT_number 2
_symmetry_cell_setting 'triclinic'
loop_
_space_group_symop_operation_xyz
x,y,z
-x,-y,-z
loop_
_atom_site_type_symbol
_atom_site_label
_atom_site_fract_x
_atom_site_fract_y
_atom_site_fract_z
Si Si1 0.185382 0.512003 0.230883
Si Si2 0.489368 0.477954 0.341270
Si Si3 0.612733 0.202591 0.244621
Si Si4 0.637146 0.838182 0.113494
Si Si5 0.392067 0.916750 0.941109
Si Si6 0.318955 0.265201 0.169688
Si Si7 0.112601 0.060006 0.714346
Si Si8 0.812484 0.245629 0.453729
O O1 0.193205 0.746226 0.088669
O O2 0.447838 0.607444 0.048955
O O3 0.104679 0.262380 0.501017
O O4 0.025760 0.426761 0.284955
O O5 0.493260 0.555281 0.355930
O O6 0.467806 0.706442 0.122395
O O7 0.275459 0.227324 0.587920
O O8 0.707203 0.409314 0.312242
O O9 0.754379 0.495757 0.990723
O O10 0.500000 0.000000 0.500000
O O11 0.765692 0.100881 0.232482
O O12 0.409115 0.211015 0.255428
O O13 0.500000 0.000000 0.000000
O O14 0.675369 0.922109 0.110745
O O15 0.869154 0.911106 0.941483
O O16 0.609421 0.102189 0.684348
O O17 0.164916 0.992908 0.402008
#
# Coordination Sequence:
#
# PCOD9008992 Si02
#       8
#     2   2   2   2   2   2   2   2
#     4  10  21  39  66  96 130 175 212 268 327 382
#     4  10  22  39  65  90 132 175 217 269 323 385
#     4  11  22  44  72  94 129 174 218 265 331 391
#     4  10  22  40  65 101 131 170 225 272 319 388
#     4   9  22  41  60  93 134 172 218 269 319 386
#     4  10  23  42  67  95 134 166 214 275 322 388
#     4  11  22  42  70  92 131 180 217 265 336 383
#     4  11  22  40  65  98 134 171 215 270 326 384
#
# _framework density 23.922964
#
# number of rings (size 3 to 8) (size 9 to 14) (size 15 to 20)
#    0.000    1.750    2.500    1.500    1.750    6.000 
#    0.000    5.625    0.000    0.000    0.000    0.000 
#    0.000    0.000    0.000    0.000    0.000    0.000 
#
# Total GULP energy -89491.192216 kJ/mol
# GULP energy per Si atom -5593.199514 kJ/mol
# Density = 2.386851 g / cm^3
# Si number density = 23.922964 Si / 1000 Ang^3
#
#
#
# Elastic Constant Matrix: (Units=GPa)
#
#
# Indices 1 2 3 4 5 6 
#
# 1 82.7945 39.9513 49.9052 -15.8446 -14.9814 13.7416
# 2 39.9513 163.6860 75.8173 -30.4697 -7.9016 14.3698
# 3 49.9052 75.8173 104.0946 -11.5792 12.5807 17.4247
# 4 -15.8446 -30.4697 -11.5792 37.3793 6.5885 -9.3919
# 5 -14.9814 -7.9016 12.5807 6.5885 45.8512 -7.9634
# 6 13.7416 14.3698 17.4247 -9.3919 -7.9634 36.9336
#
#
#
# Elastic Compliance Matrix: (Units=1/GPa)
#
#
# Indices 1 2 3 4 5 6 
#
# 1 0.021298 0.001909 -0.012349 0.005147 0.010047 0.000634
# 2 0.001909 0.011207 -0.009183 0.006808 0.004435 0.001949
# 3 -0.012349 -0.009183 0.024490 -0.004705 -0.012942 -0.007374
# 4 0.005147 0.006808 -0.004705 0.034612 0.000305 0.006523
# 5 0.010047 0.004435 -0.012942 0.000305 0.030636 0.007325
# 6 0.000634 0.001949 -0.007374 0.006523 0.007325 0.032798
#
#
# Mechanical properties :
#
#
# Convention : Reuss Voigt Hill
#
# Bulk Modulus (GPa) = 56.33856 75.76917 66.05387
# Shear Modulus (GPa) = 24.97454 36.35958 30.66706
#
# Velocity S-wave (km/s) = 3.23454 3.90277 3.58426
# Velocity P-wave (km/s) = 6.12787 7.21455 6.69330
#
# Compressibility (1/GPa) = 0.01774983
#
# Stress axis : x y z
#
# Youngs Moduli (GPa) = 46.95241 89.23063 40.83226
#
# Poissons Ratio (x) = -0.17035 0.50424
# Poissons Ratio (y) = -0.08964 0.37495
# Poissons Ratio (z) = 0.57982 0.81939
#
# Static dielectric constant tensor:
#      x y z
#    x 1.965370 -0.005480 0.020260 
#    y -0.005480 1.957710 -0.039410 
#    z 0.020260 -0.039410 1.918080 
# 
# From -- ./inp_files/590866.got.cif
#   From: 2010.05.17/outbox.cif.g08.bks.cpg/sg2_296_cif.got.tgz:590866.got - 2010.06.03 11:33:40.
