data_PCOD9008764
_publ_section_title
;
Structure prediction by ZEFSAII (Michael W. Deem and Ramdas Pophale) SiO2 
 PCOD9008764
Probable space group: P -1
;
_chemical_formula_sum "Si O2"
_cell_formula_units_Z 16
_cell_length_a 12.372275
_cell_length_b 14.671048
_cell_length_c 9.113023
_cell_angle_alpha 103.831440
_cell_angle_beta 110.734928
_cell_angle_gamma 29.628442
_cell_volume 756.309939
_symmetry_space_group_name_H-M "P -1"
_symmetry_group_IT_number 2
_symmetry_cell_setting 'triclinic'
loop_
_space_group_symop_operation_xyz
x,y,z
-x,-y,-z
loop_
_atom_site_type_symbol
_atom_site_label
_atom_site_fract_x
_atom_site_fract_y
_atom_site_fract_z
Si Si1 0.373981 0.814868 0.856893
Si Si2 0.031947 0.819302 0.725142
Si Si3 0.093337 0.478732 0.688698
Si Si4 0.309352 0.706362 0.547562
Si Si5 0.123637 0.871266 0.207695
Si Si6 0.306261 0.098152 0.334607
Si Si7 0.423358 0.420052 0.856599
Si Si8 0.429329 0.139211 0.920826
O O1 0.385435 0.745953 0.688219
O O2 0.482697 0.670845 0.975130
O O3 0.512928 0.812860 0.930353
O O4 0.113451 0.019903 0.865200
O O5 0.828562 0.888593 0.639182
O O6 0.149992 0.761709 0.605973
O O7 0.221848 0.636466 0.844927
O O8 0.947721 0.974221 0.815648
O O9 0.302460 0.407707 0.735506
O O10 0.186397 0.337526 0.798740
O O11 0.000000 0.500000 0.500000
O O12 0.877929 0.692993 0.718678
O O13 0.500000 0.500000 0.500000
O O14 0.177978 0.834266 0.391829
O O15 0.366412 0.685289 0.175761
O O16 0.500000 0.000000 0.500000
O O17 0.411553 0.981023 0.193208
O O18 0.500000 0.000000 0.000000
#
# Coordination Sequence:
#
# PCOD9008764 Si02
#       8
#     2   2   2   2   2   2   2   2
#     4  10  23  43  65  96 137 173 219 282 331 405
#     4  10  21  39  66  94 128 169 225 263 330 397
#     4  10  21  43  68 100 134 177 238 279 329 412
#     4  11  23  44  64  95 138 175 220 274 335 402
#     4  11  22  40  65  93 133 170 218 273 335 397
#     4  11  23  41  73  96 132 184 231 281 337 407
#     4  10  21  39  65  97 129 170 222 272 330 398
#     4  11  25  47  68 103 141 176 229 288 346 397
#
# _framework density 21.155348
#
# number of rings (size 3 to 8) (size 9 to 14) (size 15 to 20)
#    0.000    1.500    2.500    3.375    0.000    5.500 
#    9.000    0.000    0.000    0.000    0.000    0.000 
#    0.000    0.000    0.000    0.000    0.000    0.000 
#
# Total GULP energy -89278.225512 kJ/mol
# GULP energy per Si atom -5579.889095 kJ/mol
# Density = 2.110720 g / cm^3
# Si number density = 21.155348 Si / 1000 Ang^3
#
#
#
# Elastic Constant Matrix: (Units=GPa)
#
#
# Indices 1 2 3 4 5 6 
#
# 1 62.8465 14.5178 46.2537 -6.7332 5.6125 12.4843
# 2 14.5178 94.2822 19.0617 -10.1293 9.0548 2.5920
# 3 46.2537 19.0617 102.9693 -17.7695 4.1960 10.6286
# 4 -6.7332 -10.1293 -17.7695 39.0219 0.2098 -5.0171
# 5 5.6125 9.0548 4.1960 0.2098 29.0673 -6.3074
# 6 12.4843 2.5920 10.6286 -5.0171 -6.3074 27.4145
#
#
#
# Elastic Compliance Matrix: (Units=1/GPa)
#
#
# Indices 1 2 3 4 5 6 
#
# 1 0.026138 -0.001329 -0.010662 -0.001839 -0.005065 -0.009145
# 2 -0.001329 0.011586 -0.000968 0.002296 -0.003329 -0.000461
# 3 -0.010662 -0.000968 0.015553 0.004970 0.000044 -0.000163
# 4 -0.001839 0.002296 0.004970 0.028664 -0.000452 0.003835
# 5 -0.005065 -0.003329 0.000044 -0.000452 0.038904 0.011472
# 6 -0.009145 -0.000461 -0.000163 0.003835 0.011472 0.044090
#
#
# Mechanical properties :
#
#
# Convention : Reuss Voigt Hill
#
# Bulk Modulus (GPa) = 36.55205 46.64049 41.59627
# Shear Modulus (GPa) = 25.00335 31.11840 28.06087
#
# Velocity S-wave (km/s) = 3.44160 3.83945 3.64596
# Velocity P-wave (km/s) = 5.75397 6.46140 6.11792
#
# Compressibility (1/GPa) = 0.02735825
#
# Stress axis : x y z
#
# Youngs Moduli (GPa) = 38.25873 86.31152 64.29612
#
# Poissons Ratio (x) = 0.11469 0.68552
# Poissons Ratio (y) = 0.05084 0.06227
# Poissons Ratio (z) = 0.40791 0.08359
#
# Static dielectric constant tensor:
#      x y z
#    x 1.779940 0.008970 0.025280 
#    y 0.008970 1.820830 -0.011740 
#    z 0.025280 -0.011740 1.768640 
# 
# From -- ./inp_files/273471.got.cif
#   From: 2010.05.17/outbox.cif.g08.bks.cpg/sg2_137_cif.got.tgz:273471.got - 2010.06.03 11:33:40.
