data_PCOD9008078
_publ_section_title
;
Structure prediction by ZEFSAII (Michael W. Deem and Ramdas Pophale) SiO2 
 PCOD9008078
Probable space group: P -1
;
_chemical_formula_sum "Si O2"
_cell_formula_units_Z 16
_cell_length_a 16.043227
_cell_length_b 11.496687
_cell_length_c 15.640032
_cell_angle_alpha 25.219720
_cell_angle_beta 38.220911
_cell_angle_gamma 55.492225
_cell_volume 636.561886
_symmetry_space_group_name_H-M "P -1"
_symmetry_group_IT_number 2
_symmetry_cell_setting 'triclinic'
loop_
_space_group_symop_operation_xyz
x,y,z
-x,-y,-z
loop_
_atom_site_type_symbol
_atom_site_label
_atom_site_fract_x
_atom_site_fract_y
_atom_site_fract_z
Si Si1 0.346426 0.768259 0.575755
Si Si2 0.713333 0.503671 0.654399
Si Si3 0.153423 0.416089 0.319772
Si Si4 0.108431 0.253202 0.970414
Si Si5 0.382849 0.155723 0.781436
Si Si6 0.087063 0.505899 0.641592
Si Si7 0.818776 0.851790 0.774241
Si Si8 0.407980 0.397992 0.032815
O O1 0.232749 0.562297 0.722657
O O2 0.520899 0.813422 0.401936
O O3 0.385763 0.129624 0.298198
O O4 0.248451 0.514275 0.897496
O O5 0.814433 0.538067 0.635252
O O6 0.815947 0.610612 0.414681
O O7 0.589924 0.602923 0.714518
O O8 0.608858 0.110661 0.992911
O O9 0.316957 0.548807 0.048256
O O10 0.059639 0.558910 0.256291
O O11 0.037217 0.019293 0.672939
O O12 0.209120 0.100460 0.958080
O O13 0.049651 0.346937 0.871284
O O14 0.500000 0.500000 0.500000
O O15 0.180957 0.897595 0.324767
O O16 0.702968 0.806190 0.821623
O O17 0.000000 0.000000 0.500000
#
# Coordination Sequence:
#
# PCOD9008078 Si02
#       8
#     2   2   2   2   2   2   2   2
#     4  10  21  39  63  96 135 165 210 278 330 381
#     4  11  25  46  66  94 134 181 218 268 325 392
#     4  12  25  46  64  93 139 175 222 269 322 396
#     4  11  22  38  66  98 128 171 216 267 335 382
#     4   9  19  40  63  94 128 164 210 269 331 375
#     4  12  24  40  68  98 131 171 221 271 323 392
#     4  12  23  40  67 103 135 165 220 276 332 386
#     4  11  25  42  70  96 130 177 220 271 331 387
#
# _framework density 25.135026
#
# number of rings (size 3 to 8) (size 9 to 14) (size 15 to 20)
#    0.000    1.000    5.000    1.500    3.500    2.000 
#    0.000    0.000    0.000    3.750    0.000    0.000 
#    0.000    0.000    0.000    0.000    0.000    0.000 
#
# Total GULP energy -89425.251262 kJ/mol
# GULP energy per Si atom -5589.078204 kJ/mol
# Density = 2.507782 g / cm^3
# Si number density = 25.135026 Si / 1000 Ang^3
#
#
#
# Elastic Constant Matrix: (Units=GPa)
#
#
# Indices 1 2 3 4 5 6 
#
# 1 103.5485 15.8624 20.1430 16.4602 -7.7452 -2.2421
# 2 15.8624 82.4670 23.6154 17.7672 -14.8657 9.3841
# 3 20.1430 23.6154 69.1300 25.3286 5.3850 -15.1253
# 4 16.4602 17.7672 25.3286 34.7478 -4.7834 -5.1018
# 5 -7.7452 -14.8657 5.3850 -4.7834 37.1144 -1.3301
# 6 -2.2421 9.3841 -15.1253 -5.1018 -1.3301 28.4045
#
#
#
# Elastic Compliance Matrix: (Units=1/GPa)
#
#
# Indices 1 2 3 4 5 6 
#
# 1 0.010769 -0.000332 -0.002161 -0.003180 0.001994 -0.000669
# 2 -0.000332 0.017539 -0.007139 -0.004101 0.007104 -0.010026
# 3 -0.002161 -0.007139 0.026028 -0.013506 -0.008353 0.013231
# 4 -0.003180 -0.004101 -0.013506 0.043238 0.005295 0.001926
# 5 0.001994 0.007104 -0.008353 0.005295 0.031949 -0.004191
# 6 -0.000669 -0.010026 0.013231 0.001926 -0.004191 0.045661
#
#
# Mechanical properties :
#
#
# Convention : Reuss Voigt Hill
#
# Bulk Modulus (GPa) = 28.51305 41.59855 35.05580
# Shear Modulus (GPa) = 24.25541 33.08832 28.67186
#
# Velocity S-wave (km/s) = 3.10982 3.63219 3.38111
# Velocity P-wave (km/s) = 4.92577 5.84606 5.40553
#
# Compressibility (1/GPa) = 0.03507166
#
# Stress axis : x y z
#
# Youngs Moduli (GPa) = 92.86199 57.01446 38.42019
#
# Poissons Ratio (x) = 0.01892 0.08302
# Poissons Ratio (y) = 0.03082 0.27430
# Poissons Ratio (z) = 0.20067 0.40705
#
# Static dielectric constant tensor:
#      x y z
#    x 1.992990 0.021820 -0.044390 
#    y 0.021820 2.046160 -0.005800 
#    z -0.044390 -0.005800 2.040610 
# 
# From -- ./inp_files/427805.got.cif
#   From: 2010.05.17/outbox.cif.g08.bks.cpg/sg2_214_cif.got.tgz:427805.got - 2010.06.03 11:33:40.
