data_PCOD9008639
_publ_section_title
;
Structure prediction by ZEFSAII (Michael W. Deem and Ramdas Pophale) SiO2 
 PCOD9008639
Probable space group: P -1
;
_chemical_formula_sum "Si O2"
_cell_formula_units_Z 14
_cell_length_a 10.547350
_cell_length_b 8.817931
_cell_length_c 12.608491
_cell_angle_alpha 58.150025
_cell_angle_beta 56.672475
_cell_angle_gamma 99.455692
_cell_volume 639.523273
_symmetry_space_group_name_H-M "P -1"
_symmetry_group_IT_number 2
_symmetry_cell_setting 'triclinic'
loop_
_space_group_symop_operation_xyz
x,y,z
-x,-y,-z
loop_
_atom_site_type_symbol
_atom_site_label
_atom_site_fract_x
_atom_site_fract_y
_atom_site_fract_z
Si Si1 0.414094 0.975893 0.931920
Si Si2 0.337794 0.504407 0.364859
Si Si3 0.090638 0.313901 0.101833
Si Si4 0.007482 0.887309 0.178834
Si Si5 0.343839 0.441971 0.680303
Si Si6 0.293040 0.746843 0.698810
Si Si7 0.660878 0.478667 0.895146
O O1 0.402686 0.774130 0.958144
O O2 0.196255 0.902645 0.063098
O O3 0.500000 0.000000 0.000000
O O4 0.568632 0.241826 0.724471
O O5 0.139075 0.304448 0.592335
O O6 0.519930 0.504788 0.300588
O O7 0.304830 0.488249 0.259428
O O8 0.152890 0.335006 0.186410
O O9 0.872301 0.227727 0.232370
O O10 0.232158 0.570339 0.889188
O O11 0.088334 0.132649 0.100430
O O12 0.856538 0.796687 0.182822
O O13 0.500000 0.500000 0.500000
O O14 0.286101 0.604355 0.656719
O O15 0.500000 0.000000 0.500000
O O16 0.500000 0.500000 0.000000
#
# Coordination Sequence:
#
# PCOD9008639 Si02
#       7
#     2   2   2   2   2   2   2
#     4  10  22  40  63  89 121 164 212 258 308 369
#     4  10  23  42  65  91 124 169 211 257 313 368
#     4  11  25  40  64  97 127 166 208 257 316 373
#     4  11  23  42  65  94 127 163 214 262 309 370
#     4  10  21  39  65  93 123 164 212 259 309 367
#     4  11  23  42  64  94 131 164 207 259 316 373
#     4  11  23  42  64  92 130 167 206 257 314 375
#
# _framework density 21.891307000000001
#
# number of rings (size 3 to 8) (size 9 to 14) (size 15 to 20)
#    0.000    1.429    0.000    6.000    0.000    9.714 
#    0.000    4.286    0.000    0.000    0.000    0.000 
#    0.000    0.000    0.000    0.000    0.000    0.000 
#
# Total GULP energy -78101.049948 kJ/mol
# GULP energy per Si atom -5578.646425 kJ/mol
# Density = 2.184148 g / cm^3
# Si number density = 21.891307 Si / 1000 Ang^3
#
#
#
# Elastic Constant Matrix: (Units=GPa)
#
#
# Indices 1 2 3 4 5 6 
#
# 1 101.3862 37.9042 37.3989 -0.8141 -14.9412 4.1709
# 2 37.9042 134.1454 37.7488 -6.8789 -10.2564 -7.0993
# 3 37.3989 37.7488 163.1356 -10.0528 -11.1540 2.2557
# 4 -0.8141 -6.8789 -10.0528 33.6819 2.6351 -3.8459
# 5 -14.9412 -10.2564 -11.1540 2.6351 19.0595 3.1892
# 6 4.1709 -7.0993 2.2557 -3.8459 3.1892 52.4983
#
#
#
# Elastic Compliance Matrix: (Units=1/GPa)
#
#
# Indices 1 2 3 4 5 6 
#
# 1 0.012791 -0.002665 -0.001839 -0.001632 0.008062 -0.001907
# 2 -0.002665 0.008827 -0.001264 0.001414 0.001479 0.001473
# 3 -0.001839 -0.001264 0.007075 0.001628 0.001848 -0.000322
# 4 -0.001632 0.001414 0.001628 0.031082 -0.004331 0.002791
# 5 0.008062 0.001479 0.001848 -0.004331 0.062034 -0.004606
# 6 -0.001907 0.001473 -0.000322 0.002791 -0.004606 0.019897
#
#
# Mechanical properties :
#
#
# Convention : Reuss Voigt Hill
#
# Bulk Modulus (GPa) = 58.28160 69.41901 63.85030
# Shear Modulus (GPa) = 31.45433 40.08895 35.77164
#
# Velocity S-wave (km/s) = 3.79468 4.28398 4.04673
# Velocity P-wave (km/s) = 6.77351 7.49997 7.14598
#
# Compressibility (1/GPa) = 0.01715807
#
# Stress axis : x y z
#
# Youngs Moduli (GPa) = 78.17774 113.29127 141.34497
#
# Poissons Ratio (x) = 0.30194 0.25990
# Poissons Ratio (y) = 0.20835 0.17861
# Poissons Ratio (z) = 0.14375 0.14316
#
# Static dielectric constant tensor:
#      x y z
#    x 1.862550 0.023520 0.049740 
#    y 0.023520 1.796280 -0.019990 
#    z 0.049740 -0.019990 1.858630 
# 
# From -- ./inp_files/514080.got.cif
#   From: 2010.05.17/outbox.cif.g08.bks.cpg/sg2_258_cif.got.tgz:514080.got - 2010.06.03 11:33:40.
