data_PCOD9008629
_publ_section_title
;
Structure prediction by ZEFSAII (Michael W. Deem and Ramdas Pophale) SiO2 
 PCOD9008629
Probable space group: P -1
;
_chemical_formula_sum "Si O2"
_cell_formula_units_Z 16
_cell_length_a 6.010281
_cell_length_b 11.197652
_cell_length_c 11.903383
_cell_angle_alpha 73.266340
_cell_angle_beta 87.259251
_cell_angle_gamma 67.731892
_cell_volume 708.269877
_symmetry_space_group_name_H-M "P -1"
_symmetry_group_IT_number 2
_symmetry_cell_setting 'triclinic'
loop_
_space_group_symop_operation_xyz
x,y,z
-x,-y,-z
loop_
_atom_site_type_symbol
_atom_site_label
_atom_site_fract_x
_atom_site_fract_y
_atom_site_fract_z
Si Si1 0.964243 0.893232 0.257108
Si Si2 0.469227 0.839953 0.799158
Si Si3 0.665662 0.389013 0.248341
Si Si4 0.946380 0.654884 0.938907
Si Si5 0.253779 0.005074 0.385517
Si Si6 0.975638 0.469583 0.377172
Si Si7 0.171994 0.644556 0.167359
Si Si8 0.751789 0.811232 0.493378
O O1 0.135467 0.780563 0.199684
O O2 0.845565 0.814248 0.364086
O O3 0.116872 0.950823 0.316736
O O4 0.754671 0.031820 0.180483
O O5 0.394740 0.741486 0.746287
O O6 0.664692 0.743827 0.907479
O O7 0.614227 0.912372 0.706619
O O8 0.437428 0.525508 0.182559
O O9 0.904036 0.351447 0.175587
O O10 0.748312 0.432157 0.354414
O O11 0.000000 0.500000 0.000000
O O12 0.062207 0.693958 0.034201
O O13 0.119447 0.106980 0.459924
O O14 0.467294 0.885928 0.472771
O O15 0.019764 0.572439 0.261392
O O16 0.193931 0.326535 0.407525
O O17 0.000000 0.500000 0.500000
#
# Coordination Sequence:
#
# PCOD9008629 Si02
#       8
#     2   2   2   2   2   2   2   2
#     4  11  24  42  66 102 140 181 226 283 351 408
#     4  11  24  45  73 101 134 180 238 282 342 411
#     4  12  25  45  75 100 138 184 236 284 340 417
#     4  12  24  47  75 102 136 180 237 289 340 410
#     4  10  22  42  66  95 138 181 233 280 329 415
#     4  12  25  43  66 104 145 179 224 286 344 409
#     4  12  27  44  69 109 143 180 231 288 352 407
#     4  10  21  39  65  92 136 187 231 271 339 402
#
# _framework density 22.590260000000001
#
# number of rings (size 3 to 8) (size 9 to 14) (size 15 to 20)
#    0.000    0.750    3.750    3.750    1.750    4.000 
#    0.000    2.500    0.000    0.000    0.000    0.000 
#    0.000    0.000    0.000    0.000    0.000    0.000 
#
# Total GULP energy -89269.996514 kJ/mol
# GULP energy per Si atom -5579.374782 kJ/mol
# Density = 2.253884 g / cm^3
# Si number density = 22.590260 Si / 1000 Ang^3
#
#
#
# Elastic Constant Matrix: (Units=GPa)
#
#
# Indices 1 2 3 4 5 6 
#
# 1 42.6204 25.2203 4.7366 -8.3068 9.3792 1.2053
# 2 25.2203 143.6897 22.3309 -5.2573 14.7732 -7.2595
# 3 4.7366 22.3309 65.5011 2.7654 23.1189 1.9017
# 4 -8.3068 -5.2573 2.7654 45.6454 -4.0601 5.9753
# 5 9.3792 14.7732 23.1189 -4.0601 28.0997 -4.1141
# 6 1.2053 -7.2595 1.9017 5.9753 -4.1141 20.1979
#
#
#
# Elastic Compliance Matrix: (Units=1/GPa)
#
#
# Indices 1 2 3 4 5 6 
#
# 1 0.029297 -0.004772 0.003136 0.004626 -0.010237 -0.007212
# 2 -0.004772 0.008385 -0.002515 -0.000239 -0.000261 0.003553
# 3 0.003136 -0.002515 0.023307 -0.002037 -0.020189 -0.006795
# 4 0.004626 -0.000239 -0.002037 0.023967 0.002739 -0.006702
# 5 -0.010237 -0.000261 -0.020189 0.002739 0.058117 0.013445
# 6 -0.007212 0.003553 -0.006795 -0.006702 0.013445 0.056579
#
#
# Mechanical properties :
#
#
# Convention : Reuss Voigt Hill
#
# Bulk Modulus (GPa) = 18.98001 39.59854 29.28927
# Shear Modulus (GPa) = 22.17147 32.09018 27.13083
#
# Velocity S-wave (km/s) = 3.13623 3.77308 3.46930
# Velocity P-wave (km/s) = 4.64054 6.04555 5.38903
#
# Compressibility (1/GPa) = 0.05268702
#
# Stress axis : x y z
#
# Youngs Moduli (GPa) = 34.13366 119.25431 42.90621
#
# Poissons Ratio (x) = 0.56909 -0.13455
# Poissons Ratio (y) = 0.16289 0.10789
# Poissons Ratio (z) = -0.10704 0.29988
#
# Static dielectric constant tensor:
#      x y z
#    x 1.896340 0.006800 -0.001560 
#    y 0.006800 1.889230 0.027860 
#    z -0.001560 0.027860 1.925770 
# 
# From -- ./inp_files/364293.got.cif
#   From: 2010.05.17/outbox.cif.g08.bks.cpg/sg2_183_cif.got.tgz:364293.got - 2010.06.03 11:33:40.
