data_PCOD9008876
_publ_section_title
;
Structure prediction by ZEFSAII (Michael W. Deem and Ramdas Pophale) SiO2 
 PCOD9008876
Probable space group: P -1
;
_chemical_formula_sum "Si O2"
_cell_formula_units_Z 16
_cell_length_a 6.546573
_cell_length_b 14.756329
_cell_length_c 8.822641
_cell_angle_alpha 105.251395
_cell_angle_beta 107.702406
_cell_angle_gamma 82.257242
_cell_volume 781.953393
_symmetry_space_group_name_H-M "P -1"
_symmetry_group_IT_number 2
_symmetry_cell_setting 'triclinic'
loop_
_space_group_symop_operation_xyz
x,y,z
-x,-y,-z
loop_
_atom_site_type_symbol
_atom_site_label
_atom_site_fract_x
_atom_site_fract_y
_atom_site_fract_z
Si Si1 0.542103 0.446984 0.643516
Si Si2 0.205324 0.941857 0.592419
Si Si3 0.863252 0.593038 0.910892
Si Si4 0.129054 0.911067 0.915316
Si Si5 0.443037 0.113425 0.802091
Si Si6 0.093015 0.214092 0.974309
Si Si7 0.266224 0.490865 0.868169
Si Si8 0.679709 0.235198 0.675879
O O1 0.500000 0.500000 0.500000
O O2 0.725143 0.510447 0.782235
O O3 0.324228 0.461565 0.699759
O O4 0.613578 0.336281 0.629152
O O5 0.153962 0.917889 0.744729
O O6 0.263502 0.847422 0.469182
O O7 0.394064 0.015010 0.669300
O O8 0.000000 0.000000 0.500000
O O9 0.101463 0.580925 0.889022
O O10 0.771639 0.697840 0.910911
O O11 0.853102 0.581486 0.085312
O O12 0.357921 0.901562 0.045879
O O13 0.995071 0.826653 0.909105
O O14 0.000000 0.000000 0.000000
O O15 0.238977 0.143781 0.873207
O O16 0.499493 0.193256 0.727969
O O17 0.887379 0.243607 0.835180
O O18 0.500000 0.500000 0.000000
#
# Coordination Sequence:
#
# PCOD9008876 Si02
#       8
#     2   2   2   2   2   2   2   2
#     4  11  25  43  60  94 140 172 219 273 328 394
#     4  12  23  45  67 100 137 175 216 275 335 397
#     4  10  21  39  66  90 121 168 219 266 317 382
#     4  11  24  43  66  97 136 170 222 275 322 399
#     4  11  23  44  69  95 133 178 220 272 332 396
#     4  11  22  41  68  98 126 171 228 270 329 393
#     4   9  18  37  63  85 117 159 213 263 313 371
#     4  11  24  41  66  96 132 175 223 272 331 398
#
# _framework density 20.461577999999999
#
# number of rings (size 3 to 8) (size 9 to 14) (size 15 to 20)
#    0.000    1.250    2.500    4.500    0.000    5.500 
#    2.250    0.000    0.000    0.000    0.000    0.000 
#    0.000    0.000    0.000    0.000    0.000    0.000 
#
# Total GULP energy -89232.790815 kJ/mol
# GULP energy per Si atom -5577.049426 kJ/mol
# Density = 2.041501 g / cm^3
# Si number density = 20.461578 Si / 1000 Ang^3
#
#
#
# Elastic Constant Matrix: (Units=GPa)
#
#
# Indices 1 2 3 4 5 6 
#
# 1 93.4635 38.9948 49.0581 -3.7174 -20.8601 -0.1446
# 2 38.9948 142.9672 69.3205 1.9202 -15.9431 15.9444
# 3 49.0581 69.3205 94.9259 -17.0959 -23.7581 12.7281
# 4 -3.7174 1.9202 -17.0959 39.5314 5.2731 -1.7697
# 5 -20.8601 -15.9431 -23.7581 5.2731 24.0412 3.8936
# 6 -0.1446 15.9444 12.7281 -1.7697 3.8936 28.4931
#
#
#
# Elastic Compliance Matrix: (Units=1/GPa)
#
#
# Indices 1 2 3 4 5 6 
#
# 1 0.015966 -0.000467 -0.006934 -0.002277 0.006807 0.002368
# 2 -0.000467 0.011768 -0.008691 -0.004549 0.000299 -0.003029
# 3 -0.006934 -0.008691 0.026750 0.009087 0.014034 -0.008475
# 4 -0.002277 -0.004549 0.009087 0.029612 -0.002616 0.000672
# 5 0.006807 0.000299 0.014034 -0.002616 0.064636 -0.015397
# 6 0.002368 -0.003029 -0.008475 0.000672 -0.015397 0.042735
#
#
# Mechanical properties :
#
#
# Convention : Reuss Voigt Hill
#
# Bulk Modulus (GPa) = 44.84256 71.78927 58.31591
# Shear Modulus (GPa) = 21.63698 30.01202 25.82450
#
# Velocity S-wave (km/s) = 3.25536 3.83397 3.55645
# Velocity P-wave (km/s) = 6.00774 7.40001 6.73992
#
# Compressibility (1/GPa) = 0.02230025
#
# Stress axis : x y z
#
# Youngs Moduli (GPa) = 62.63165 84.97497 37.38280
#
# Poissons Ratio (x) = 0.03969 0.25922
# Poissons Ratio (y) = 0.02926 0.32489
# Poissons Ratio (z) = 0.43431 0.73851
#
# Static dielectric constant tensor:
#      x y z
#    x 1.752510 0.018100 0.006720 
#    y 0.018100 1.823250 -0.018140 
#    z 0.006720 -0.018140 1.790520 
# 
# From -- ./inp_files/116802.got.cif
#   From: 2010.05.17/outbox.cif.g08.bks.cpg/sg2_59_cif.got.tgz:116802.got - 2010.06.03 11:33:40.
