data_PCOD9008109
_publ_section_title
;
Structure prediction by ZEFSAII (Michael W. Deem and Ramdas Pophale) SiO2 
 PCOD9008109
Probable space group: P -1
;
_chemical_formula_sum "Si O2"
_cell_formula_units_Z 14
_cell_length_a 8.881926
_cell_length_b 18.855391
_cell_length_c 12.062900
_cell_angle_alpha 146.811740
_cell_angle_beta 32.366247
_cell_angle_gamma 136.029473
_cell_volume 591.420969
_symmetry_space_group_name_H-M "P -1"
_symmetry_group_IT_number 2
_symmetry_cell_setting 'triclinic'
loop_
_space_group_symop_operation_xyz
x,y,z
-x,-y,-z
loop_
_atom_site_type_symbol
_atom_site_label
_atom_site_fract_x
_atom_site_fract_y
_atom_site_fract_z
Si Si1 0.379608 0.641766 0.284922
Si Si2 0.716083 0.152783 0.025461
Si Si3 0.738021 0.001403 0.021499
Si Si4 0.611238 0.646678 0.385409
Si Si5 0.321106 0.901055 0.561774
Si Si6 0.181783 0.643773 0.936649
Si Si7 0.260703 0.419877 0.421238
O O1 0.516598 0.683659 0.370253
O O2 0.427095 0.754328 0.310652
O O3 0.041518 0.630509 0.496997
O O4 0.500000 0.500000 0.000000
O O5 0.848682 0.103903 0.992273
O O6 0.469637 0.243662 0.336895
O O7 0.902435 0.247096 0.955562
O O8 0.562551 0.044154 0.903348
O O9 0.683854 0.048760 0.241590
O O10 0.989991 0.901844 0.736721
O O11 0.423746 0.518828 0.365868
O O12 0.942178 0.631417 0.159962
O O13 0.500000 0.000000 0.500000
O O14 0.197777 0.508092 0.683801
O O15 0.496273 0.678116 0.829459
#
# Coordination Sequence:
#
# PCOD9008109 Si02
#       7
#     2   2   2   2   2   2   2
#     4  12  24  45  69 104 141 186 236 287 360 423
#     4  10  22  41  72  94 139 183 238 288 348 419
#     4  10  23  46  67 100 134 191 235 287 349 420
#     4  11  22  40  67 101 138 185 234 290 352 419
#     4  11  26  46  72 102 143 180 238 293 351 418
#     4  10  21  39  63  99 139 179 234 288 348 418
#     4  10  22  40  62  95 142 184 228 285 352 419
#
# _framework density 23.671803000000001
#
# number of rings (size 3 to 8) (size 9 to 14) (size 15 to 20)
#    0.000    1.429    2.857    1.714    2.000    1.143 
#   10.286    2.857    0.000    0.000    0.000    0.000 
#    0.000    0.000    0.000    0.000    0.000    0.000 
#
# Total GULP energy -78213.671641 kJ/mol
# GULP energy per Si atom -5586.690832 kJ/mol
# Density = 2.361792 g / cm^3
# Si number density = 23.671803 Si / 1000 Ang^3
#
#
#
# Elastic Constant Matrix: (Units=GPa)
#
#
# Indices 1 2 3 4 5 6 
#
# 1 96.6912 35.9075 29.0983 -12.2951 -13.7919 -10.1116
# 2 35.9075 123.2881 57.0383 -4.5804 -12.4860 -30.2243
# 3 29.0983 57.0383 65.0898 -16.1842 -22.5016 -5.8376
# 4 -12.2951 -4.5804 -16.1842 36.2242 3.2618 -13.6079
# 5 -13.7919 -12.4860 -22.5016 3.2618 23.2722 1.6276
# 6 -10.1116 -30.2243 -5.8376 -13.6079 1.6276 43.7518
#
#
#
# Elastic Compliance Matrix: (Units=1/GPa)
#
#
# Indices 1 2 3 4 5 6 
#
# 1 0.012887 -0.001950 -0.001157 0.004162 0.004707 0.002596
# 2 -0.001950 0.018344 -0.017978 -0.001969 -0.009088 0.009548
# 3 -0.001157 -0.017978 0.045892 0.013591 0.032383 -0.003541
# 4 0.004162 -0.001969 0.013591 0.039094 0.008143 0.013271
# 5 0.004707 -0.009088 0.032383 0.008143 0.071122 -0.000983
# 6 0.002596 0.009548 -0.003541 0.013271 -0.000983 0.033744
#
#
# Mechanical properties :
#
#
# Convention : Reuss Voigt Hill
#
# Bulk Modulus (GPa) = 28.61128 58.79525 43.70327
# Shear Modulus (GPa) = 18.18830 31.51797 24.85314
#
# Velocity S-wave (km/s) = 2.77493 3.65287 3.24374
# Velocity P-wave (km/s) = 4.73073 6.53321 5.70363
#
# Compressibility (1/GPa) = 0.03495125
#
# Stress axis : x y z
#
# Youngs Moduli (GPa) = 77.59908 54.51514 21.79049
#
# Poissons Ratio (x) = 0.10631 0.02522
# Poissons Ratio (y) = 0.15133 0.39175
# Poissons Ratio (z) = 0.08980 0.98007
#
# Static dielectric constant tensor:
#      x y z
#    x 1.931470 -0.021060 -0.028390 
#    y -0.021060 1.994300 0.036010 
#    z -0.028390 0.036010 1.905970 
# 
# From -- ./inp_files/68167.got.cif
#   From: 2010.05.17/outbox.cif.g08.bks.cpg/sg2_35_cif.got.tgz:68167.got - 2010.06.03 11:33:40.
