data_PCOD9008829
_publ_section_title
;
Structure prediction by ZEFSAII (Michael W. Deem and Ramdas Pophale) SiO2 
 PCOD9008829
Probable space group: P -1
;
_chemical_formula_sum "Si O2"
_cell_formula_units_Z 16
_cell_length_a 8.769203
_cell_length_b 12.256836
_cell_length_c 18.888130
_cell_angle_alpha 35.350610
_cell_angle_beta 99.014853
_cell_angle_gamma 71.226258
_cell_volume 715.938063
_symmetry_space_group_name_H-M "P -1"
_symmetry_group_IT_number 2
_symmetry_cell_setting 'triclinic'
loop_
_space_group_symop_operation_xyz
x,y,z
-x,-y,-z
loop_
_atom_site_type_symbol
_atom_site_label
_atom_site_fract_x
_atom_site_fract_y
_atom_site_fract_z
Si Si1 0.194425 0.174605 0.224727
Si Si2 0.039929 0.427539 0.318395
Si Si3 0.616694 0.389610 0.490073
Si Si4 0.838525 0.440221 0.173582
Si Si5 0.504406 0.798342 0.820348
Si Si6 0.746641 0.365459 0.795371
Si Si7 0.958727 0.406190 0.479652
Si Si8 0.598672 0.285769 0.277259
O O1 0.450639 0.035086 0.297781
O O2 0.107822 0.234014 0.267634
O O3 0.186161 0.971522 0.303487
O O4 0.000000 0.500000 0.000000
O O5 0.172595 0.494282 0.274339
O O6 0.940368 0.527157 0.338825
O O7 0.820139 0.593511 0.158421
O O8 0.231480 0.065554 0.516502
O O9 0.500000 0.500000 0.500000
O O10 0.425032 0.518462 0.346019
O O11 0.735144 0.477010 0.436746
O O12 0.786558 0.278452 0.280571
O O13 0.651081 0.647577 0.984294
O O14 0.567218 0.595918 0.868076
O O15 0.215299 0.042185 0.685428
O O16 0.579657 0.498534 0.783566
O O17 0.000000 0.000000 0.000000
O O18 0.000000 0.500000 0.500000
#
# Coordination Sequence:
#
# PCOD9008829 Si02
#       8
#     2   2   2   2   2   2   2   2
#     4  10  21  39  66 101 133 169 217 270 326 387
#     4  11  23  43  68  95 129 173 220 274 330 393
#     4  12  25  45  69  96 133 178 222 273 332 397
#     4  11  22  38  67 102 132 167 217 274 328 389
#     4  10  22  39  65 100 135 172 216 270 326 391
#     4  12  28  46  66  98 135 177 224 278 337 395
#     4  11  24  44  67  95 131 176 221 269 331 396
#     4  11  22  42  66  95 133 176 220 270 328 396
#
# _framework density 22.348299999999998
#
# number of rings (size 3 to 8) (size 9 to 14) (size 15 to 20)
#    0.000    1.000    0.000    7.875    0.000    8.000 
#    0.000    1.875    0.000    0.000    0.000    0.000 
#    0.000    0.000    0.000    0.000    0.000    0.000 
#
# Total GULP energy -89415.342088 kJ/mol
# GULP energy per Si atom -5588.458881 kJ/mol
# Density = 2.229743 g / cm^3
# Si number density = 22.348300 Si / 1000 Ang^3
#
#
#
# Elastic Constant Matrix: (Units=GPa)
#
#
# Indices 1 2 3 4 5 6 
#
# 1 163.8449 46.3168 31.3085 17.4550 -16.9887 5.5222
# 2 46.3168 180.3216 46.4654 38.2168 -1.2858 0.4053
# 3 31.3085 46.4654 80.0572 18.8575 -1.2482 3.6385
# 4 17.4550 38.2168 18.8575 39.0631 9.9185 8.2747
# 5 -16.9887 -1.2858 -1.2482 9.9185 29.0923 6.7648
# 6 5.5222 0.4053 3.6385 8.2747 6.7648 45.8468
#
#
#
# Elastic Compliance Matrix: (Units=1/GPa)
#
#
# Indices 1 2 3 4 5 6 
#
# 1 0.007588 -0.000860 -0.001638 -0.002948 0.005576 -0.001067
# 2 -0.000860 0.007898 -0.002686 -0.006746 0.001751 0.001206
# 3 -0.001638 -0.002686 0.015785 -0.004485 0.001225 -0.000403
# 4 -0.002948 -0.006746 -0.004485 0.040400 -0.014984 -0.004310
# 5 0.005576 0.001751 0.001225 -0.014984 0.043928 -0.004562
# 6 -0.001067 0.001206 -0.000403 -0.004310 -0.004562 0.023413
#
#
# Mechanical properties :
#
#
# Convention : Reuss Voigt Hill
#
# Bulk Modulus (GPa) = 47.84316 74.71169 61.27742
# Shear Modulus (GPa) = 31.97992 42.80931 37.39461
#
# Velocity S-wave (km/s) = 3.78693 4.38145 4.09499
# Velocity P-wave (km/s) = 6.36989 7.68761 7.05956
#
# Compressibility (1/GPa) = 0.02090163
#
# Stress axis : x y z
#
# Youngs Moduli (GPa) = 131.79335 126.60990 63.35142
#
# Poissons Ratio (x) = 0.10885 0.10380
# Poissons Ratio (y) = 0.11331 0.17019
# Poissons Ratio (z) = 0.21594 0.34012
#
# Static dielectric constant tensor:
#      x y z
#    x 1.844820 -0.017020 0.045140 
#    y -0.017020 1.918040 -0.008920 
#    z 0.045140 -0.008920 1.922750 
# 
# From -- ./inp_files/558962.got.cif
#   From: 2010.05.17/outbox.cif.g08.bks.cpg/sg2_280_cif.got.tgz:558962.got - 2010.06.03 11:33:40.
