data_PCOD9008174
_publ_section_title
;
Structure prediction by ZEFSAII (Michael W. Deem and Ramdas Pophale) SiO2 
 PCOD9008174
Probable space group: P -1
;
_chemical_formula_sum "Si O2"
_cell_formula_units_Z 16
_cell_length_a 8.188535
_cell_length_b 20.867615
_cell_length_c 6.429948
_cell_angle_alpha 117.525968
_cell_angle_beta 70.012823
_cell_angle_gamma 129.577013
_cell_volume 749.189642
_symmetry_space_group_name_H-M "P -1"
_symmetry_group_IT_number 2
_symmetry_cell_setting 'triclinic'
loop_
_space_group_symop_operation_xyz
x,y,z
-x,-y,-z
loop_
_atom_site_type_symbol
_atom_site_label
_atom_site_fract_x
_atom_site_fract_y
_atom_site_fract_z
Si Si1 0.999146 0.923788 0.767949
Si Si2 0.115728 0.234389 0.634505
Si Si3 0.159499 0.515669 0.638007
Si Si4 0.516256 0.429693 0.761124
Si Si5 0.777386 0.376668 0.844057
Si Si6 0.356595 0.006141 0.407015
Si Si7 0.118648 0.847105 0.978126
Si Si8 0.280896 0.796919 0.500506
O O1 0.824816 0.827708 0.596492
O O2 0.145378 0.973873 0.578037
O O3 0.077494 0.889523 0.865520
O O4 0.000000 0.000000 0.000000
O O5 0.291474 0.337197 0.682186
O O6 0.069164 0.208301 0.858226
O O7 0.889730 0.208745 0.597467
O O8 0.358816 0.530726 0.451691
O O9 0.000000 0.500000 0.500000
O O10 0.019453 0.434059 0.735094
O O11 0.222715 0.598525 0.879588
O O12 0.649236 0.405552 0.811151
O O13 0.500000 0.500000 0.000000
O O14 0.684967 0.276238 0.692167
O O15 0.496601 0.107675 0.436539
O O16 0.500000 0.000000 0.500000
O O17 0.301366 0.934178 0.149977
O O18 0.178725 0.785374 0.755104
#
# Coordination Sequence:
#
# PCOD9008174 Si02
#       8
#     2   2   2   2   2   2   2   2
#     4  10  23  40  62  92 130 168 205 262 316 378
#     4  10  24  40  59  96 132 163 217 258 322 382
#     4   9  22  45  66  91 127 157 213 264 321 381
#     4  11  26  43  66  94 132 171 209 268 326 385
#     4  10  24  43  67  98 121 167 218 262 322 381
#     4  11  20  40  60  95 123 166 215 251 309 381
#     4  10  21  39  64  88 132 166 204 260 321 364
#     4  11  23  37  67  95 125 166 217 266 305 383
#
# _framework density 21.356408999999999
#
# number of rings (size 3 to 8) (size 9 to 14) (size 15 to 20)
#    0.000    1.750    3.750    0.375    7.000    8.500 
#    0.000    0.000    0.000    0.000    0.000    0.000 
#    0.000    0.000    0.000    0.000    0.000    0.000 
#
# Total GULP energy -89181.243307 kJ/mol
# GULP energy per Si atom -5573.827707 kJ/mol
# Density = 2.130780 g / cm^3
# Si number density = 21.356409 Si / 1000 Ang^3
#
#
#
# Elastic Constant Matrix: (Units=GPa)
#
#
# Indices 1 2 3 4 5 6 
#
# 1 33.5856 17.3701 20.8393 2.5707 -1.5417 -7.3442
# 2 17.3701 80.2596 40.0465 17.1274 -16.5245 17.6765
# 3 20.8393 40.0465 167.8995 13.2083 -12.5266 -1.8829
# 4 2.5707 17.1274 13.2083 42.0326 -6.6432 -4.4530
# 5 -1.5417 -16.5245 -12.5266 -6.6432 30.1218 4.8955
# 6 -7.3442 17.6765 -1.8829 -4.4530 4.8955 30.1242
#
#
#
# Elastic Compliance Matrix: (Units=1/GPa)
#
#
# Indices 1 2 3 4 5 6 
#
# 1 0.044032 -0.016707 -0.002445 0.005667 -0.010403 0.022914
# 2 -0.016707 0.028276 -0.003042 -0.009756 0.015267 -0.024778
# 3 -0.002445 -0.003042 0.007106 -0.000566 0.000806 0.001418
# 4 0.005667 -0.009756 -0.000566 0.028679 -0.000833 0.011446
# 5 -0.010403 0.015267 0.000806 -0.000833 0.044241 -0.018757
# 6 0.022914 -0.024778 0.001418 0.011446 -0.018757 0.058151
#
#
# Mechanical properties :
#
#
# Convention : Reuss Voigt Hill
#
# Bulk Modulus (GPa) = 28.55127 48.69517 38.62322
# Shear Modulus (GPa) = 18.75836 34.02165 26.39001
#
# Velocity S-wave (km/s) = 2.96691 3.99562 3.51906
# Velocity P-wave (km/s) = 5.01345 6.64360 5.88524
#
# Compressibility (1/GPa) = 0.03502471
#
# Stress axis : x y z
#
# Youngs Moduli (GPa) = 22.71071 35.36600 140.73569
#
# Poissons Ratio (x) = 0.59087 0.34412
# Poissons Ratio (y) = 0.37943 0.42810
# Poissons Ratio (z) = 0.05553 0.10758
#
# Static dielectric constant tensor:
#      x y z
#    x 1.837510 0.018570 -0.014810 
#    y 0.018570 1.619380 0.214240 
#    z -0.014810 0.214240 1.554010 
# 
# From -- ./inp_files/53686.got.cif
#   From: 2010.05.17/outbox.cif.g08.bks.cpg/sg2_27_cif.got.tgz:53686.got - 2010.06.03 11:33:40.
