data_PCOD9008218
_publ_section_title
;
Structure prediction by ZEFSAII (Michael W. Deem and Ramdas Pophale) SiO2 
 PCOD9008218
Probable space group: P -1
;
_chemical_formula_sum "Si O2"
_cell_formula_units_Z 14
_cell_length_a 9.215606
_cell_length_b 9.168619
_cell_length_c 7.529641
_cell_angle_alpha 108.803956
_cell_angle_beta 106.692496
_cell_angle_gamma 82.897732
_cell_volume 576.538346
_symmetry_space_group_name_H-M "P -1"
_symmetry_group_IT_number 2
_symmetry_cell_setting 'triclinic'
loop_
_space_group_symop_operation_xyz
x,y,z
-x,-y,-z
loop_
_atom_site_type_symbol
_atom_site_label
_atom_site_fract_x
_atom_site_fract_y
_atom_site_fract_z
Si Si1 0.133677 0.266361 0.819679
Si Si2 0.684136 0.088668 0.921378
Si Si3 0.674409 0.508183 0.522949
Si Si4 0.341998 0.986952 0.706601
Si Si5 0.886955 0.427489 0.284896
Si Si6 0.218339 0.746671 0.291463
Si Si7 0.155784 0.214430 0.210636
O O1 0.131919 0.440870 0.817875
O O2 0.960174 0.215980 0.742098
O O3 0.236221 0.140700 0.700900
O O4 0.191991 0.255303 0.036129
O O5 0.716810 0.241136 0.880098
O O6 0.516620 0.032998 0.791968
O O7 0.805763 0.964801 0.831682
O O8 0.694491 0.078455 0.134034
O O9 0.500000 0.500000 0.500000
O O10 0.729785 0.419207 0.330844
O O11 0.758326 0.421171 0.680666
O O12 0.731671 0.681267 0.597264
O O13 0.307404 0.862170 0.495911
O O14 0.000000 0.500000 0.500000
O O15 0.983644 0.273375 0.208466
#
# Coordination Sequence:
#
# PCOD9008218 Si02
#       7
#     2   2   2   2   2   2   2
#     4  11  23  41  65  96 126 171 215 261 323 380
#     4  10  24  44  67  94 130 175 211 266 325 376
#     4  11  25  42  64  97 127 166 221 262 321 383
#     4  10  24  43  65  94 136 167 215 263 329 381
#     4  10  21  39  64  90 126 172 203 262 323 377
#     4  12  24  39  66 100 127 167 218 270 311 388
#     4  10  22  44  66  88 133 169 210 263 322 389
#
# _framework density 24.282862999999999
#
# number of rings (size 3 to 8) (size 9 to 14) (size 15 to 20)
#    0.000    1.429    2.857    2.143    6.000    4.571 
#    0.000    0.714    0.000    0.000    0.000    0.000 
#    0.000    0.000    0.000    0.000    0.000    0.000 
#
# Total GULP energy -78371.637550 kJ/mol
# GULP energy per Si atom -5597.974111 kJ/mol
# Density = 2.422759 g / cm^3
# Si number density = 24.282863 Si / 1000 Ang^3
#
#
#
# Elastic Constant Matrix: (Units=GPa)
#
#
# Indices 1 2 3 4 5 6 
#
# 1 121.9263 25.8894 15.5752 -3.2659 -12.7599 6.1405
# 2 25.8894 86.4758 6.7048 -11.2435 -9.0588 15.7234
# 3 15.5752 6.7048 60.0843 -2.5891 0.0263 7.4340
# 4 -3.2659 -11.2435 -2.5891 35.4342 8.1586 -9.2259
# 5 -12.7599 -9.0588 0.0263 8.1586 35.1722 -5.0266
# 6 6.1405 15.7234 7.4340 -9.2259 -5.0266 33.7540
#
#
#
# Elastic Compliance Matrix: (Units=1/GPa)
#
#
# Indices 1 2 3 4 5 6 
#
# 1 0.009275 -0.002422 -0.002186 -0.000705 0.002930 0.000166
# 2 -0.002422 0.013679 -0.000172 0.002489 0.001351 -0.005012
# 3 -0.002186 -0.000172 0.017684 0.000458 -0.001458 -0.003509
# 4 -0.000705 0.002489 0.000458 0.032141 -0.006107 0.006744
# 5 0.002930 0.001351 -0.001458 -0.006107 0.031573 0.002192
# 6 0.000166 -0.005012 -0.003509 0.006744 0.002192 0.034873
#
#
# Mechanical properties :
#
#
# Convention : Reuss Voigt Hill
#
# Bulk Modulus (GPa) = 32.17807 40.53611 36.35709
# Shear Modulus (GPa) = 31.41815 35.55989 33.48902
#
# Velocity S-wave (km/s) = 3.60090 3.83090 3.71768
# Velocity P-wave (km/s) = 5.52890 6.02472 5.78213
#
# Compressibility (1/GPa) = 0.03107706
#
# Stress axis : x y z
#
# Youngs Moduli (GPa) = 107.82150 73.10595 56.54936
#
# Poissons Ratio (x) = 0.17707 0.12362
# Poissons Ratio (y) = 0.26115 0.00971
# Poissons Ratio (z) = 0.23571 0.01256
#
# Static dielectric constant tensor:
#      x y z
#    x 1.911540 0.002210 -0.016740 
#    y 0.002210 1.943510 0.038440 
#    z -0.016740 0.038440 1.985930 
# 
# From -- ./inp_files/155353.got.cif
#   From: 2010.05.17/outbox.cif.g08.bks.cpg/sg2_78_cif.got.tgz:155353.got - 2010.06.03 11:33:40.
