data_PCOD9008650
_publ_section_title
;
Structure prediction by ZEFSAII (Michael W. Deem and Ramdas Pophale) SiO2 
 PCOD9008650
Probable space group: P -1
;
_chemical_formula_sum "Si O2"
_cell_formula_units_Z 16
_cell_length_a 20.983021
_cell_length_b 9.941410
_cell_length_c 5.579118
_cell_angle_alpha 136.964041
_cell_angle_beta 119.742426
_cell_angle_gamma 61.658673
_cell_volume 677.163425
_symmetry_space_group_name_H-M "P -1"
_symmetry_group_IT_number 2
_symmetry_cell_setting 'triclinic'
loop_
_space_group_symop_operation_xyz
x,y,z
-x,-y,-z
loop_
_atom_site_type_symbol
_atom_site_label
_atom_site_fract_x
_atom_site_fract_y
_atom_site_fract_z
Si Si1 0.726727 0.444124 0.335720
Si Si2 0.845650 0.674023 0.634690
Si Si3 0.981516 0.738551 0.239609
Si Si4 0.575265 0.458483 0.835444
Si Si5 0.938061 0.241094 0.089973
Si Si6 0.684593 0.210024 0.336748
Si Si7 0.461605 0.812342 0.193016
Si Si8 0.799093 0.036826 0.662424
O O1 0.780555 0.588404 0.536987
O O2 0.729633 0.372330 0.521902
O O3 0.639578 0.521695 0.210917
O O4 0.755853 0.228042 0.982609
O O5 0.899252 0.477953 0.360001
O O6 0.816148 0.837445 0.591060
O O7 0.895174 0.775818 0.047046
O O8 0.009595 0.809420 0.639787
O O9 0.024669 0.787148 0.141524
O O10 0.000000 0.500000 0.000000
O O11 0.626416 0.340040 0.575674
O O12 0.534577 0.303721 0.699797
O O13 0.513094 0.649661 0.906366
O O14 0.873508 0.111954 0.820160
O O15 0.742231 0.032841 0.333203
O O16 0.626876 0.133365 0.951794
O O17 0.500000 0.000000 0.500000
#
# Coordination Sequence:
#
# PCOD9008650 Si02
#       8
#     2   2   2   2   2   2   2   2
#     4   9  21  41  60  88 128 168 207 266 314 387
#     4  10  21  41  63  92 125 169 215 265 327 395
#     4  10  21  41  67  94 129 172 224 277 335 397
#     4   9  20  40  63  90 125 165 212 252 325 382
#     4  10  23  43  66  91 134 172 220 283 335 392
#     4  10  21  41  65  90 129 170 209 265 325 390
#     4  10  21  39  65  93 126 161 207 267 317 384
#     4  10  23  40  61  92 127 167 216 264 330 390
#
# _framework density 23.627972
#
# number of rings (size 3 to 8) (size 9 to 14) (size 15 to 20)
#    0.000    2.250    0.000    1.875    5.250    4.500 
#    9.000   12.500    0.000    0.000    0.000    0.000 
#    0.000    0.000    0.000    0.000    0.000    0.000 
#
# Total GULP energy -89422.372378 kJ/mol
# GULP energy per Si atom -5588.898274 kJ/mol
# Density = 2.357419 g / cm^3
# Si number density = 23.627972 Si / 1000 Ang^3
#
#
#
# Elastic Constant Matrix: (Units=GPa)
#
#
# Indices 1 2 3 4 5 6 
#
# 1 145.4117 74.1549 49.3656 5.5663 21.8201 13.6436
# 2 74.1549 196.3096 65.8598 -8.7765 31.5505 -3.0220
# 3 49.3656 65.8598 91.5580 3.7523 10.5217 4.8121
# 4 5.5663 -8.7765 3.7523 35.0569 -0.8035 7.8669
# 5 21.8201 31.5505 10.5217 -0.8035 39.1892 0.6559
# 6 13.6436 -3.0220 4.8121 7.8669 0.6559 45.7913
#
#
#
# Elastic Compliance Matrix: (Units=1/GPa)
#
#
# Indices 1 2 3 4 5 6 
#
# 1 0.009814 -0.002313 -0.003128 -0.001308 -0.002748 -0.002484
# 2 -0.002313 0.008231 -0.004370 0.002504 -0.004136 0.001321
# 3 -0.003128 -0.004370 0.015759 -0.002112 0.000997 -0.000664
# 4 -0.001308 0.002504 -0.002112 0.030590 -0.000019 -0.004478
# 5 -0.002748 -0.004136 0.000997 -0.000019 0.030109 0.000013
# 6 -0.002484 0.001321 -0.000664 -0.004478 0.000013 0.023504
#
#
# Mechanical properties :
#
#
# Convention : Reuss Voigt Hill
#
# Bulk Modulus (GPa) = 70.51276 90.22665 80.36970
# Shear Modulus (GPa) = 35.12306 40.26740 37.69523
#
# Velocity S-wave (km/s) = 3.85970 4.13271 3.99853
# Velocity P-wave (km/s) = 7.05484 7.81291 7.44353
#
# Compressibility (1/GPa) = 0.01418183
#
# Stress axis : x y z
#
# Youngs Moduli (GPa) = 101.89755 121.49246 63.45565
#
# Poissons Ratio (x) = 0.28100 0.19847
# Poissons Ratio (y) = 0.23568 0.27733
# Poissons Ratio (z) = 0.31870 0.53097
#
# Static dielectric constant tensor:
#      x y z
#    x 1.911920 -0.008400 -0.070730 
#    y -0.008400 1.916540 -0.087010 
#    z -0.070730 -0.087010 2.059390 
# 
# From -- ./inp_files/117558.got.cif
#   From: 2010.05.17/outbox.cif.g08.bks.cpg/sg2_59_cif.got.tgz:117558.got - 2010.06.03 11:33:40.
