data_PCOD9008204
_publ_section_title
;
Structure prediction by ZEFSAII (Michael W. Deem and Ramdas Pophale) SiO2 
 PCOD9008204
Probable space group: P -1
;
_chemical_formula_sum "Si O2"
_cell_formula_units_Z 16
_cell_length_a 6.621185
_cell_length_b 14.774423
_cell_length_c 12.174476
_cell_angle_alpha 104.941585
_cell_angle_beta 87.361415
_cell_angle_gamma 134.657566
_cell_volume 802.518731
_symmetry_space_group_name_H-M "P -1"
_symmetry_group_IT_number 2
_symmetry_cell_setting 'triclinic'
loop_
_space_group_symop_operation_xyz
x,y,z
-x,-y,-z
loop_
_atom_site_type_symbol
_atom_site_label
_atom_site_fract_x
_atom_site_fract_y
_atom_site_fract_z
Si Si1 0.347023 0.111359 0.022951
Si Si2 0.198478 0.822836 0.120226
Si Si3 0.956705 0.553508 0.121966
Si Si4 0.555218 0.910424 0.736351
Si Si5 0.322879 0.312180 0.077181
Si Si6 0.891098 0.707393 0.689266
Si Si7 0.907387 0.494846 0.666041
Si Si8 0.484165 0.694660 0.567992
O O1 0.449451 0.123739 0.147007
O O2 0.431480 0.243612 0.027232
O O3 0.505641 0.093387 0.931023
O O4 0.000000 0.000000 0.000000
O O5 0.136794 0.708713 0.153689
O O6 0.235546 0.930620 0.221432
O O7 0.933949 0.744737 0.015843
O O8 0.616419 0.468803 0.112501
O O9 0.047852 0.526163 0.219125
O O10 0.000000 0.500000 0.000000
O O11 0.621875 0.840565 0.641255
O O12 0.227679 0.830409 0.692374
O O13 0.197722 0.268199 0.189818
O O14 0.835939 0.580853 0.681265
O O15 0.705811 0.685663 0.586959
O O16 0.659951 0.356918 0.563744
O O17 0.213496 0.587017 0.623748
#
# Coordination Sequence:
#
# PCOD9008204 Si02
#       8
#     2   2   2   2   2   2   2   2
#     4  12  21  36  58  88 126 159 198 257 306 353
#     4  12  25  37  58  90 127 170 202 239 308 371
#     4  12  24  43  61  88 129 166 203 246 301 378
#     4  11  22  36  58  92 122 160 204 253 301 360
#     4  12  21  38  61  90 125 163 198 251 308 361
#     4  11  19  36  66  90 120 151 205 256 311 352
#     4  10  22  40  62  92 120 157 204 253 307 358
#     4  10  21  39  64  90 121 152 204 266 303 346
#
# _framework density 19.937228000000001
#
# number of rings (size 3 to 8) (size 9 to 14) (size 15 to 20)
#    0.000    0.750    6.250    3.375    0.000    0.000 
#    0.000    0.625    0.000    0.750    0.000    0.000 
#    0.000    0.000    0.000    0.000    0.000    0.000 
#
# Total GULP energy -89397.648547 kJ/mol
# GULP energy per Si atom -5587.353034 kJ/mol
# Density = 1.989185 g / cm^3
# Si number density = 19.937228 Si / 1000 Ang^3
#
#
#
# Elastic Constant Matrix: (Units=GPa)
#
#
# Indices 1 2 3 4 5 6 
#
# 1 91.0000 24.4504 26.8518 4.1289 24.0461 0.7090
# 2 24.4504 84.4674 30.2328 16.2860 5.8008 -8.0921
# 3 26.8518 30.2328 94.3099 7.0505 21.0748 -7.4283
# 4 4.1289 16.2860 7.0505 24.5219 -1.8523 -2.7904
# 5 24.0461 5.8008 21.0748 -1.8523 23.0326 6.6756
# 6 0.7090 -8.0921 -7.4283 -2.7904 6.6756 26.0987
#
#
#
# Elastic Compliance Matrix: (Units=1/GPa)
#
#
# Indices 1 2 3 4 5 6 
#
# 1 0.016475 -0.003110 0.000784 -0.001940 -0.018237 0.003269
# 2 -0.003110 0.015873 -0.003562 -0.008598 0.001000 0.002817
# 3 0.000784 -0.003562 0.016155 -0.002846 -0.017119 0.007547
# 4 -0.001940 -0.008598 -0.002846 0.048344 0.010991 -0.001065
# 5 -0.018237 0.001000 -0.017119 0.010991 0.085963 -0.024880
# 6 0.003269 0.002817 0.007547 -0.001065 -0.024880 0.047499
#
#
# Mechanical properties :
#
#
# Convention : Reuss Voigt Hill
#
# Bulk Modulus (GPa) = 27.22788 48.09415 37.66101
# Shear Modulus (GPa) = 19.65984 27.28013 23.46998
#
# Velocity S-wave (km/s) = 3.14361 3.70307 3.43475
# Velocity P-wave (km/s) = 5.18294 6.51604 5.88734
#
# Compressibility (1/GPa) = 0.03672706
#
# Stress axis : x y z
#
# Youngs Moduli (GPa) = 60.69852 63.00040 61.90216
#
# Poissons Ratio (x) = 0.19593 -0.04854
# Poissons Ratio (y) = 0.18877 0.22048
# Poissons Ratio (z) = -0.04759 0.22439
#
# Static dielectric constant tensor:
#      x y z
#    x 1.722270 -0.013200 -0.020350 
#    y -0.013200 1.753950 0.048440 
#    z -0.020350 0.048440 1.702810 
# 
# From -- ./inp_files/76518.got.cif
#   From: 2010.05.17/outbox.cif.g08.bks.cpg/sg2_39_cif.got.tgz:76518.got - 2010.06.03 11:33:40.
