data_PCOD9008974
_publ_section_title
;
Structure prediction by ZEFSAII (Michael W. Deem and Ramdas Pophale) SiO2 
 PCOD9008974
Probable space group: P -1
;
_chemical_formula_sum "Si O2"
_cell_formula_units_Z 16
_cell_length_a 8.827603
_cell_length_b 18.315099
_cell_length_c 22.141558
_cell_angle_alpha 162.865531
_cell_angle_beta 35.796314
_cell_angle_gamma 140.865263
_cell_volume 616.877442
_symmetry_space_group_name_H-M "P -1"
_symmetry_group_IT_number 2
_symmetry_cell_setting 'triclinic'
loop_
_space_group_symop_operation_xyz
x,y,z
-x,-y,-z
loop_
_atom_site_type_symbol
_atom_site_label
_atom_site_fract_x
_atom_site_fract_y
_atom_site_fract_z
Si Si1 0.124287 0.125408 0.714546
Si Si2 0.177929 0.634701 0.168181
Si Si3 0.366526 0.852476 0.978740
Si Si4 0.240151 0.531007 0.490055
Si Si5 0.628384 0.889984 0.690873
Si Si6 0.961552 0.553058 0.811606
Si Si7 0.366634 0.137709 0.515954
Si Si8 0.870864 0.333755 0.554282
O O1 0.295109 0.104453 0.583523
O O2 0.139352 0.911614 0.592202
O O3 0.186555 0.386788 0.930900
O O4 0.828530 0.092799 0.759686
O O5 0.205571 0.572923 0.181420
O O6 0.880479 0.730711 0.330947
O O7 0.371090 0.859253 0.268605
O O8 0.531908 0.604357 0.727169
O O9 0.083003 0.786798 0.992044
O O10 0.500000 0.000000 0.000000
O O11 0.401586 0.996617 0.143253
O O12 0.355562 0.802234 0.682865
O O13 0.000000 0.500000 0.500000
O O14 0.128860 0.401039 0.485241
O O15 0.795848 0.632598 0.430164
O O16 0.827899 0.557957 0.793523
O O17 0.633958 0.284027 0.546421
#
# Coordination Sequence:
#
# PCOD9008974 Si02
#       8
#     2   2   2   2   2   2   2   2
#     4  11  22  42  68  99 124 166 225 267 315 391
#     4  11  23  41  69  94 126 173 220 260 326 386
#     4  11  21  39  69  93 121 170 223 262 319 385
#     4  11  27  43  63  97 137 173 212 267 331 383
#     4  10  21  40  67  92 128 164 217 262 317 382
#     4  10  21  39  66  95 129 167 215 268 318 387
#     4  11  25  43  66  95 134 172 211 272 329 380
#     4  11  24  44  65  94 139 170 214 272 324 380
#
# _framework density 25.937080999999999
#
# number of rings (size 3 to 8) (size 9 to 14) (size 15 to 20)
#    0.000    1.250    3.750    3.000    3.500    4.500 
#    0.000    1.250    0.000    0.000    0.000    0.000 
#    0.000    0.000    0.000    0.000    0.000    0.000 
#
# Total GULP energy -89371.329696 kJ/mol
# GULP energy per Si atom -5585.708106 kJ/mol
# Density = 2.587805 g / cm^3
# Si number density = 25.937081 Si / 1000 Ang^3
#
#
#
# Elastic Constant Matrix: (Units=GPa)
#
#
# Indices 1 2 3 4 5 6 
#
# 1 124.0985 41.5689 52.5112 15.3405 41.5495 22.8250
# 2 41.5689 113.5900 35.2449 -0.1430 26.7934 12.8886
# 3 52.5112 35.2449 116.0105 5.6654 56.0585 -0.5410
# 4 15.3405 -0.1430 5.6654 31.3566 4.6858 15.3272
# 5 41.5495 26.7934 56.0585 4.6858 46.5748 10.0853
# 6 22.8250 12.8886 -0.5410 15.3272 10.0853 58.0353
#
#
#
# Elastic Compliance Matrix: (Units=1/GPa)
#
#
# Indices 1 2 3 4 5 6 
#
# 1 0.012807 -0.002227 -0.001082 -0.003835 -0.007989 -0.002151
# 2 -0.002227 0.010816 -0.001002 0.002593 -0.002920 -0.001713
# 3 -0.001082 -0.001002 0.022320 -0.002554 -0.026390 0.006117
# 4 -0.003835 0.002593 -0.002554 0.038565 0.003254 -0.009842
# 5 -0.007989 -0.002920 -0.026390 0.003254 0.063523 -0.008354
# 6 -0.002151 -0.001713 0.006117 -0.009842 -0.008354 0.022566
#
#
# Mechanical properties :
#
#
# Convention : Reuss Voigt Hill
#
# Bulk Modulus (GPa) = 26.79556 68.03877 47.41717
# Shear Modulus (GPa) = 26.08816 42.15160 34.11988
#
# Velocity S-wave (km/s) = 3.17491 4.03569 3.63090
# Velocity P-wave (km/s) = 4.87786 6.92855 5.99159
#
# Compressibility (1/GPa) = 0.03731961
#
# Stress axis : x y z
#
# Youngs Moduli (GPa) = 78.08406 92.45816 44.80366
#
# Poissons Ratio (x) = 0.20591 0.04850
# Poissons Ratio (y) = 0.17390 0.04488
# Poissons Ratio (z) = 0.08453 0.09261
#
# Static dielectric constant tensor:
#      x y z
#    x 2.248700 0.086480 -0.097410 
#    y 0.086480 2.068070 -0.040150 
#    z -0.097410 -0.040150 2.288910 
# 
# From -- ./inp_files/591254.got.cif
#   From: 2010.05.17/outbox.cif.g08.bks.cpg/sg2_296_cif.got.tgz:591254.got - 2010.06.03 11:33:40.
