data_PCOD9008150
_publ_section_title
;
Structure prediction by ZEFSAII (Michael W. Deem and Ramdas Pophale) SiO2 
 PCOD9008150
Probable space group: P -1
;
_chemical_formula_sum "Si O2"
_cell_formula_units_Z 16
_cell_length_a 13.220046
_cell_length_b 23.066864
_cell_length_c 19.667913
_cell_angle_alpha 162.889504
_cell_angle_beta 140.479453
_cell_angle_gamma 29.502993
_cell_volume 789.869596
_symmetry_space_group_name_H-M "P -1"
_symmetry_group_IT_number 2
_symmetry_cell_setting 'triclinic'
loop_
_space_group_symop_operation_xyz
x,y,z
-x,-y,-z
loop_
_atom_site_type_symbol
_atom_site_label
_atom_site_fract_x
_atom_site_fract_y
_atom_site_fract_z
Si Si1 0.934337 0.703115 0.754435
Si Si2 0.186636 0.880426 0.302546
Si Si3 0.788650 0.216197 0.183100
Si Si4 0.577313 0.770624 0.729911
Si Si5 0.439628 0.493167 0.197930
Si Si6 0.138182 0.477864 0.106412
Si Si7 0.162501 0.073243 0.756271
Si Si8 0.339360 0.575016 0.896795
O O1 0.760862 0.726739 0.732680
O O2 0.000000 0.500000 0.500000
O O3 0.154143 0.592254 0.785461
O O4 0.795347 0.010750 0.998342
O O5 0.429064 0.720843 0.283185
O O6 0.075812 0.790965 0.184664
O O7 0.228454 0.785411 0.139129
O O8 0.005132 0.215194 0.592427
O O9 0.723749 0.446237 0.460424
O O10 0.613149 0.418694 0.259748
O O11 0.000000 0.000000 0.000000
O O12 0.342293 0.920565 0.739422
O O13 0.500000 0.000000 0.000000
O O14 0.347527 0.383372 0.066555
O O15 0.567126 0.368461 0.052648
O O16 0.245260 0.831660 0.475126
O O17 0.174573 0.274543 0.952322
O O18 0.000000 0.500000 0.000000
#
# Coordination Sequence:
#
# PCOD9008150 Si02
#       8
#     2   2   2   2   2   2   2   2
#     4  12  23  40  66  94 127 166 210 259 316 381
#     4  10  24  42  61  88 128 165 205 254 310 371
#     4  11  21  41  61  92 124 160 208 255 315 375
#     4  11  24  40  63  94 125 163 209 260 315 373
#     4  10  21  39  64  87 120 158 203 257 305 370
#     4  11  22  39  64  90 114 161 214 253 303 365
#     4  10  21  43  62  86 122 161 206 254 306 366
#     4  11  22  41  62  90 129 166 199 258 318 361
#
# _framework density 20.256508
#
# number of rings (size 3 to 8) (size 9 to 14) (size 15 to 20)
#    0.000    1.250    2.500    3.750    0.000    4.500 
#    0.000    6.875    0.000    0.000    0.000    0.000 
#    0.000    0.000    0.000    0.000    0.000    0.000 
#
# Total GULP energy -89071.092088 kJ/mol
# GULP energy per Si atom -5566.943255 kJ/mol
# Density = 2.021040 g / cm^3
# Si number density = 20.256508 Si / 1000 Ang^3
#
#
#
# Elastic Constant Matrix: (Units=GPa)
#
#
# Indices 1 2 3 4 5 6 
#
# 1 84.2017 -15.5844 36.1784 -4.5073 -14.1329 -8.0370
# 2 -15.5844 55.7874 -0.6250 -8.4416 -20.5629 -0.8590
# 3 36.1784 -0.6250 107.6553 -4.7196 -0.2596 7.2643
# 4 -4.5073 -8.4416 -4.7196 20.4140 12.8353 -4.0710
# 5 -14.1329 -20.5629 -0.2596 12.8353 41.1257 5.4759
# 6 -8.0370 -0.8590 7.2643 -4.0710 5.4759 25.5058
#
#
#
# Elastic Compliance Matrix: (Units=1/GPa)
#
#
# Indices 1 2 3 4 5 6 
#
# 1 0.018623 0.008974 -0.006536 0.001566 0.009526 0.006236
# 2 0.008974 0.026462 -0.002808 0.003152 0.015076 0.001785
# 3 -0.006536 -0.002808 0.011829 0.001345 -0.003385 -0.004581
# 4 0.001566 0.003152 0.001345 0.067156 -0.020890 0.015420
# 5 0.009526 0.015076 -0.003385 -0.020890 0.042695 -0.008027
# 6 0.006236 0.001785 -0.004581 0.015420 -0.008027 0.046721
#
#
# Mechanical properties :
#
#
# Convention : Reuss Voigt Hill
#
# Bulk Modulus (GPa) = 17.80187 31.95361 24.87774
# Shear Modulus (GPa) = 21.46383 32.58746 27.02565
#
# Velocity S-wave (km/s) = 3.25868 4.01526 3.65659
# Velocity P-wave (km/s) = 4.79229 6.10780 5.48959
#
# Compressibility (1/GPa) = 0.05617386
#
# Stress axis : x y z
#
# Youngs Moduli (GPa) = 53.69631 37.79052 84.53874
#
# Poissons Ratio (x) = -0.33911 0.55251
# Poissons Ratio (y) = -0.48185 0.23738
# Poissons Ratio (z) = 0.35094 0.10611
#
# Static dielectric constant tensor:
#      x y z
#    x 1.691570 -0.015320 -0.079100 
#    y -0.015320 1.735110 -0.036990 
#    z -0.079100 -0.036990 2.149520 
# 
# From -- ./inp_files/570799.got.cif
#   From: 2010.05.17/outbox.cif.g08.bks.cpg/sg2_286_cif.got.tgz:570799.got - 2010.06.03 11:33:40.
