data_PCOD9008306
_publ_section_title
;
Structure prediction by ZEFSAII (Michael W. Deem and Ramdas Pophale) SiO2 
 PCOD9008306
Probable space group: P -1
;
_chemical_formula_sum "Si O2"
_cell_formula_units_Z 14
_cell_length_a 11.639256
_cell_length_b 12.631628
_cell_length_c 9.057962
_cell_angle_alpha 146.907772
_cell_angle_beta 112.141827
_cell_angle_gamma 59.522590
_cell_volume 623.369620
_symmetry_space_group_name_H-M "P -1"
_symmetry_group_IT_number 2
_symmetry_cell_setting 'triclinic'
loop_
_space_group_symop_operation_xyz
x,y,z
-x,-y,-z
loop_
_atom_site_type_symbol
_atom_site_label
_atom_site_fract_x
_atom_site_fract_y
_atom_site_fract_z
Si Si1 0.613946 0.810030 0.911319
Si Si2 0.087279 0.206990 0.983054
Si Si3 0.968683 0.787740 0.705678
Si Si4 0.394778 0.407857 0.069300
Si Si5 0.801435 0.249523 0.407928
Si Si6 0.183204 0.458266 0.776509
Si Si7 0.666954 0.416386 0.265220
O O1 0.762921 0.809818 0.995431
O O2 0.574107 0.784983 0.029267
O O3 0.623750 0.613361 0.584732
O O4 0.500000 0.000000 0.000000
O O5 0.052180 0.281733 0.222441
O O6 0.954965 0.362536 0.018645
O O7 0.108380 0.962789 0.714387
O O8 0.848560 0.748297 0.517226
O O9 0.095697 0.661180 0.515227
O O10 0.000000 0.000000 0.000000
O O11 0.302871 0.604289 0.355678
O O12 0.537341 0.418936 0.119530
O O13 0.304428 0.401445 0.882200
O O14 0.723164 0.228001 0.194383
O O15 0.228886 0.558143 0.772158
#
# Coordination Sequence:
#
# PCOD9008306 Si02
#       7
#     2   2   2   2   2   2   2
#     4  11  22  41  68  90 122 174 225 262 309 386
#     4  11  21  38  69  95 124 166 225 261 309 390
#     4  10  21  39  64  93 120 164 220 269 310 376
#     4  11  25  40  60  97 138 168 206 268 328 375
#     4  10  21  40  67  96 124 167 222 265 309 376
#     4  12  23  40  65  97 132 170 209 267 330 379
#     4  11  21  41  65  90 133 174 216 254 313 397
#
# _framework density 22.458584999999999
#
# number of rings (size 3 to 8) (size 9 to 14) (size 15 to 20)
#    0.000    1.143    2.857    6.000    0.000    2.857 
#    0.000    5.000    0.000    0.000    0.000    0.000 
#    0.000    0.000    0.000    0.000    0.000    0.000 
#
# Total GULP energy -78013.992070 kJ/mol
# GULP energy per Si atom -5572.428005 kJ/mol
# Density = 2.240747 g / cm^3
# Si number density = 22.458585 Si / 1000 Ang^3
#
#
#
# Elastic Constant Matrix: (Units=GPa)
#
#
# Indices 1 2 3 4 5 6 
#
# 1 130.1245 10.4863 24.1237 -13.0247 26.9069 -17.6210
# 2 10.4863 95.3163 29.5175 -10.8376 17.3222 -15.4395
# 3 24.1237 29.5175 50.7636 -5.3180 11.9752 -13.4496
# 4 -13.0247 -10.8376 -5.3180 37.1078 -13.3228 10.6791
# 5 26.9069 17.3222 11.9752 -13.3228 27.6379 -7.2272
# 6 -17.6210 -15.4395 -13.4496 10.6791 -7.2272 31.6916
#
#
#
# Elastic Compliance Matrix: (Units=1/GPa)
#
#
# Indices 1 2 3 4 5 6 
#
# 1 0.010471 0.002022 -0.003029 -0.000607 -0.009511 0.003557
# 2 0.002022 0.014183 -0.006611 0.000426 -0.006867 0.003518
# 3 -0.003029 -0.006611 0.027488 -0.002502 -0.004292 0.006625
# 4 -0.000607 0.000426 -0.002502 0.034849 0.015764 -0.009340
# 5 -0.009511 -0.006867 -0.004292 0.015764 0.058575 -0.002410
# 6 0.003557 0.003518 0.006625 -0.009340 -0.002410 0.040655
#
#
# Mechanical properties :
#
#
# Convention : Reuss Voigt Hill
#
# Bulk Modulus (GPa) = 27.09580 44.93991 36.01786
# Shear Modulus (GPa) = 23.39079 33.42591 28.40835
#
# Velocity S-wave (km/s) = 3.23074 3.86208 3.56043
# Velocity P-wave (km/s) = 5.09979 6.31990 5.74234
#
# Compressibility (1/GPa) = 0.03690608
#
# Stress axis : x y z
#
# Youngs Moduli (GPa) = 95.49947 70.50911 36.37922
#
# Poissons Ratio (x) = -0.14255 0.11020
# Poissons Ratio (y) = -0.19308 0.24049
# Poissons Ratio (z) = 0.28928 0.46611
#
# Static dielectric constant tensor:
#      x y z
#    x 1.870640 -0.029370 0.009170 
#    y -0.029370 1.919670 0.081590 
#    z 0.009170 0.081590 1.871250 
# 
# From -- ./inp_files/263786.got.cif
#   From: 2010.05.17/outbox.cif.g08.bks.cpg/sg2_132_cif.got.tgz:263786.got - 2010.06.03 11:33:40.
