data_PCOD9008660
_publ_section_title
;
Structure prediction by ZEFSAII (Michael W. Deem and Ramdas Pophale) SiO2 
 PCOD9008660
Probable space group: P -1
;
_chemical_formula_sum "Si O2"
_cell_formula_units_Z 12
_cell_length_a 11.967773
_cell_length_b 7.735511
_cell_length_c 5.479733
_cell_angle_alpha 118.190792
_cell_angle_beta 89.021475
_cell_angle_gamma 108.482928
_cell_volume 418.680947
_symmetry_space_group_name_H-M "P -1"
_symmetry_group_IT_number 2
_symmetry_cell_setting 'triclinic'
loop_
_space_group_symop_operation_xyz
x,y,z
-x,-y,-z
loop_
_atom_site_type_symbol
_atom_site_label
_atom_site_fract_x
_atom_site_fract_y
_atom_site_fract_z
Si Si1 0.887986 0.748714 0.098419
Si Si2 0.216440 0.555527 0.731497
Si Si3 0.389799 0.434909 0.153653
Si Si4 0.090726 0.836981 0.777804
Si Si5 0.718226 0.849568 0.663945
Si Si6 0.630976 0.156856 0.650982
O O1 0.895816 0.578583 0.179759
O O2 0.922501 0.998292 0.308647
O O3 0.745226 0.675412 0.011870
O O4 0.965493 0.735760 0.852305
O O5 0.162604 0.680763 0.627458
O O6 0.254787 0.359927 0.529867
O O7 0.316899 0.722373 0.012215
O O8 0.397996 0.261563 0.231687
O O9 0.374147 0.650934 0.386297
O O10 0.500000 0.500000 0.000000
O O11 0.174599 0.989618 0.082681
O O12 0.696761 0.986909 0.537061
O O13 0.500000 0.000000 0.500000
#
# Coordination Sequence:
#
# PCOD9008660 Si02
#       6
#     2   2   2   2   2   2
#     4   9  19  38  64  90 128 168 211 262 315 378
#     4  10  21  39  65  93 129 164 212 269 321 375
#     4  10  23  44  65  89 133 173 210 266 319 383
#     4   9  19  40  64  91 128 168 208 263 320 384
#     4  10  23  42  64  98 127 165 217 264 325 380
#     4  10  24  42  61  90 125 171 214 261 317 379
#
# _framework density 28.661441
#
# number of rings (size 3 to 8) (size 9 to 14) (size 15 to 20)
#    0.000    2.333    0.000    0.500    4.667    3.333 
#    6.000    7.500    0.000    0.000    0.000    0.000 
#    0.000    0.000    0.000    0.000    0.000    0.000 
#
# Total GULP energy -66892.004139 kJ/mol
# GULP energy per Si atom -5574.333678 kJ/mol
# Density = 2.859621 g / cm^3
# Si number density = 28.661441 Si / 1000 Ang^3
#
#
#
# Elastic Constant Matrix: (Units=GPa)
#
#
# Indices 1 2 3 4 5 6 
#
# 1 157.4819 58.4037 51.7120 11.9615 -15.7976 -14.3889
# 2 58.4037 175.8851 30.0573 35.1319 4.7209 -7.5913
# 3 51.7120 30.0573 120.0869 46.5172 -13.1527 4.3016
# 4 11.9615 35.1319 46.5172 51.2588 -1.2509 -6.4657
# 5 -15.7976 4.7209 -13.1527 -1.2509 47.7255 -4.9076
# 6 -14.3889 -7.5913 4.3016 -6.4657 -4.9076 61.8590
#
#
#
# Elastic Compliance Matrix: (Units=1/GPa)
#
#
# Indices 1 2 3 4 5 6 
#
# 1 0.009270 -0.003156 -0.004929 0.004887 0.002440 0.002816
# 2 -0.003156 0.007695 0.001682 -0.006188 -0.001574 -0.000678
# 3 -0.004929 0.001682 0.016219 -0.015115 0.001916 -0.003496
# 4 0.004887 -0.006188 -0.015115 0.036980 -0.000426 0.005260
# 5 0.002440 -0.001574 0.001916 -0.000426 0.022638 0.001993
# 6 0.002816 -0.000678 -0.003496 0.005260 0.001993 0.017689
#
#
# Mechanical properties :
#
#
# Convention : Reuss Voigt Hill
#
# Bulk Modulus (GPa) = 49.07231 81.53334 65.30282
# Shear Modulus (GPa) = 38.43542 53.05406 45.74474
#
# Velocity S-wave (km/s) = 3.66596 4.30706 3.99938
# Velocity P-wave (km/s) = 5.92263 7.29679 6.64533
#
# Compressibility (1/GPa) = 0.02037809
#
# Stress axis : x y z
#
# Youngs Moduli (GPa) = 107.87991 129.95418 61.65618
#
# Poissons Ratio (x) = 0.41013 0.30388
# Poissons Ratio (y) = 0.34046 -0.10369
# Poissons Ratio (z) = 0.53169 -0.21855
#
# Static dielectric constant tensor:
#      x y z
#    x 2.278590 -0.031620 -0.013390 
#    y -0.031620 2.542330 -0.270270 
#    z -0.013390 -0.270270 2.439960 
# 
# From -- ./inp_files/232913.got.cif
#   From: 2010.05.17/outbox.cif.g08.bks.cpg/sg2_117_cif.got.tgz:232913.got - 2010.06.03 11:33:40.
