data_PCOD9008648
_publ_section_title
;
Structure prediction by ZEFSAII (Michael W. Deem and Ramdas Pophale) SiO2 
 PCOD9008648
Probable space group: P -1
;
_chemical_formula_sum "Si O2"
_cell_formula_units_Z 16
_cell_length_a 11.435790
_cell_length_b 8.301540
_cell_length_c 19.474962
_cell_angle_alpha 34.248409
_cell_angle_beta 137.758971
_cell_angle_gamma 133.485971
_cell_volume 685.133597
_symmetry_space_group_name_H-M "P -1"
_symmetry_group_IT_number 2
_symmetry_cell_setting 'triclinic'
loop_
_space_group_symop_operation_xyz
x,y,z
-x,-y,-z
loop_
_atom_site_type_symbol
_atom_site_label
_atom_site_fract_x
_atom_site_fract_y
_atom_site_fract_z
Si Si1 0.816989 0.401770 0.997272
Si Si2 0.709571 0.873351 0.456816
Si Si3 0.328888 0.318702 0.286635
Si Si4 0.717061 0.227982 0.473605
Si Si5 0.788611 0.895010 0.261969
Si Si6 0.041271 0.706025 0.684843
Si Si7 0.176477 0.242595 0.985667
Si Si8 0.449172 0.841399 0.232911
O O1 0.682315 0.523318 0.846078
O O2 0.814291 0.571053 0.007126
O O3 0.000000 0.500000 0.000000
O O4 0.787462 0.066887 0.128811
O O5 0.543586 0.786371 0.364601
O O6 0.832332 0.632606 0.603553
O O7 0.675415 0.026839 0.458566
O O8 0.847244 0.122835 0.388427
O O9 0.529602 0.287079 0.397815
O O10 0.301236 0.562108 0.243571
O O11 0.217271 0.991398 0.365838
O O12 0.815701 0.561693 0.385205
O O13 0.603735 0.898983 0.221603
O O14 0.931269 0.077518 0.312979
O O15 0.136820 0.443690 0.835884
O O16 0.350451 0.109253 0.100353
O O17 0.000000 0.000000 0.000000
#
# Coordination Sequence:
#
# PCOD9008648 Si02
#       8
#     2   2   2   2   2   2   2   2
#     4  11  24  42  65  93 135 172 213 268 331 388
#     4  10  21  39  65  93 125 170 214 273 323 384
#     4  10  23  42  60  97 131 164 218 273 319 390
#     4  10  22  39  65  93 127 168 220 267 327 381
#     4   9  22  43  67  96 127 174 218 274 323 393
#     4   9  22  42  60  95 131 159 220 271 325 383
#     4  11  24  42  65  98 130 172 214 272 330 389
#     4  10  22  42  69  96 129 172 223 271 327 386
#
# _framework density 23.353109
#
# number of rings (size 3 to 8) (size 9 to 14) (size 15 to 20)
#    0.000    2.000    0.000    1.500    5.250   10.500 
#   11.250    0.000    0.000    0.000    0.000    0.000 
#    0.000    0.000    0.000    0.000    0.000    0.000 
#
# Total GULP energy -89332.461272 kJ/mol
# GULP energy per Si atom -5583.278830 kJ/mol
# Density = 2.329996 g / cm^3
# Si number density = 23.353109 Si / 1000 Ang^3
#
#
#
# Elastic Constant Matrix: (Units=GPa)
#
#
# Indices 1 2 3 4 5 6 
#
# 1 89.5600 -4.7192 42.0753 -5.9460 -7.4419 2.4129
# 2 -4.7192 53.4727 43.5318 -9.7219 -3.4890 3.9960
# 3 42.0753 43.5318 171.9577 -1.7164 -12.7950 0.0876
# 4 -5.9460 -9.7219 -1.7164 29.6022 3.7753 -1.3014
# 5 -7.4419 -3.4890 -12.7950 3.7753 46.4900 -3.7128
# 6 2.4129 3.9960 0.0876 -1.3014 -3.7128 27.6422
#
#
#
# Elastic Compliance Matrix: (Units=1/GPa)
#
#
# Indices 1 2 3 4 5 6 
#
# 1 0.014253 0.006310 -0.004974 0.004455 0.000880 -0.001813
# 2 0.006310 0.028412 -0.008664 0.009960 -0.000388 -0.004214
# 3 -0.004974 -0.008664 0.009304 -0.003425 0.001528 0.001701
# 4 0.004455 0.009960 -0.003425 0.038064 -0.002603 -0.000375
# 5 0.000880 -0.000388 0.001528 -0.002603 0.022483 0.002872
# 6 -0.001813 -0.004214 0.001701 -0.000375 0.002872 0.037307
#
#
# Mechanical properties :
#
#
# Convention : Reuss Voigt Hill
#
# Bulk Modulus (GPa) = 26.80031 52.97404 39.88718
# Shear Modulus (GPa) = 28.26210 36.35370 32.30790
#
# Velocity S-wave (km/s) = 3.48258 3.94978 3.72351
# Velocity P-wave (km/s) = 5.26043 6.59804 5.96684
#
# Compressibility (1/GPa) = 0.03731300
#
# Stress axis : x y z
#
# Youngs Moduli (GPa) = 70.16255 35.19701 107.47675
#
# Poissons Ratio (x) = -0.22209 0.53458
# Poissons Ratio (y) = -0.44272 0.93114
# Poissons Ratio (z) = 0.34898 0.30494
#
# Static dielectric constant tensor:
#      x y z
#    x 1.865530 0.088650 -0.014600 
#    y 0.088650 1.922800 -0.027020 
#    z -0.014600 -0.027020 2.024290 
# 
# From -- ./inp_files/593926.got.cif
#   From: 2010.05.17/outbox.cif.g08.bks.cpg/sg2_297_cif.got.tgz:593926.got - 2010.06.03 11:33:40.
