data_PCOD9008484
_publ_section_title
;
Structure prediction by ZEFSAII (Michael W. Deem and Ramdas Pophale) SiO2 
 PCOD9008484
Probable space group: P -1
;
_chemical_formula_sum "Si O2"
_cell_formula_units_Z 16
_cell_length_a 6.433464
_cell_length_b 13.378747
_cell_length_c 16.038455
_cell_angle_alpha 135.143349
_cell_angle_beta 96.765938
_cell_angle_gamma 108.719236
_cell_volume 789.418898
_symmetry_space_group_name_H-M "P -1"
_symmetry_group_IT_number 2
_symmetry_cell_setting 'triclinic'
loop_
_space_group_symop_operation_xyz
x,y,z
-x,-y,-z
loop_
_atom_site_type_symbol
_atom_site_label
_atom_site_fract_x
_atom_site_fract_y
_atom_site_fract_z
Si Si1 0.969103 0.013264 0.603304
Si Si2 0.928186 0.712038 0.680051
Si Si3 0.697970 0.038317 0.284816
Si Si4 0.169809 0.679317 0.006104
Si Si5 0.897755 0.422281 0.243286
Si Si6 0.586239 0.477887 0.382379
Si Si7 0.195727 0.382973 0.909344
Si Si8 0.565981 0.258074 0.507134
O O1 0.091450 0.209577 0.751264
O O2 0.669029 0.893844 0.540995
O O3 0.000000 0.000000 0.500000
O O4 0.121342 0.955463 0.630770
O O5 0.806574 0.564015 0.514160
O O6 0.677650 0.690136 0.694281
O O7 0.132363 0.889361 0.747972
O O8 0.054492 0.670741 0.734939
O O9 0.618651 0.167051 0.382210
O O10 0.442184 0.846129 0.148673
O O11 0.944416 0.673338 0.040624
O O12 0.162871 0.677259 0.904889
O O13 0.132409 0.503008 0.929364
O O14 0.684610 0.445137 0.283409
O O15 0.163681 0.612430 0.357759
O O16 0.521939 0.618924 0.450789
O O17 0.500000 0.500000 0.000000
#
# Coordination Sequence:
#
# PCOD9008484 Si02
#       8
#     2   2   2   2   2   2   2   2
#     4  12  27  42  70 103 127 166 224 277 323 383
#     4  10  22  37  69  95 136 170 213 271 327 382
#     4  12  24  46  65  98 133 175 213 271 329 386
#     4  11  27  45  67  94 135 178 217 259 329 399
#     4  11  24  41  67 101 132 172 220 267 319 396
#     4  10  21  39  65 101 130 172 214 269 333 376
#     4  11  25  47  68  91 133 180 213 264 333 390
#     4  11  23  41  68  96 131 169 218 272 323 379
#
# _framework density 20.268072
#
# number of rings (size 3 to 8) (size 9 to 14) (size 15 to 20)
#    0.000    1.000    5.000    0.375    8.750    2.000 
#    0.000    0.625    0.000    0.000    0.000    0.000 
#    0.000    0.000    0.000    0.000    0.000    0.000 
#
# Total GULP energy -89412.753111 kJ/mol
# GULP energy per Si atom -5588.297069 kJ/mol
# Density = 2.022194 g / cm^3
# Si number density = 20.268072 Si / 1000 Ang^3
#
#
#
# Elastic Constant Matrix: (Units=GPa)
#
#
# Indices 1 2 3 4 5 6 
#
# 1 104.1948 52.0473 49.2125 -1.2981 -9.2170 29.9625
# 2 52.0473 97.8082 46.6157 1.0810 0.3301 29.3304
# 3 49.2125 46.6157 91.0051 -18.1020 -16.2200 15.5720
# 4 -1.2981 1.0810 -18.1020 27.1935 8.2674 2.5296
# 5 -9.2170 0.3301 -16.2200 8.2674 21.2394 7.1893
# 6 29.9625 29.3304 15.5720 2.5296 7.1893 47.1555
#
#
#
# Elastic Compliance Matrix: (Units=1/GPa)
#
#
# Indices 1 2 3 4 5 6 
#
# 1 0.016897 -0.004347 -0.005133 -0.004046 0.007515 -0.007266
# 2 -0.004347 0.017596 -0.007479 -0.004015 -0.004689 -0.004783
# 3 -0.005133 -0.007479 0.022124 0.011647 0.010815 -0.001667
# 4 -0.004046 -0.004015 0.011647 0.047986 -0.011619 0.000419
# 5 0.007515 -0.004689 0.010815 -0.011619 0.068353 -0.015227
# 6 -0.007266 -0.004783 -0.001667 0.000419 -0.015227 0.031648
#
#
# Mechanical properties :
#
#
# Convention : Reuss Voigt Hill
#
# Bulk Modulus (GPa) = 44.05153 65.41768 54.73460
# Shear Modulus (GPa) = 20.31802 28.79318 24.55560
#
# Velocity S-wave (km/s) = 3.16961 3.77320 3.48450
# Velocity P-wave (km/s) = 5.93101 7.16442 6.57669
#
# Compressibility (1/GPa) = 0.02270069
#
# Stress axis : x y z
#
# Youngs Moduli (GPa) = 59.18278 56.83140 45.19914
#
# Poissons Ratio (x) = 0.24703 0.23200
# Poissons Ratio (y) = 0.25725 0.33803
# Poissons Ratio (z) = 0.30377 0.42502
#
# Static dielectric constant tensor:
#      x y z
#    x 1.756380 -0.002960 -0.008570 
#    y -0.002960 1.742840 0.008650 
#    z -0.008570 0.008650 1.684610 
# 
# From -- ./inp_files/333999.got.cif
#   From: 2010.05.17/outbox.cif.g08.bks.cpg/sg2_167_cif.got.tgz:333999.got - 2010.06.03 11:33:40.
