data_PCOD9008236
_publ_section_title
;
Structure prediction by ZEFSAII (Michael W. Deem and Ramdas Pophale) SiO2 
 PCOD9008236
Probable space group: P -1
;
_chemical_formula_sum "Si O2"
_cell_formula_units_Z 16
_cell_length_a 9.264188
_cell_length_b 30.296465
_cell_length_c 5.452146
_cell_angle_alpha 102.424825
_cell_angle_beta 87.211425
_cell_angle_gamma 149.982709
_cell_volume 717.315266
_symmetry_space_group_name_H-M "P -1"
_symmetry_group_IT_number 2
_symmetry_cell_setting 'triclinic'
loop_
_space_group_symop_operation_xyz
x,y,z
-x,-y,-z
loop_
_atom_site_type_symbol
_atom_site_label
_atom_site_fract_x
_atom_site_fract_y
_atom_site_fract_z
Si Si1 0.032139 0.468150 0.268883
Si Si2 0.202712 0.444009 0.557468
Si Si3 0.580250 0.405381 0.006133
Si Si4 0.203572 0.744490 0.443552
Si Si5 0.085459 0.050607 0.303952
Si Si6 0.923730 0.238584 0.028560
Si Si7 0.811433 0.110536 0.867842
Si Si8 0.864187 0.091210 0.340008
O O1 0.774670 0.413048 0.035448
O O2 0.000000 0.500000 0.500000
O O3 0.011479 0.412708 0.311477
O O4 0.364095 0.565517 0.243987
O O5 0.500000 0.500000 0.500000
O O6 0.300855 0.516341 0.776830
O O7 0.991039 0.354444 0.631148
O O8 0.251151 0.309662 0.018688
O O9 0.558989 0.840803 0.582157
O O10 0.161324 0.753210 0.184860
O O11 0.080646 0.740209 0.679263
O O12 0.925758 0.055359 0.317208
O O13 0.000000 0.000000 0.500000
O O14 0.000000 0.000000 0.000000
O O15 0.725687 0.139321 0.932025
O O16 0.976389 0.146102 0.641757
O O17 0.495011 0.996693 0.746925
O O18 0.986204 0.143030 0.134418
#
# Coordination Sequence:
#
# PCOD9008236 Si02
#       8
#     2   2   2   2   2   2   2   2
#     4   9  21  41  63  93 129 180 228 274 343 398
#     4  11  22  41  66  97 140 177 226 286 333 409
#     4  10  22  41  66  93 135 184 222 283 340 399
#     4  12  27  42  68 102 131 178 229 274 340 414
#     4  12  25  46  70  96 139 175 217 281 345 404
#     4  12  25  43  66  99 134 175 230 273 337 399
#     4  10  21  39  64  91 124 162 217 273 314 405
#     4  10  21  40  64  92 122 167 214 266 340 379
#
# _framework density 22.305394
#
# number of rings (size 3 to 8) (size 9 to 14) (size 15 to 20)
#    0.000    1.250    1.250    4.500    3.500    4.000 
#    6.750    0.000    0.000    0.000    0.000    0.000 
#    0.000    0.000    0.000    0.000    0.000    0.000 
#
# Total GULP energy -89279.601760 kJ/mol
# GULP energy per Si atom -5579.975110 kJ/mol
# Density = 2.225463 g / cm^3
# Si number density = 22.305394 Si / 1000 Ang^3
#
#
#
# Elastic Constant Matrix: (Units=GPa)
#
#
# Indices 1 2 3 4 5 6 
#
# 1 110.5896 18.3881 27.9798 -7.2041 7.8165 -17.4843
# 2 18.3881 83.5626 9.6427 2.3450 11.1072 -0.4845
# 3 27.9798 9.6427 102.7372 -25.2231 -3.2825 -17.2033
# 4 -7.2041 2.3450 -25.2231 36.3102 -5.5862 3.4846
# 5 7.8165 11.1072 -3.2825 -5.5862 34.2842 -8.4777
# 6 -17.4843 -0.4845 -17.2033 3.4846 -8.4777 46.6635
#
#
#
# Elastic Compliance Matrix: (Units=1/GPa)
#
#
# Indices 1 2 3 4 5 6 
#
# 1 0.010459 -0.001874 -0.002182 0.000215 -0.001246 0.002853
# 2 -0.001874 0.013376 -0.002043 -0.003251 -0.005128 -0.002005
# 3 -0.002182 -0.002043 0.013802 0.009651 0.005158 0.004466
# 4 0.000215 -0.003251 0.009651 0.035542 0.008329 0.002464
# 5 -0.001246 -0.005128 0.005158 0.008329 0.034711 0.007066
# 6 0.002853 -0.002005 0.004466 0.002464 0.007066 0.025224
#
#
# Mechanical properties :
#
#
# Convention : Reuss Voigt Hill
#
# Bulk Modulus (GPa) = 39.30841 45.43451 42.37146
# Shear Modulus (GPa) = 32.51146 39.51018 36.01082
#
# Velocity S-wave (km/s) = 3.82194 4.21328 4.02237
# Velocity P-wave (km/s) = 6.09405 6.63947 6.37259
#
# Compressibility (1/GPa) = 0.02543985
#
# Stress axis : x y z
#
# Youngs Moduli (GPa) = 95.61056 74.75907 72.45505
#
# Poissons Ratio (x) = 0.14007 0.15810
# Poissons Ratio (y) = 0.17914 0.14803
# Poissons Ratio (z) = 0.20862 0.15273
#
# Static dielectric constant tensor:
#      x y z
#    x 1.813930 0.003010 -0.011590 
#    y 0.003010 1.853630 -0.001480 
#    z -0.011590 -0.001480 1.639770 
# 
# From -- ./inp_files/56958.got.cif
#   From: 2010.05.17/outbox.cif.g08.bks.cpg/sg2_29_cif.got.tgz:56958.got - 2010.06.03 11:33:40.
