data_PCOD9008856
_publ_section_title
;
Structure prediction by ZEFSAII (Michael W. Deem and Ramdas Pophale) SiO2 
 PCOD9008856
Probable space group: P -1
;
_chemical_formula_sum "Si O2"
_cell_formula_units_Z 16
_cell_length_a 7.667691
_cell_length_b 14.630666
_cell_length_c 18.325774
_cell_angle_alpha 147.201571
_cell_angle_beta 137.902984
_cell_angle_gamma 37.151868
_cell_volume 656.042009
_symmetry_space_group_name_H-M "P -1"
_symmetry_group_IT_number 2
_symmetry_cell_setting 'triclinic'
loop_
_space_group_symop_operation_xyz
x,y,z
-x,-y,-z
loop_
_atom_site_type_symbol
_atom_site_label
_atom_site_fract_x
_atom_site_fract_y
_atom_site_fract_z
Si Si1 0.731204 0.038353 0.203812
Si Si2 0.792970 0.720252 0.091907
Si Si3 0.957034 0.747418 0.312923
Si Si4 0.144389 0.923460 0.072273
Si Si5 0.128227 0.337285 0.159360
Si Si6 0.605810 0.278993 0.460272
Si Si7 0.973677 0.433917 0.579399
Si Si8 0.704869 0.940338 0.651381
O O1 0.486098 0.204694 0.188969
O O2 0.603155 0.122138 0.300800
O O3 0.742484 0.834302 0.077126
O O4 0.060090 0.008646 0.280794
O O5 0.946315 0.775469 0.242284
O O6 0.477668 0.763274 0.053632
O O7 0.000000 0.500000 0.000000
O O8 0.632420 0.892147 0.341772
O O9 0.034982 0.526257 0.208028
O O10 0.209075 0.784796 0.452132
O O11 0.175426 0.073587 0.237380
O O12 0.982553 0.819052 0.993034
O O13 0.000000 0.000000 0.000000
O O14 0.988549 0.428562 0.257889
O O15 0.792515 0.357165 0.522865
O O16 0.270761 0.442481 0.473821
O O17 0.239316 0.254325 0.502427
#
# Coordination Sequence:
#
# PCOD9008856 Si02
#       8
#     2   2   2   2   2   2   2   2
#     4  10  21  40  63  88 117 160 196 241 288 359
#     4  11  26  41  57  86 127 153 197 246 299 345
#     4  10  22  38  61  90 121 152 192 251 296 346
#     4  11  24  43  61  85 123 158 197 249 295 345
#     4  10  21  39  66  86 118 160 202 235 294 355
#     4   8  16  34  61  84 120 152 196 235 294 347
#     4   8  16  35  59  93 113 151 199 246 278 355
#     4  10  22  36  63  92 121 150 199 246 297 346
#
# _framework density 24.388683
#
# number of rings (size 3 to 8) (size 9 to 14) (size 15 to 20)
#    0.000    2.250    1.250    2.250    3.500    8.500 
#    0.000    0.625    0.000    0.000    0.000    0.000 
#    0.000    0.000    0.000    0.000    0.000    0.000 
#
# Total GULP energy -89324.228155 kJ/mol
# GULP energy per Si atom -5582.764260 kJ/mol
# Density = 2.433317 g / cm^3
# Si number density = 24.388683 Si / 1000 Ang^3
#
#
#
# Elastic Constant Matrix: (Units=GPa)
#
#
# Indices 1 2 3 4 5 6 
#
# 1 74.5104 18.4483 -11.2865 13.0672 3.1676 2.3263
# 2 18.4483 132.3742 16.3206 16.7929 -16.2266 7.9246
# 3 -11.2865 16.3206 44.0385 8.3335 -14.0450 3.1486
# 4 13.0672 16.7929 8.3335 38.1340 0.4303 -9.4638
# 5 3.1676 -16.2266 -14.0450 0.4303 28.3731 4.8085
# 6 2.3263 7.9246 3.1486 -9.4638 4.8085 36.1933
#
#
#
# Elastic Compliance Matrix: (Units=1/GPa)
#
#
# Indices 1 2 3 4 5 6 
#
# 1 0.016188 -0.001872 0.006751 -0.007004 0.001112 -0.003197
# 2 -0.001872 0.009417 -0.001056 -0.004266 0.005769 -0.003732
# 3 0.006751 -0.001056 0.032774 -0.011224 0.016421 -0.008170
# 4 -0.007004 -0.004266 -0.011224 0.036341 -0.010000 0.013192
# 5 0.001112 0.005769 0.016421 -0.010000 0.048708 -0.011849
# 6 -0.003197 -0.003732 -0.008170 0.013192 -0.011849 0.034386
#
#
# Mechanical properties :
#
#
# Convention : Reuss Voigt Hill
#
# Bulk Modulus (GPa) = 15.14566 33.09865 24.12215
# Shear Modulus (GPa) = 26.01769 35.70279 30.86024
#
# Velocity S-wave (km/s) = 3.26972 3.83026 3.56104
# Velocity P-wave (km/s) = 4.52531 5.75864 5.17882
#
# Compressibility (1/GPa) = 0.06602550
#
# Stress axis : x y z
#
# Youngs Moduli (GPa) = 61.77426 106.18878 30.51201
#
# Poissons Ratio (x) = 0.19881 -0.20599
# Poissons Ratio (y) = 0.11565 0.03222
# Poissons Ratio (z) = -0.41705 0.11212
#
# Static dielectric constant tensor:
#      x y z
#    x 1.941960 0.049520 -0.001490 
#    y 0.049520 1.928870 0.029750 
#    z -0.001490 0.029750 2.169400 
# 
# From -- ./inp_files/591238.got.cif
#   From: 2010.05.17/outbox.cif.g08.bks.cpg/sg2_296_cif.got.tgz:591238.got - 2010.06.03 11:33:40.
