data_PCOD9008664
_publ_section_title
;
Structure prediction by ZEFSAII (Michael W. Deem and Ramdas Pophale) SiO2 
 PCOD9008664
Probable space group: P -1
;
_chemical_formula_sum "Si O2"
_cell_formula_units_Z 16
_cell_length_a 11.704334
_cell_length_b 23.419275
_cell_length_c 9.817432
_cell_angle_alpha 133.806619
_cell_angle_beta 72.006619
_cell_angle_gamma 147.742878
_cell_volume 721.663574
_symmetry_space_group_name_H-M "P -1"
_symmetry_group_IT_number 2
_symmetry_cell_setting 'triclinic'
loop_
_space_group_symop_operation_xyz
x,y,z
-x,-y,-z
loop_
_atom_site_type_symbol
_atom_site_label
_atom_site_fract_x
_atom_site_fract_y
_atom_site_fract_z
Si Si1 0.214701 0.318858 0.905945
Si Si2 0.810643 0.932168 0.294857
Si Si3 0.154127 0.009517 0.919444
Si Si4 0.617017 0.830239 0.480429
Si Si5 0.745493 0.095930 0.876813
Si Si6 0.268113 0.671494 0.575189
Si Si7 0.362579 0.437709 0.594260
Si Si8 0.128384 0.755790 0.635994
O O1 0.008295 0.126887 0.596102
O O2 0.990992 0.255518 0.929199
O O3 0.500000 0.500000 0.000000
O O4 0.371675 0.393252 0.114622
O O5 0.068991 0.020437 0.337348
O O6 0.694499 0.883009 0.107009
O O7 0.580672 0.779083 0.253584
O O8 0.883286 0.779724 0.633804
O O9 0.412104 0.137433 0.142146
O O10 0.000000 0.000000 0.000000
O O11 0.340536 0.652391 0.396051
O O12 0.670279 0.957017 0.668469
O O13 0.426841 0.951019 0.753242
O O14 0.867846 0.189772 0.137595
O O15 0.174897 0.696278 0.576350
O O16 0.000000 0.500000 0.500000
O O17 0.500000 0.500000 0.500000
O O18 0.176867 0.406571 0.597115
#
# Coordination Sequence:
#
# PCOD9008664 Si02
#       8
#     2   2   2   2   2   2   2   2
#     4  11  22  39  61  95 137 164 220 271 330 386
#     4  10  21  39  65  93 131 174 213 274 334 389
#     4  12  25  41  69 101 133 171 230 280 331 396
#     4   9  19  38  63  90 126 171 211 261 334 388
#     4   9  18  36  63  86 125 166 207 266 319 390
#     4  11  25  43  66  97 136 172 221 281 340 394
#     4  12  25  40  69 103 128 177 230 278 324 403
#     4  10  21  40  64  92 128 171 223 265 339 385
#
# _framework density 22.170995999999999
#
# number of rings (size 3 to 8) (size 9 to 14) (size 15 to 20)
#    0.000    1.500    3.750    2.250    3.500    1.000 
#    0.000    1.250   11.000    0.000    0.000    0.000 
#    0.000    0.000    0.000    0.000    0.000    0.000 
#
# Total GULP energy -89255.900627 kJ/mol
# GULP energy per Si atom -5578.493789 kJ/mol
# Density = 2.212053 g / cm^3
# Si number density = 22.170996 Si / 1000 Ang^3
#
#
#
# Elastic Constant Matrix: (Units=GPa)
#
#
# Indices 1 2 3 4 5 6 
#
# 1 91.6848 30.1545 17.7514 -8.8749 7.4607 13.8260
# 2 30.1545 197.4206 15.1723 -24.9192 -2.1461 23.1023
# 3 17.7514 15.1723 52.6969 -12.7123 7.3654 4.9078
# 4 -8.8749 -24.9192 -12.7123 33.2643 -1.9953 1.4328
# 5 7.4607 -2.1461 7.3654 -1.9953 31.9583 -4.3029
# 6 13.8260 23.1023 4.9078 1.4328 -4.3029 36.6157
#
#
#
# Elastic Compliance Matrix: (Units=1/GPa)
#
#
# Indices 1 2 3 4 5 6 
#
# 1 0.012828 -0.001091 -0.002849 0.001523 -0.002878 -0.004171
# 2 -0.001091 0.006242 -0.000061 0.004547 0.000482 -0.003639
# 3 -0.002849 -0.000061 0.022695 0.007719 -0.004458 -0.002754
# 4 0.001523 0.004547 0.007719 0.037063 -0.000318 -0.005966
# 5 -0.002878 0.000482 -0.004458 -0.000318 0.033724 0.005356
# 6 -0.004171 -0.003639 -0.002754 -0.005966 0.005356 0.032414
#
#
# Mechanical properties :
#
#
# Convention : Reuss Voigt Hill
#
# Bulk Modulus (GPa) = 29.61841 51.99541 40.80691
# Shear Modulus (GPa) = 30.44661 38.94928 34.69794
#
# Velocity S-wave (km/s) = 3.70978 4.19593 3.96032
# Velocity P-wave (km/s) = 5.63365 6.85400 6.27357
#
# Compressibility (1/GPa) = 0.03376279
#
# Stress axis : x y z
#
# Youngs Moduli (GPa) = 77.95387 160.21138 44.06204
#
# Poissons Ratio (x) = 0.17484 0.12553
# Poissons Ratio (y) = 0.08507 0.00269
# Poissons Ratio (z) = 0.22208 0.00977
#
# Static dielectric constant tensor:
#      x y z
#    x 1.802370 -0.039800 -0.039300 
#    y -0.039800 1.983320 0.032390 
#    z -0.039300 0.032390 1.800870 
# 
# From -- ./inp_files/284928.got.cif
#   From: 2010.05.17/outbox.cif.g08.bks.cpg/sg2_143_cif.got.tgz:284928.got - 2010.06.03 11:33:40.
