data_PCOD9008811
_publ_section_title
;
Structure prediction by ZEFSAII (Michael W. Deem and Ramdas Pophale) SiO2 
 PCOD9008811
Probable space group: P -1
;
_chemical_formula_sum "Si O2"
_cell_formula_units_Z 14
_cell_length_a 14.418093
_cell_length_b 6.380527
_cell_length_c 11.376415
_cell_angle_alpha 118.664034
_cell_angle_beta 53.555147
_cell_angle_gamma 81.723365
_cell_volume 586.697012
_symmetry_space_group_name_H-M "P -1"
_symmetry_group_IT_number 2
_symmetry_cell_setting 'triclinic'
loop_
_space_group_symop_operation_xyz
x,y,z
-x,-y,-z
loop_
_atom_site_type_symbol
_atom_site_label
_atom_site_fract_x
_atom_site_fract_y
_atom_site_fract_z
Si Si1 0.973804 0.429905 0.655437
Si Si2 0.657144 0.022941 0.061062
Si Si3 0.141129 0.643589 0.498506
Si Si4 0.982337 0.276020 0.879764
Si Si5 0.468509 0.947712 0.336351
Si Si6 0.566576 0.500187 0.827555
Si Si7 0.322946 0.507636 0.736511
O O1 0.962548 0.249582 0.510756
O O2 0.966733 0.358264 0.775726
O O3 0.108846 0.436132 0.533175
O O4 0.824385 0.766058 0.839906
O O5 0.575346 0.895663 0.138515
O O6 0.567280 0.234331 0.076213
O O7 0.650427 0.243714 0.222612
O O8 0.301295 0.484696 0.284172
O O9 0.100737 0.914063 0.687545
O O10 0.839124 0.335918 0.057310
O O11 0.000000 0.500000 0.000000
O O12 0.366616 0.300174 0.535071
O O13 0.376930 0.826032 0.351314
O O14 0.574762 0.735547 0.304980
O O15 0.500000 0.500000 0.000000
#
# Coordination Sequence:
#
# PCOD9008811 Si02
#       7
#     2   2   2   2   2   2   2
#     4  11  25  46  73 100 135 186 231 280 342 413
#     4  11  22  43  71  98 133 178 227 278 338 407
#     4  11  26  46  69 102 138 181 231 280 345 410
#     4  12  25  44  70 100 143 180 227 284 344 407
#     4  10  21  40  65  96 136 173 223 272 338 393
#     4  11  26  42  68 101 135 172 227 288 335 402
#     4  10  21  39  65  99 130 178 220 273 333 405
#
# _framework density 23.862403
#
# number of rings (size 3 to 8) (size 9 to 14) (size 15 to 20)
#    0.000    1.143    2.857    2.571    2.000    7.429 
#    2.571    0.000    0.000    0.000    0.000    0.000 
#    0.000    0.000    0.000    0.000    0.000    0.000 
#
# Total GULP energy -78269.000856 kJ/mol
# GULP energy per Si atom -5590.642918 kJ/mol
# Density = 2.380809 g / cm^3
# Si number density = 23.862403 Si / 1000 Ang^3
#
#
#
# Elastic Constant Matrix: (Units=GPa)
#
#
# Indices 1 2 3 4 5 6 
#
# 1 63.1931 25.6819 19.7529 -0.4246 -1.7047 27.6542
# 2 25.6819 52.0462 16.2615 3.9468 -13.4408 25.1690
# 3 19.7529 16.2615 114.7964 -6.4763 -3.5682 23.1415
# 4 -0.4246 3.9468 -6.4763 39.2597 18.9524 -1.1508
# 5 -1.7047 -13.4408 -3.5682 18.9524 35.5209 -7.1778
# 6 27.6542 25.1690 23.1415 -1.1508 -7.1778 31.8675
#
#
#
# Elastic Compliance Matrix: (Units=1/GPa)
#
#
# Indices 1 2 3 4 5 6 
#
# 1 0.026768 -0.005344 0.000297 0.003535 -0.006760 -0.020619
# 2 -0.005344 0.037438 -0.000222 -0.012242 0.016055 -0.021596
# 3 0.000297 -0.000222 0.010374 0.002439 -0.001938 -0.007964
# 4 0.003535 -0.012242 0.002439 0.039246 -0.025034 0.000608
# 5 -0.006760 0.016055 -0.001938 -0.025034 0.047974 0.004495
# 6 -0.020619 -0.021596 -0.007964 0.000608 0.004495 0.073147
#
#
# Mechanical properties :
#
#
# Convention : Reuss Voigt Hill
#
# Bulk Modulus (GPa) = 15.61477 39.26980 27.44229
# Shear Modulus (GPa) = 18.73836 32.55225 25.64531
#
# Velocity S-wave (km/s) = 2.80530 3.69747 3.28184
# Velocity P-wave (km/s) = 4.12927 5.89244 5.08781
#
# Compressibility (1/GPa) = 0.06404192
#
# Stress axis : x y z
#
# Youngs Moduli (GPa) = 37.35810 26.71082 96.39187
#
# Poissons Ratio (x) = 0.14275 -0.02861
# Poissons Ratio (y) = 0.19965 0.02139
# Poissons Ratio (z) = -0.01109 0.00593
#
# Static dielectric constant tensor:
#      x y z
#    x 1.962310 0.022190 0.089780 
#    y 0.022190 1.859640 0.041760 
#    z 0.089780 0.041760 1.923630 
# 
# From -- ./inp_files/68313.got.cif
#   From: 2010.05.17/outbox.cif.g08.bks.cpg/sg2_35_cif.got.tgz:68313.got - 2010.06.03 11:33:40.
