data_PCOD9008173
_publ_section_title
;
Structure prediction by ZEFSAII (Michael W. Deem and Ramdas Pophale) SiO2 
 PCOD9008173
Probable space group: P -1
;
_chemical_formula_sum "Si O2"
_cell_formula_units_Z 16
_cell_length_a 8.001092
_cell_length_b 13.826794
_cell_length_c 9.311742
_cell_angle_alpha 76.863557
_cell_angle_beta 130.138966
_cell_angle_gamma 92.463561
_cell_volume 759.474906
_symmetry_space_group_name_H-M "P -1"
_symmetry_group_IT_number 2
_symmetry_cell_setting 'triclinic'
loop_
_space_group_symop_operation_xyz
x,y,z
-x,-y,-z
loop_
_atom_site_type_symbol
_atom_site_label
_atom_site_fract_x
_atom_site_fract_y
_atom_site_fract_z
Si Si1 0.593184 0.890040 0.144159
Si Si2 0.140310 0.810937 0.967745
Si Si3 0.944764 0.609964 0.861550
Si Si4 0.020988 0.798738 0.224474
Si Si5 0.718419 0.656766 0.992175
Si Si6 0.879353 0.461942 0.308778
Si Si7 0.076453 0.100314 0.445100
Si Si8 0.719287 0.257368 0.346012
O O1 0.810495 0.853472 0.179122
O O2 0.687651 0.893373 0.357449
O O3 0.387823 0.827685 0.058445
O O4 0.500000 0.000000 0.000000
O O5 0.102160 0.695373 0.951670
O O6 0.963932 0.884627 0.750561
O O7 0.087447 0.838796 0.094787
O O8 0.734668 0.648803 0.830316
O O9 0.949812 0.587927 0.702645
O O10 0.000000 0.500000 0.000000
O O11 0.228920 0.782297 0.451760
O O12 0.934538 0.694935 0.165365
O O13 0.512265 0.743246 0.860692
O O14 0.722430 0.551946 0.111777
O O15 0.748267 0.373858 0.316864
O O16 0.000000 0.500000 0.500000
O O17 0.909103 0.193210 0.381962
O O18 0.000000 0.000000 0.500000
#
# Coordination Sequence:
#
# PCOD9008173 Si02
#       8
#     2   2   2   2   2   2   2   2
#     4  11  24  43  69  98 132 176 228 275 342 400
#     4  11  22  44  71  93 136 177 218 277 345 386
#     4   9  21  40  65  94 132 172 220 270 325 403
#     4  10  24  41  63  97 133 167 223 280 321 405
#     4  10  21  39  64  88 130 172 215 269 332 390
#     4  11  20  38  64  93 129 172 218 271 333 391
#     4  11  23  43  69 100 134 174 225 282 330 402
#     4  11  22  41  62  93 131 171 223 272 328 400
#
# _framework density 21.067186
#
# number of rings (size 3 to 8) (size 9 to 14) (size 15 to 20)
#    0.000    1.500    3.750    1.125    0.000    2.500 
#    0.000    1.250    0.000    0.000    0.000    0.000 
#    0.000    0.000    0.000    0.000    0.000    0.000 
#
# Total GULP energy -89120.951493 kJ/mol
# GULP energy per Si atom -5570.059468 kJ/mol
# Density = 2.101924 g / cm^3
# Si number density = 21.067186 Si / 1000 Ang^3
#
#
#
# Elastic Constant Matrix: (Units=GPa)
#
#
# Indices 1 2 3 4 5 6 
#
# 1 84.6550 23.7884 58.4406 -2.1141 -17.2803 2.1895
# 2 23.7884 75.0766 26.4265 -10.0021 1.9604 18.7232
# 3 58.4406 26.4265 159.7196 -3.7471 -16.9790 4.1852
# 4 -2.1141 -10.0021 -3.7471 31.2111 -4.2188 0.5153
# 5 -17.2803 1.9604 -16.9790 -4.2188 42.3859 2.2625
# 6 2.1895 18.7232 4.1852 0.5153 2.2625 24.9917
#
#
#
# Elastic Compliance Matrix: (Units=1/GPa)
#
#
# Indices 1 2 3 4 5 6 
#
# 1 0.017683 -0.004472 -0.005243 -0.000201 0.005178 0.002214
# 2 -0.004472 0.019483 -0.001292 0.005755 -0.001925 -0.013933
# 3 -0.005243 -0.001292 0.008556 0.000450 0.001402 -0.000142
# 4 -0.000201 0.005755 0.000450 0.034494 0.003554 -0.005403
# 5 0.005178 -0.001925 0.001402 0.003554 0.026801 -0.001746
# 6 0.002214 -0.013933 -0.000142 -0.005403 -0.001746 0.050550
#
#
# Mechanical properties :
#
#
# Convention : Reuss Voigt Hill
#
# Bulk Modulus (GPa) = 42.17689 59.64028 50.90858
# Shear Modulus (GPa) = 26.66892 33.77079 30.21986
#
# Velocity S-wave (km/s) = 3.56181 4.00810 3.79152
# Velocity P-wave (km/s) = 6.08103 7.05626 6.58672
#
# Compressibility (1/GPa) = 0.02370967
#
# Stress axis : x y z
#
# Youngs Moduli (GPa) = 56.55151 51.32666 116.87300
#
# Poissons Ratio (x) = 0.22953 0.61271
# Poissons Ratio (y) = 0.25289 0.15099
# Poissons Ratio (z) = 0.29647 0.06631
#
# Static dielectric constant tensor:
#      x y z
#    x 1.855540 -0.003050 0.006810 
#    y -0.003050 1.800630 0.048470 
#    z 0.006810 0.048470 1.833270 
# 
# From -- ./inp_files/206558.got.cif
#   From: 2010.05.17/outbox.cif.g08.bks.cpg/sg2_104_cif.got.tgz:206558.got - 2010.06.03 11:33:40.
