data_PCOD9008232
_publ_section_title
;
Structure prediction by ZEFSAII (Michael W. Deem and Ramdas Pophale) SiO2 
 PCOD9008232
Probable space group: P -1
;
_chemical_formula_sum "Si O2"
_cell_formula_units_Z 16
_cell_length_a 11.517303
_cell_length_b 13.851935
_cell_length_c 7.782598
_cell_angle_alpha 69.877773
_cell_angle_beta 137.370980
_cell_angle_gamma 87.508431
_cell_volume 698.417705
_symmetry_space_group_name_H-M "P -1"
_symmetry_group_IT_number 2
_symmetry_cell_setting 'triclinic'
loop_
_space_group_symop_operation_xyz
x,y,z
-x,-y,-z
loop_
_atom_site_type_symbol
_atom_site_label
_atom_site_fract_x
_atom_site_fract_y
_atom_site_fract_z
Si Si1 0.593582 0.490651 0.919317
Si Si2 0.591833 0.276323 0.960014
Si Si3 0.971332 0.687046 0.408158
Si Si4 0.031542 0.168940 0.383829
Si Si5 0.416591 0.292680 0.131847
Si Si6 0.303958 0.934650 0.297307
Si Si7 0.630797 0.050441 0.029188
Si Si8 0.004937 0.166331 0.975544
O O1 0.528342 0.412825 0.777266
O O2 0.824627 0.414833 0.242781
O O3 0.500000 0.500000 0.000000
O O4 0.547691 0.622332 0.751350
O O5 0.541016 0.274032 0.105640
O O6 0.526982 0.190058 0.850493
O O7 0.819233 0.208542 0.205205
O O8 0.883845 0.775156 0.419747
O O9 0.808464 0.652078 0.195514
O O10 0.015128 0.749663 0.255736
O O11 0.009740 0.215729 0.138048
O O12 0.162855 0.030176 0.605126
O O13 0.487983 0.164389 0.359420
O O14 0.201723 0.046848 0.235081
O O15 0.320893 0.973925 0.102311
O O16 0.165382 0.872003 0.185320
O O17 0.500000 0.000000 0.000000
#
# Coordination Sequence:
#
# PCOD9008232 Si02
#       8
#     2   2   2   2   2   2   2   2
#     4   9  20  41  71  91 122 174 229 264 325 389
#     4  10  21  39  64  91 122 175 219 261 322 392
#     4  11  23  41  69  98 133 171 216 276 336 382
#     4  11  22  40  63  92 133 175 220 259 328 398
#     4  11  23  41  66  95 131 171 221 279 328 382
#     4  11  24  40  62  97 134 177 222 264 329 402
#     4  12  24  38  61  97 138 174 211 274 337 388
#     4  11  23  40  65  96 134 175 223 266 323 407
#
# _framework density 22.908926000000001
#
# number of rings (size 3 to 8) (size 9 to 14) (size 15 to 20)
#    0.000    1.250    2.500    4.500    3.500    0.500 
#    0.000    0.625    8.250    3.750    0.000    0.000 
#    0.000    0.000    0.000    0.000    0.000    0.000 
#
# Total GULP energy -89346.229551 kJ/mol
# GULP energy per Si atom -5584.139347 kJ/mol
# Density = 2.285678 g / cm^3
# Si number density = 22.908926 Si / 1000 Ang^3
#
#
#
# Elastic Constant Matrix: (Units=GPa)
#
#
# Indices 1 2 3 4 5 6 
#
# 1 121.0703 37.4933 18.3184 5.4556 -2.2555 -4.9093
# 2 37.4933 104.8522 -3.2161 2.3520 11.5587 -1.8265
# 3 18.3184 -3.2161 33.0073 -12.5457 0.0286 -6.6285
# 4 5.4556 2.3520 -12.5457 27.4261 -8.5510 3.1811
# 5 -2.2555 11.5587 0.0286 -8.5510 27.6696 -2.2283
# 6 -4.9093 -1.8265 -6.6285 3.1811 -2.2283 24.6867
#
#
#
# Elastic Compliance Matrix: (Units=1/GPa)
#
#
# Indices 1 2 3 4 5 6 
#
# 1 0.011162 -0.004236 -0.008635 -0.005538 0.001009 0.000393
# 2 -0.004236 0.011760 0.003501 -0.000279 -0.005306 0.000525
# 3 -0.008635 0.003501 0.045933 0.023212 0.005636 0.008393
# 4 -0.005538 -0.000279 0.023212 0.053252 0.016074 -0.000301
# 5 0.001009 -0.005306 0.005636 0.016074 0.043658 0.003191
# 6 0.000393 0.000525 0.008393 -0.000301 0.003191 0.043205
#
#
# Mechanical properties :
#
#
# Convention : Reuss Voigt Hill
#
# Bulk Modulus (GPa) = 19.95446 40.45790 30.20618
# Shear Modulus (GPa) = 20.45702 29.71209 25.08456
#
# Velocity S-wave (km/s) = 2.99151 3.60525 3.31262
# Velocity P-wave (km/s) = 4.54548 5.91854 5.27686
#
# Compressibility (1/GPa) = 0.05011410
#
# Stress axis : x y z
#
# Youngs Moduli (GPa) = 89.58711 85.03569 21.77100
#
# Poissons Ratio (x) = 0.36025 0.18798
# Poissons Ratio (y) = 0.37953 -0.07621
# Poissons Ratio (z) = 0.77355 -0.29768
#
# Static dielectric constant tensor:
#      x y z
#    x 1.815480 0.026850 0.017240 
#    y 0.026850 1.967370 0.020700 
#    z 0.017240 0.020700 1.895410 
# 
# From -- ./inp_files/272264.got.cif
#   From: 2010.05.17/outbox.cif.g08.bks.cpg/sg2_137_cif.got.tgz:272264.got - 2010.06.03 11:33:40.
