data_PCOD9008111
_publ_section_title
;
Structure prediction by ZEFSAII (Michael W. Deem and Ramdas Pophale) SiO2 
 PCOD9008111
Probable space group: P -1
;
_chemical_formula_sum "Si O2"
_cell_formula_units_Z 12
_cell_length_a 15.369086
_cell_length_b 7.234350
_cell_length_c 11.095439
_cell_angle_alpha 58.384034
_cell_angle_beta 25.120724
_cell_angle_gamma 68.100704
_cell_volume 427.990538
_symmetry_space_group_name_H-M "P -1"
_symmetry_group_IT_number 2
_symmetry_cell_setting 'triclinic'
loop_
_space_group_symop_operation_xyz
x,y,z
-x,-y,-z
loop_
_atom_site_type_symbol
_atom_site_label
_atom_site_fract_x
_atom_site_fract_y
_atom_site_fract_z
Si Si1 0.182278 0.781457 0.417668
Si Si2 0.276398 0.029887 0.818018
Si Si3 0.161178 0.316737 0.573073
Si Si4 0.602324 0.466638 0.513779
Si Si5 0.206577 0.277839 0.256709
Si Si6 0.530984 0.977333 0.733516
O O1 0.173825 0.535760 0.563487
O O2 0.988611 0.717343 0.586807
O O3 0.165266 0.007985 0.426738
O O4 0.415627 0.863149 0.037384
O O5 0.250661 0.277608 0.745153
O O6 0.500000 0.000000 0.500000
O O7 0.323487 0.989158 0.912473
O O8 0.077585 0.843706 0.078182
O O9 0.214716 0.389719 0.339456
O O10 0.326028 0.173560 0.444455
O O11 0.500000 0.500000 0.500000
O O12 0.668899 0.235729 0.491276
O O13 0.412374 0.394702 0.876690
#
# Coordination Sequence:
#
# PCOD9008111 Si02
#       6
#     2   2   2   2   2   2
#     4  10  21  39  64 100 130 159 219 275 308 384
#     4  11  24  43  66  94 130 175 211 264 332 382
#     4  12  24  41  71  96 129 169 219 270 322 384
#     4   9  21  41  64  91 134 168 212 266 315 390
#     4  10  21  40  71  94 124 181 212 261 336 371
#     4  10  23  43  63  98 129 164 222 268 315 386
#
# _framework density 28.038004000000001
#
# number of rings (size 3 to 8) (size 9 to 14) (size 15 to 20)
#    0.000    1.667    1.667    2.000    4.667    4.000 
#    3.000    0.000    0.000    0.000    0.000    0.000 
#    0.000    0.000    0.000    0.000    0.000    0.000 
#
# Total GULP energy -67252.491615 kJ/mol
# GULP energy per Si atom -5604.374301 kJ/mol
# Density = 2.797419 g / cm^3
# Si number density = 28.038004 Si / 1000 Ang^3
#
#
#
# Elastic Constant Matrix: (Units=GPa)
#
#
# Indices 1 2 3 4 5 6 
#
# 1 85.8355 26.4879 22.5271 -10.3809 -14.9762 -9.6094
# 2 26.4879 204.8423 43.1177 -41.9948 -34.6392 -8.4792
# 3 22.5271 43.1177 119.1765 -19.9595 -12.5971 -10.7017
# 4 -10.3809 -41.9948 -19.9595 55.3611 -1.4194 -3.6034
# 5 -14.9762 -34.6392 -12.5971 -1.4194 46.2369 0.1833
# 6 -9.6094 -8.4792 -10.7017 -3.6034 0.1833 59.2192
#
#
#
# Elastic Compliance Matrix: (Units=1/GPa)
#
#
# Indices 1 2 3 4 5 6 
#
# 1 0.013234 -0.000288 -0.001505 0.001942 0.003712 0.001941
# 2 -0.000288 0.007100 -0.001012 0.005168 0.005104 0.001086
# 3 -0.001505 -0.001012 0.009774 0.002612 0.001492 0.001532
# 4 0.001942 0.005168 0.002612 0.023633 0.005926 0.002947
# 5 0.003712 0.005104 0.001492 0.005926 0.027235 0.001879
# 6 0.001941 0.001086 0.001532 0.002947 0.001879 0.017807
#
#
# Mechanical properties :
#
#
# Convention : Reuss Voigt Hill
#
# Bulk Modulus (GPa) = 40.82059 66.01331 53.41695
# Shear Modulus (GPa) = 44.42101 53.34486 48.88294
#
# Velocity S-wave (km/s) = 3.98466 4.36660 4.18000
# Velocity P-wave (km/s) = 5.98002 7.00131 6.51072
#
# Compressibility (1/GPa) = 0.02449744
#
# Stress axis : x y z
#
# Youngs Moduli (GPa) = 75.56272 140.85248 102.31089
#
# Poissons Ratio (x) = 0.04060 0.15402
# Poissons Ratio (y) = 0.02178 0.10349
# Poissons Ratio (z) = 0.11375 0.14248
#
# Static dielectric constant tensor:
#      x y z
#    x 2.485010 -0.036370 0.135620 
#    y -0.036370 2.161010 -0.037640 
#    z 0.135620 -0.037640 2.117490 
# 
# From -- ./inp_files/150725.got.cif
#   From: 2010.05.17/outbox.cif.g08.bks.cpg/sg2_76_cif.got.tgz:150725.got - 2010.06.03 11:33:40.
