data_PCOD9008635
_publ_section_title
;
Structure prediction by ZEFSAII (Michael W. Deem and Ramdas Pophale) SiO2 
 PCOD9008635
Probable space group: P -1
;
_chemical_formula_sum "Si O2"
_cell_formula_units_Z 16
_cell_length_a 11.043419
_cell_length_b 14.074083
_cell_length_c 16.423319
_cell_angle_alpha 52.807020
_cell_angle_beta 55.481430
_cell_angle_gamma 20.604118
_cell_volume 715.575394
_symmetry_space_group_name_H-M "P -1"
_symmetry_group_IT_number 2
_symmetry_cell_setting 'triclinic'
loop_
_space_group_symop_operation_xyz
x,y,z
-x,-y,-z
loop_
_atom_site_type_symbol
_atom_site_label
_atom_site_fract_x
_atom_site_fract_y
_atom_site_fract_z
Si Si1 0.215140 0.790160 0.913909
Si Si2 0.698643 0.372424 0.368223
Si Si3 0.975266 0.561555 0.269003
Si Si4 0.445884 0.270491 0.984509
Si Si5 0.421072 0.173588 0.885585
Si Si6 0.506008 0.294695 0.585475
Si Si7 0.355782 0.956581 0.809484
Si Si8 0.175371 0.705236 0.821253
O O1 0.203212 0.934584 0.875277
O O2 0.261315 0.756877 0.815660
O O3 0.500000 0.500000 0.000000
O O4 0.848987 0.995316 0.958422
O O5 0.507244 0.396373 0.463654
O O6 0.588732 0.563083 0.368912
O O7 0.635060 0.437818 0.263005
O O8 0.109008 0.043431 0.388146
O O9 0.800276 0.693067 0.177528
O O10 0.769005 0.608759 0.369091
O O11 0.368501 0.240153 0.266458
O O12 0.905472 0.741623 0.242441
O O13 0.273279 0.363715 0.915956
O O14 0.290224 0.512941 0.935418
O O15 0.435221 0.194119 0.105943
O O16 0.771572 0.977664 0.822716
O O17 0.500000 0.000000 0.000000
#
# Coordination Sequence:
#
# PCOD9008635 Si02
#       8
#     2   2   2   2   2   2   2   2
#     4  11  24  42  58  85 122 165 222 255 286 346
#     4  10  21  39  65  93 121 159 199 250 312 359
#     4  12  24  38  61  88 126 161 195 250 311 378
#     4  11  23  37  60  83 121 165 204 257 293 354
#     4  11  22  34  52  88 127 155 191 237 309 372
#     4  10  21  40  63  92 127 154 196 253 307 380
#     4  12  25  39  59  85 121 170 206 241 305 358
#     4  11  23  37  62  87 120 163 201 261 293 360
#
# _framework density 22.359628000000001
#
# number of rings (size 3 to 8) (size 9 to 14) (size 15 to 20)
#    0.000    1.000    3.750    3.375    5.250    1.000 
#    0.000    0.000    0.000    1.500    0.000    0.000 
#    0.000    0.000    0.000    0.000    0.000    0.000 
#
# Total GULP energy -89397.211241 kJ/mol
# GULP energy per Si atom -5587.325703 kJ/mol
# Density = 2.230874 g / cm^3
# Si number density = 22.359628 Si / 1000 Ang^3
#
#
#
# Elastic Constant Matrix: (Units=GPa)
#
#
# Indices 1 2 3 4 5 6 
#
# 1 92.0080 29.8310 14.2480 9.4651 -7.9265 25.6511
# 2 29.8310 111.9698 17.8357 17.8213 -10.1522 17.3531
# 3 14.2480 17.8357 82.2337 20.5591 -15.2722 11.1589
# 4 9.4651 17.8213 20.5591 33.7288 5.9310 -0.1574
# 5 -7.9265 -10.1522 -15.2722 5.9310 28.9143 0.5436
# 6 25.6511 17.3531 11.1589 -0.1574 0.5436 36.4412
#
#
#
# Elastic Compliance Matrix: (Units=1/GPa)
#
#
# Indices 1 2 3 4 5 6 
#
# 1 0.015066 -0.001178 0.001613 -0.005682 0.005934 -0.010651
# 2 -0.001178 0.011653 0.001546 -0.007902 0.006306 -0.005321
# 3 0.001613 0.001546 0.019218 -0.015567 0.014480 -0.008039
# 4 -0.005682 -0.007902 -0.015567 0.048986 -0.022849 0.013082
# 5 0.005934 0.006306 0.014480 -0.022849 0.050995 -0.012473
# 6 -0.010651 -0.005321 -0.008039 0.013082 -0.012473 0.040177
#
#
# Mechanical properties :
#
#
# Convention : Reuss Voigt Hill
#
# Bulk Modulus (GPa) = 20.04077 45.56010 32.80044
# Shear Modulus (GPa) = 25.15530 34.76996 29.96263
#
# Velocity S-wave (km/s) = 3.35779 3.94767 3.66462
# Velocity P-wave (km/s) = 4.90055 6.41865 5.71027
#
# Compressibility (1/GPa) = 0.04989829
#
# Stress axis : x y z
#
# Youngs Moduli (GPa) = 66.37503 85.81663 52.03540
#
# Poissons Ratio (x) = 0.10106 -0.08394
# Poissons Ratio (y) = 0.07817 -0.08042
# Poissons Ratio (z) = -0.10707 -0.13263
#
# Static dielectric constant tensor:
#      x y z
#    x 1.985930 0.042640 -0.021390 
#    y 0.042640 1.868560 0.013960 
#    z -0.021390 0.013960 1.832850 
# 
# From -- ./inp_files/74146.got.cif
#   From: 2010.05.17/outbox.cif.g08.bks.cpg/sg2_38_cif.got.tgz:74146.got - 2010.06.03 11:33:40.
