data_PCOD9008339
_publ_section_title
;
Structure prediction by ZEFSAII (Michael W. Deem and Ramdas Pophale) SiO2 
 PCOD9008339
Probable space group: P -1
;
_chemical_formula_sum "Si O2"
_cell_formula_units_Z 16
_cell_length_a 8.856945
_cell_length_b 8.279761
_cell_length_c 13.971448
_cell_angle_alpha 94.982102
_cell_angle_beta 127.431651
_cell_angle_gamma 71.298810
_cell_volume 762.645949
_symmetry_space_group_name_H-M "P -1"
_symmetry_group_IT_number 2
_symmetry_cell_setting 'triclinic'
loop_
_space_group_symop_operation_xyz
x,y,z
-x,-y,-z
loop_
_atom_site_type_symbol
_atom_site_label
_atom_site_fract_x
_atom_site_fract_y
_atom_site_fract_z
Si Si1 0.508527 0.980281 0.889097
Si Si2 0.069352 0.165751 0.505912
Si Si3 0.818283 0.303656 0.585259
Si Si4 0.502810 0.817587 0.288820
Si Si5 0.178288 0.340111 0.099034
Si Si6 0.568754 0.512143 0.667178
Si Si7 0.056087 0.067262 0.126603
Si Si8 0.095358 0.929747 0.732750
O O1 0.707597 0.818219 0.934390
O O2 0.309463 0.935805 0.781152
O O3 0.498643 0.142151 0.824727
O O4 0.500000 0.000000 0.000000
O O5 0.307394 0.134676 0.595068
O O6 0.972388 0.306716 0.558896
O O7 0.972604 0.203306 0.364769
O O8 0.000000 0.000000 0.500000
O O9 0.749982 0.429645 0.656258
O O10 0.607924 0.344737 0.450037
O O11 0.922893 0.114969 0.658710
O O12 0.511147 0.633846 0.325595
O O13 0.279079 0.943262 0.236693
O O14 0.346879 0.404741 0.211709
O O15 0.077460 0.252017 0.132400
O O16 0.000000 0.500000 0.000000
O O17 0.899149 0.087630 0.152058
O O18 0.000000 0.000000 0.000000
#
# Coordination Sequence:
#
# PCOD9008339 Si02
#       8
#     2   2   2   2   2   2   2   2
#     4  11  24  43  71  97 128 185 230 279 339 394
#     4  10  21  39  64  93 132 167 223 270 332 388
#     4  10  22  40  64  91 145 173 213 278 338 394
#     4  11  22  40  67  97 131 182 220 274 332 416
#     4  11  26  44  68  96 137 173 222 289 331 397
#     4  11  24  41  64  99 136 179 218 267 351 400
#     4  11  24  43  69  97 128 176 234 276 331 400
#     4  11  21  41  69  97 131 170 232 280 323 409
#
# _framework density 20.979590000000002
#
# number of rings (size 3 to 8) (size 9 to 14) (size 15 to 20)
#    0.000    1.250    3.750    3.000    7.000    3.000 
#    0.000    5.000    0.000    0.000    0.000    0.000 
#    0.000    0.000    0.000    0.000    0.000    0.000 
#
# Total GULP energy -89153.276607 kJ/mol
# GULP energy per Si atom -5572.079788 kJ/mol
# Density = 2.093184 g / cm^3
# Si number density = 20.979590 Si / 1000 Ang^3
#
#
#
# Elastic Constant Matrix: (Units=GPa)
#
#
# Indices 1 2 3 4 5 6 
#
# 1 99.7607 22.0504 21.9355 4.4089 -0.5392 -7.9381
# 2 22.0504 52.0541 29.8793 -7.0775 9.0304 3.0988
# 3 21.9355 29.8793 76.5841 3.4726 -3.4781 2.0228
# 4 4.4089 -7.0775 3.4726 35.1208 -5.4914 2.4426
# 5 -0.5392 9.0304 -3.4781 -5.4914 36.6934 7.2683
# 6 -7.9381 3.0988 2.0228 2.4426 7.2683 33.9925
#
#
#
# Elastic Compliance Matrix: (Units=1/GPa)
#
#
# Indices 1 2 3 4 5 6 
#
# 1 0.011775 -0.004682 -0.001518 -0.002489 0.000132 0.003417
# 2 -0.004682 0.029625 -0.010780 0.006685 -0.006956 -0.002145
# 3 -0.001518 -0.010780 0.018052 -0.003048 0.004104 -0.001104
# 4 -0.002489 0.006685 -0.003048 0.031260 0.003501 -0.004004
# 5 0.000132 -0.006956 0.004104 0.003501 0.031166 -0.006495
# 6 0.003417 -0.002145 -0.001104 -0.004004 -0.006495 0.032154
#
#
# Mechanical properties :
#
#
# Convention : Reuss Voigt Hill
#
# Bulk Modulus (GPa) = 39.22482 41.79216 40.50849
# Shear Modulus (GPa) = 25.44695 31.46359 28.45527
#
# Velocity S-wave (km/s) = 3.48650 3.87683 3.68684
# Velocity P-wave (km/s) = 5.91142 6.32482 6.12161
#
# Compressibility (1/GPa) = 0.02549406
#
# Stress axis : x y z
#
# Youngs Moduli (GPa) = 84.92506 33.75546 55.39656
#
# Poissons Ratio (x) = 0.15803 0.08407
# Poissons Ratio (y) = 0.39759 0.59715
# Poissons Ratio (z) = 0.12888 0.36387
#
# Static dielectric constant tensor:
#      x y z
#    x 1.927370 0.019760 -0.192260 
#    y 0.019760 1.769780 -0.011330 
#    z -0.192260 -0.011330 1.997970 
# 
# From -- ./inp_files/493076.got.cif
#   From: 2010.05.17/outbox.cif.g08.bks.cpg/sg2_247_cif.got.tgz:493076.got - 2010.06.03 11:33:40.
