data_PCOD9008357
_publ_section_title
;
Structure prediction by ZEFSAII (Michael W. Deem and Ramdas Pophale) SiO2 
 PCOD9008357
Probable space group: P -1
;
_chemical_formula_sum "Si O2"
_cell_formula_units_Z 15
_cell_length_a 15.465428
_cell_length_b 17.054472
_cell_length_c 8.793582
_cell_angle_alpha 138.799107
_cell_angle_beta 40.129535
_cell_angle_gamma 157.099017
_cell_volume 570.920766
_symmetry_space_group_name_H-M "P -1"
_symmetry_group_IT_number 2
_symmetry_cell_setting 'triclinic'
loop_
_space_group_symop_operation_xyz
x,y,z
-x,-y,-z
loop_
_atom_site_type_symbol
_atom_site_label
_atom_site_fract_x
_atom_site_fract_y
_atom_site_fract_z
Si Si1 0.128811 0.231187 0.337680
Si Si2 0.731706 0.916444 0.616891
Si Si3 0.368760 0.707657 0.551932
Si Si4 0.410916 0.708148 0.155411
Si Si5 0.000000 0.500000 0.000000
Si Si6 0.076543 0.911273 0.903131
Si Si7 0.344346 0.396637 0.750564
Si Si8 0.579112 0.116278 0.844398
O O1 0.399107 0.450898 0.311386
O O2 0.002088 0.193838 0.307359
O O3 0.984369 0.144405 0.559613
O O4 0.118204 0.083287 0.098957
O O5 0.589552 0.810841 0.493653
O O6 0.727082 0.779576 0.491738
O O7 0.598030 0.911537 0.895016
O O8 0.328965 0.626868 0.319543
O O9 0.444023 0.897512 0.689978
O O10 0.160643 0.554827 0.728135
O O11 0.299043 0.732360 0.243317
O O12 0.673016 0.947770 0.172319
O O13 0.378080 0.559106 0.891565
O O14 0.218975 0.746488 0.103353
O O15 0.865384 0.742279 0.053371
#
# Coordination Sequence:
#
# PCOD9008357 Si02
#       8
#     2   2   2   2   1   2   2   2
#     4   9  17  33  59  89 127 165 207 257 309 375
#     4  10  21  39  64  94 127 171 218 263 319 377
#     4  11  24  44  68  96 126 170 222 271 320 378
#     4  11  24  42  65  97 136 169 208 267 334 381
#     4  10  24  46  72  96 118 168 230 272 324 372
#     4   9  18  34  57  93 129 164 205 255 320 375
#     4  10  22  35  62 104 131 166 212 265 318 388
#     4  11  26  46  65  92 132 175 219 266 317 391
#
# _framework density 26.273349
#
# number of rings (size 3 to 8) (size 9 to 14) (size 15 to 20)
#    0.000    1.867    1.333    2.400    3.733    7.467 
#    0.000    6.000    0.000    0.000    0.000    0.000 
#    0.000    0.000    0.000    0.000    0.000    0.000 
#
# Total GULP energy -83591.949259 kJ/mol
# GULP energy per Si atom -5572.796617 kJ/mol
# Density = 2.621355 g / cm^3
# Si number density = 26.273349 Si / 1000 Ang^3
#
#
#
# Elastic Constant Matrix: (Units=GPa)
#
#
# Indices 1 2 3 4 5 6 
#
# 1 61.4132 1.3722 -2.3139 5.1593 -11.3268 -13.7176
# 2 1.3722 139.8249 40.5219 -14.8075 -18.4754 4.3405
# 3 -2.3139 40.5219 102.6260 -4.2751 -9.9912 -13.9115
# 4 5.1593 -14.8075 -4.2751 61.8372 -18.1242 -12.8756
# 5 -11.3268 -18.4754 -9.9912 -18.1242 22.2185 -2.5770
# 6 -13.7176 4.3405 -13.9115 -12.8756 -2.5770 32.6153
#
#
#
# Elastic Compliance Matrix: (Units=1/GPa)
#
#
# Indices 1 2 3 4 5 6 
#
# 1 0.025156 0.002620 0.005466 0.011458 0.029056 0.019382
# 2 0.002620 0.010374 -0.001813 0.007308 0.015462 0.003055
# 3 0.005466 -0.001813 0.013988 0.006969 0.014694 0.012419
# 4 0.011458 0.007308 0.006969 0.036717 0.047914 0.025100
# 5 0.029056 0.015462 0.014694 0.047914 0.123601 0.045111
# 6 0.019382 0.003055 0.012419 0.025100 0.045111 0.057176
#
#
# Mechanical properties :
#
#
# Convention : Reuss Voigt Hill
#
# Bulk Modulus (GPa) = 16.11258 42.55828 29.33543
# Shear Modulus (GPa) = 18.17169 40.95314 29.56241
#
# Velocity S-wave (km/s) = 2.63276 3.95236 3.35802
# Velocity P-wave (km/s) = 3.92274 6.08783 5.12101
#
# Compressibility (1/GPa) = 0.06206333
#
# Stress axis : x y z
#
# Youngs Moduli (GPa) = 39.75163 96.39801 71.49170
#
# Poissons Ratio (x) = -0.25256 -0.39078
# Poissons Ratio (y) = -0.10415 0.12963
# Poissons Ratio (z) = -0.21729 0.17479
#
# Static dielectric constant tensor:
#      x y z
#    x 2.176060 0.041880 -0.013110 
#    y 0.041880 2.181470 -0.082340 
#    z -0.013110 -0.082340 2.085390 
# 
# From -- ./inp_files/336809.got.cif
#   From: 2010.05.17/outbox.cif.g08.bks.cpg/sg2_169_cif.got.tgz:336809.got - 2010.06.03 11:33:40.
