data_PCOD9008198
_publ_section_title
;
Structure prediction by ZEFSAII (Michael W. Deem and Ramdas Pophale) SiO2 
 PCOD9008198
Probable space group: P -1
;
_chemical_formula_sum "Si O2"
_cell_formula_units_Z 14
_cell_length_a 9.549481
_cell_length_b 14.402847
_cell_length_c 11.524402
_cell_angle_alpha 34.607748
_cell_angle_beta 114.016397
_cell_angle_gamma 132.506291
_cell_volume 620.145806
_symmetry_space_group_name_H-M "P -1"
_symmetry_group_IT_number 2
_symmetry_cell_setting 'triclinic'
loop_
_space_group_symop_operation_xyz
x,y,z
-x,-y,-z
loop_
_atom_site_type_symbol
_atom_site_label
_atom_site_fract_x
_atom_site_fract_y
_atom_site_fract_z
Si Si1 0.132225 0.744881 0.642269
Si Si2 0.543041 0.548627 0.154589
Si Si3 0.956000 0.475254 0.646240
Si Si4 0.804570 0.828610 0.735356
Si Si5 0.189829 0.908070 0.851293
Si Si6 0.298651 0.685039 0.964052
Si Si7 0.556338 0.385326 0.559896
O O1 0.280283 0.726255 0.781015
O O2 0.116405 0.687006 0.561395
O O3 0.180403 0.966660 0.453101
O O4 0.910928 0.548268 0.825488
O O5 0.340927 0.325529 0.260507
O O6 0.619758 0.493116 0.342929
O O7 0.698030 0.682381 0.965153
O O8 0.476428 0.680047 0.043983
O O9 0.739408 0.414223 0.647964
O O10 0.000000 0.500000 0.500000
O O11 0.927278 0.280592 0.897724
O O12 0.024748 0.897171 0.735385
O O13 0.302581 0.855794 0.860983
O O14 0.356442 0.137401 0.730599
O O15 0.500000 0.500000 0.500000
#
# Coordination Sequence:
#
# PCOD9008198 Si02
#       7
#     2   2   2   2   2   2   2
#     4  10  21  39  64  90 118 158 201 245 302 354
#     4  11  24  40  60  93 124 154 199 251 305 353
#     4  11  24  41  62  90 125 160 199 246 297 358
#     4  11  23  40  64  90 122 156 197 255 307 351
#     4  11  23  42  65  88 118 161 205 247 298 352
#     4  10  21  39  65  90 116 152 204 255 294 351
#     4  12  25  41  62  89 124 163 203 242 291 364
#
# _framework density 22.575337999999999
#
# number of rings (size 3 to 8) (size 9 to 14) (size 15 to 20)
#    0.000    1.143    0.000    8.143    0.000    5.714 
#    0.000    2.857    0.000    0.000    0.000    0.000 
#    0.000    0.000    0.000    0.000    0.000    0.000 
#
# Total GULP energy -78435.228108 kJ/mol
# GULP energy per Si atom -5602.516293 kJ/mol
# Density = 2.252396 g / cm^3
# Si number density = 22.575338 Si / 1000 Ang^3
#
#
#
# Elastic Constant Matrix: (Units=GPa)
#
#
# Indices 1 2 3 4 5 6 
#
# 1 57.9929 18.9771 13.8075 -11.6508 6.3859 -8.4011
# 2 18.9771 101.8538 47.3113 -8.3835 12.2426 -24.0260
# 3 13.8075 47.3113 97.5780 3.8729 14.3789 -8.1759
# 4 -11.6508 -8.3835 3.8729 49.2614 -8.5074 7.0838
# 5 6.3859 12.2426 14.3789 -8.5074 32.5462 12.0217
# 6 -8.4011 -24.0260 -8.1759 7.0838 12.0217 37.5812
#
#
#
# Elastic Compliance Matrix: (Units=1/GPa)
#
#
# Indices 1 2 3 4 5 6 
#
# 1 0.019609 -0.001543 -0.001447 0.003493 -0.002960 0.003371
# 2 -0.001543 0.016263 -0.005616 -0.000069 -0.007505 0.011244
# 3 -0.001447 -0.005616 0.014252 -0.003586 -0.005428 0.001599
# 4 0.003493 -0.000069 -0.003586 0.024288 0.010184 -0.007879
# 5 -0.002960 -0.007505 -0.005428 0.010184 0.048026 -0.023923
# 6 0.003371 0.011244 0.001599 -0.007879 -0.023923 0.044036
#
#
# Mechanical properties :
#
#
# Convention : Reuss Voigt Hill
#
# Bulk Modulus (GPa) = 30.38398 46.40183 38.39291
# Shear Modulus (GPa) = 25.68637 35.69967 30.69302
#
# Velocity S-wave (km/s) = 3.37680 3.98094 3.69125
# Velocity P-wave (km/s) = 5.35648 6.45983 5.93385
#
# Compressibility (1/GPa) = 0.03291208
#
# Stress axis : x y z
#
# Youngs Moduli (GPa) = 50.99749 61.48994 70.16519
#
# Poissons Ratio (x) = 0.09489 0.10149
# Poissons Ratio (y) = 0.07870 0.39405
# Poissons Ratio (z) = 0.07377 0.34533
#
# Static dielectric constant tensor:
#      x y z
#    x 1.834970 -0.020350 -0.032530 
#    y -0.020350 1.797630 0.014200 
#    z -0.032530 0.014200 1.815680 
# 
# From -- ./inp_files/398294.got.cif
#   From: 2010.05.17/outbox.cif.g08.bks.cpg/sg2_200_cif.got.tgz:398294.got - 2010.06.03 11:33:40.
