data_PCOD9008042
_publ_section_title
;
Structure prediction by ZEFSAII (Michael W. Deem and Ramdas Pophale) SiO2 
 PCOD9008042
Probable space group: P -1
;
_chemical_formula_sum "Si O2"
_cell_formula_units_Z 14
_cell_length_a 12.645688
_cell_length_b 8.603226
_cell_length_c 24.900345
_cell_angle_alpha 38.032130
_cell_angle_beta 26.000218
_cell_angle_gamma 35.891806
_cell_volume 677.277641
_symmetry_space_group_name_H-M "P -1"
_symmetry_group_IT_number 2
_symmetry_cell_setting 'triclinic'
loop_
_space_group_symop_operation_xyz
x,y,z
-x,-y,-z
loop_
_atom_site_type_symbol
_atom_site_label
_atom_site_fract_x
_atom_site_fract_y
_atom_site_fract_z
Si Si1 0.022125 0.888921 0.861773
Si Si2 0.064177 0.894585 0.274852
Si Si3 0.418462 0.294512 0.839245
Si Si4 0.027207 0.321582 0.427873
Si Si5 0.558627 0.175254 0.683417
Si Si6 0.782620 0.108135 0.448679
Si Si7 0.784700 0.672295 0.301138
O O1 0.290226 0.622754 0.816184
O O2 0.954912 0.939276 0.815860
O O3 0.799871 0.818200 0.012202
O O4 0.049269 0.157062 0.801346
O O5 0.327792 0.834723 0.204425
O O6 0.049506 0.607828 0.344418
O O7 0.830940 0.041037 0.382640
O O8 0.488740 0.221968 0.764711
O O9 0.890374 0.346628 0.346584
O O10 0.248039 0.127061 0.340187
O O11 0.079635 0.158463 0.505114
O O12 0.737658 0.344210 0.538949
O O13 0.307565 0.260391 0.736784
O O14 0.482922 0.214910 0.573423
#
# Coordination Sequence:
#
# PCOD9008042 Si02
#       7
#     2   2   2   2   2   2   2
#     4  11  27  43  65  92 131 173 214 260 307 380
#     4  12  24  41  69  96 126 169 214 261 320 376
#     4  11  24  47  65  91 129 171 218 260 309 375
#     4  10  22  37  63 100 126 156 207 265 323 374
#     4  10  21  39  65  90 129 165 202 268 316 372
#     4  10  21  39  63  94 134 160 205 267 322 378
#     4  10  23  40  60  98 130 163 211 261 319 382
#
# _framework density 20.670991000000001
#
# number of rings (size 3 to 8) (size 9 to 14) (size 15 to 20)
#    0.000    1.429    1.429    3.429   10.000    1.143 
#    0.000    4.286    0.000    0.000    0.000    0.000 
#    0.000    0.000    0.000    0.000    0.000    0.000 
#
# Total GULP energy -78301.213575 kJ/mol
# GULP energy per Si atom -5592.943827 kJ/mol
# Density = 2.062394 g / cm^3
# Si number density = 20.670991 Si / 1000 Ang^3
#
#
#
# Elastic Constant Matrix: (Units=GPa)
#
#
# Indices 1 2 3 4 5 6 
#
# 1 69.1170 1.1744 10.9872 -5.3660 6.1397 -12.6902
# 2 1.1744 47.4994 21.1741 -15.3021 1.7409 -0.7710
# 3 10.9872 21.1741 47.4284 -10.0952 10.0267 13.8370
# 4 -5.3660 -15.3021 -10.0952 23.1521 2.0856 -0.5014
# 5 6.1397 1.7409 10.0267 2.0856 27.7618 -5.5956
# 6 -12.6902 -0.7710 13.8370 -0.5014 -5.5956 39.0456
#
#
#
# Elastic Compliance Matrix: (Units=1/GPa)
#
#
# Indices 1 2 3 4 5 6 
#
# 1 0.017473 0.004343 -0.007707 0.003737 0.000091 0.008557
# 2 0.004343 0.032948 -0.015286 0.016030 0.002923 0.008104
# 3 -0.007707 -0.015286 0.040172 0.006672 -0.016234 -0.019283
# 4 0.003737 0.016030 0.006672 0.058335 -0.008898 -0.001359
# 5 0.000091 0.002923 -0.016234 -0.008898 0.044797 0.012146
# 6 0.008557 0.008104 -0.019283 -0.001359 0.012146 0.037109
#
#
# Mechanical properties :
#
#
# Convention : Reuss Voigt Hill
#
# Bulk Modulus (GPa) = 18.76403 25.63513 22.19958
# Shear Modulus (GPa) = 17.48884 26.70586 22.09735
#
# Velocity S-wave (km/s) = 2.91186 3.59827 3.27311
# Velocity P-wave (km/s) = 4.51690 5.44902 5.00471
#
# Compressibility (1/GPa) = 0.05329346
#
# Stress axis : x y z
#
# Youngs Moduli (GPa) = 57.23251 30.35079 24.89312
#
# Poissons Ratio (x) = -0.13181 0.19184
# Poissons Ratio (y) = -0.24855 0.38051
# Poissons Ratio (z) = 0.44107 0.46393
#
# Static dielectric constant tensor:
#      x y z
#    x 1.773770 -0.024400 0.001230 
#    y -0.024400 1.760090 0.007760 
#    z 0.001230 0.007760 1.687980 
# 
# From -- ./inp_files/464140.got.cif
#   From: 2010.05.17/outbox.cif.g08.bks.cpg/sg2_233_cif.got.tgz:464140.got - 2010.06.03 11:33:40.
