data_PCOD9008701
_publ_section_title
;
Structure prediction by ZEFSAII (Michael W. Deem and Ramdas Pophale) SiO2 
 PCOD9008701
Probable space group: P -1
;
_chemical_formula_sum "Si O2"
_cell_formula_units_Z 14
_cell_length_a 9.369625
_cell_length_b 17.492669
_cell_length_c 13.044915
_cell_angle_alpha 27.339797
_cell_angle_beta 48.295515
_cell_angle_gamma 39.888929
_cell_volume 628.754524
_symmetry_space_group_name_H-M "P -1"
_symmetry_group_IT_number 2
_symmetry_cell_setting 'triclinic'
loop_
_space_group_symop_operation_xyz
x,y,z
-x,-y,-z
loop_
_atom_site_type_symbol
_atom_site_label
_atom_site_fract_x
_atom_site_fract_y
_atom_site_fract_z
Si Si1 0.817041 0.278864 0.399371
Si Si2 0.856196 0.341377 0.807812
Si Si3 0.997414 0.601942 0.540397
Si Si4 0.688450 0.041535 0.897687
Si Si5 0.398647 0.387610 0.741959
Si Si6 0.746535 0.817291 0.591423
Si Si7 0.587709 0.520777 0.043274
O O1 0.726828 0.165215 0.644984
O O2 0.700716 0.496935 0.243585
O O3 0.735886 0.318460 0.274219
O O4 0.078747 0.182427 0.412244
O O5 0.853588 0.525698 0.642587
O O6 0.637128 0.347357 0.941938
O O7 0.873367 0.359752 0.656507
O O8 0.079060 0.150803 0.963625
O O9 0.857331 0.783631 0.465597
O O10 0.182921 0.431889 0.725584
O O11 0.588622 0.166016 0.901744
O O12 0.500000 0.000000 0.000000
O O13 0.500000 0.500000 0.500000
O O14 0.500000 0.000000 0.500000
O O15 0.726086 0.627818 0.840639
O O16 0.500000 0.500000 0.000000
#
# Coordination Sequence:
#
# PCOD9008701 Si02
#       7
#     2   2   2   2   2   2   2
#     4  10  24  44  66  96 138 183 226 277 346 413
#     4  11  22  38  65 100 133 170 227 279 336 390
#     4  10  21  39  65  94 136 174 214 279 340 400
#     4  11  21  36  65 104 137 168 229 285 335 401
#     4   9  18  37  60  90 132 174 209 271 342 401
#     4  11  24  47  71 101 138 179 228 282 341 414
#     4  12  25  45  71  95 135 188 228 279 346 409
#
# _framework density 22.266241000000001
#
# number of rings (size 3 to 8) (size 9 to 14) (size 15 to 20)
#    0.000    1.429    2.857    3.000    2.000    1.143 
#    0.000   12.143    0.000    0.000    0.000    0.000 
#    0.000    0.000    0.000    0.000    0.000    0.000 
#
# Total GULP energy -78248.306493 kJ/mol
# GULP energy per Si atom -5589.164750 kJ/mol
# Density = 2.221556 g / cm^3
# Si number density = 22.266241 Si / 1000 Ang^3
#
#
#
# Elastic Constant Matrix: (Units=GPa)
#
#
# Indices 1 2 3 4 5 6 
#
# 1 116.6414 34.0361 43.5870 3.9988 17.5183 -23.2884
# 2 34.0361 108.9311 19.4115 -3.3171 18.6552 -20.4440
# 3 43.5870 19.4115 72.3116 7.0473 13.9907 -4.8207
# 4 3.9988 -3.3171 7.0473 34.8931 -4.7284 -0.5861
# 5 17.5183 18.6552 13.9907 -4.7284 40.5763 5.6354
# 6 -23.2884 -20.4440 -4.8207 -0.5861 5.6354 36.4392
#
#
#
# Elastic Compliance Matrix: (Units=1/GPa)
#
#
# Indices 1 2 3 4 5 6 
#
# 1 0.013517 -0.000841 -0.006457 -0.000790 -0.004424 0.007984
# 2 -0.000841 0.011928 -0.001247 0.000846 -0.005545 0.006861
# 3 -0.006457 -0.001247 0.018937 -0.003687 -0.003339 -0.001864
# 4 -0.000790 0.000846 -0.003687 0.030219 0.004854 -0.000783
# 5 -0.004424 -0.005545 -0.003339 0.004854 0.032392 -0.011312
# 6 0.007984 0.006861 -0.001864 -0.000783 -0.011312 0.037885
#
#
# Mechanical properties :
#
#
# Convention : Reuss Voigt Hill
#
# Bulk Modulus (GPa) = 36.64030 54.66149 45.65090
# Shear Modulus (GPa) = 29.22842 35.77167 32.50004
#
# Velocity S-wave (km/s) = 3.62702 4.01252 3.82463
# Velocity P-wave (km/s) = 5.83366 6.78745 6.32855
#
# Compressibility (1/GPa) = 0.02729235
#
# Stress axis : x y z
#
# Youngs Moduli (GPa) = 73.98056 83.83483 52.80699
#
# Poissons Ratio (x) = 0.07049 0.34096
# Poissons Ratio (y) = 0.06221 0.06587
# Poissons Ratio (z) = 0.47767 0.10458
#
# Static dielectric constant tensor:
#      x y z
#    x 1.882760 0.017650 -0.002110 
#    y 0.017650 1.846500 0.008820 
#    z -0.002110 0.008820 1.816310 
# 
# From -- ./inp_files/189571.got.cif
#   From: 2010.05.17/outbox.cif.g08.bks.cpg/sg2_95_cif.got.tgz:189571.got - 2010.06.03 11:33:40.
