data_PCOD9008049
_publ_section_title
;
Structure prediction by ZEFSAII (Michael W. Deem and Ramdas Pophale) SiO2 
 PCOD9008049
Probable space group: P -1
;
_chemical_formula_sum "Si O2"
_cell_formula_units_Z 14
_cell_length_a 9.240638
_cell_length_b 19.325384
_cell_length_c 10.137869
_cell_angle_alpha 33.624361
_cell_angle_beta 76.757069
_cell_angle_gamma 51.006917
_cell_volume 567.564722
_symmetry_space_group_name_H-M "P -1"
_symmetry_group_IT_number 2
_symmetry_cell_setting 'triclinic'
loop_
_space_group_symop_operation_xyz
x,y,z
-x,-y,-z
loop_
_atom_site_type_symbol
_atom_site_label
_atom_site_fract_x
_atom_site_fract_y
_atom_site_fract_z
Si Si1 0.817585 0.742402 0.160692
Si Si2 0.918184 0.242647 0.735232
Si Si3 0.443951 0.815566 0.223503
Si Si4 0.125718 0.778209 0.686926
Si Si5 0.384704 0.584104 0.221851
Si Si6 0.642612 0.012216 0.527173
Si Si7 0.459216 0.314720 0.304004
O O1 0.542722 0.867239 0.041150
O O2 0.000000 0.500000 0.500000
O O3 0.921729 0.754094 0.239424
O O4 0.819375 0.822470 0.900904
O O5 0.666803 0.451316 0.374575
O O6 0.782826 0.270178 0.846503
O O7 0.137946 0.021321 0.961741
O O8 0.557921 0.604939 0.487032
O O9 0.552040 0.754191 0.448267
O O10 0.272851 0.791287 0.566409
O O11 0.823633 0.968761 0.461550
O O12 0.235398 0.716520 0.910638
O O13 0.243042 0.568261 0.941867
O O14 0.500000 0.000000 0.500000
O O15 0.471966 0.218577 0.326875
#
# Coordination Sequence:
#
# PCOD9008049 Si02
#       7
#     2   2   2   2   2   2   2
#     4  12  23  44  66  94 136 175 210 267 326 386
#     4  11  21  37  64  92 125 165 211 264 322 373
#     4  11  21  41  64  94 130 163 213 263 319 387
#     4  10  21  45  67  92 131 169 218 271 327 388
#     4  10  21  39  63  95 127 161 214 270 316 385
#     4  12  26  45  65  98 133 175 221 266 327 392
#     4  10  22  42  70  93 125 177 213 269 331 379
#
# _framework density 24.666792000000001
#
# number of rings (size 3 to 8) (size 9 to 14) (size 15 to 20)
#    0.000    1.143    4.286    2.143    0.000    1.714 
#   10.286    0.000    0.000    0.000    0.000    0.000 
#    0.000    0.000    0.000    0.000    0.000    0.000 
#
# Total GULP energy -78374.381679 kJ/mol
# GULP energy per Si atom -5598.170120 kJ/mol
# Density = 2.461065 g / cm^3
# Si number density = 24.666792 Si / 1000 Ang^3
#
#
#
# Elastic Constant Matrix: (Units=GPa)
#
#
# Indices 1 2 3 4 5 6 
#
# 1 119.6825 13.7267 8.8416 -11.8814 2.8408 7.2601
# 2 13.7267 81.5140 9.5973 -18.4363 0.0511 -10.4088
# 3 8.8416 9.5973 46.4623 -10.5597 -4.4984 -2.6766
# 4 -11.8814 -18.4363 -10.5597 36.2176 -5.9799 -5.3022
# 5 2.8408 0.0511 -4.4984 -5.9799 34.6525 -5.5047
# 6 7.2601 -10.4088 -2.6766 -5.3022 -5.5047 40.5346
#
#
#
# Elastic Compliance Matrix: (Units=1/GPa)
#
#
# Indices 1 2 3 4 5 6 
#
# 1 0.008881 -0.001261 -0.001304 0.001450 -0.000954 -0.001940
# 2 -0.001261 0.015118 -0.000445 0.008341 0.002334 0.005487
# 3 -0.001304 -0.000445 0.024333 0.007797 0.005159 0.003447
# 4 0.001450 0.008341 0.007797 0.037271 0.008655 0.008448
# 5 -0.000954 0.002334 0.005159 0.008655 0.032146 0.006608
# 6 -0.001940 0.005487 0.003447 0.008448 0.006608 0.028657
#
#
# Mechanical properties :
#
#
# Convention : Reuss Voigt Hill
#
# Bulk Modulus (GPa) = 23.63443 34.66553 29.14998
# Shear Modulus (GPa) = 30.02455 36.64716 33.33586
#
# Velocity S-wave (km/s) = 3.49263 3.85864 3.68019
# Velocity P-wave (km/s) = 5.08595 5.82548 5.46823
#
# Compressibility (1/GPa) = 0.04231115
#
# Stress axis : x y z
#
# Youngs Moduli (GPa) = 112.60394 66.14493 41.09655
#
# Poissons Ratio (x) = 0.08343 0.05359
# Poissons Ratio (y) = 0.14202 0.01829
# Poissons Ratio (z) = 0.14685 0.02944
#
# Static dielectric constant tensor:
#      x y z
#    x 1.944470 -0.027570 0.009060 
#    y -0.027570 2.016570 -0.043770 
#    z 0.009060 -0.043770 1.988540 
# 
# From -- ./inp_files/404504.got.cif
#   From: 2010.05.17/outbox.cif.g08.bks.cpg/sg2_203_cif.got.tgz:404504.got - 2010.06.03 11:33:40.
