data_PCOD9008770
_publ_section_title
;
Structure prediction by ZEFSAII (Michael W. Deem and Ramdas Pophale) SiO2 
 PCOD9008770
Probable space group: P -1
;
_chemical_formula_sum "Si O2"
_cell_formula_units_Z 14
_cell_length_a 12.033006
_cell_length_b 8.858646
_cell_length_c 8.921778
_cell_angle_alpha 131.938992
_cell_angle_beta 122.001459
_cell_angle_gamma 78.590648
_cell_volume 581.201280
_symmetry_space_group_name_H-M "P -1"
_symmetry_group_IT_number 2
_symmetry_cell_setting 'triclinic'
loop_
_space_group_symop_operation_xyz
x,y,z
-x,-y,-z
loop_
_atom_site_type_symbol
_atom_site_label
_atom_site_fract_x
_atom_site_fract_y
_atom_site_fract_z
Si Si1 0.015115 0.289542 0.956615
Si Si2 0.369777 0.025623 0.133206
Si Si3 0.267779 0.401654 0.437742
Si Si4 0.714984 0.130510 0.727898
Si Si5 0.662465 0.208575 0.446813
Si Si6 0.356568 0.330058 0.764299
Si Si7 0.202129 0.087600 0.764864
O O1 0.074962 0.148809 0.787902
O O2 0.875721 0.169560 0.854722
O O3 0.126417 0.342843 0.206505
O O4 0.000000 0.500000 0.000000
O O5 0.354120 0.240114 0.341771
O O6 0.523348 0.035513 0.213861
O O7 0.319448 0.856406 0.114961
O O8 0.284588 0.030564 0.927699
O O9 0.341085 0.621516 0.565553
O O10 0.268106 0.405027 0.619867
O O11 0.670295 0.281405 0.674253
O O12 0.640497 0.899526 0.456011
O O13 0.796129 0.121645 0.465906
O O14 0.278877 0.269763 0.826902
O O15 0.500000 0.500000 0.000000
#
# Coordination Sequence:
#
# PCOD9008770 Si02
#       7
#     2   2   2   2   2   2   2
#     4  11  23  48  68  93 129 176 235 265 318 393
#     4  10  21  39  65  97 132 171 217 266 331 399
#     4  10  22  40  69  96 134 178 214 268 324 394
#     4  10  23  41  69  94 130 179 218 268 321 390
#     4  11  20  39  62 101 132 167 212 272 337 386
#     4  10  22  42  64 101 137 167 211 268 337 392
#     4  10  24  41  67  93 134 176 211 280 326 381
#
# _framework density 24.088041
#
# number of rings (size 3 to 8) (size 9 to 14) (size 15 to 20)
#    0.000    1.714    1.429    2.143    0.000   12.000 
#    7.714    0.714    0.000    0.000    0.000    0.000 
#    0.000    0.000    0.000    0.000    0.000    0.000 
#
# Total GULP energy -78127.505703 kJ/mol
# GULP energy per Si atom -5580.536122 kJ/mol
# Density = 2.403322 g / cm^3
# Si number density = 24.088041 Si / 1000 Ang^3
#
#
#
# Elastic Constant Matrix: (Units=GPa)
#
#
# Indices 1 2 3 4 5 6 
#
# 1 68.9156 15.8929 28.1823 -17.2717 3.9971 0.5235
# 2 15.8929 127.0954 28.6757 -41.2440 -11.8216 12.3587
# 3 28.1823 28.6757 88.0523 -15.0732 0.6935 5.6164
# 4 -17.2717 -41.2440 -15.0732 53.1814 -2.7522 -8.6039
# 5 3.9971 -11.8216 0.6935 -2.7522 33.3043 -4.5063
# 6 0.5235 12.3587 5.6164 -8.6039 -4.5063 48.6953
#
#
#
# Elastic Compliance Matrix: (Units=1/GPa)
#
#
# Indices 1 2 3 4 5 6 
#
# 1 0.017738 0.000153 -0.005001 0.004551 -0.001457 0.001017
# 2 0.000153 0.011681 -0.002378 0.008563 0.004786 -0.000736
# 3 -0.005001 -0.002378 0.013844 0.000268 -0.000639 -0.000951
# 4 0.004551 0.008563 0.000268 0.027776 0.005208 0.003136
# 5 -0.001457 0.004786 -0.000639 0.005208 0.032725 0.002823
# 6 0.001017 -0.000736 -0.000951 0.003136 0.002823 0.021637
#
#
# Mechanical properties :
#
#
# Convention : Reuss Voigt Hill
#
# Bulk Modulus (GPa) = 34.71052 47.72944 41.21998
# Shear Modulus (GPa) = 33.45454 41.12369 37.28911
#
# Velocity S-wave (km/s) = 3.73076 4.13634 3.93878
# Velocity P-wave (km/s) = 5.74450 6.53223 6.15099
#
# Compressibility (1/GPa) = 0.02880971
#
# Stress axis : x y z
#
# Youngs Moduli (GPa) = 56.37675 85.60832 72.23522
#
# Poissons Ratio (x) = -0.01308 0.36127
# Poissons Ratio (y) = -0.00861 0.17177
# Poissons Ratio (z) = 0.28196 0.20356
#
# Static dielectric constant tensor:
#      x y z
#    x 1.940680 0.043550 -0.058890 
#    y 0.043550 1.976120 0.003530 
#    z -0.058890 0.003530 2.033510 
# 
# From -- ./inp_files/246195.got.cif
#   From: 2010.05.17/outbox.cif.g08.bks.cpg/sg2_124_cif.got.tgz:246195.got - 2010.06.03 11:33:40.
