data_PCOD9008190
_publ_section_title
;
Structure prediction by ZEFSAII (Michael W. Deem and Ramdas Pophale) SiO2 
 PCOD9008190
Probable space group: P -1
;
_chemical_formula_sum "Si O2"
_cell_formula_units_Z 16
_cell_length_a 8.632305
_cell_length_b 23.138783
_cell_length_c 14.212511
_cell_angle_alpha 158.789447
_cell_angle_beta 65.703159
_cell_angle_gamma 125.808747
_cell_volume 741.018029
_symmetry_space_group_name_H-M "P -1"
_symmetry_group_IT_number 2
_symmetry_cell_setting 'triclinic'
loop_
_space_group_symop_operation_xyz
x,y,z
-x,-y,-z
loop_
_atom_site_type_symbol
_atom_site_label
_atom_site_fract_x
_atom_site_fract_y
_atom_site_fract_z
Si Si1 0.040624 0.620521 0.787909
Si Si2 0.614915 0.203848 0.340930
Si Si3 0.724209 0.708412 0.651613
Si Si4 0.142865 0.865779 0.687588
Si Si5 0.032936 0.201760 0.770023
Si Si6 0.482744 0.451945 0.819980
Si Si7 0.246186 0.438750 0.380701
Si Si8 0.032178 0.329222 0.748936
O O1 0.827862 0.391685 0.518611
O O2 0.953511 0.690053 0.834922
O O3 0.219580 0.603991 0.678777
O O4 0.107721 0.759715 0.072552
O O5 0.711797 0.190368 0.392949
O O6 0.458000 0.256764 0.492090
O O7 0.500000 0.000000 0.000000
O O8 0.477072 0.544701 0.436435
O O9 0.756832 0.673763 0.698572
O O10 0.900090 0.714328 0.557723
O O11 0.771757 0.923345 0.966850
O O12 0.126274 0.851404 0.557962
O O13 0.010457 0.246455 0.734979
O O14 0.276596 0.370036 0.000134
O O15 0.000000 0.000000 0.500000
O O16 0.275720 0.431126 0.811396
O O17 0.500000 0.500000 0.000000
O O18 0.000000 0.500000 0.000000
#
# Coordination Sequence:
#
# PCOD9008190 Si02
#       8
#     2   2   2   2   2   2   2   2
#     4  10  21  39  64  89 127 168 212 261 324 383
#     4  11  22  39  67  97 131 168 221 269 325 394
#     4  10  23  38  60  91 128 164 203 258 331 386
#     4  11  23  39  62  94 131 159 216 267 326 379
#     4  10  23  44  66  93 129 172 225 266 321 391
#     4   9  21  42  66  92 125 177 218 264 324 397
#     4  10  21  40  61  88 127 167 204 254 329 392
#     4  11  24  43  69  93 129 171 218 278 329 386
#
# _framework density 21.591916000000001
#
# number of rings (size 3 to 8) (size 9 to 14) (size 15 to 20)
#    0.000    1.750    1.250    3.000    8.750    0.000 
#   13.500    0.625    0.000    0.000    0.000    0.000 
#    0.000    0.000    0.000    0.000    0.000    0.000 
#
# Total GULP energy -89272.953649 kJ/mol
# GULP energy per Si atom -5579.559603 kJ/mol
# Density = 2.154277 g / cm^3
# Si number density = 21.591916 Si / 1000 Ang^3
#
#
#
# Elastic Constant Matrix: (Units=GPa)
#
#
# Indices 1 2 3 4 5 6 
#
# 1 124.3015 31.8167 15.8929 -4.8700 -19.6838 -3.5591
# 2 31.8167 67.1954 22.3808 -15.8021 -5.6627 -12.7199
# 3 15.8929 22.3808 77.7390 -17.6709 -10.3429 -2.3016
# 4 -4.8700 -15.8021 -17.6709 27.7994 -1.7566 -4.2585
# 5 -19.6838 -5.6627 -10.3429 -1.7566 29.8324 -11.4869
# 6 -3.5591 -12.7199 -2.3016 -4.2585 -11.4869 36.2714
#
#
#
# Elastic Compliance Matrix: (Units=1/GPa)
#
#
# Indices 1 2 3 4 5 6 
#
# 1 0.010146 -0.003834 0.000051 0.000332 0.006703 0.001816
# 2 -0.003834 0.023091 -0.001589 0.013574 0.006434 0.011252
# 3 0.000051 -0.001589 0.017021 0.011094 0.007962 0.004352
# 4 0.000332 0.013574 0.011094 0.054455 0.016430 0.017093
# 5 0.006703 0.006434 0.007962 0.016430 0.051194 0.021561
# 6 0.001816 0.011252 0.004352 0.017093 0.021561 0.040805
#
#
# Mechanical properties :
#
#
# Convention : Reuss Voigt Hill
#
# Bulk Modulus (GPa) = 25.30878 45.49076 35.39977
# Shear Modulus (GPa) = 22.66234 32.05701 27.35968
#
# Velocity S-wave (km/s) = 3.24323 3.85733 3.56353
# Velocity P-wave (km/s) = 5.07657 6.39944 5.77600
#
# Compressibility (1/GPa) = 0.03951198
#
# Stress axis : x y z
#
# Youngs Moduli (GPa) = 98.55659 43.30650 58.75177
#
# Poissons Ratio (x) = 0.16606 -0.00297
# Poissons Ratio (y) = 0.37792 0.09338
# Poissons Ratio (z) = -0.00499 0.06883
#
# Static dielectric constant tensor:
#      x y z
#    x 1.616180 0.058960 0.135260 
#    y 0.058960 1.817060 -0.061530 
#    z 0.135260 -0.061530 1.704800 
# 
# From -- ./inp_files/343658.got.cif
#   From: 2010.05.17/outbox.cif.g08.bks.cpg/sg2_172_cif.got.tgz:343658.got - 2010.06.03 11:33:40.
