data_PCOD9008264
_publ_section_title
;
Structure prediction by ZEFSAII (Michael W. Deem and Ramdas Pophale) SiO2 
 PCOD9008264
Probable space group: P -1
;
_chemical_formula_sum "Si O2"
_cell_formula_units_Z 14
_cell_length_a 5.359732
_cell_length_b 15.855869
_cell_length_c 10.782754
_cell_angle_alpha 43.547730
_cell_angle_beta 85.735447
_cell_angle_gamma 106.070052
_cell_volume 551.847080
_symmetry_space_group_name_H-M "P -1"
_symmetry_group_IT_number 2
_symmetry_cell_setting 'triclinic'
loop_
_space_group_symop_operation_xyz
x,y,z
-x,-y,-z
loop_
_atom_site_type_symbol
_atom_site_label
_atom_site_fract_x
_atom_site_fract_y
_atom_site_fract_z
Si Si1 0.964969 0.588967 0.549212
Si Si2 0.640970 0.895377 0.318346
Si Si3 0.188442 0.149152 0.098843
Si Si4 0.767357 0.680689 0.687360
Si Si5 0.339554 0.457312 0.773851
Si Si6 0.582230 0.160344 0.860998
Si Si7 0.752505 0.065785 0.519976
O O1 0.967866 0.653248 0.615354
O O2 0.626993 0.497124 0.641751
O O3 0.139877 0.506244 0.656841
O O4 0.103802 0.714687 0.311913
O O5 0.698790 0.798381 0.511875
O O6 0.581023 0.816699 0.274254
O O7 0.396249 0.919207 0.363866
O O8 0.915893 0.046105 0.137718
O O9 0.167821 0.055035 0.318670
O O10 0.192364 0.292590 0.972315
O O11 0.461474 0.176210 0.977891
O O12 0.466900 0.538081 0.817805
O O13 0.991818 0.776557 0.683284
O O14 0.500000 0.000000 0.000000
O O15 0.500000 0.000000 0.500000
#
# Coordination Sequence:
#
# PCOD9008264 Si02
#       7
#     2   2   2   2   2   2   2
#     4  10  21  39  64  91 139 178 210 253 328 394
#     4  11  20  41  64  92 131 169 215 272 331 387
#     4  11  26  36  63 101 130 172 217 271 319 398
#     4   9  19  40  66  90 127 176 213 261 324 389
#     4  10  22  41  62  95 138 177 216 258 325 398
#     4  12  20  38  65  98 133 171 218 264 327 387
#     4  11  23  43  67  95 126 169 226 280 329 380
#
# _framework density 25.369350000000001
#
# number of rings (size 3 to 8) (size 9 to 14) (size 15 to 20)
#    0.857    0.571    4.286    1.286    2.000    4.571 
#    0.000    0.714    0.000    2.571    0.000    0.000 
#    0.000    0.000    0.000    0.000    0.000    0.000 
#
# Total GULP energy -78057.634766 kJ/mol
# GULP energy per Si atom -5575.545340 kJ/mol
# Density = 2.531161 g / cm^3
# Si number density = 25.369350 Si / 1000 Ang^3
#
#
#
# Elastic Constant Matrix: (Units=GPa)
#
#
# Indices 1 2 3 4 5 6 
#
# 1 75.3280 12.6131 13.4341 -12.5362 3.6889 -19.2033
# 2 12.6131 105.7539 31.3517 -26.8608 6.8024 -0.8046
# 3 13.4341 31.3517 59.2146 -17.2738 1.5841 -20.6577
# 4 -12.5362 -26.8608 -17.2738 52.6638 -5.8546 2.0660
# 5 3.6889 6.8024 1.5841 -5.8546 25.4291 -7.6339
# 6 -19.2033 -0.8046 -20.6577 2.0660 -7.6339 44.7492
#
#
#
# Elastic Compliance Matrix: (Units=1/GPa)
#
#
# Indices 1 2 3 4 5 6 
#
# 1 0.015624 -0.001188 0.000334 0.003041 0.000781 0.006830
# 2 -0.001188 0.012725 -0.006695 0.003820 -0.003162 -0.004087
# 3 0.000334 -0.006695 0.026231 0.005343 0.005171 0.012767
# 4 0.003041 0.003820 0.005343 0.023802 0.004750 0.003552
# 5 0.000781 -0.003162 0.005171 0.004750 0.043807 0.009919
# 6 0.006830 -0.004087 0.012767 0.003552 0.009919 0.032626
#
#
# Mechanical properties :
#
#
# Convention : Reuss Voigt Hill
#
# Bulk Modulus (GPa) = 25.32846 39.45491 32.39169
# Shear Modulus (GPa) = 27.31142 36.76160 32.03651
#
# Velocity S-wave (km/s) = 3.28464 3.81078 3.55745
# Velocity P-wave (km/s) = 4.93870 5.91174 5.44699
#
# Compressibility (1/GPa) = 0.03948127
#
# Stress axis : x y z
#
# Youngs Moduli (GPa) = 64.00471 78.58571 38.12317
#
# Poissons Ratio (x) = 0.09337 -0.01272
# Poissons Ratio (y) = 0.07604 0.25522
# Poissons Ratio (z) = -0.02135 0.52610
#
# Static dielectric constant tensor:
#      x y z
#    x 2.102160 0.056870 0.009060 
#    y 0.056870 2.071120 0.023600 
#    z 0.009060 0.023600 2.071230 
# 
# From -- ./inp_files/368840.got.cif
#   From: 2010.05.17/outbox.cif.g08.bks.cpg/sg2_185_cif.got.tgz:368840.got - 2010.06.03 11:33:40.
