data_PCOD9008579
_publ_section_title
;
Structure prediction by ZEFSAII (Michael W. Deem and Ramdas Pophale) SiO2 
 PCOD9008579
Probable space group: P -1
;
_chemical_formula_sum "Si O2"
_cell_formula_units_Z 15
_cell_length_a 12.233502
_cell_length_b 12.618106
_cell_length_c 7.671042
_cell_angle_alpha 87.424951
_cell_angle_beta 66.031625
_cell_angle_gamma 36.384989
_cell_volume 548.085468
_symmetry_space_group_name_H-M "P -1"
_symmetry_group_IT_number 2
_symmetry_cell_setting 'triclinic'
loop_
_space_group_symop_operation_xyz
x,y,z
-x,-y,-z
loop_
_atom_site_type_symbol
_atom_site_label
_atom_site_fract_x
_atom_site_fract_y
_atom_site_fract_z
Si Si1 0.964112 0.213011 0.604066
Si Si2 0.846009 0.520486 0.516721
Si Si3 0.678852 0.056572 0.129911
Si Si4 0.129338 0.298147 0.004352
Si Si5 0.500000 0.500000 0.000000
Si Si6 0.545248 0.126338 0.802129
Si Si7 0.471669 0.399795 0.671136
Si Si8 0.092655 0.843719 0.725679
O O1 0.821784 0.432642 0.654214
O O2 0.797260 0.279510 0.839750
O O3 0.992943 0.120373 0.416475
O O4 0.228839 0.052917 0.456044
O O5 0.573478 0.749846 0.626197
O O6 0.000000 0.500000 0.500000
O O7 0.998915 0.372212 0.262467
O O8 0.599367 0.097324 0.974940
O O9 0.834283 0.838622 0.110925
O O10 0.863190 0.012302 0.985603
O O11 0.390608 0.141144 0.881008
O O12 0.000000 0.500000 0.000000
O O13 0.527470 0.436085 0.790892
O O14 0.414112 0.332045 0.801742
O O15 0.266406 0.612967 0.681857
O O16 0.715745 0.208624 0.415848
#
# Coordination Sequence:
#
# PCOD9008579 Si02
#       8
#     2   2   2   2   1   2   2   2
#     4  10  22  40  63  90 126 164 209 262 305 377
#     4  12  23  40  67  92 127 170 212 259 312 369
#     4  11  22  41  67  92 125 168 211 258 312 378
#     4  12  25  43  63  94 131 166 210 265 314 371
#     4  10  22  38  58  96 126 150 212 258 302 376
#     4  11  21  38  66  89 120 171 213 248 315 375
#     4  10  21  39  65  91 123 169 200 263 317 370
#     4   9  20  41  63  88 128 165 206 253 321 371
#
# _framework density 27.367996999999999
#
# number of rings (size 3 to 8) (size 9 to 14) (size 15 to 20)
#    0.000    1.333    4.000    2.800    0.000    6.400 
#    2.400    0.000    0.000   11.200    0.000    0.000 
#    0.000    0.000    0.000    0.000    0.000    0.000 
#
# Total GULP energy -83667.592547 kJ/mol
# GULP energy per Si atom -5577.839503 kJ/mol
# Density = 2.730571 g / cm^3
# Si number density = 27.367997 Si / 1000 Ang^3
#
#
#
# Elastic Constant Matrix: (Units=GPa)
#
#
# Indices 1 2 3 4 5 6 
#
# 1 84.5900 12.7089 34.2449 -12.4231 -27.0318 -6.8618
# 2 12.7089 91.7089 1.0820 -2.6311 -3.0687 27.2109
# 3 34.2449 1.0820 194.4534 35.9688 -25.8831 -19.4276
# 4 -12.4231 -2.6311 35.9688 41.1030 -9.4441 -11.1619
# 5 -27.0318 -3.0687 -25.8831 -9.4441 52.6496 2.5982
# 6 -6.8618 27.2109 -19.4276 -11.1619 2.5982 35.2179
#
#
#
# Elastic Compliance Matrix: (Units=1/GPa)
#
#
# Indices 1 2 3 4 5 6 
#
# 1 0.020144 -0.004710 -0.003831 0.013970 0.010240 0.009122
# 2 -0.004710 0.015636 -0.000053 -0.004663 -0.001659 -0.014383
# 3 -0.003831 -0.000053 0.007287 -0.007201 0.000271 0.001012
# 4 0.013970 -0.004663 -0.007201 0.040793 0.009960 0.014547
# 5 0.010240 -0.001659 0.000271 0.009960 0.025843 0.004677
# 6 0.009122 -0.014383 0.001012 0.014547 0.004677 0.046109
#
#
# Mechanical properties :
#
#
# Convention : Reuss Voigt Hill
#
# Bulk Modulus (GPa) = 38.64024 51.86933 45.25478
# Shear Modulus (GPa) = 27.52927 47.30853 37.41890
#
# Velocity S-wave (km/s) = 3.17502 4.16216 3.70165
# Velocity P-wave (km/s) = 5.25266 6.48782 5.90264
#
# Compressibility (1/GPa) = 0.02587976
#
# Stress axis : x y z
#
# Youngs Moduli (GPa) = 49.64204 63.95642 137.23755
#
# Poissons Ratio (x) = 0.30121 0.52574
# Poissons Ratio (y) = 0.23380 0.00725
# Poissons Ratio (z) = 0.19017 0.00338
#
# Static dielectric constant tensor:
#      x y z
#    x 2.126270 -0.028410 -0.059250 
#    y -0.028410 2.318060 0.017970 
#    z -0.059250 0.017970 2.068330 
# 
# From -- ./inp_files/195404.got.cif
#   From: 2010.05.17/outbox.cif.g08.bks.cpg/sg2_98_cif.got.tgz:195404.got - 2010.06.03 11:33:40.
