data_PCOD9008227
_publ_section_title
;
Structure prediction by ZEFSAII (Michael W. Deem and Ramdas Pophale) SiO2 
 PCOD9008227
Probable space group: P -1
;
_chemical_formula_sum "Si O2"
_cell_formula_units_Z 14
_cell_length_a 16.096064
_cell_length_b 16.166357
_cell_length_c 6.211304
_cell_angle_alpha 123.531427
_cell_angle_beta 136.559230
_cell_angle_gamma 32.233604
_cell_volume 584.293933
_symmetry_space_group_name_H-M "P -1"
_symmetry_group_IT_number 2
_symmetry_cell_setting 'triclinic'
loop_
_space_group_symop_operation_xyz
x,y,z
-x,-y,-z
loop_
_atom_site_type_symbol
_atom_site_label
_atom_site_fract_x
_atom_site_fract_y
_atom_site_fract_z
Si Si1 0.819077 0.885393 0.670727
Si Si2 0.715393 0.149093 0.081087
Si Si3 0.999439 0.696827 0.133778
Si Si4 0.593185 0.340372 0.534010
Si Si5 0.574670 0.918346 0.763323
Si Si6 0.357911 0.357341 0.428349
Si Si7 0.089340 0.816797 0.750640
O O1 0.911722 0.892608 0.667774
O O2 0.637608 0.937651 0.316918
O O3 0.966410 0.723920 0.852415
O O4 0.751080 0.010643 0.901670
O O5 0.705677 0.202149 0.373283
O O6 0.883795 0.095598 0.188467
O O7 0.501347 0.307468 0.811465
O O8 0.135163 0.525596 0.239749
O O9 0.105182 0.728042 0.460715
O O10 0.788625 0.825183 0.023607
O O11 0.500000 0.500000 0.500000
O O12 0.444471 0.357055 0.381687
O O13 0.735683 0.290772 0.911061
O O14 0.614807 0.777113 0.690333
O O15 0.500000 0.000000 0.500000
#
# Coordination Sequence:
#
# PCOD9008227 Si02
#       7
#     2   2   2   2   2   2   2
#     4  10  22  39  59  87 120 158 202 248 299 354
#     4  10  22  39  60  88 125 159 195 248 301 356
#     4  11  22  38  61  87 121 158 199 251 297 350
#     4  11  22  38  61  93 128 158 195 244 302 365
#     4   9  21  42  64  86 118 159 204 252 299 349
#     4  10  21  39  64  91 119 159 202 243 300 360
#     4  11  22  35  59  90 121 160 203 242 298 360
#
# _framework density 23.960543000000001
#
# number of rings (size 3 to 8) (size 9 to 14) (size 15 to 20)
#    0.000    1.714    0.000    4.286    0.000    8.571 
#    0.000    5.714    0.000    9.429    0.000    0.000 
#    0.000    0.000    0.000    0.000    0.000    0.000 
#
# Total GULP energy -78037.836752 kJ/mol
# GULP energy per Si atom -5574.131197 kJ/mol
# Density = 2.390601 g / cm^3
# Si number density = 23.960543 Si / 1000 Ang^3
#
#
#
# Elastic Constant Matrix: (Units=GPa)
#
#
# Indices 1 2 3 4 5 6 
#
# 1 141.6029 13.7696 19.6652 -7.7703 22.2883 10.0807
# 2 13.7696 79.3529 44.6235 -28.2838 0.0826 17.4297
# 3 19.6652 44.6235 111.9765 -26.3326 18.5023 1.6530
# 4 -7.7703 -28.2838 -26.3326 37.4665 5.9889 9.1422
# 5 22.2883 0.0826 18.5023 5.9889 25.3864 1.5736
# 6 10.0807 17.4297 1.6530 9.1422 1.5736 37.8800
#
#
#
# Elastic Compliance Matrix: (Units=1/GPa)
#
#
# Indices 1 2 3 4 5 6 
#
# 1 0.008952 0.000581 0.001186 0.005587 -0.009818 -0.003642
# 2 0.000581 0.026807 -0.005623 0.020655 -0.000305 -0.017216
# 3 0.001186 -0.005623 0.015541 0.009255 -0.014531 -0.000037
# 4 0.005587 0.020655 0.009255 0.059894 -0.024308 -0.024840
# 5 -0.009818 -0.000305 -0.014531 -0.024308 0.063928 0.006598
# 6 -0.003642 -0.017216 -0.000037 -0.024840 0.006598 0.041013
#
#
# Mechanical properties :
#
#
# Convention : Reuss Voigt Hill
#
# Bulk Modulus (GPa) = 22.94177 54.33879 38.64028
# Shear Modulus (GPa) = 20.97529 37.13818 29.05674
#
# Velocity S-wave (km/s) = 2.96194 3.94124 3.48615
# Velocity P-wave (km/s) = 4.61444 6.59082 5.68911
#
# Compressibility (1/GPa) = 0.04358861
#
# Stress axis : x y z
#
# Youngs Moduli (GPa) = 111.70679 37.30350 64.34556
#
# Poissons Ratio (x) = -0.02168 -0.07633
# Poissons Ratio (y) = -0.06492 0.36183
# Poissons Ratio (z) = -0.13251 0.20976
#
# Static dielectric constant tensor:
#      x y z
#    x 1.951030 -0.049800 -0.049790 
#    y -0.049800 1.944010 -0.015090 
#    z -0.049790 -0.015090 1.978020 
# 
# From -- ./inp_files/27856.got.cif
#   From: 2010.05.17/outbox.cif.g08.bks.cpg/sg2_14_cif.got.tgz:27856.got - 2010.06.03 11:33:40.
