data_PCOD9008724
_publ_section_title
;
Structure prediction by ZEFSAII (Michael W. Deem and Ramdas Pophale) SiO2 
 PCOD9008724
Probable space group: P -1
;
_chemical_formula_sum "Si O2"
_cell_formula_units_Z 16
_cell_length_a 10.139955
_cell_length_b 12.248548
_cell_length_c 8.738832
_cell_angle_alpha 76.986734
_cell_angle_beta 75.644757
_cell_angle_gamma 47.778100
_cell_volume 776.066872
_symmetry_space_group_name_H-M "P -1"
_symmetry_group_IT_number 2
_symmetry_cell_setting 'triclinic'
loop_
_space_group_symop_operation_xyz
x,y,z
-x,-y,-z
loop_
_atom_site_type_symbol
_atom_site_label
_atom_site_fract_x
_atom_site_fract_y
_atom_site_fract_z
Si Si1 0.935554 0.425072 0.947285
Si Si2 0.208341 0.868124 0.489291
Si Si3 0.439084 0.886283 0.202225
Si Si4 0.189965 0.434149 0.390918
Si Si5 0.454388 0.389853 0.924532
Si Si6 0.647155 0.420694 0.616401
Si Si7 0.420589 0.803763 0.743487
Si Si8 0.730840 0.912450 0.112653
O O1 0.868278 0.511906 0.781245
O O2 0.082210 0.251477 0.920523
O O3 0.755801 0.468632 0.056538
O O4 0.000000 0.500000 0.000000
O O5 0.311732 0.915401 0.364777
O O6 0.230718 0.747023 0.416844
O O7 0.301731 0.806736 0.647419
O O8 0.000000 0.000000 0.500000
O O9 0.526644 0.727196 0.157054
O O10 0.592854 0.888748 0.205833
O O11 0.330480 0.003343 0.059184
O O12 0.252981 0.515694 0.425097
O O13 0.384870 0.265888 0.366737
O O14 0.000000 0.500000 0.500000
O O15 0.565680 0.429522 0.801479
O O16 0.530111 0.302509 0.092025
O O17 0.500000 0.500000 0.500000
O O18 0.302746 0.970014 0.792967
#
# Coordination Sequence:
#
# PCOD9008724 Si02
#       8
#     2   2   2   2   2   2   2   2
#     4  11  23  39  68 101 132 175 230 277 325 405
#     4  11  25  43  65  94 133 176 229 269 339 405
#     4   9  20  40  63  89 129 174 216 271 330 398
#     4  11  27  45  67 103 136 173 228 276 336 405
#     4   9  21  43  66  91 133 174 228 276 335 392
#     4  11  24  46  70  95 133 184 221 281 342 392
#     4  10  23  44  64  97 137 176 219 287 329 398
#     4  10  21  39  65  95 132 173 214 273 343 381
#
# _framework density 20.616779000000001
#
# number of rings (size 3 to 8) (size 9 to 14) (size 15 to 20)
#    0.000    1.750    2.500    0.000    7.000    4.500 
#    2.250    1.875    0.000    0.000    0.000    0.000 
#    0.000    0.000    0.000    0.000    0.000    0.000 
#
# Total GULP energy -89251.264007 kJ/mol
# GULP energy per Si atom -5578.204000 kJ/mol
# Density = 2.056985 g / cm^3
# Si number density = 20.616779 Si / 1000 Ang^3
#
#
#
# Elastic Constant Matrix: (Units=GPa)
#
#
# Indices 1 2 3 4 5 6 
#
# 1 119.1072 54.3722 53.0442 13.9012 0.6888 -4.3400
# 2 54.3722 151.7473 25.5324 31.3744 -9.3546 -20.5011
# 3 53.0442 25.5324 79.1968 13.9097 -9.0847 -12.0943
# 4 13.9012 31.3744 13.9097 23.5332 1.4668 -1.2102
# 5 0.6888 -9.3546 -9.0847 1.4668 30.2787 4.1661
# 6 -4.3400 -20.5011 -12.0943 -1.2102 4.1661 41.0309
#
#
#
# Elastic Compliance Matrix: (Units=1/GPa)
#
#
# Indices 1 2 3 4 5 6 
#
# 1 0.014567 -0.005176 -0.009880 0.004252 -0.004638 -0.003361
# 2 -0.005176 0.012017 0.003669 -0.015150 0.004896 0.005595
# 3 -0.009880 0.003669 0.022035 -0.012245 0.007718 0.006139
# 4 0.004252 -0.015150 -0.012245 0.067689 -0.010678 -0.007649
# 5 -0.004638 0.004896 0.007718 -0.010678 0.037462 0.000112
# 6 -0.003361 0.005595 0.006139 -0.007649 0.000112 0.028384
#
#
# Mechanical properties :
#
#
# Convention : Reuss Voigt Hill
#
# Bulk Modulus (GPa) = 38.69213 68.43877 53.56545
# Shear Modulus (GPa) = 23.41453 33.44204 28.42828
#
# Velocity S-wave (km/s) = 3.37367 4.03187 3.71737
# Velocity P-wave (km/s) = 5.82955 7.41231 6.66806
#
# Compressibility (1/GPa) = 0.02584505
#
# Stress axis : x y z
#
# Youngs Moduli (GPa) = 68.64900 83.21470 45.38306
#
# Poissons Ratio (x) = 0.43074 0.44838
# Poissons Ratio (y) = 0.35535 -0.16653
# Poissons Ratio (z) = 0.67825 -0.30536
#
# Static dielectric constant tensor:
#      x y z
#    x 1.754450 -0.042600 -0.040730 
#    y -0.042600 1.804400 0.034900 
#    z -0.040730 0.034900 1.753640 
# 
# From -- ./inp_files/186610.got.cif
#   From: 2010.05.17/outbox.cif.g08.bks.cpg/sg2_94_cif.got.tgz:186610.got - 2010.06.03 11:33:40.
