data_PCOD9008709
_publ_section_title
;
Structure prediction by ZEFSAII (Michael W. Deem and Ramdas Pophale) SiO2 
 PCOD9008709
Probable space group: P -1
;
_chemical_formula_sum "Si O2"
_cell_formula_units_Z 16
_cell_length_a 9.553879
_cell_length_b 11.253334
_cell_length_c 18.906569
_cell_angle_alpha 149.567613
_cell_angle_beta 114.437504
_cell_angle_gamma 52.788614
_cell_volume 790.203061
_symmetry_space_group_name_H-M "P -1"
_symmetry_group_IT_number 2
_symmetry_cell_setting 'triclinic'
loop_
_space_group_symop_operation_xyz
x,y,z
-x,-y,-z
loop_
_atom_site_type_symbol
_atom_site_label
_atom_site_fract_x
_atom_site_fract_y
_atom_site_fract_z
Si Si1 0.613905 0.165254 0.358969
Si Si2 0.075275 0.171176 0.561011
Si Si3 0.630797 0.262761 0.807212
Si Si4 0.532111 0.044854 0.435206
Si Si5 0.584481 0.101658 0.869920
Si Si6 0.874353 0.439668 0.389367
Si Si7 0.033805 0.227568 0.158441
Si Si8 0.968594 0.066174 0.340268
O O1 0.500000 0.500000 0.500000
O O2 0.580957 0.100229 0.396955
O O3 0.831133 0.989072 0.303050
O O4 0.524900 0.047978 0.229958
O O5 0.031422 0.470059 0.734726
O O6 0.985383 0.231008 0.494725
O O7 0.295421 0.997269 0.507466
O O8 0.000000 0.000000 0.500000
O O9 0.654115 0.104222 0.805552
O O10 0.491332 0.217293 0.709111
O O11 0.540597 0.580917 0.970737
O O12 0.825292 0.142802 0.749203
O O13 0.325154 0.296153 0.533723
O O14 0.750817 0.936721 0.872182
O O15 0.858119 0.237376 0.335849
O O16 0.000000 0.500000 0.500000
O O17 0.956650 0.299269 0.259524
O O18 0.000000 0.000000 0.000000
#
# Coordination Sequence:
#
# PCOD9008709 Si02
#       8
#     2   2   2   2   2   2   2   2
#     4  11  21  36  65  96 125 177 225 278 333 409
#     4  12  26  42  65 101 144 182 222 282 351 413
#     4  10  21  39  65  95 124 166 233 283 332 397
#     4  11  22  38  66  96 132 170 227 277 340 402
#     4  10  22  40  63  92 131 175 221 278 344 408
#     4  12  21  42  72 102 126 178 238 286 323 408
#     4  12  25  43  70 101 144 178 228 289 355 401
#     4  12  22  40  69  98 134 170 236 287 331 403
#
# _framework density 20.247958000000001
#
# number of rings (size 3 to 8) (size 9 to 14) (size 15 to 20)
#    0.000    0.750    6.250    2.250    0.000    3.500 
#    0.000    1.250    0.000    2.250    0.000    0.000 
#    0.000    0.000    0.000    0.000    0.000    0.000 
#
# Total GULP energy -89157.444712 kJ/mol
# GULP energy per Si atom -5572.340295 kJ/mol
# Density = 2.020187 g / cm^3
# Si number density = 20.247958 Si / 1000 Ang^3
#
#
#
# Elastic Constant Matrix: (Units=GPa)
#
#
# Indices 1 2 3 4 5 6 
#
# 1 131.5468 35.3016 68.9580 -2.5610 4.5891 -21.5924
# 2 35.3016 72.8035 34.8411 -4.9553 15.5600 -11.4014
# 3 68.9580 34.8411 121.1433 -3.0949 14.3300 -4.9056
# 4 -2.5610 -4.9553 -3.0949 28.3705 -2.1929 5.1939
# 5 4.5891 15.5600 14.3300 -2.1929 27.9404 -8.0927
# 6 -21.5924 -11.4014 -4.9056 5.1939 -8.0927 44.2451
#
#
#
# Elastic Compliance Matrix: (Units=1/GPa)
#
#
# Indices 1 2 3 4 5 6 
#
# 1 0.012667 -0.003128 -0.006653 -0.000792 0.004627 0.005577
# 2 -0.003128 0.018475 -0.002490 0.001821 -0.007983 0.001284
# 3 -0.006653 -0.002490 0.013258 0.000636 -0.005271 -0.003457
# 4 -0.000792 0.001821 0.000636 0.036338 0.000476 -0.004025
# 5 0.004627 -0.007983 -0.005271 0.000476 0.044444 0.007690
# 6 0.005577 0.001284 -0.003457 -0.004025 0.007690 0.027150
#
#
# Mechanical properties :
#
#
# Convention : Reuss Voigt Hill
#
# Bulk Modulus (GPa) = 50.35579 67.07723 58.71651
# Shear Modulus (GPa) = 27.24899 32.53739 29.89319
#
# Velocity S-wave (km/s) = 3.67245 4.01302 3.84651
# Velocity P-wave (km/s) = 6.55027 7.39407 6.98492
#
# Compressibility (1/GPa) = 0.01985869
#
# Stress axis : x y z
#
# Youngs Moduli (GPa) = 78.94359 54.12644 75.42854
#
# Poissons Ratio (x) = 0.16930 0.50180
# Poissons Ratio (y) = 0.24692 0.18784
# Poissons Ratio (z) = 0.52518 0.13479
#
# Static dielectric constant tensor:
#      x y z
#    x 1.795890 -0.000430 0.021230 
#    y -0.000430 1.802820 0.005180 
#    z 0.021230 0.005180 1.744540 
# 
# From -- ./inp_files/588828.got.cif
#   From: 2010.05.17/outbox.cif.g08.bks.cpg/sg2_295_cif.got.tgz:588828.got - 2010.06.03 11:33:40.
