data_PCOD9008707
_publ_section_title
;
Structure prediction by ZEFSAII (Michael W. Deem and Ramdas Pophale) SiO2 
 PCOD9008707
Probable space group: P -1
;
_chemical_formula_sum "Si O2"
_cell_formula_units_Z 15
_cell_length_a 7.447952
_cell_length_b 20.004929
_cell_length_c 10.987355
_cell_angle_alpha 32.287517
_cell_angle_beta 81.558048
_cell_angle_gamma 58.554355
_cell_volume 569.725366
_symmetry_space_group_name_H-M "P -1"
_symmetry_group_IT_number 2
_symmetry_cell_setting 'triclinic'
loop_
_space_group_symop_operation_xyz
x,y,z
-x,-y,-z
loop_
_atom_site_type_symbol
_atom_site_label
_atom_site_fract_x
_atom_site_fract_y
_atom_site_fract_z
Si Si1 0.199448 0.621867 0.483392
Si Si2 0.106705 0.007069 0.186234
Si Si3 0.000000 0.500000 0.000000
Si Si4 0.258633 0.642054 0.709059
Si Si5 0.331388 0.263255 0.568173
Si Si6 0.871236 0.852193 0.813140
Si Si7 0.738780 0.830045 0.602138
Si Si8 0.257015 0.451533 0.511544
O O1 0.906050 0.709764 0.410140
O O2 0.349118 0.562649 0.687032
O O3 0.352780 0.456807 0.623212
O O4 0.126905 0.793756 0.167063
O O5 0.130385 0.847502 0.406264
O O6 0.386733 0.925034 0.232304
O O7 0.088527 0.042423 0.277647
O O8 0.804355 0.586065 0.758643
O O9 0.720411 0.689624 0.823182
O O10 0.994809 0.688072 0.697277
O O11 0.500000 0.500000 0.000000
O O12 0.415572 0.291529 0.639806
O O13 0.851908 0.848835 0.675405
O O14 0.563430 0.961968 0.714017
O O15 0.108737 0.640648 0.163921
O O16 0.000000 0.500000 0.500000
#
# Coordination Sequence:
#
# PCOD9008707 Si02
#       8
#     2   2   1   2   2   2   2   2
#     4  10  22  42  63  91 129 164 221 262 314 381
#     4  11  23  40  66  90 129 171 209 266 320 384
#     4  12  18  34  66  96 128 156 210 264 314 362
#     4  12  26  42  64  93 130 172 214 256 324 389
#     4  11  20  37  69  98 124 166 215 269 317 373
#     4  10  21  39  65  95 124 159 214 266 320 362
#     4  11  23  39  66  95 127 163 209 268 318 379
#     4   9  20  36  62  95 125 155 206 271 316 372
#
# _framework density 26.328475999999998
#
# number of rings (size 3 to 8) (size 9 to 14) (size 15 to 20)
#    0.000    1.333    4.000    1.600    0.000    2.667 
#    2.400    0.667    2.933    0.000    0.000    0.000 
#    0.000    0.000    0.000    0.000    0.000    0.000 
#
# Total GULP energy -83646.586282 kJ/mol
# GULP energy per Si atom -5576.439085 kJ/mol
# Density = 2.626855 g / cm^3
# Si number density = 26.328476 Si / 1000 Ang^3
#
#
#
# Elastic Constant Matrix: (Units=GPa)
#
#
# Indices 1 2 3 4 5 6 
#
# 1 105.2990 31.6795 13.5760 2.3557 -7.9882 -3.5177
# 2 31.6795 236.1572 46.7626 13.3167 4.3321 49.2659
# 3 13.5760 46.7626 43.6321 10.3102 -5.3585 -0.7145
# 4 2.3557 13.3167 10.3102 35.2079 5.0831 13.2490
# 5 -7.9882 4.3321 -5.3585 5.0831 29.7930 -8.7701
# 6 -3.5177 49.2659 -0.7145 13.2490 -8.7701 49.8731
#
#
#
# Elastic Compliance Matrix: (Units=1/GPa)
#
#
# Indices 1 2 3 4 5 6 
#
# 1 0.010801 -0.002579 0.000747 -0.002591 0.005302 0.004940
# 2 -0.002579 0.009578 -0.012346 0.006461 -0.009284 -0.013169
# 3 0.000747 -0.012346 0.043049 -0.018740 0.019181 0.021216
# 4 -0.002591 0.006461 -0.018740 0.042318 -0.018503 -0.021329
# 5 0.005302 -0.009284 0.019181 -0.018503 0.049862 0.023503
# 6 0.004940 -0.013169 0.021216 -0.021329 0.023503 0.043511
#
#
# Mechanical properties :
#
#
# Convention : Reuss Voigt Hill
#
# Bulk Modulus (GPa) = 28.51096 63.23605 45.87351
# Shear Modulus (GPa) = 20.90605 42.51284 31.70944
#
# Velocity S-wave (km/s) = 2.82094 4.02270 3.47418
# Velocity P-wave (km/s) = 4.63279 6.75622 5.79263
#
# Compressibility (1/GPa) = 0.03507423
#
# Stress axis : x y z
#
# Youngs Moduli (GPa) = 92.58011 104.40291 23.22933
#
# Poissons Ratio (x) = 0.26922 -0.01735
# Poissons Ratio (y) = 0.23874 0.28678
# Poissons Ratio (z) = -0.06916 1.28892
#
# Static dielectric constant tensor:
#      x y z
#    x 2.476250 0.010360 -0.267620 
#    y 0.010360 2.065000 -0.002370 
#    z -0.267620 -0.002370 2.301590 
# 
# From -- ./inp_files/401015.got.cif
#   From: 2010.05.17/outbox.cif.g08.bks.cpg/sg2_201_cif.got.tgz:401015.got - 2010.06.03 11:33:40.
