data_PCOD9008446
_publ_section_title
;
Structure prediction by ZEFSAII (Michael W. Deem and Ramdas Pophale) SiO2 
 PCOD9008446
Probable space group: P -1
;
_chemical_formula_sum "Si O2"
_cell_formula_units_Z 14
_cell_length_a 9.302578
_cell_length_b 11.647133
_cell_length_c 9.582131
_cell_angle_alpha 142.945062
_cell_angle_beta 62.866632
_cell_angle_gamma 123.535971
_cell_volume 521.227632
_symmetry_space_group_name_H-M "P -1"
_symmetry_group_IT_number 2
_symmetry_cell_setting 'triclinic'
loop_
_space_group_symop_operation_xyz
x,y,z
-x,-y,-z
loop_
_atom_site_type_symbol
_atom_site_label
_atom_site_fract_x
_atom_site_fract_y
_atom_site_fract_z
Si Si1 0.274587 0.501450 0.438792
Si Si2 0.036091 0.667752 0.031132
Si Si3 0.079506 0.022371 0.695627
Si Si4 0.425612 0.313716 0.958718
Si Si5 0.099078 0.649800 0.451016
Si Si6 0.679428 0.807321 0.708080
Si Si7 0.430191 0.917865 0.141703
O O1 0.395540 0.423763 0.216200
O O2 0.249658 0.682513 0.530200
O O3 0.321905 0.423805 0.493444
O O4 0.070397 0.363677 0.399103
O O5 0.955810 0.558588 0.815708
O O6 0.241737 0.771698 0.031533
O O7 0.000000 0.500000 0.000000
O O8 0.939672 0.824980 0.267413
O O9 0.124267 0.818759 0.484011
O O10 0.237440 0.165923 0.854661
O O11 0.881296 0.946889 0.763128
O O12 0.500000 0.500000 0.000000
O O13 0.535376 0.171468 0.812602
O O14 0.592885 0.862427 0.659853
O O15 0.576703 0.890178 0.949137
#
# Coordination Sequence:
#
# PCOD9008446 Si02
#       7
#     2   2   2   2   2   2   2
#     4   9  19  38  61  91 127 156 210 266 296 370
#     4  11  22  40  65  88 129 175 206 254 319 382
#     4  10  21  39  66  90 120 169 212 258 308 374
#     4  11  21  38  65  93 129 169 209 254 323 380
#     4  10  21  39  64  98 120 158 226 257 304 371
#     4   8  17  36  56  87 122 156 210 248 312 355
#     4   9  19  34  58  92 123 162 208 258 309 369
#
# _framework density 26.859665
#
# number of rings (size 3 to 8) (size 9 to 14) (size 15 to 20)
#    0.000    2.286    1.429    0.857    0.000    5.714 
#   12.857    7.143    6.286    0.000    0.000    0.000 
#    0.000    0.000    0.000    0.000    0.000    0.000 
#
# Total GULP energy -77935.264997 kJ/mol
# GULP energy per Si atom -5566.804643 kJ/mol
# Density = 2.679853 g / cm^3
# Si number density = 26.859665 Si / 1000 Ang^3
#
#
#
# Elastic Constant Matrix: (Units=GPa)
#
#
# Indices 1 2 3 4 5 6 
#
# 1 229.6571 68.2907 58.3842 42.9149 -28.1228 -31.1964
# 2 68.2907 49.6021 16.2872 -19.0331 -15.3193 -36.5186
# 3 58.3842 16.2872 63.7200 -5.9404 0.7947 -17.0606
# 4 42.9149 -19.0331 -5.9404 -3.9921 -2.0764 -33.5487
# 5 -28.1228 -15.3193 0.7947 -2.0764 49.3078 30.4699
# 6 -31.1964 -36.5186 -17.0606 -33.5487 30.4699 68.7330
#
#
#
# Elastic Compliance Matrix: (Units=1/GPa)
#
#
# Indices 1 2 3 4 5 6 
#
# 1 0.004221 0.000695 -0.002229 0.006056 0.000024 0.004677
# 2 0.000695 0.014371 -0.007084 -0.015601 0.007158 -0.004596
# 3 -0.002229 -0.007084 0.018736 -0.005335 -0.003185 -0.001317
# 4 0.006056 -0.015601 -0.005335 -0.005192 0.005898 -0.012013
# 5 0.000024 0.007158 -0.003185 0.005898 0.026404 -0.005803
# 6 0.004677 -0.004596 -0.001317 -0.012013 -0.005803 0.010612
#
#
# Mechanical properties :
#
#
# Convention : Reuss Voigt Hill
#
# Bulk Modulus (GPa) = 49.77046 69.87816 59.82431
# Shear Modulus (GPa) = 53.71466 36.14419 44.92943
#
# Velocity S-wave (km/s) = 4.47679 3.67231 4.09436
# Velocity P-wave (km/s) = 6.72995 6.63730 6.68379
#
# Compressibility (1/GPa) = 0.02009224
#
# Stress axis : x y z
#
# Youngs Moduli (GPa) = 236.92348 69.58650 53.37290
#
# Poissons Ratio (x) = -0.04838 0.11894
# Poissons Ratio (y) = -0.16474 0.37812
# Poissons Ratio (z) = 0.52799 0.49298
#
# Static dielectric constant tensor:
#      x y z
#    x 2.175910 -0.086430 0.004250 
#    y -0.086430 2.374870 0.084360 
#    z 0.004250 0.084360 2.244190 
# 
# From -- ./inp_files/352232.got.cif
#   From: 2010.05.17/outbox.cif.g08.bks.cpg/sg2_177_cif.got.tgz:352232.got - 2010.06.03 11:33:40.
