data_PCOD9008296
_publ_section_title
;
Structure prediction by ZEFSAII (Michael W. Deem and Ramdas Pophale) SiO2 
 PCOD9008296
Probable space group: P -1
;
_chemical_formula_sum "Si O2"
_cell_formula_units_Z 16
_cell_length_a 22.030801
_cell_length_b 13.082672
_cell_length_c 9.931691
_cell_angle_alpha 134.725965
_cell_angle_beta 34.391754
_cell_angle_gamma 152.467129
_cell_volume 743.105018
_symmetry_space_group_name_H-M "P -1"
_symmetry_group_IT_number 2
_symmetry_cell_setting 'triclinic'
loop_
_space_group_symop_operation_xyz
x,y,z
-x,-y,-z
loop_
_atom_site_type_symbol
_atom_site_label
_atom_site_fract_x
_atom_site_fract_y
_atom_site_fract_z
Si Si1 0.857028 0.894850 0.562603
Si Si2 0.313567 0.778670 0.955373
Si Si3 0.057119 0.720058 0.870513
Si Si4 0.705560 0.031394 0.084319
Si Si5 0.455058 0.583637 0.263189
Si Si6 0.619177 0.672800 0.325675
Si Si7 0.060558 0.057867 0.093907
Si Si8 0.681459 0.048780 0.612900
O O1 0.737253 0.634450 0.554530
O O2 0.766283 0.946103 0.823377
O O3 0.000000 0.000000 0.500000
O O4 0.936637 0.005296 0.374338
O O5 0.328140 0.888955 0.896366
O O6 0.137371 0.515650 0.012546
O O7 0.295381 0.851807 0.194237
O O8 0.492362 0.883036 0.750736
O O9 0.073404 0.909435 0.994001
O O10 0.174937 0.764103 0.583582
O O11 0.149078 0.780488 0.900258
O O12 0.536823 0.811649 0.267200
O O13 0.532628 0.634240 0.312857
O O14 0.500000 0.500000 0.000000
O O15 0.500000 0.500000 0.500000
O O16 0.752135 0.695514 0.043470
O O17 0.701347 0.897635 0.448907
O O18 0.000000 0.000000 0.000000
#
# Coordination Sequence:
#
# PCOD9008296 Si02
#       8
#     2   2   2   2   2   2   2   2
#     4  11  22  41  63  98 136 164 210 269 334 395
#     4  11  26  45  68  92 130 184 227 276 335 389
#     4  11  23  46  67  95 134 173 228 281 324 402
#     4  11  23  44  66  98 133 175 225 267 333 405
#     4  10  21  39  64  92 132 168 204 274 324 390
#     4  11  23  41  67  96 129 168 213 269 338 395
#     4  11  23  38  64 101 128 164 212 268 336 398
#     4  10  25  47  64  96 134 168 231 282 327 401
#
# _framework density 21.531278
#
# number of rings (size 3 to 8) (size 9 to 14) (size 15 to 20)
#    0.000    1.250    3.750    2.250   10.500    0.500 
#    2.250    0.000    0.000    0.000    0.000    0.000 
#    0.000    0.000    0.000    0.000    0.000    0.000 
#
# Total GULP energy -89212.378111 kJ/mol
# GULP energy per Si atom -5575.773632 kJ/mol
# Density = 2.148227 g / cm^3
# Si number density = 21.531278 Si / 1000 Ang^3
#
#
#
# Elastic Constant Matrix: (Units=GPa)
#
#
# Indices 1 2 3 4 5 6 
#
# 1 96.2400 16.9805 33.2745 -9.1779 27.4596 6.8665
# 2 16.9805 90.5838 38.9072 -33.7871 10.0202 13.5612
# 3 33.2745 38.9072 115.8409 -23.1757 27.6229 1.4074
# 4 -9.1779 -33.7871 -23.1757 41.0813 0.1028 2.9231
# 5 27.4596 10.0202 27.6229 0.1028 38.3863 -7.4569
# 6 6.8665 13.5612 1.4074 2.9231 -7.4569 33.3776
#
#
#
# Elastic Compliance Matrix: (Units=1/GPa)
#
#
# Indices 1 2 3 4 5 6 
#
# 1 0.014624 0.001646 -0.001041 0.004531 -0.011433 -0.006585
# 2 0.001646 0.020491 -0.002080 0.016898 -0.007347 -0.011698
# 3 -0.001041 -0.002080 0.012677 0.005355 -0.008194 -0.001775
# 4 0.004531 0.016898 0.005355 0.043381 -0.014550 -0.015073
# 5 -0.011433 -0.007347 -0.008194 -0.014550 0.045405 0.017101
# 6 -0.006585 -0.011698 -0.001775 -0.015073 0.017101 0.041283
#
#
# Mechanical properties :
#
#
# Convention : Reuss Voigt Hill
#
# Bulk Modulus (GPa) = 22.30036 53.44323 37.87180
# Shear Modulus (GPa) = 25.54160 36.80255 31.17207
#
# Velocity S-wave (km/s) = 3.44794 4.13880 3.80907
# Velocity P-wave (km/s) = 5.12160 6.90758 6.08052
#
# Compressibility (1/GPa) = 0.04484232
#
# Stress axis : x y z
#
# Youngs Moduli (GPa) = 68.37973 48.80162 78.88306
#
# Poissons Ratio (x) = -0.08034 0.08210
# Poissons Ratio (y) = -0.11257 0.16412
# Poissons Ratio (z) = 0.07116 0.10153
#
# Static dielectric constant tensor:
#      x y z
#    x 1.749820 -0.046380 0.001860 
#    y -0.046380 1.802240 0.050950 
#    z 0.001860 0.050950 1.871050 
# 
# From -- ./inp_files/346336.got.cif
#   From: 2010.05.17/outbox.cif.g08.bks.cpg/sg2_174_cif.got.tgz:346336.got - 2010.06.03 11:33:40.
