data_PCOD9008030
_publ_section_title
;
Structure prediction by ZEFSAII (Michael W. Deem and Ramdas Pophale) SiO2 
 PCOD9008030
Probable space group: P -1
;
_chemical_formula_sum "Si O2"
_cell_formula_units_Z 16
_cell_length_a 9.019575
_cell_length_b 16.883157
_cell_length_c 11.876415
_cell_angle_alpha 41.897069
_cell_angle_beta 46.504135
_cell_angle_gamma 31.681319
_cell_volume 626.477349
_symmetry_space_group_name_H-M "P -1"
_symmetry_group_IT_number 2
_symmetry_cell_setting 'triclinic'
loop_
_space_group_symop_operation_xyz
x,y,z
-x,-y,-z
loop_
_atom_site_type_symbol
_atom_site_label
_atom_site_fract_x
_atom_site_fract_y
_atom_site_fract_z
Si Si1 0.420711 0.662505 0.404699
Si Si2 0.721843 0.540413 0.967933
Si Si3 0.798122 0.949248 0.382840
Si Si4 0.953032 0.119931 0.232360
Si Si5 0.822057 0.391028 0.861995
Si Si6 0.589901 0.197896 0.541255
Si Si7 0.627413 0.746552 0.002649
Si Si8 0.263878 0.121616 0.741700
O O1 0.500000 0.500000 0.500000
O O2 0.572566 0.644242 0.460465
O O3 0.506330 0.713189 0.202021
O O4 0.077864 0.794459 0.469495
O O5 0.775452 0.527806 0.816765
O O6 0.031866 0.380639 0.023652
O O7 0.477954 0.538696 0.098819
O O8 0.608258 0.692019 0.946996
O O9 0.881592 0.884760 0.279278
O O10 0.500000 0.000000 0.500000
O O11 0.800677 0.087256 0.263629
O O12 0.802772 0.181461 0.366837
O O13 0.945808 0.245640 0.040478
O O14 0.261412 0.942641 0.290294
O O15 0.045710 0.284093 0.759941
O O16 0.466462 0.148775 0.574791
O O17 0.453866 0.940238 0.889761
#
# Coordination Sequence:
#
# PCOD9008030 Si02
#       8
#     2   2   2   2   2   2   2   2
#     4  11  26  43  65  95 139 176 218 266 332 400
#     4  10  24  42  63  97 135 170 214 265 347 390
#     4  11  23  42  66  99 130 173 218 276 332 384
#     4  10  21  39  63  94 128 171 220 265 327 385
#     4  11  23  40  67  97 133 171 216 281 322 395
#     4  10  22  40  64  97 126 173 220 269 323 386
#     4  11  24  44  68  99 129 179 221 275 325 396
#     4  12  23  43  74 100 130 167 234 279 320 384
#
# _framework density 25.539632000000001
#
# number of rings (size 3 to 8) (size 9 to 14) (size 15 to 20)
#    0.000    1.250    1.250    4.500    1.750    6.000 
#    0.000    0.625    0.000    0.000    0.000    0.000 
#    0.000    0.000    0.000    0.000    0.000    0.000 
#
# Total GULP energy -89369.629159 kJ/mol
# GULP energy per Si atom -5585.601822 kJ/mol
# Density = 2.548150 g / cm^3
# Si number density = 25.539632 Si / 1000 Ang^3
#
#
#
# Elastic Constant Matrix: (Units=GPa)
#
#
# Indices 1 2 3 4 5 6 
#
# 1 132.7388 29.4454 -6.1566 0.2854 7.1523 40.4664
# 2 29.4454 102.1825 3.7011 4.8528 2.3174 36.3741
# 3 -6.1566 3.7011 45.4450 -3.5615 7.7693 11.9113
# 4 0.2854 4.8528 -3.5615 30.9351 2.4628 2.8659
# 5 7.1523 2.3174 7.7693 2.4628 17.5440 0.1467
# 6 40.4664 36.3741 11.9113 2.8659 0.1467 69.0639
#
#
#
# Elastic Compliance Matrix: (Units=1/GPa)
#
#
# Indices 1 2 3 4 5 6 
#
# 1 0.010159 -0.000762 0.004268 0.001590 -0.006101 -0.006340
# 2 -0.000762 0.012223 0.000629 -0.001169 -0.001367 -0.006048
# 3 0.004268 0.000629 0.027439 0.004900 -0.014597 -0.007736
# 4 0.001590 -0.001169 0.004900 0.033884 -0.007399 -0.002552
# 5 -0.006101 -0.001367 -0.014597 -0.007399 0.067112 0.006977
# 6 -0.006340 -0.006048 -0.007736 -0.002552 0.006977 0.022804
#
#
# Mechanical properties :
#
#
# Convention : Reuss Voigt Hill
#
# Bulk Modulus (GPa) = 17.21529 37.14957 27.18243
# Shear Modulus (GPa) = 27.06867 40.40037 33.73452
#
# Velocity S-wave (km/s) = 3.25910 3.98159 3.63832
# Velocity P-wave (km/s) = 4.57357 5.97619 5.32129
#
# Compressibility (1/GPa) = 0.05808789
#
# Stress axis : x y z
#
# Youngs Moduli (GPa) = 98.43789 81.81545 36.44480
#
# Poissons Ratio (x) = 0.06237 -0.15553
# Poissons Ratio (y) = 0.07504 -0.02291
# Poissons Ratio (z) = -0.42010 -0.05143
#
# Static dielectric constant tensor:
#      x y z
#    x 2.083960 -0.021840 -0.027420 
#    y -0.021840 2.139860 0.049180 
#    z -0.027420 0.049180 2.043540 
# 
# From -- ./inp_files/398539.got.cif
#   From: 2010.05.17/outbox.cif.g08.bks.cpg/sg2_200_cif.got.tgz:398539.got - 2010.06.03 11:33:40.
