data_PCOD9008790
_publ_section_title
;
Structure prediction by ZEFSAII (Michael W. Deem and Ramdas Pophale) SiO2 
 PCOD9008790
Probable space group: P -1
;
_chemical_formula_sum "Si O2"
_cell_formula_units_Z 14
_cell_length_a 14.725735
_cell_length_b 8.845913
_cell_length_c 14.425649
_cell_angle_alpha 139.311494
_cell_angle_beta 150.863474
_cell_angle_gamma 45.515059
_cell_volume 592.103263
_symmetry_space_group_name_H-M "P -1"
_symmetry_group_IT_number 2
_symmetry_cell_setting 'triclinic'
loop_
_space_group_symop_operation_xyz
x,y,z
-x,-y,-z
loop_
_atom_site_type_symbol
_atom_site_label
_atom_site_fract_x
_atom_site_fract_y
_atom_site_fract_z
Si Si1 0.133224 0.767479 0.999197
Si Si2 0.311061 0.590053 0.270098
Si Si3 0.623766 0.924396 0.982669
Si Si4 0.095057 0.645370 0.729838
Si Si5 0.958915 0.079842 0.691595
Si Si6 0.354218 0.219830 0.750833
Si Si7 0.481107 0.995126 0.371042
O O1 0.208374 0.661574 0.113330
O O2 0.298635 0.868527 0.135873
O O3 0.030614 0.615234 0.764544
O O4 0.000000 0.000000 0.000000
O O5 0.158181 0.686412 0.258283
O O6 0.484069 0.745587 0.508804
O O7 0.391954 0.322954 0.198531
O O8 0.850259 0.903239 0.187960
O O9 0.500000 0.000000 0.000000
O O10 0.539330 0.116996 0.922633
O O11 0.297256 0.490029 0.841923
O O12 0.000000 0.500000 0.500000
O O13 0.042065 0.909952 0.771319
O O14 0.809727 0.939099 0.439689
O O15 0.366337 0.165414 0.626782
O O16 0.500000 0.000000 0.500000
#
# Coordination Sequence:
#
# PCOD9008790 Si02
#       7
#     2   2   2   2   2   2   2
#     4  11  20  37  65  97 126 163 218 267 331 388
#     4  10  22  43  63  94 131 170 221 272 323 397
#     4  12  26  43  62  92 133 179 225 268 325 401
#     4  10  21  39  65  98 130 165 212 276 332 388
#     4  10  22  42  65  93 126 171 222 274 327 391
#     4  10  23  42  64  94 133 170 217 268 341 386
#     4   9  21  38  64  94 129 160 212 273 323 392
#
# _framework density 23.644523
#
# number of rings (size 3 to 8) (size 9 to 14) (size 15 to 20)
#    0.000    1.714    1.429    2.143    2.000    7.429 
#    5.143    0.000    0.000    0.000    0.000    0.000 
#    0.000    0.000    0.000    0.000    0.000    0.000 
#
# Total GULP energy -77936.595540 kJ/mol
# GULP energy per Si atom -5566.899681 kJ/mol
# Density = 2.359071 g / cm^3
# Si number density = 23.644523 Si / 1000 Ang^3
#
#
#
# Elastic Constant Matrix: (Units=GPa)
#
#
# Indices 1 2 3 4 5 6 
#
# 1 120.8611 36.5287 35.2306 7.1759 -2.1296 -37.6410
# 2 36.5287 149.7996 10.6996 10.8065 -8.2034 -31.2630
# 3 35.2306 10.6996 69.5503 5.8561 0.4577 -14.1756
# 4 7.1759 10.8065 5.8561 36.1025 -2.5593 -11.5630
# 5 -2.1296 -8.2034 0.4577 -2.5593 49.8420 -4.6278
# 6 -37.6410 -31.2630 -14.1756 -11.5630 -4.6278 37.0915
#
#
#
# Elastic Compliance Matrix: (Units=1/GPa)
#
#
# Indices 1 2 3 4 5 6 
#
# 1 0.013515 -0.000410 -0.004415 0.002331 0.001844 0.012640
# 2 -0.000410 0.008316 0.000338 -0.000099 0.001987 0.006939
# 3 -0.004415 0.000338 0.017062 -0.001408 -0.000189 0.001862
# 4 0.002331 -0.000099 -0.001408 0.031511 0.002821 0.011920
# 5 0.001844 0.001987 -0.000189 0.002821 0.021266 0.007007
# 6 0.012640 0.006939 0.001862 0.011920 0.007007 0.050938
#
#
# Mechanical properties :
#
#
# Convention : Reuss Voigt Hill
#
# Bulk Modulus (GPa) = 33.42410 56.12543 44.77476
# Shear Modulus (GPa) = 30.94902 41.79067 36.36985
#
# Velocity S-wave (km/s) = 3.62184 4.20867 3.92624
# Velocity P-wave (km/s) = 5.62646 6.88520 6.28741
#
# Compressibility (1/GPa) = 0.02991853
#
# Stress axis : x y z
#
# Youngs Moduli (GPa) = 73.98937 120.25665 58.60943
#
# Poissons Ratio (x) = 0.04927 0.25879
# Poissons Ratio (y) = 0.03031 -0.01980
# Poissons Ratio (z) = 0.32670 -0.04063
#
# Static dielectric constant tensor:
#      x y z
#    x 2.094230 -0.047770 0.191310 
#    y -0.047770 1.858740 -0.000910 
#    z 0.191310 -0.000910 2.297640 
# 
# From -- ./inp_files/218387.got.cif
#   From: 2010.05.17/outbox.cif.g08.bks.cpg/sg2_110_cif.got.tgz:218387.got - 2010.06.03 11:33:40.
