data_PCOD9008571
_publ_section_title
;
Structure prediction by ZEFSAII (Michael W. Deem and Ramdas Pophale) SiO2 
 PCOD9008571
Probable space group: P -1
;
_chemical_formula_sum "Si O2"
_cell_formula_units_Z 14
_cell_length_a 8.123154
_cell_length_b 10.984827
_cell_length_c 11.321612
_cell_angle_alpha 77.191483
_cell_angle_beta 84.451750
_cell_angle_gamma 41.197828
_cell_volume 644.971097
_symmetry_space_group_name_H-M "P -1"
_symmetry_group_IT_number 2
_symmetry_cell_setting 'triclinic'
loop_
_space_group_symop_operation_xyz
x,y,z
-x,-y,-z
loop_
_atom_site_type_symbol
_atom_site_label
_atom_site_fract_x
_atom_site_fract_y
_atom_site_fract_z
Si Si1 0.734101 0.519956 0.921768
Si Si2 0.726876 0.003091 0.733564
Si Si3 0.525272 0.835910 0.525089
Si Si4 0.925551 0.626662 0.720505
Si Si5 0.947433 0.154624 0.895038
Si Si6 0.240282 0.868373 0.750147
Si Si7 0.442524 0.330449 0.834311
O O1 0.881312 0.540507 0.834013
O O2 0.463208 0.665781 0.843123
O O3 0.099277 0.699390 0.052282
O O4 0.668531 0.595373 0.042852
O O5 0.562334 0.146963 0.603626
O O6 0.564520 0.128400 0.833540
O O7 0.783618 0.827153 0.741268
O O8 0.993664 0.923737 0.738589
O O9 0.802268 0.656825 0.598599
O O10 0.343900 0.867576 0.622706
O O11 0.500000 0.000000 0.500000
O O12 0.218234 0.490170 0.727460
O O13 0.679976 0.287171 0.820613
O O14 0.161692 0.027693 0.808306
O O15 0.000000 0.000000 0.000000
#
# Coordination Sequence:
#
# PCOD9008571 Si02
#       7
#     2   2   2   2   2   2   2
#     4  11  23  38  60  91 127 158 200 245 307 361
#     4  10  22  39  63  89 120 161 209 243 303 351
#     4   9  20  41  63  88 121 161 204 253 300 348
#     4  10  23  39  59  88 125 164 198 253 298 358
#     4  11  23  39  62  91 120 162 200 246 302 361
#     4  10  21  39  65  91 120 161 199 254 299 357
#     4  11  23  37  60  89 122 163 196 247 298 363
#
# _framework density 21.706399000000001
#
# number of rings (size 3 to 8) (size 9 to 14) (size 15 to 20)
#    0.000    1.714    1.429    2.143    4.000    4.571 
#    0.000    4.286    0.000   15.429    0.000    0.000 
#    0.000    0.000    0.000    0.000    0.000    0.000 
#
# Total GULP energy -78165.049768 kJ/mol
# GULP energy per Si atom -5583.217841 kJ/mol
# Density = 2.165699 g / cm^3
# Si number density = 21.706399 Si / 1000 Ang^3
#
#
#
# Elastic Constant Matrix: (Units=GPa)
#
#
# Indices 1 2 3 4 5 6 
#
# 1 47.7233 31.5918 28.1671 -4.4495 13.5943 11.5465
# 2 31.5918 141.1954 45.5596 4.1879 6.8257 19.7627
# 3 28.1671 45.5596 80.1817 0.4130 5.9845 10.4022
# 4 -4.4495 4.1879 0.4130 23.1466 0.8226 4.9198
# 5 13.5943 6.8257 5.9845 0.8226 28.2749 -7.8288
# 6 11.5465 19.7627 10.4022 4.9198 -7.8288 20.3877
#
#
#
# Elastic Compliance Matrix: (Units=1/GPa)
#
#
# Indices 1 2 3 4 5 6 
#
# 1 0.046263 -0.001570 -0.008413 0.018195 -0.030741 -0.036582
# 2 -0.001570 0.009927 -0.003844 -0.000251 -0.002998 -0.007863
# 3 -0.008413 -0.003844 0.017447 -0.001387 0.001454 0.000482
# 4 0.018195 -0.000251 -0.001387 0.053623 -0.018045 -0.029222
# 5 -0.030741 -0.002998 0.001454 -0.018045 0.064580 0.048727
# 6 -0.036582 -0.007863 0.000482 -0.029222 0.048727 0.102906
#
#
# Mechanical properties :
#
#
# Convention : Reuss Voigt Hill
#
# Bulk Modulus (GPa) = 21.74692 53.30415 37.52553
# Shear Modulus (GPa) = 14.80482 25.28065 20.04274
#
# Velocity S-wave (km/s) = 2.61444 3.41642 3.04197
# Velocity P-wave (km/s) = 4.37654 6.33820 5.44642
#
# Compressibility (1/GPa) = 0.04598352
#
# Stress axis : x y z
#
# Youngs Moduli (GPa) = 21.61547 100.73709 57.31512
#
# Poissons Ratio (x) = 0.15813 0.48221
# Poissons Ratio (y) = 0.03393 0.22032
# Poissons Ratio (z) = 0.18186 0.38723
#
# Static dielectric constant tensor:
#      x y z
#    x 1.831920 -0.007090 0.057140 
#    y -0.007090 1.815960 -0.009890 
#    z 0.057140 -0.009890 1.804800 
# 
# From -- ./inp_files/387303.got.cif
#   From: 2010.05.17/outbox.cif.g08.bks.cpg/sg2_194_cif.got.tgz:387303.got - 2010.06.03 11:33:40.
