data_PCOD9008006
_publ_section_title
;
Structure prediction by ZEFSAII (Michael W. Deem and Ramdas Pophale) SiO2 
 PCOD9008006
Probable space group: P -1
;
_chemical_formula_sum "Si O2"
_cell_formula_units_Z 16
_cell_length_a 9.780222
_cell_length_b 11.220584
_cell_length_c 11.638667
_cell_angle_alpha 126.600993
_cell_angle_beta 113.640042
_cell_angle_gamma 41.079250
_cell_volume 670.921459
_symmetry_space_group_name_H-M "P -1"
_symmetry_group_IT_number 2
_symmetry_cell_setting 'triclinic'
loop_
_space_group_symop_operation_xyz
x,y,z
-x,-y,-z
loop_
_atom_site_type_symbol
_atom_site_label
_atom_site_fract_x
_atom_site_fract_y
_atom_site_fract_z
Si Si1 0.421516 0.215635 0.400526
Si Si2 0.718652 0.800728 0.905415
Si Si3 0.990931 0.830424 0.885582
Si Si4 0.229849 0.556214 0.217784
Si Si5 0.841190 0.339072 0.480593
Si Si6 0.132064 0.985545 0.638555
Si Si7 0.526988 0.548788 0.165258
Si Si8 0.275450 0.033108 0.358190
O O1 0.330240 0.222058 0.252750
O O2 0.282606 0.456718 0.519772
O O3 0.656344 0.099764 0.389976
O O4 0.404281 0.092810 0.412046
O O5 0.790175 0.606808 0.889277
O O6 0.876913 0.824864 0.949049
O O7 0.500000 0.000000 0.000000
O O8 0.225741 0.607198 0.826031
O O9 0.858332 0.897075 0.763758
O O10 0.000000 0.000000 0.000000
O O11 0.247159 0.580659 0.373931
O O12 0.420912 0.500743 0.185238
O O13 0.019783 0.782441 0.233328
O O14 0.816704 0.182727 0.352792
O O15 0.089882 0.193938 0.478773
O O16 0.000000 0.000000 0.500000
O O17 0.406514 0.790513 0.280652
O O18 0.500000 0.500000 0.000000
#
# Coordination Sequence:
#
# PCOD9008006 Si02
#       8
#     2   2   2   2   2   2   2   2
#     4  10  23  40  65  95 131 172 221 279 337 403
#     4  10  23  42  67  96 133 176 223 279 335 394
#     4  11  24  44  68  97 138 179 228 275 333 407
#     4  10  23  43  64  97 135 167 225 282 328 406
#     4  10  21  44  67  93 128 175 222 274 340 397
#     4  10  21  39  63  93 130 167 216 269 334 400
#     4  12  25  43  69  95 136 183 223 277 342 402
#     4  11  24  43  68  99 135 176 226 278 339 403
#
# _framework density 23.847798999999998
#
# number of rings (size 3 to 8) (size 9 to 14) (size 15 to 20)
#    0.000    1.500    2.500    1.500    3.500    6.000 
#    0.000    3.750    0.000    0.000    0.000    0.000 
#    0.000    0.000    0.000    0.000    0.000    0.000 
#
# Total GULP energy -89557.298369 kJ/mol
# GULP energy per Si atom -5597.331148 kJ/mol
# Density = 2.379352 g / cm^3
# Si number density = 23.847799 Si / 1000 Ang^3
#
#
#
# Elastic Constant Matrix: (Units=GPa)
#
#
# Indices 1 2 3 4 5 6 
#
# 1 248.6262 61.3755 48.5583 40.5259 4.1022 4.8884
# 2 61.3755 115.3809 32.6874 32.3667 12.5699 5.0200
# 3 48.5583 32.6874 68.7744 18.8966 -2.6758 15.4183
# 4 40.5259 32.3667 18.8966 42.6623 0.0623 -3.4522
# 5 4.1022 12.5699 -2.6758 0.0623 36.8194 8.8364
# 6 4.8884 5.0200 15.4183 -3.4522 8.8364 44.0970
#
#
#
# Elastic Compliance Matrix: (Units=1/GPa)
#
#
# Indices 1 2 3 4 5 6 
#
# 1 0.005289 -0.001271 -0.002375 -0.002988 -0.000378 0.000231
# 2 -0.001271 0.012748 -0.003511 -0.006879 -0.004522 0.000285
# 3 -0.002375 -0.003511 0.021353 -0.005209 0.004995 -0.008212
# 4 -0.002988 -0.006879 -0.005209 0.034243 0.000942 0.005428
# 5 -0.000378 -0.004522 0.004995 0.000942 0.030859 -0.007299
# 6 0.000231 0.000285 -0.008212 0.005428 -0.007299 0.027378
#
#
# Mechanical properties :
#
#
# Convention : Reuss Voigt Hill
#
# Bulk Modulus (GPa) = 39.88159 79.78044 59.83102
# Shear Modulus (GPa) = 32.35372 44.05976 38.20674
#
# Velocity S-wave (km/s) = 3.68730 4.30296 4.00698
# Velocity P-wave (km/s) = 5.90660 7.62981 6.82283
#
# Compressibility (1/GPa) = 0.02507422
#
# Stress axis : x y z
#
# Youngs Moduli (GPa) = 189.08891 78.44543 46.83207
#
# Poissons Ratio (x) = 0.09969 0.11125
# Poissons Ratio (y) = 0.24029 0.16444
# Poissons Ratio (z) = 0.44917 0.27544
#
# Static dielectric constant tensor:
#      x y z
#    x 1.915810 0.054560 0.007480 
#    y 0.054560 1.939380 -0.043350 
#    z 0.007480 -0.043350 1.925240 
# 
# From -- ./inp_files/404699.got.cif
#   From: 2010.05.17/outbox.cif.g08.bks.cpg/sg2_203_cif.got.tgz:404699.got - 2010.06.03 11:33:40.
