data_PCOD9008361
_publ_section_title
;
Structure prediction by ZEFSAII (Michael W. Deem and Ramdas Pophale) SiO2 
 PCOD9008361
Probable space group: P -1
;
_chemical_formula_sum "Si O2"
_cell_formula_units_Z 14
_cell_length_a 16.828776
_cell_length_b 18.086430
_cell_length_c 5.289447
_cell_angle_alpha 103.928506
_cell_angle_beta 73.018165
_cell_angle_gamma 156.237393
_cell_volume 618.965408
_symmetry_space_group_name_H-M "P -1"
_symmetry_group_IT_number 2
_symmetry_cell_setting 'triclinic'
loop_
_space_group_symop_operation_xyz
x,y,z
-x,-y,-z
loop_
_atom_site_type_symbol
_atom_site_label
_atom_site_fract_x
_atom_site_fract_y
_atom_site_fract_z
Si Si1 0.816773 0.842009 0.736236
Si Si2 0.872430 0.460610 0.725440
Si Si3 0.164695 0.893867 0.032022
Si Si4 0.518491 0.964857 0.207261
Si Si5 0.584356 0.771847 0.674728
Si Si6 0.048376 0.915624 0.798017
Si Si7 0.137006 0.448508 0.689175
O O1 0.618600 0.713951 0.694339
O O2 0.842565 0.777401 0.756868
O O3 0.000000 0.000000 0.500000
O O4 0.878514 0.955183 0.981131
O O5 0.659576 0.243817 0.790874
O O6 0.868791 0.521368 0.559980
O O7 0.000000 0.500000 0.500000
O O8 0.915343 0.532779 0.023606
O O9 0.026275 0.753876 0.280181
O O10 0.341029 0.102101 0.091936
O O11 0.025014 0.819521 0.899124
O O12 0.277144 0.911649 0.860283
O O13 0.500000 0.000000 0.500000
O O14 0.500000 0.000000 0.000000
O O15 0.360984 0.604433 0.660620
O O16 0.760647 0.931583 0.437288
#
# Coordination Sequence:
#
# PCOD9008361 Si02
#       7
#     2   2   2   2   2   2   2
#     4   8  16  34  61  97 124 167 212 265 323 385
#     4  12  25  46  65  94 133 170 220 277 327 386
#     4  11  24  40  63  94 128 173 218 271 324 388
#     4  12  25  42  67  95 127 169 220 269 324 384
#     4  10  21  39  64  94 130 170 219 268 327 390
#     4   9  18  35  66  90 129 169 216 263 325 390
#     4  12  26  42  66  96 132 172 219 268 330 385
#
# _framework density 22.618386999999998
#
# number of rings (size 3 to 8) (size 9 to 14) (size 15 to 20)
#    0.000    1.429    1.429    3.857    6.000    0.000 
#    0.000    0.714    0.000   29.143    0.000    0.000 
#    0.000    0.000    0.000    0.000    0.000    0.000 
#
# Total GULP energy -78105.240780 kJ/mol
# GULP energy per Si atom -5578.945770 kJ/mol
# Density = 2.256691 g / cm^3
# Si number density = 22.618387 Si / 1000 Ang^3
#
#
#
# Elastic Constant Matrix: (Units=GPa)
#
#
# Indices 1 2 3 4 5 6 
#
# 1 175.1563 15.7703 34.5972 -20.5171 4.8076 -18.3724
# 2 15.7703 64.1933 -4.5743 -17.2774 1.0103 -6.5086
# 3 34.5972 -4.5743 101.9636 3.2914 -1.1558 -14.5244
# 4 -20.5171 -17.2774 3.2914 30.3390 -5.6600 6.3195
# 5 4.8076 1.0103 -1.1558 -5.6600 47.3299 -14.3139
# 6 -18.3724 -6.5086 -14.5244 6.3195 -14.3139 16.3409
#
#
#
# Elastic Compliance Matrix: (Units=1/GPa)
#
#
# Indices 1 2 3 4 5 6 
#
# 1 0.007129 -0.000202 -0.001612 0.003843 0.001656 0.006466
# 2 -0.000202 0.019077 0.001827 0.009428 0.003269 0.008212
# 3 -0.001612 0.001827 0.012922 -0.003913 0.004864 0.016175
# 4 0.003843 0.009428 -0.003913 0.043940 0.001114 -0.011420
# 5 0.001656 0.003269 0.004864 0.001114 0.031665 0.034793
# 6 0.006466 0.008212 0.016175 -0.011420 0.034793 0.121007
#
#
# Mechanical properties :
#
#
# Convention : Reuss Voigt Hill
#
# Bulk Modulus (GPa) = 25.54158 48.09996 36.82077
# Shear Modulus (GPa) = 20.09934 38.50330 29.30132
#
# Velocity S-wave (km/s) = 2.98422 4.13037 3.60316
# Velocity P-wave (km/s) = 4.81570 6.63767 5.79869
#
# Compressibility (1/GPa) = 0.03915184
#
# Stress axis : x y z
#
# Youngs Moduli (GPa) = 140.27785 52.42047 77.38793
#
# Poissons Ratio (x) = 0.01061 0.12476
# Poissons Ratio (y) = 0.02840 -0.14139
# Poissons Ratio (z) = 0.22615 -0.09577
#
# Static dielectric constant tensor:
#      x y z
#    x 1.962320 -0.063870 -0.088140 
#    y -0.063870 1.997640 0.255420 
#    z -0.088140 0.255420 2.174480 
# 
# From -- ./inp_files/43538.got.cif
#   From: 2010.05.17/outbox.cif.g08.bks.cpg/sg2_22_cif.got.tgz:43538.got - 2010.06.03 11:33:40.
