data_PCOD9008678
_publ_section_title
;
Structure prediction by ZEFSAII (Michael W. Deem and Ramdas Pophale) SiO2 
 PCOD9008678
Probable space group: P -1
;
_chemical_formula_sum "Si O2"
_cell_formula_units_Z 14
_cell_length_a 12.006702
_cell_length_b 8.633200
_cell_length_c 7.659109
_cell_angle_alpha 105.982805
_cell_angle_beta 70.749444
_cell_angle_gamma 131.239568
_cell_volume 561.726902
_symmetry_space_group_name_H-M "P -1"
_symmetry_group_IT_number 2
_symmetry_cell_setting 'triclinic'
loop_
_space_group_symop_operation_xyz
x,y,z
-x,-y,-z
loop_
_atom_site_type_symbol
_atom_site_label
_atom_site_fract_x
_atom_site_fract_y
_atom_site_fract_z
Si Si1 0.897945 0.791229 0.286271
Si Si2 0.483563 0.244912 0.570300
Si Si3 0.739367 0.476654 0.975224
Si Si4 0.450192 0.335212 0.217716
Si Si5 0.066905 0.626762 0.241720
Si Si6 0.239593 0.775593 0.565452
Si Si7 0.160097 0.232978 0.293425
O O1 0.823511 0.728161 0.495718
O O2 0.021184 0.756278 0.224612
O O3 0.787467 0.649566 0.146744
O O4 0.989371 0.032444 0.287043
O O5 0.458395 0.264844 0.384052
O O6 0.506248 0.437044 0.711933
O O7 0.631638 0.255634 0.511064
O O8 0.337210 0.017880 0.637492
O O9 0.824844 0.385326 0.940923
O O10 0.803978 0.587276 0.791082
O O11 0.560626 0.328227 0.034807
O O12 0.284328 0.204275 0.180884
O O13 0.164422 0.736917 0.401529
O O14 0.907255 0.402077 0.300938
#
# Coordination Sequence:
#
# PCOD9008678 Si02
#       7
#     2   2   2   2   2   2   2
#     4  11  24  43  67  94 125 164 211 261 312 368
#     4  10  21  39  65  94 124 164 212 259 311 370
#     4  12  25  40  63  94 130 168 207 254 311 374
#     4  11  22  40  62  90 129 167 205 258 313 369
#     4  11  22  40  62  90 129 167 205 258 313 369
#     4  10  21  39  65  94 124 164 212 259 311 370
#     4  11  24  43  67  94 125 164 211 261 312 368
#
# _framework density 24.923143
#
# number of rings (size 3 to 8) (size 9 to 14) (size 15 to 20)
#    0.000    1.143    0.000    8.143    0.000    4.571 
#    0.000    5.714    0.000    0.857    0.000    0.000 
#    0.000    0.000    0.000    0.000    0.000    0.000 
#
# Total GULP energy -78405.085119 kJ/mol
# GULP energy per Si atom -5600.363223 kJ/mol
# Density = 2.486642 g / cm^3
# Si number density = 24.923143 Si / 1000 Ang^3
#
#
#
# Elastic Constant Matrix: (Units=GPa)
#
#
# Indices 1 2 3 4 5 6 
#
# 1 121.9302 10.1429 4.8296 -6.0191 -25.0782 7.6253
# 2 10.1429 89.0125 -6.0196 -5.9081 -28.5141 6.3283
# 3 4.8296 -6.0196 40.4551 0.1129 -32.5144 2.4642
# 4 -6.0191 -5.9081 0.1129 12.2321 8.8770 4.4363
# 5 -25.0782 -28.5141 -32.5144 8.8770 45.6353 -6.1094
# 6 7.6253 6.3283 2.4642 4.4363 -6.1094 30.8673
#
#
#
# Elastic Compliance Matrix: (Units=1/GPa)
#
#
# Indices 1 2 3 4 5 6 
#
# 1 0.021453 0.036080 0.094943 -0.060635 0.115280 0.011255
# 2 0.036080 0.117251 0.277412 -0.181587 0.330949 0.036503
# 3 0.094943 0.277412 0.746569 -0.492483 0.866938 0.102439
# 4 -0.060635 -0.181587 -0.492483 0.431199 -0.593309 -0.087879
# 5 0.115280 0.330949 0.866938 -0.593309 1.042002 0.125970
# 6 0.011255 0.036503 0.102439 -0.087879 0.125970 0.051517
#
#
# Mechanical properties :
#
#
# Convention : Reuss Voigt Hill
#
# Bulk Modulus (GPa) = 0.58749 29.92261 15.25505
# Shear Modulus (GPa) = 2.31428 33.90993 18.11210
#
# Velocity S-wave (km/s) = 0.96467 3.69261 2.69870
# Velocity P-wave (km/s) = 1.21532 5.49659 3.98054
#
# Compressibility (1/GPa) = 1.70214316
#
# Stress axis : x y z
#
# Youngs Moduli (GPa) = 46.61434 8.52868 1.33946
#
# Poissons Ratio (x) = -0.30771 -0.12717
# Poissons Ratio (y) = -1.68184 -0.37158
# Poissons Ratio (z) = -4.42572 -2.36596
#
# Static dielectric constant tensor:
#      x y z
#    x 1.955130 -0.001740 -0.011780 
#    y -0.001740 1.983210 0.011200 
#    z -0.011780 0.011200 2.007770 
# 
# From -- ./inp_files/158577.got.cif
#   From: 2010.05.17/outbox.cif.g08.bks.cpg/sg2_80_cif.got.tgz:158577.got - 2010.06.03 11:33:40.
