data_PCOD9008919
_publ_section_title
;
Structure prediction by ZEFSAII (Michael W. Deem and Ramdas Pophale) SiO2 
 PCOD9008919
Probable space group: P -1
;
_chemical_formula_sum "Si O2"
_cell_formula_units_Z 14
_cell_length_a 8.552037
_cell_length_b 11.656635
_cell_length_c 8.127857
_cell_angle_alpha 83.203809
_cell_angle_beta 105.888118
_cell_angle_gamma 130.321588
_cell_volume 592.241241
_symmetry_space_group_name_H-M "P -1"
_symmetry_group_IT_number 2
_symmetry_cell_setting 'triclinic'
loop_
_space_group_symop_operation_xyz
x,y,z
-x,-y,-z
loop_
_atom_site_type_symbol
_atom_site_label
_atom_site_fract_x
_atom_site_fract_y
_atom_site_fract_z
Si Si1 0.522449 0.776855 0.059371
Si Si2 0.281647 0.315982 0.081087
Si Si3 0.333450 0.528878 0.585021
Si Si4 0.757000 0.279007 0.300136
Si Si5 0.202395 0.500828 0.200326
Si Si6 0.978137 0.179926 0.539338
Si Si7 0.985497 0.035032 0.246458
O O1 0.318786 0.666324 0.135171
O O2 0.730728 0.924553 0.176550
O O3 0.602653 0.684515 0.043375
O O4 0.440694 0.803523 0.867715
O O5 0.457530 0.386972 0.262038
O O6 0.194190 0.404570 0.064905
O O7 0.095996 0.142664 0.104201
O O8 0.253998 0.620523 0.593670
O O9 0.350212 0.532155 0.392604
O O10 0.160067 0.353372 0.613386
O O11 0.786149 0.172920 0.423986
O O12 0.970452 0.397121 0.232590
O O13 0.051274 0.142593 0.404360
O O14 0.942336 0.063179 0.681035
#
# Coordination Sequence:
#
# PCOD9008919 Si02
#       7
#     2   2   2   2   2   2   2
#     4  11  25  39  61  94 131 165 203 253 318 371
#     4  11  22  40  63  94 127 166 208 259 303 369
#     4  10  21  39  69  92 123 158 214 263 307 357
#     4  10  22  44  66  93 126 159 210 263 312 362
#     4  11  20  38  66  94 121 163 213 258 305 364
#     4  10  21  39  66  93 119 163 212 253 306 365
#     4  11  23  39  64  92 130 164 209 249 309 377
#
# _framework density 23.639015000000001
#
# number of rings (size 3 to 8) (size 9 to 14) (size 15 to 20)
#    0.000    1.429    2.857    4.286    4.000    1.714 
#    0.000    4.286    6.286    0.000    0.000    0.000 
#    0.000    0.000    0.000    0.000    0.000    0.000 
#
# Total GULP energy -78251.276125 kJ/mol
# GULP energy per Si atom -5589.376866 kJ/mol
# Density = 2.358521 g / cm^3
# Si number density = 23.639015 Si / 1000 Ang^3
#
#
#
# Elastic Constant Matrix: (Units=GPa)
#
#
# Indices 1 2 3 4 5 6 
#
# 1 55.7400 18.6438 -1.0086 -1.2375 6.6504 -13.4651
# 2 18.6438 95.1500 14.7980 -13.0784 7.9515 -13.0566
# 3 -1.0086 14.7980 59.5542 0.7839 22.3957 -1.2437
# 4 -1.2375 -13.0784 0.7839 32.1026 -3.1723 0.0556
# 5 6.6504 7.9515 22.3957 -3.1723 42.0919 -2.1352
# 6 -13.4651 -13.0566 -1.2437 0.0556 -2.1352 30.4805
#
#
#
# Elastic Compliance Matrix: (Units=1/GPa)
#
#
# Indices 1 2 3 4 5 6 
#
# 1 0.021477 -0.003384 0.002872 -0.001026 -0.003960 0.007880
# 2 -0.003384 0.012929 -0.003455 0.005267 0.000527 0.003930
# 3 0.002872 -0.003455 0.022188 -0.003009 -0.011840 -0.000130
# 4 -0.001026 0.005267 -0.003009 0.033662 0.003399 0.001857
# 5 -0.003960 0.000527 -0.011840 0.003399 0.030847 0.000148
# 6 0.007880 0.003930 -0.000130 0.001857 0.000148 0.037974
#
#
# Mechanical properties :
#
#
# Convention : Reuss Voigt Hill
#
# Bulk Modulus (GPa) = 20.55084 30.59007 25.57046
# Shear Modulus (GPa) = 27.28773 32.80240 30.04506
#
# Velocity S-wave (km/s) = 3.40126 3.72914 3.56897
# Velocity P-wave (km/s) = 4.91297 5.61343 5.27484
#
# Compressibility (1/GPa) = 0.04865980
#
# Stress axis : x y z
#
# Youngs Moduli (GPa) = 46.56053 77.34417 45.06948
#
# Poissons Ratio (x) = 0.26171 -0.12942
# Poissons Ratio (y) = 0.15755 0.15573
# Poissons Ratio (z) = -0.13370 0.26725
#
# Static dielectric constant tensor:
#      x y z
#    x 1.911640 -0.025250 0.026480 
#    y -0.025250 1.876430 -0.013250 
#    z 0.026480 -0.013250 1.916850 
# 
# From -- ./inp_files/155526.got.cif
#   From: 2010.05.17/outbox.cif.g08.bks.cpg/sg2_78_cif.got.tgz:155526.got - 2010.06.03 11:33:40.
