data_PCOD9008537
_publ_section_title
;
Structure prediction by ZEFSAII (Michael W. Deem and Ramdas Pophale) SiO2 
 PCOD9008537
Probable space group: P -1
;
_chemical_formula_sum "Si O2"
_cell_formula_units_Z 16
_cell_length_a 10.005434
_cell_length_b 5.520222
_cell_length_c 16.162763
_cell_angle_alpha 100.670732
_cell_angle_beta 60.519502
_cell_angle_gamma 90.156501
_cell_volume 759.594657
_symmetry_space_group_name_H-M "P -1"
_symmetry_group_IT_number 2
_symmetry_cell_setting 'triclinic'
loop_
_space_group_symop_operation_xyz
x,y,z
-x,-y,-z
loop_
_atom_site_type_symbol
_atom_site_label
_atom_site_fract_x
_atom_site_fract_y
_atom_site_fract_z
Si Si1 0.858289 0.845041 0.205379
Si Si2 0.928658 0.817883 0.752574
Si Si3 0.842317 0.498157 0.892510
Si Si4 0.080183 0.220051 0.443385
Si Si5 0.346629 0.867511 0.042917
Si Si6 0.407260 0.331683 0.626973
Si Si7 0.820000 0.966739 0.047308
Si Si8 0.412045 0.203051 0.424878
O O1 0.751869 0.676113 0.276840
O O2 0.771693 0.942580 0.154883
O O3 0.018847 0.685743 0.123214
O O4 0.917876 0.067151 0.255022
O O5 0.912127 0.557567 0.785644
O O6 0.922303 0.822484 0.657082
O O7 0.780073 0.971492 0.850780
O O8 0.676352 0.397029 0.927561
O O9 0.816876 0.721956 0.977817
O O10 0.253907 0.210378 0.423570
O O11 0.000000 0.500000 0.500000
O O12 0.000000 0.000000 0.500000
O O13 0.500000 0.000000 0.000000
O O14 0.285003 0.842738 0.965758
O O15 0.380227 0.288427 0.534997
O O16 0.484148 0.588125 0.628747
O O17 0.509333 0.080456 0.611522
O O18 0.000000 0.000000 0.000000
#
# Coordination Sequence:
#
# PCOD9008537 Si02
#       8
#     2   2   2   2   2   2   2   2
#     4  11  22  37  65  95 123 169 221 267 332 394
#     4  10  24  40  64  97 129 170 227 276 329 415
#     4  10  21  39  65  88 134 164 222 276 326 405
#     4  12  27  45  73  99 135 181 228 284 340 408
#     4  10  23  42  63  92 134 179 215 277 346 404
#     4  10  23  41  67  92 131 173 206 279 332 399
#     4  11  20  38  59  95 124 161 217 274 323 395
#     4  10  23  45  62  95 134 164 219 270 339 395
#
# _framework density 21.063867999999999
#
# number of rings (size 3 to 8) (size 9 to 14) (size 15 to 20)
#    0.000    1.500    3.750    1.875    7.000    4.000 
#    4.500    0.000    0.000    0.000    0.000    0.000 
#    0.000    0.000    0.000    0.000    0.000    0.000 
#
# Total GULP energy -89212.180211 kJ/mol
# GULP energy per Si atom -5575.761263 kJ/mol
# Density = 2.101593 g / cm^3
# Si number density = 21.063868 Si / 1000 Ang^3
#
#
#
# Elastic Constant Matrix: (Units=GPa)
#
#
# Indices 1 2 3 4 5 6 
#
# 1 113.9617 43.0801 71.2623 -29.0623 9.9207 27.4339
# 2 43.0801 97.9338 52.3936 -33.6050 6.9439 23.5289
# 3 71.2623 52.3936 129.4507 -33.9371 10.4306 17.7746
# 4 -29.0623 -33.6050 -33.9371 40.5102 5.2350 -13.3385
# 5 9.9207 6.9439 10.4306 5.2350 33.3951 -11.5645
# 6 27.4339 23.5289 17.7746 -13.3385 -11.5645 35.2688
#
#
#
# Elastic Compliance Matrix: (Units=1/GPa)
#
#
# Indices 1 2 3 4 5 6 
#
# 1 0.017079 0.000866 -0.006204 0.005038 -0.008081 -0.011481
# 2 0.000866 0.018121 -0.002898 0.011057 -0.008257 -0.009828
# 3 -0.006204 -0.002898 0.013742 0.005314 -0.002303 0.001088
# 4 0.005038 0.011057 0.005314 0.042943 -0.012862 -0.001950
# 5 -0.008081 -0.008257 -0.002303 -0.012862 0.044672 0.022738
# 6 -0.011481 -0.009828 0.001088 -0.001950 0.022738 0.050011
#
#
# Mechanical properties :
#
#
# Convention : Reuss Voigt Hill
#
# Bulk Modulus (GPa) = 30.79657 74.97982 52.88820
# Shear Modulus (GPa) = 23.37944 33.47551 28.42747
#
# Velocity S-wave (km/s) = 3.33518 3.99085 3.67765
# Velocity P-wave (km/s) = 5.42987 7.54384 6.57241
#
# Compressibility (1/GPa) = 0.03247115
#
# Stress axis : x y z
#
# Youngs Moduli (GPa) = 58.55137 55.18487 72.76742
#
# Poissons Ratio (x) = -0.04780 0.45147
# Poissons Ratio (y) = -0.05072 0.21085
# Poissons Ratio (z) = 0.36327 0.15990
#
# Static dielectric constant tensor:
#      x y z
#    x 1.776900 -0.062100 0.002170 
#    y -0.062100 1.994600 -0.066120 
#    z 0.002170 -0.066120 1.803450 
# 
# From -- ./inp_files/37844.got.cif
#   From: 2010.05.17/outbox.cif.g08.bks.cpg/sg2_19_cif.got.tgz:37844.got - 2010.06.03 11:33:40.
