data_PCOD9008827
_publ_section_title
;
Structure prediction by ZEFSAII (Michael W. Deem and Ramdas Pophale) SiO2 
 PCOD9008827
Probable space group: P -1
;
_chemical_formula_sum "Si O2"
_cell_formula_units_Z 10
_cell_length_a 9.696005
_cell_length_b 8.651717
_cell_length_c 9.107736
_cell_angle_alpha 111.837804
_cell_angle_beta 134.674636
_cell_angle_gamma 60.286600
_cell_volume 471.526506
_symmetry_space_group_name_H-M "P -1"
_symmetry_group_IT_number 2
_symmetry_cell_setting 'triclinic'
loop_
_space_group_symop_operation_xyz
x,y,z
-x,-y,-z
loop_
_atom_site_type_symbol
_atom_site_label
_atom_site_fract_x
_atom_site_fract_y
_atom_site_fract_z
Si Si1 0.385822 0.512048 0.072047
Si Si2 0.952577 0.026077 0.725541
Si Si3 0.372430 0.429748 0.495886
Si Si4 0.276403 0.786386 0.651598
Si Si5 0.934704 0.756085 0.866036
O O1 0.463112 0.645476 0.276821
O O2 0.488897 0.317225 0.154875
O O3 0.500000 0.500000 0.000000
O O4 0.141062 0.591280 0.917262
O O5 0.768592 0.110670 0.499915
O O6 0.018612 0.168801 0.917739
O O7 0.142372 0.907967 0.722764
O O8 0.903916 0.903510 0.768620
O O9 0.500000 0.500000 0.500000
O O10 0.211669 0.612458 0.511621
O O11 0.258007 0.309000 0.302410
#
# Coordination Sequence:
#
# PCOD9008827 Si02
#       5
#     2   2   2   2   2
#     4  10  21  40  67  93 124 171 216 257 310 399
#     4  10  21  39  66 101 130 165 203 275 330 374
#     4  10  23  42  67  95 122 175 225 259 299 397
#     4   9  21  41  64  91 136 160 217 259 317 388
#     4  11  22  41  71  92 131 169 214 262 325 374
#
# _framework density 21.207716999999999
#
# number of rings (size 3 to 8) (size 9 to 14) (size 15 to 20)
#    1.200    0.800    2.000    1.200    0.000    6.400 
#    0.000   12.000    8.800    0.000    0.000    0.000 
#    0.000    0.000    0.000    0.000    0.000    0.000 
#
# Total GULP energy -55713.258664 kJ/mol
# GULP energy per Si atom -5571.325866 kJ/mol
# Density = 2.115945 g / cm^3
# Si number density = 21.207717 Si / 1000 Ang^3
#
#
#
# Elastic Constant Matrix: (Units=GPa)
#
#
# Indices 1 2 3 4 5 6 
#
# 1 83.4702 12.1392 64.7701 20.3887 -6.4114 5.6869
# 2 12.1392 49.8970 19.6626 -10.1540 9.9571 -3.8542
# 3 64.7701 19.6626 99.8206 5.8723 -2.1567 18.1159
# 4 20.3887 -10.1540 5.8723 37.1973 -0.7928 -7.3294
# 5 -6.4114 9.9571 -2.1567 -0.7928 41.4592 -0.0435
# 6 5.6869 -3.8542 18.1159 -7.3294 -0.0435 23.0432
#
#
#
# Elastic Compliance Matrix: (Units=1/GPa)
#
#
# Indices 1 2 3 4 5 6 
#
# 1 0.030665 -0.003879 -0.018495 -0.014515 0.004436 0.001715
# 2 -0.003879 0.029567 -0.007253 0.014360 -0.007787 0.016157
# 3 -0.018495 -0.007253 0.026572 0.000547 0.000256 -0.017364
# 4 -0.014515 0.014360 0.000547 0.042315 -0.004836 0.019004
# 5 0.004436 -0.007787 0.000256 -0.004836 0.026593 -0.004086
# 6 0.001715 0.016157 -0.017364 0.019004 -0.004086 0.065364
#
#
# Mechanical properties :
#
#
# Convention : Reuss Voigt Hill
#
# Bulk Modulus (GPa) = 36.29558 47.37018 41.83288
# Shear Modulus (GPa) = 17.27040 29.44765 23.35903
#
# Velocity S-wave (km/s) = 2.85677 3.73035 3.32240
# Velocity P-wave (km/s) = 5.29462 6.39834 5.87247
#
# Compressibility (1/GPa) = 0.02755157
#
# Stress axis : x y z
#
# Youngs Moduli (GPa) = 32.61007 33.82164 37.63319
#
# Poissons Ratio (x) = 0.13118 0.69604
# Poissons Ratio (y) = 0.12648 0.27294
# Poissons Ratio (z) = 0.60313 0.24530
#
# Static dielectric constant tensor:
#      x y z
#    x 1.783740 -0.053590 -0.046890 
#    y -0.053590 1.838350 -0.022750 
#    z -0.046890 -0.022750 1.808520 
# 
# From -- ./inp_files/131683.got.cif
#   From: 2010.05.17/outbox.cif.g08.bks.cpg/sg2_66_cif.got.tgz:131683.got - 2010.06.03 11:33:40.
