data_PCOD9008887
_publ_section_title
;
Structure prediction by ZEFSAII (Michael W. Deem and Ramdas Pophale) SiO2 
 PCOD9008887
Probable space group: P -1
;
_chemical_formula_sum "Si O2"
_cell_formula_units_Z 16
_cell_length_a 9.566756
_cell_length_b 11.904908
_cell_length_c 19.015271
_cell_angle_alpha 43.813857
_cell_angle_beta 109.671469
_cell_angle_gamma 143.309438
_cell_volume 726.539237
_symmetry_space_group_name_H-M "P -1"
_symmetry_group_IT_number 2
_symmetry_cell_setting 'triclinic'
loop_
_space_group_symop_operation_xyz
x,y,z
-x,-y,-z
loop_
_atom_site_type_symbol
_atom_site_label
_atom_site_fract_x
_atom_site_fract_y
_atom_site_fract_z
Si Si1 0.080019 0.044115 0.793152
Si Si2 0.159314 0.901975 0.656149
Si Si3 0.509961 0.207037 0.719836
Si Si4 0.299712 0.811059 0.119906
Si Si5 0.738614 0.743090 0.726795
Si Si6 0.271480 0.572723 0.570589
Si Si7 0.087286 0.749821 0.491172
Si Si8 0.136185 0.003406 0.967890
O O1 0.360891 0.215606 0.731869
O O2 0.159596 0.303599 0.708862
O O3 0.984539 0.863031 0.929378
O O4 0.854917 0.834645 0.785308
O O5 0.929386 0.547622 0.762240
O O6 0.987193 0.904281 0.645265
O O7 0.327252 0.011181 0.706803
O O8 0.400243 0.140819 0.529119
O O9 0.513908 0.055858 0.839909
O O10 0.835978 0.543751 0.598235
O O11 0.500000 0.000000 0.000000
O O12 0.145208 0.838083 0.080402
O O13 0.459289 0.370074 0.841214
O O14 0.699540 0.896894 0.634597
O O15 0.220817 0.695984 0.544983
O O16 0.080119 0.402546 0.543348
O O17 0.000000 0.000000 0.000000
#
# Coordination Sequence:
#
# PCOD9008887 Si02
#       8
#     2   2   2   2   2   2   2   2
#     4  10  21  41  65  89 120 158 198 245 301 355
#     4  10  21  39  66  91 119 158 196 246 301 351
#     4  10  21  39  66  91 119 158 196 246 301 351
#     4  12  24  43  60  87 121 156 209 250 282 356
#     4  10  21  41  65  89 120 158 198 245 301 355
#     4   9  19  36  61  94 124 152 194 245 301 360
#     4   9  19  36  61  94 124 152 194 245 301 360
#     4  12  28  43  58  87 123 160 205 250 292 350
#
# _framework density 22.022210999999999
#
# number of rings (size 3 to 8) (size 9 to 14) (size 15 to 20)
#    0.000    1.750    2.500    0.750    3.500    6.000 
#    0.000    3.750    0.000    0.000    0.000    0.000 
#    0.000    0.000    0.000    0.000    0.000    0.000 
#
# Total GULP energy -89475.024683 kJ/mol
# GULP energy per Si atom -5592.189043 kJ/mol
# Density = 2.197209 g / cm^3
# Si number density = 22.022211 Si / 1000 Ang^3
#
#
#
# Elastic Constant Matrix: (Units=GPa)
#
#
# Indices 1 2 3 4 5 6 
#
# 1 92.2777 13.4961 -3.1505 17.6160 24.2309 0.0529
# 2 13.4961 70.2844 12.1729 8.1649 7.5748 -1.9689
# 3 -3.1505 12.1729 30.6569 11.5179 17.0888 0.9925
# 4 17.6160 8.1649 11.5179 32.2602 4.4535 7.1572
# 5 24.2309 7.5748 17.0888 4.4535 41.8523 2.3642
# 6 0.0529 -1.9689 0.9925 7.1572 2.3642 18.0479
#
#
#
# Elastic Compliance Matrix: (Units=1/GPa)
#
#
# Indices 1 2 3 4 5 6 
#
# 1 0.019217 -0.003034 0.018049 -0.015399 -0.016699 0.006914
# 2 -0.003034 0.016036 -0.007662 -0.000392 0.001907 0.002085
# 3 0.018049 -0.007662 0.067327 -0.029853 -0.034038 0.011706
# 4 -0.015399 -0.000392 -0.029853 0.052597 0.016788 -0.021413
# 5 -0.016699 0.001907 -0.034038 0.016788 0.045924 -0.010545
# 6 0.006914 0.002085 0.011706 -0.021413 -0.010545 0.064845
#
#
# Mechanical properties :
#
#
# Convention : Reuss Voigt Hill
#
# Bulk Modulus (GPa) = 8.52614 26.47288 17.49951
# Shear Modulus (GPa) = 17.22151 29.81213 23.51682
#
# Velocity S-wave (km/s) = 2.79947 3.68330 3.27137
# Velocity P-wave (km/s) = 3.78542 5.48963 4.71516
#
# Compressibility (1/GPa) = 0.11728642
#
# Stress axis : x y z
#
# Youngs Moduli (GPa) = 52.03622 62.35959 14.85299
#
# Poissons Ratio (x) = 0.18920 -0.26809
# Poissons Ratio (y) = 0.15788 0.11381
# Poissons Ratio (z) = -0.93922 0.47781
#
# Static dielectric constant tensor:
#      x y z
#    x 1.805490 0.014000 0.007620 
#    y 0.014000 1.874220 0.022880 
#    z 0.007620 0.022880 1.767050 
# 
# From -- ./inp_files/307997.got.cif
#   From: 2010.05.17/outbox.cif.g08.bks.cpg/sg2_154_cif.got.tgz:307997.got - 2010.06.03 11:33:40.
