data_PCOD9008447
_publ_section_title
;
Structure prediction by ZEFSAII (Michael W. Deem and Ramdas Pophale) SiO2 
 PCOD9008447
Probable space group: P -1
;
_chemical_formula_sum "Si O2"
_cell_formula_units_Z 16
_cell_length_a 24.139863
_cell_length_b 5.215165
_cell_length_c 9.506999
_cell_angle_alpha 129.478400
_cell_angle_beta 137.335767
_cell_angle_gamma 57.909154
_cell_volume 621.407353
_symmetry_space_group_name_H-M "P -1"
_symmetry_group_IT_number 2
_symmetry_cell_setting 'triclinic'
loop_
_space_group_symop_operation_xyz
x,y,z
-x,-y,-z
loop_
_atom_site_type_symbol
_atom_site_label
_atom_site_fract_x
_atom_site_fract_y
_atom_site_fract_z
Si Si1 0.904255 0.115233 0.344438
Si Si2 0.299327 0.743497 0.167433
Si Si3 0.600810 0.938791 0.668145
Si Si4 0.389709 0.802577 0.637292
Si Si5 0.577125 0.779040 0.887528
Si Si6 0.922776 0.986723 0.016061
Si Si7 0.887838 0.278684 0.765342
Si Si8 0.178058 0.235163 0.678750
O O1 0.879727 0.513070 0.444501
O O2 0.862272 0.898900 0.303515
O O3 0.000000 0.000000 0.500000
O O4 0.887383 0.078104 0.134570
O O5 0.320514 0.837264 0.396622
O O6 0.392312 0.627113 0.220979
O O7 0.294393 0.056840 0.168106
O O8 0.248976 0.453589 0.928197
O O9 0.603110 0.589517 0.452832
O O10 0.606267 0.910809 0.840739
O O11 0.500000 0.000000 0.500000
O O12 0.479205 0.840481 0.746856
O O13 0.383899 0.055783 0.846786
O O14 0.891105 0.627611 0.816439
O O15 0.893582 0.255139 0.936349
O O16 0.022316 0.923544 0.180200
O O17 0.810605 0.102676 0.508983
#
# Coordination Sequence:
#
# PCOD9008447 Si02
#       8
#     2   2   2   2   2   2   2   2
#     4  12  25  45  70  97 127 173 229 276 331 407
#     4  11  24  43  60  90 138 174 210 274 344 396
#     4  11  19  37  64  93 130 176 219 270 326 389
#     4  10  21  39  66  97 127 168 227 273 318 394
#     4  10  21  39  66  96 125 171 225 274 322 390
#     4  10  21  39  68  93 124 158 219 274 319 390
#     4  10  21  39  64  98 125 163 207 273 331 393
#     4  12  27  43  67  97 135 177 216 276 351 405
#
# _framework density 25.748007000000001
#
# number of rings (size 3 to 8) (size 9 to 14) (size 15 to 20)
#    0.000    1.250    3.750    2.625    7.000    1.500 
#    4.500    0.000    0.000    0.000    0.000    0.000 
#    0.000    0.000    0.000    0.000    0.000    0.000 
#
# Total GULP energy -89070.096804 kJ/mol
# GULP energy per Si atom -5566.881050 kJ/mol
# Density = 2.568940 g / cm^3
# Si number density = 25.748007 Si / 1000 Ang^3
#
#
#
# Elastic Constant Matrix: (Units=GPa)
#
#
# Indices 1 2 3 4 5 6 
#
# 1 71.6419 37.6945 34.5444 4.7461 -14.3280 32.6033
# 2 37.6945 92.0181 40.2210 2.4164 1.7092 31.6347
# 3 34.5444 40.2210 151.2120 25.4523 -14.2938 19.5253
# 4 4.7461 2.4164 25.4523 41.7033 12.7348 7.7935
# 5 -14.3280 1.7092 -14.2938 12.7348 57.4513 6.1130
# 6 32.6033 31.6347 19.5253 7.7935 6.1130 47.5666
#
#
#
# Elastic Compliance Matrix: (Units=1/GPa)
#
#
# Indices 1 2 3 4 5 6 
#
# 1 0.025571 -0.004899 -0.001714 -0.001312 0.007916 -0.014368
# 2 -0.004899 0.016511 -0.003292 0.003637 -0.002644 -0.006528
# 3 -0.001714 -0.003292 0.009235 -0.006306 0.003347 0.000176
# 4 -0.001312 0.003637 -0.006306 0.030918 -0.008549 -0.002898
# 5 0.007916 -0.002644 0.003347 -0.008549 0.022887 -0.006582
# 6 -0.014368 -0.006528 0.000176 -0.002898 -0.006582 0.036461
#
#
# Mechanical properties :
#
#
# Convention : Reuss Voigt Hill
#
# Bulk Modulus (GPa) = 31.73819 59.97687 45.85753
# Shear Modulus (GPa) = 29.08731 42.83838 35.96285
#
# Velocity S-wave (km/s) = 3.36473 4.08334 3.74133
# Velocity P-wave (km/s) = 5.23913 6.75099 6.04253
#
# Compressibility (1/GPa) = 0.03150778
#
# Stress axis : x y z
#
# Youngs Moduli (GPa) = 39.10663 60.56635 108.27793
#
# Poissons Ratio (x) = 0.29670 0.18561
# Poissons Ratio (y) = 0.19158 0.35642
# Poissons Ratio (z) = 0.06704 0.19937
#
# Static dielectric constant tensor:
#      x y z
#    x 2.330490 -0.236080 0.211950 
#    y -0.236080 2.257190 -0.057540 
#    z 0.211950 -0.057540 2.303170 
# 
# From -- ./inp_files/351094.got.cif
#   From: 2010.05.17/outbox.cif.g08.bks.cpg/sg2_176_cif.got.tgz:351094.got - 2010.06.03 11:33:40.
