data_PCOD9008734
_publ_section_title
;
Structure prediction by ZEFSAII (Michael W. Deem and Ramdas Pophale) SiO2 
 PCOD9008734
Probable space group: P -1
;
_chemical_formula_sum "Si O2"
_cell_formula_units_Z 16
_cell_length_a 4.980335
_cell_length_b 25.068465
_cell_length_c 5.599884
_cell_angle_alpha 83.931589
_cell_angle_beta 95.170755
_cell_angle_gamma 117.010144
_cell_volume 618.693180
_symmetry_space_group_name_H-M "P -1"
_symmetry_group_IT_number 2
_symmetry_cell_setting 'triclinic'
loop_
_space_group_symop_operation_xyz
x,y,z
-x,-y,-z
loop_
_atom_site_type_symbol
_atom_site_label
_atom_site_fract_x
_atom_site_fract_y
_atom_site_fract_z
Si Si1 0.399539 0.622162 0.093478
Si Si2 0.089381 0.960835 0.346978
Si Si3 0.138687 0.414244 0.594848
Si Si4 0.288197 0.807055 0.595226
Si Si5 0.050157 0.150746 0.836364
Si Si6 0.580893 0.462093 0.214216
Si Si7 0.442899 0.923901 0.781441
Si Si8 0.657596 0.750975 0.826010
O O1 0.681789 0.612281 0.212395
O O2 0.494962 0.683773 0.934729
O O3 0.197594 0.616885 0.312099
O O4 0.254898 0.570095 0.904396
O O5 0.851290 0.896531 0.258172
O O6 0.295477 0.940032 0.533276
O O7 0.287013 0.013006 0.150786
O O8 0.000000 0.000000 0.500000
O O9 0.281322 0.414044 0.347622
O O10 0.230925 0.484991 0.610996
O O11 0.129832 0.822666 0.353875
O O12 0.505827 0.870210 0.711697
O O13 0.475651 0.769141 0.604865
O O14 0.996808 0.769500 0.756800
O O15 0.306490 0.205884 0.966728
O O16 0.806565 0.106483 0.025282
O O17 0.500000 0.500000 0.000000
#
# Coordination Sequence:
#
# PCOD9008734 Si02
#       8
#     2   2   2   2   2   2   2   2
#     4  11  23  42  68  96 138 179 232 286 339 401
#     4  10  21  39  65  96 126 161 219 276 338 412
#     4  10  22  40  68 101 135 178 232 277 341 419
#     4  10  24  44  69  94 135 172 232 278 338 406
#     4  10  23  44  68  94 130 179 215 276 348 401
#     4   9  21  40  66 101 139 178 221 283 348 395
#     4   9  21  40  61  94 126 163 216 273 338 411
#     4  11  25  47  66 100 135 182 229 282 334 411
#
# _framework density 25.860959999999999
#
# number of rings (size 3 to 8) (size 9 to 14) (size 15 to 20)
#    0.000    2.000    0.000    1.500    5.250   10.000 
#    9.000    2.500    0.000    0.000    0.000    0.000 
#    0.000    0.000    0.000    0.000    0.000    0.000 
#
# Total GULP energy -89463.054593 kJ/mol
# GULP energy per Si atom -5591.440912 kJ/mol
# Density = 2.580210 g / cm^3
# Si number density = 25.860960 Si / 1000 Ang^3
#
#
#
# Elastic Constant Matrix: (Units=GPa)
#
#
# Indices 1 2 3 4 5 6 
#
# 1 103.1535 23.7454 16.0879 -15.3147 6.1282 -16.6692
# 2 23.7454 109.2196 30.4629 -40.9409 1.6611 -10.7606
# 3 16.0879 30.4629 86.5652 -23.1974 -12.4977 -3.2743
# 4 -15.3147 -40.9409 -23.1974 33.2752 -4.6426 0.9165
# 5 6.1282 1.6611 -12.4977 -4.6426 45.4888 -8.2629
# 6 -16.6692 -10.7606 -3.2743 0.9165 -8.2629 27.2415
#
#
#
# Elastic Compliance Matrix: (Units=1/GPa)
#
#
# Indices 1 2 3 4 5 6 
#
# 1 0.011603 0.000191 -0.000633 0.004947 0.000021 0.006940
# 2 0.000191 0.018433 0.000485 0.023343 0.003205 0.007644
# 3 -0.000633 0.000485 0.015746 0.012060 0.006201 0.003172
# 4 0.004947 0.023343 0.012060 0.070681 0.011709 0.014871
# 5 0.000021 0.003205 0.006201 0.011709 0.026519 0.009674
# 6 0.006940 0.007644 0.003172 0.014871 0.009674 0.046790
#
#
# Mechanical properties :
#
#
# Convention : Reuss Voigt Hill
#
# Bulk Modulus (GPa) = 21.80078 48.83674 35.31876
# Shear Modulus (GPa) = 24.39310 36.44391 30.41851
#
# Velocity S-wave (km/s) = 3.07455 3.75804 3.43335
# Velocity P-wave (km/s) = 4.58826 6.14458 5.42254
#
# Compressibility (1/GPa) = 0.04586991
#
# Stress axis : x y z
#
# Youngs Moduli (GPa) = 86.18091 54.24960 63.50820
#
# Poissons Ratio (x) = -0.01039 0.04018
# Poissons Ratio (y) = -0.01650 -0.03078
# Poissons Ratio (z) = 0.05452 -0.02629
#
# Static dielectric constant tensor:
#      x y z
#    x 2.077900 0.048140 -0.023990 
#    y 0.048140 2.065380 0.098990 
#    z -0.023990 0.098990 2.112670 
# 
# From -- ./inp_files/14442.got.cif
#   From: 2010.05.17/outbox.cif.g08.bks.cpg/sg2_8_cif.got.tgz:14442.got - 2010.06.03 11:33:40.
