data_PCOD9008032
_publ_section_title
;
Structure prediction by ZEFSAII (Michael W. Deem and Ramdas Pophale) SiO2 
 PCOD9008032
Probable space group: P -1
;
_chemical_formula_sum "Si O2"
_cell_formula_units_Z 16
_cell_length_a 19.582234
_cell_length_b 17.086470
_cell_length_c 7.468948
_cell_angle_alpha 63.597612
_cell_angle_beta 124.600606
_cell_angle_gamma 159.553631
_cell_volume 684.584148
_symmetry_space_group_name_H-M "P -1"
_symmetry_group_IT_number 2
_symmetry_cell_setting 'triclinic'
loop_
_space_group_symop_operation_xyz
x,y,z
-x,-y,-z
loop_
_atom_site_type_symbol
_atom_site_label
_atom_site_fract_x
_atom_site_fract_y
_atom_site_fract_z
Si Si1 0.144133 0.533135 0.841064
Si Si2 0.391392 0.063871 0.709061
Si Si3 0.233013 0.222147 0.359289
Si Si4 0.411377 0.263983 0.326743
Si Si5 0.508394 0.106094 0.472430
Si Si6 0.022844 0.443609 0.339305
Si Si7 0.201383 0.940217 0.047442
Si Si8 0.070791 0.194500 0.407183
O O1 0.055931 0.533306 0.813225
O O2 0.118728 0.527481 0.598896
O O3 0.990237 0.300031 0.890786
O O4 0.390828 0.751260 0.048685
O O5 0.400311 0.173804 0.548761
O O6 0.377374 0.994351 0.573841
O O7 0.173474 0.814264 0.733848
O O8 0.500000 0.500000 0.500000
O O9 0.254191 0.189753 0.237583
O O10 0.119457 0.202118 0.271675
O O11 0.091463 0.022531 0.488717
O O12 0.674286 0.545492 0.406333
O O13 0.313528 0.126747 0.141449
O O14 0.760554 0.370894 0.637349
O O15 0.500000 0.000000 0.500000
O O16 0.401986 0.066542 0.208323
O O17 0.072364 0.858763 0.777122
#
# Coordination Sequence:
#
# PCOD9008032 Si02
#       8
#     2   2   2   2   2   2   2   2
#     4  11  21  41  60  86 127 168 214 264 307 358
#     4  11  23  40  61  91 124 166 215 262 307 366
#     4   9  21  43  69  94 124 158 197 253 314 381
#     4  10  21  39  63  94 129 159 203 254 310 370
#     4  11  22  41  60  85 127 168 211 263 309 357
#     4  11  22  40  61  83 127 170 211 266 311 350
#     4  11  22  41  63  91 129 167 210 260 303 366
#     4  10  21  43  68  91 127 161 197 256 314 371
#
# _framework density 23.371853999999999
#
# number of rings (size 3 to 8) (size 9 to 14) (size 15 to 20)
#    0.000    1.500    5.000    1.125    0.000    4.000 
#    2.250    5.625    0.000    0.000    0.000    0.000 
#    0.000    0.000    0.000    0.000    0.000    0.000 
#
# Total GULP energy -89300.216656 kJ/mol
# GULP energy per Si atom -5581.263541 kJ/mol
# Density = 2.331866 g / cm^3
# Si number density = 23.371854 Si / 1000 Ang^3
#
#
#
# Elastic Constant Matrix: (Units=GPa)
#
#
# Indices 1 2 3 4 5 6 
#
# 1 120.2904 21.1306 6.6608 15.1560 5.3659 -2.4325
# 2 21.1306 140.0081 23.7178 36.6990 4.3883 5.6892
# 3 6.6608 23.7178 69.1204 33.5882 9.1104 8.5141
# 4 15.1560 36.6990 33.5882 34.0575 6.4903 6.6898
# 5 5.3659 4.3883 9.1104 6.4903 21.5378 4.8021
# 6 -2.4325 5.6892 8.5141 6.6898 4.8021 25.8147
#
#
#
# Elastic Compliance Matrix: (Units=1/GPa)
#
#
# Indices 1 2 3 4 5 6 
#
# 1 0.009103 -0.000195 0.002050 -0.005937 -0.001773 0.002093
# 2 -0.000195 0.010422 0.003492 -0.014792 0.000859 0.000207
# 3 0.002050 0.003492 0.029794 -0.033152 -0.003579 -0.001146
# 4 -0.005937 -0.014792 -0.033152 0.082942 -0.004930 -0.006942
# 5 -0.001773 0.000859 -0.003579 -0.004930 0.051358 -0.007452
# 6 0.002093 0.000207 -0.001146 -0.006942 -0.007452 0.042453
#
#
# Mechanical properties :
#
#
# Convention : Reuss Voigt Hill
#
# Bulk Modulus (GPa) = 16.66251 48.04858 32.35554
# Shear Modulus (GPa) = 21.24205 34.80932 28.02568
#
# Velocity S-wave (km/s) = 3.01802 3.86342 3.46659
# Velocity P-wave (km/s) = 4.39197 6.36430 5.46780
#
# Compressibility (1/GPa) = 0.06001498
#
# Stress axis : x y z
#
# Youngs Moduli (GPa) = 109.85074 95.94829 33.56334
#
# Poissons Ratio (x) = 0.01867 -0.06881
# Poissons Ratio (y) = 0.02138 -0.11720
# Poissons Ratio (z) = -0.22522 -0.33503
#
# Static dielectric constant tensor:
#      x y z
#    x 1.969830 0.027330 -0.044740 
#    y 0.027330 1.932180 -0.018410 
#    z -0.044740 -0.018410 1.876180 
# 
# From -- ./inp_files/348442.got.cif
#   From: 2010.05.17/outbox.cif.g08.bks.cpg/sg2_175_cif.got.tgz:348442.got - 2010.06.03 11:33:40.
