data_PCOD9008363
_publ_section_title
;
Structure prediction by ZEFSAII (Michael W. Deem and Ramdas Pophale) SiO2 
 PCOD9008363
Probable space group: P -1
;
_chemical_formula_sum "Si O2"
_cell_formula_units_Z 14
_cell_length_a 14.933536
_cell_length_b 13.250853
_cell_length_c 8.213773
_cell_angle_alpha 109.769237
_cell_angle_beta 55.820955
_cell_angle_gamma 151.409029
_cell_volume 592.083074
_symmetry_space_group_name_H-M "P -1"
_symmetry_group_IT_number 2
_symmetry_cell_setting 'triclinic'
loop_
_space_group_symop_operation_xyz
x,y,z
-x,-y,-z
loop_
_atom_site_type_symbol
_atom_site_label
_atom_site_fract_x
_atom_site_fract_y
_atom_site_fract_z
Si Si1 0.874817 0.965814 0.476480
Si Si2 0.200366 0.643502 0.690134
Si Si3 0.691574 0.587262 0.920676
Si Si4 0.637978 0.500727 0.290947
Si Si5 0.269769 0.664852 0.986883
Si Si6 0.947069 0.198706 0.778597
Si Si7 0.474985 0.803904 0.188944
O O1 0.630820 0.714597 0.514952
O O2 0.824060 0.029642 0.665095
O O3 0.000000 0.000000 0.500000
O O4 0.062123 0.161863 0.260641
O O5 0.375980 0.774792 0.435288
O O6 0.002071 0.557465 0.814890
O O7 0.048178 0.400850 0.731299
O O8 0.306387 0.755453 0.823596
O O9 0.629260 0.409424 0.836391
O O10 0.500000 0.500000 0.000000
O O11 0.690933 0.601543 0.121695
O O12 0.833632 0.680573 0.324847
O O13 0.671597 0.404711 0.159024
O O14 0.401848 0.801366 0.095280
O O15 0.752351 0.036184 0.027281
#
# Coordination Sequence:
#
# PCOD9008363 Si02
#       7
#     2   2   2   2   2   2   2
#     4  12  22  42  66  86 124 164 204 266 321 374
#     4  10  21  39  64  94 131 170 217 259 323 377
#     4  11  21  41  63  89 123 164 207 266 322 374
#     4  10  23  41  61  91 128 158 213 263 311 382
#     4   9  20  40  61  93 135 164 213 274 306 380
#     4  11  23  41  62  96 126 166 216 260 312 393
#     4  11  21  40  64  92 132 170 217 259 322 384
#
# _framework density 23.645332
#
# number of rings (size 3 to 8) (size 9 to 14) (size 15 to 20)
#    0.000    1.429    5.714    0.429    0.000    3.429 
#    0.000    7.857    0.000    0.000    0.000    0.000 
#    0.000    0.000    0.000    0.000    0.000    0.000 
#
# Total GULP energy -78243.693301 kJ/mol
# GULP energy per Si atom -5588.835236 kJ/mol
# Density = 2.359151 g / cm^3
# Si number density = 23.645332 Si / 1000 Ang^3
#
#
#
# Elastic Constant Matrix: (Units=GPa)
#
#
# Indices 1 2 3 4 5 6 
#
# 1 89.1831 32.1192 27.3516 -12.4677 -11.7283 18.4696
# 2 32.1192 131.9344 49.6649 -8.4095 2.7297 11.2733
# 3 27.3516 49.6649 175.7690 -22.9394 -7.5864 3.4721
# 4 -12.4677 -8.4095 -22.9394 49.1656 2.3618 -2.9367
# 5 -11.7283 2.7297 -7.5864 2.3618 32.1444 -5.8090
# 6 18.4696 11.2733 3.4721 -2.9367 -5.8090 24.3969
#
#
#
# Elastic Compliance Matrix: (Units=1/GPa)
#
#
# Indices 1 2 3 4 5 6 
#
# 1 0.015062 -0.002447 -0.001028 0.002208 0.003675 -0.008985
# 2 -0.002447 0.009343 -0.002341 -0.000151 -0.002734 -0.002800
# 3 -0.001028 -0.002341 0.006882 0.002569 0.001541 0.001557
# 4 0.002208 -0.000151 0.002569 0.022116 -0.000078 0.000676
# 5 0.003675 -0.002734 0.001541 -0.000078 0.034208 0.006398
# 6 -0.008985 -0.002800 0.001557 0.000676 0.006398 0.050468
#
#
# Mechanical properties :
#
#
# Convention : Reuss Voigt Hill
#
# Bulk Modulus (GPa) = 50.88227 68.35088 59.61658
# Shear Modulus (GPa) = 31.99707 40.32478 36.16092
#
# Velocity S-wave (km/s) = 3.68259 4.13413 3.91488
# Velocity P-wave (km/s) = 6.29664 7.19427 6.76037
#
# Compressibility (1/GPa) = 0.01965321
#
# Stress axis : x y z
#
# Youngs Moduli (GPa) = 66.39066 107.03213 145.31004
#
# Poissons Ratio (x) = 0.26196 0.14938
# Poissons Ratio (y) = 0.16249 0.34024
# Poissons Ratio (z) = 0.06825 0.25061
#
# Static dielectric constant tensor:
#      x y z
#    x 1.906610 -0.009440 -0.029750 
#    y -0.009440 1.960310 0.008440 
#    z -0.029750 0.008440 1.872980 
# 
# From -- ./inp_files/313501.got.cif
#   From: 2010.05.17/outbox.cif.g08.bks.cpg/sg2_157_cif.got.tgz:313501.got - 2010.06.03 11:33:40.
