data_PCOD9008370
_publ_section_title
;
Structure prediction by ZEFSAII (Michael W. Deem and Ramdas Pophale) SiO2 
 PCOD9008370
Probable space group: P -1
;
_chemical_formula_sum "Si O2"
_cell_formula_units_Z 16
_cell_length_a 25.907135
_cell_length_b 9.369894
_cell_length_c 23.280781
_cell_angle_alpha 153.677972
_cell_angle_beta 17.278371
_cell_angle_gamma 144.395252
_cell_volume 703.857949
_symmetry_space_group_name_H-M "P -1"
_symmetry_group_IT_number 2
_symmetry_cell_setting 'triclinic'
loop_
_space_group_symop_operation_xyz
x,y,z
-x,-y,-z
loop_
_atom_site_type_symbol
_atom_site_label
_atom_site_fract_x
_atom_site_fract_y
_atom_site_fract_z
Si Si1 0.931376 0.298531 0.135169
Si Si2 0.758083 0.478687 0.173888
Si Si3 0.939090 0.406466 0.703238
Si Si4 0.402080 0.788560 0.253739
Si Si5 0.758782 0.687739 0.563501
Si Si6 0.441266 0.525886 0.903302
Si Si7 0.379631 0.523200 0.552253
Si Si8 0.992176 0.275455 0.372026
O O1 0.833195 0.627126 0.398162
O O2 0.774908 0.250215 0.243296
O O3 0.095803 0.351591 0.942617
O O4 0.000000 0.000000 0.000000
O O5 0.559301 0.626405 0.408889
O O6 0.718149 0.502012 0.292460
O O7 0.842062 0.076727 0.927122
O O8 0.066110 0.492122 0.646965
O O9 0.993612 0.503083 0.618068
O O10 0.718847 0.566437 0.993562
O O11 0.000000 0.000000 0.500000
O O12 0.473833 0.680413 0.203622
O O13 0.188729 0.827782 0.485835
O O14 0.439833 0.137144 0.325902
O O15 0.500000 0.500000 0.000000
O O16 0.602092 0.527446 0.689411
O O17 0.664071 0.086944 0.822769
O O18 0.000000 0.500000 0.500000
#
# Coordination Sequence:
#
# PCOD9008370 Si02
#       8
#     2   2   2   2   2   2   2   2
#     4  12  28  45  73 102 143 189 242 293 355 430
#     4  11  27  49  75 103 144 189 247 300 355 431
#     4  10  22  39  62  95 135 177 222 279 347 421
#     4  12  23  41  72 102 139 182 238 298 359 423
#     4  10  23  41  61  97 136 181 222 281 349 418
#     4  10  21  39  64  94 134 178 222 280 353 414
#     4  11  26  50  74 103 142 189 244 299 360 427
#     4  12  25  42  70 105 141 182 237 300 359 421
#
# _framework density 22.731859
#
# number of rings (size 3 to 8) (size 9 to 14) (size 15 to 20)
#    0.000    1.000    2.500    3.375    7.000    1.500 
#    0.000    0.000    0.000    0.000    0.000    0.000 
#    0.000    0.000    0.000    0.000    0.000    0.000 
#
# Total GULP energy -89530.795639 kJ/mol
# GULP energy per Si atom -5595.674727 kJ/mol
# Density = 2.268012 g / cm^3
# Si number density = 22.731859 Si / 1000 Ang^3
#
#
#
# Elastic Constant Matrix: (Units=GPa)
#
#
# Indices 1 2 3 4 5 6 
#
# 1 144.5649 21.9219 46.0175 -21.0637 -48.7141 8.2568
# 2 21.9219 28.4245 14.3824 -7.1941 -18.8831 -4.0915
# 3 46.0175 14.3824 100.2564 -10.5395 -16.8209 6.5212
# 4 -21.0637 -7.1941 -10.5395 48.8577 7.7941 -8.5816
# 5 -48.7141 -18.8831 -16.8209 7.7941 45.0736 4.4593
# 6 8.2568 -4.0915 6.5212 -8.5816 4.4593 32.2246
#
#
#
# Elastic Compliance Matrix: (Units=1/GPa)
#
#
# Indices 1 2 3 4 5 6 
#
# 1 0.012694 0.000241 -0.003280 0.002135 0.012596 -0.003732
# 2 0.000241 0.051837 -0.004250 0.004859 0.018952 0.006051
# 3 -0.003280 -0.004250 0.012144 0.000337 -0.000657 -0.001976
# 4 0.002135 0.004859 0.000337 0.023299 -0.000176 0.006231
# 5 0.012596 0.018952 -0.000657 -0.000176 0.044201 -0.006852
# 6 -0.003732 0.006051 -0.001976 0.006231 -0.006852 0.035764
#
#
# Mechanical properties :
#
#
# Convention : Reuss Voigt Hill
#
# Bulk Modulus (GPa) = 16.10439 48.65437 32.37938
# Shear Modulus (GPa) = 23.23253 37.95943 30.59598
#
# Velocity S-wave (km/s) = 3.20038 4.09085 3.67270
# Velocity P-wave (km/s) = 4.55593 6.61539 5.67978
#
# Compressibility (1/GPa) = 0.06209487
#
# Stress axis : x y z
#
# Youngs Moduli (GPa) = 78.77959 19.29140 82.34808
#
# Poissons Ratio (x) = -0.00465 0.27013
# Poissons Ratio (y) = -0.01897 0.34997
# Poissons Ratio (z) = 0.25843 0.08199
#
# Static dielectric constant tensor:
#      x y z
#    x 1.828300 0.057210 -0.015990 
#    y 0.057210 1.822830 0.021970 
#    z -0.015990 0.021970 1.887880 
# 
# From -- ./inp_files/601959.got.cif
#   From: 2010.05.17/outbox.cif.g08.bks.cpg/sg2_301_cif.got.tgz:601959.got - 2010.06.03 11:33:40.
