data_PCOD9008295
_publ_section_title
;
Structure prediction by ZEFSAII (Michael W. Deem and Ramdas Pophale) SiO2 
 PCOD9008295
Probable space group: P -1
;
_chemical_formula_sum "Si O2"
_cell_formula_units_Z 13
_cell_length_a 12.393695
_cell_length_b 9.749842
_cell_length_c 10.352517
_cell_angle_alpha 42.511856
_cell_angle_beta 42.863346
_cell_angle_gamma 59.218107
_cell_volume 573.927811
_symmetry_space_group_name_H-M "P -1"
_symmetry_group_IT_number 2
_symmetry_cell_setting 'triclinic'
loop_
_space_group_symop_operation_xyz
x,y,z
-x,-y,-z
loop_
_atom_site_type_symbol
_atom_site_label
_atom_site_fract_x
_atom_site_fract_y
_atom_site_fract_z
Si Si1 0.096549 0.707047 0.017763
Si Si2 0.348386 0.633121 0.027761
Si Si3 0.074109 0.684709 0.629415
Si Si4 0.442394 0.673351 0.337775
Si Si5 0.000000 0.500000 0.500000
Si Si6 0.553268 0.885157 0.844823
Si Si7 0.089132 0.030753 0.596185
O O1 0.062175 0.912127 0.834048
O O2 0.280863 0.690959 0.906547
O O3 0.041746 0.513430 0.111303
O O4 0.001096 0.662650 0.263720
O O5 0.196412 0.518729 0.306570
O O6 0.500000 0.500000 0.000000
O O7 0.409755 0.835900 0.907715
O O8 0.255686 0.633085 0.500381
O O9 0.019141 0.783054 0.472134
O O10 0.060500 0.857069 0.630821
O O11 0.500000 0.500000 0.500000
O O12 0.458970 0.890428 0.244131
O O13 0.535056 0.719493 0.091004
O O14 0.729440 0.883586 0.634058
#
# Coordination Sequence:
#
# PCOD9008295 Si02
#       7
#     2   2   2   2   1   2   2
#     4  10  21  40  63  90 132 178 215 269 344 393
#     4  10  21  40  69  96 138 179 220 285 334 404
#     4  10  21  39  64  92 132 162 226 273 326 405
#     4  10  23  42  68  94 133 180 221 284 346 392
#     4   8  22  40  62  96 128 176 230 266 328 408
#     4  10  22  41  63 100 135 169 232 276 333 416
#     4  10  22  38  63  98 126 172 216 280 335 394
#
# _framework density 22.650932000000001
#
# number of rings (size 3 to 8) (size 9 to 14) (size 15 to 20)
#    0.923    1.231    0.000    2.308    0.000   10.462 
#    0.000    3.846    0.000    0.000    0.000    0.000 
#    0.000    0.000    0.000    0.000    0.000    0.000 
#
# Total GULP energy -72413.015509 kJ/mol
# GULP energy per Si atom -5570.231962 kJ/mol
# Density = 2.259938 g / cm^3
# Si number density = 22.650932 Si / 1000 Ang^3
#
#
#
# Elastic Constant Matrix: (Units=GPa)
#
#
# Indices 1 2 3 4 5 6 
#
# 1 147.2392 36.2691 90.7331 -7.9561 -13.7582 -22.9409
# 2 36.2691 54.3228 43.9572 -6.2562 -0.1349 -19.5149
# 3 90.7331 43.9572 135.1577 -6.7560 22.4685 -23.6190
# 4 -7.9561 -6.2562 -6.7560 26.3166 -4.9191 2.4777
# 5 -13.7582 -0.1349 22.4685 -4.9191 55.4988 -9.5324
# 6 -22.9409 -19.5149 -23.6190 2.4777 -9.5324 33.0390
#
#
#
# Elastic Compliance Matrix: (Units=1/GPa)
#
#
# Indices 1 2 3 4 5 6 
#
# 1 0.015319 0.001315 -0.011095 0.003328 0.009619 0.006008
# 2 0.001315 0.030767 -0.009344 0.005311 0.007067 0.014047
# 3 -0.011095 -0.009344 0.019175 -0.002505 -0.011197 -0.002558
# 4 0.003328 0.005311 -0.002505 0.040499 0.005838 0.002305
# 5 0.009619 0.007067 -0.011197 0.005838 0.027235 0.010269
# 6 0.006008 0.014047 -0.002558 0.002305 0.010269 0.043698
#
#
# Mechanical properties :
#
#
# Convention : Reuss Voigt Hill
#
# Bulk Modulus (GPa) = 37.01716 75.40427 56.21071
# Shear Modulus (GPa) = 22.32715 34.02158 28.17436
#
# Velocity S-wave (km/s) = 3.14300 3.87976 3.53065
# Velocity P-wave (km/s) = 5.43592 7.30972 6.44132
#
# Compressibility (1/GPa) = 0.02701450
#
# Stress axis : x y z
#
# Youngs Moduli (GPa) = 65.27689 32.50280 52.15197
#
# Poissons Ratio (x) = -0.04274 0.57860
# Poissons Ratio (y) = -0.08584 0.48729
# Poissons Ratio (z) = 0.72422 0.30369
#
# Static dielectric constant tensor:
#      x y z
#    x 2.200220 0.495820 -0.027830 
#    y 0.495820 2.424470 -0.047870 
#    z -0.027830 -0.047870 1.771910 
# 
# From -- ./inp_files/422608.got.cif
#   From: 2010.05.17/outbox.cif.g08.bks.cpg/sg2_212_cif.got.tgz:422608.got - 2010.06.03 11:33:40.
