data_PCOD9008826
_publ_section_title
;
Structure prediction by ZEFSAII (Michael W. Deem and Ramdas Pophale) SiO2 
 PCOD9008826
Probable space group: P -1
;
_chemical_formula_sum "Si O2"
_cell_formula_units_Z 16
_cell_length_a 12.639217
_cell_length_b 11.866965
_cell_length_c 7.409405
_cell_angle_alpha 64.707349
_cell_angle_beta 77.030106
_cell_angle_gamma 44.991050
_cell_volume 705.117026
_symmetry_space_group_name_H-M "P -1"
_symmetry_group_IT_number 2
_symmetry_cell_setting 'triclinic'
loop_
_space_group_symop_operation_xyz
x,y,z
-x,-y,-z
loop_
_atom_site_type_symbol
_atom_site_label
_atom_site_fract_x
_atom_site_fract_y
_atom_site_fract_z
Si Si1 0.494041 0.656057 0.726285
Si Si2 0.051123 0.805857 0.770685
Si Si3 0.511527 0.856692 0.000994
Si Si4 0.320298 0.263408 0.359862
Si Si5 0.601676 0.522030 0.192161
Si Si6 0.226667 0.139616 0.739033
Si Si7 0.862795 0.999802 0.353305
Si Si8 0.001074 0.583433 0.120490
O O1 0.589917 0.698571 0.599911
O O2 0.492732 0.528961 0.699799
O O3 0.318069 0.835027 0.684205
O O4 0.563952 0.572963 0.956540
O O5 0.220893 0.646854 0.739975
O O6 0.063306 0.928586 0.782843
O O7 0.931847 0.915259 0.580327
O O8 0.011030 0.718940 0.963379
O O9 0.615018 0.795565 0.826912
O O10 0.340110 0.967849 0.930320
O O11 0.564967 0.684099 0.185144
O O12 0.500000 0.000000 0.000000
O O13 0.324338 0.131566 0.555515
O O14 0.145265 0.435312 0.284878
O O15 0.148410 0.305384 0.779012
O O16 0.110377 0.140345 0.686975
O O17 0.000000 0.500000 0.000000
#
# Coordination Sequence:
#
# PCOD9008826 Si02
#       8
#     2   2   2   2   2   2   2   2
#     4   9  17  35  67  94 123 168 216 264 322 387
#     4  10  21  40  67  94 134 170 210 272 329 387
#     4  11  22  39  65  95 128 173 215 269 324 382
#     4  11  22  42  65  93 129 175 216 269 323 384
#     4   9  17  36  66  94 123 169 218 261 319 391
#     4  12  25  40  64  97 130 172 222 272 324 390
#     4  10  21  39  66 101 129 166 215 269 332 388
#     4  12  25  43  64  93 129 175 219 270 331 392
#
# _framework density 22.691268999999998
#
# number of rings (size 3 to 8) (size 9 to 14) (size 15 to 20)
#    0.000    1.500    5.000    2.250    0.000    0.500 
#    0.000    0.000    0.000    2.250    0.000    0.000 
#    0.000    0.000    0.000    0.000    0.000    0.000 
#
# Total GULP energy -89352.571385 kJ/mol
# GULP energy per Si atom -5584.535712 kJ/mol
# Density = 2.263962 g / cm^3
# Si number density = 22.691269 Si / 1000 Ang^3
#
#
#
# Elastic Constant Matrix: (Units=GPa)
#
#
# Indices 1 2 3 4 5 6 
#
# 1 104.1968 21.1891 16.7483 0.5399 -5.4497 33.9134
# 2 21.1891 84.0823 4.3213 -0.4752 -1.0851 21.2981
# 3 16.7483 4.3213 33.8219 -14.2718 -0.3678 14.1967
# 4 0.5399 -0.4752 -14.2718 26.0276 0.1194 3.7633
# 5 -5.4497 -1.0851 -0.3678 0.1194 34.4285 -21.2011
# 6 33.9134 21.2981 14.1967 3.7633 -21.2011 50.1067
#
#
#
# Elastic Compliance Matrix: (Units=1/GPa)
#
#
# Indices 1 2 3 4 5 6 
#
# 1 0.013007 -0.000861 -0.002686 -0.000413 -0.003656 -0.009192
# 2 -0.000861 0.014154 0.003955 0.003778 -0.005236 -0.009053
# 3 -0.002686 0.003955 0.054444 0.033516 -0.014606 -0.023986
# 4 -0.000413 0.003778 0.033516 0.059913 -0.012485 -0.020605
# 5 -0.003656 -0.005236 -0.014606 -0.012485 0.046264 0.029351
# 6 -0.009192 -0.009053 -0.023986 -0.020605 0.029351 0.050790
#
#
# Mechanical properties :
#
#
# Convention : Reuss Voigt Hill
#
# Bulk Modulus (GPa) = 12.13285 34.06871 23.10078
# Shear Modulus (GPa) = 18.85174 34.10204 26.47689
#
# Velocity S-wave (km/s) = 2.88547 3.88089 3.41960
# Velocity P-wave (km/s) = 4.05707 5.92692 5.07879
#
# Compressibility (1/GPa) = 0.08242087
#
# Stress axis : x y z
#
# Youngs Moduli (GPa) = 76.88257 70.65252 18.36766
#
# Poissons Ratio (x) = 0.06082 0.04934
# Poissons Ratio (y) = 0.06618 -0.07265
# Poissons Ratio (z) = 0.20653 -0.27946
#
# Static dielectric constant tensor:
#      x y z
#    x 1.879740 0.028000 -0.009310 
#    y 0.028000 1.873300 -0.000160 
#    z -0.009310 -0.000160 1.852070 
# 
# From -- ./inp_files/256884.got.cif
#   From: 2010.05.17/outbox.cif.g08.bks.cpg/sg2_129_cif.got.tgz:256884.got - 2010.06.03 11:33:40.
