data_PCOD9008557
_publ_section_title
;
Structure prediction by ZEFSAII (Michael W. Deem and Ramdas Pophale) SiO2 
 PCOD9008557
Probable space group: P -1
;
_chemical_formula_sum "Si O2"
_cell_formula_units_Z 14
_cell_length_a 11.082268
_cell_length_b 17.499002
_cell_length_c 7.154219
_cell_angle_alpha 143.068855
_cell_angle_beta 50.073692
_cell_angle_gamma 137.937633
_cell_volume 554.439292
_symmetry_space_group_name_H-M "P -1"
_symmetry_group_IT_number 2
_symmetry_cell_setting 'triclinic'
loop_
_space_group_symop_operation_xyz
x,y,z
-x,-y,-z
loop_
_atom_site_type_symbol
_atom_site_label
_atom_site_fract_x
_atom_site_fract_y
_atom_site_fract_z
Si Si1 0.818327 0.399577 0.301898
Si Si2 0.524745 0.159574 0.497361
Si Si3 0.950348 0.731264 0.264789
Si Si4 0.915655 0.994472 0.871581
Si Si5 0.498120 0.875432 0.999299
Si Si6 0.063173 0.726303 0.566094
Si Si7 0.390730 0.545380 0.057087
O O1 0.650486 0.289218 0.123070
O O2 0.739642 0.427820 0.622536
O O3 0.943157 0.555272 0.391280
O O4 0.927588 0.314362 0.068894
O O5 0.493987 0.133077 0.252485
O O6 0.730521 0.218938 0.476602
O O7 0.488512 0.293567 0.841341
O O8 0.432978 0.993138 0.341039
O O9 0.033164 0.743698 0.412036
O O10 0.953820 0.880407 0.498830
O O11 0.744081 0.594696 0.204626
O O12 0.698228 0.924783 0.967087
O O13 0.989855 0.161739 0.062457
O O14 0.000000 0.000000 0.000000
O O15 0.500000 0.500000 0.000000
#
# Coordination Sequence:
#
# PCOD9008557 Si02
#       7
#     2   2   2   2   2   2   2
#     4  11  22  38  63  97 117 154 212 251 295 360
#     4   9  18  36  61  83 119 158 200 239 302 356
#     4  11  21  38  65  89 123 163 198 247 308 354
#     4   9  20  41  61  85 124 166 195 242 305 362
#     4   9  19  36  61  86 117 160 198 247 299 351
#     4  10  21  39  65  90 123 161 199 248 304 360
#     4  11  23  39  61  88 124 161 203 250 302 359
#
# _framework density 25.250734999999999
#
# number of rings (size 3 to 8) (size 9 to 14) (size 15 to 20)
#    0.000    2.000    1.429    2.571    2.000    0.000 
#    2.571   13.571    0.000    0.000    0.000    0.000 
#    0.000    0.000    0.000    0.000    0.000    0.000 
#
# Total GULP energy -78240.953012 kJ/mol
# GULP energy per Si atom -5588.639501 kJ/mol
# Density = 2.519326 g / cm^3
# Si number density = 25.250735 Si / 1000 Ang^3
#
#
#
# Elastic Constant Matrix: (Units=GPa)
#
#
# Indices 1 2 3 4 5 6 
#
# 1 167.4274 28.6754 57.1185 24.4809 4.0369 16.9241
# 2 28.6754 62.0931 44.3537 36.8638 3.1466 9.5862
# 3 57.1185 44.3537 153.1138 32.7952 -31.8369 -4.1765
# 4 24.4809 36.8638 32.7952 45.9420 -6.9051 6.6092
# 5 4.0369 3.1466 -31.8369 -6.9051 50.4482 10.3754
# 6 16.9241 9.5862 -4.1765 6.6092 10.3754 32.1214
#
#
#
# Elastic Compliance Matrix: (Units=1/GPa)
#
#
# Indices 1 2 3 4 5 6 
#
# 1 0.007654 0.000659 -0.003129 -0.002208 -0.002218 -0.003465
# 2 0.000659 0.038223 -0.007912 -0.026320 -0.010194 -0.004075
# 3 -0.003129 -0.007912 0.011520 0.000482 0.007464 0.002997
# 4 -0.002208 -0.026320 0.000482 0.045533 0.009013 -0.003199
# 5 -0.002218 -0.010194 0.007464 0.009013 0.027738 -0.005633
# 6 -0.003465 -0.004075 0.002997 -0.003199 -0.005633 0.037041
#
#
# Mechanical properties :
#
#
# Convention : Reuss Voigt Hill
#
# Bulk Modulus (GPa) = 27.29667 71.43661 49.36664
# Shear Modulus (GPa) = 24.91473 42.53477 33.72475
#
# Velocity S-wave (km/s) = 3.14458 4.10871 3.65854
# Velocity P-wave (km/s) = 4.90084 7.13169 6.11879
#
# Compressibility (1/GPa) = 0.03663451
#
# Stress axis : x y z
#
# Youngs Moduli (GPa) = 130.65118 26.16199 86.80223
#
# Poissons Ratio (x) = -0.01723 0.27158
# Poissons Ratio (y) = -0.08605 0.68675
# Poissons Ratio (z) = 0.40877 0.20698
#
# Static dielectric constant tensor:
#      x y z
#    x 1.968150 -0.027120 0.006640 
#    y -0.027120 2.075880 0.030650 
#    z 0.006640 0.030650 2.099300 
# 
# From -- ./inp_files/283472.got.cif
#   From: 2010.05.17/outbox.cif.g08.bks.cpg/sg2_142_cif.got.tgz:283472.got - 2010.06.03 11:33:40.
