data_PCOD9008187
_publ_section_title
;
Structure prediction by ZEFSAII (Michael W. Deem and Ramdas Pophale) SiO2 
 PCOD9008187
Probable space group: P -1
;
_chemical_formula_sum "Si O2"
_cell_formula_units_Z 16
_cell_length_a 15.563155
_cell_length_b 9.201019
_cell_length_c 15.153368
_cell_angle_alpha 123.291630
_cell_angle_beta 38.667038
_cell_angle_gamma 142.050401
_cell_volume 821.048232
_symmetry_space_group_name_H-M "P -1"
_symmetry_group_IT_number 2
_symmetry_cell_setting 'triclinic'
loop_
_space_group_symop_operation_xyz
x,y,z
-x,-y,-z
loop_
_atom_site_type_symbol
_atom_site_label
_atom_site_fract_x
_atom_site_fract_y
_atom_site_fract_z
Si Si1 0.671915 0.376468 0.931960
Si Si2 0.190652 0.768482 0.914875
Si Si3 0.826859 0.281540 0.624296
Si Si4 0.741650 0.105876 0.900831
Si Si5 0.535557 0.945375 0.595369
Si Si6 0.197150 0.147160 0.941666
Si Si7 0.469232 0.699883 0.392263
Si Si8 0.967011 0.781672 0.417433
O O1 0.722498 0.344328 0.783870
O O2 0.755481 0.305640 0.908953
O O3 0.755378 0.640420 0.967929
O O4 0.447631 0.165853 0.063151
O O5 0.324974 0.770029 0.745939
O O6 0.173698 0.944406 0.944276
O O7 0.282997 0.880658 0.972661
O O8 0.000000 0.500000 0.000000
O O9 0.922783 0.244139 0.609019
O O10 0.000000 0.500000 0.500000
O O11 0.681277 0.065265 0.600180
O O12 0.926758 0.162382 0.741426
O O13 0.548899 0.816133 0.464150
O O14 0.557662 0.148026 0.593653
O O15 0.375976 0.279421 0.776313
O O16 0.000000 0.000000 0.000000
O O17 0.257076 0.443268 0.484352
O O18 0.000000 0.000000 0.500000
#
# Coordination Sequence:
#
# PCOD9008187 Si02
#       8
#     2   2   2   2   2   2   2   2
#     4  10  22  40  63  93 126 160 211 252 312 374
#     4  11  22  40  64  91 124 163 209 253 314 378
#     4  11  22  39  68  94 121 165 211 260 305 375
#     4  10  21  39  64  89 124 168 199 254 313 371
#     4  10  21  41  66  92 120 163 214 252 310 373
#     4  11  25  41  62  93 126 165 206 265 311 367
#     4  10  22  41  63  89 126 164 206 257 311 373
#     4  11  23  40  62  94 129 164 205 257 318 369
#
# _framework density 19.487283000000001
#
# number of rings (size 3 to 8) (size 9 to 14) (size 15 to 20)
#    0.000    1.500    2.500    2.250    1.750    3.500 
#    2.250    0.625    0.000    0.000    0.000    0.000 
#    0.000    0.000    0.000    0.000    0.000    0.000 
#
# Total GULP energy -89273.720698 kJ/mol
# GULP energy per Si atom -5579.607544 kJ/mol
# Density = 1.944293 g / cm^3
# Si number density = 19.487283 Si / 1000 Ang^3
#
#
#
# Elastic Constant Matrix: (Units=GPa)
#
#
# Indices 1 2 3 4 5 6 
#
# 1 59.1867 15.9800 20.9250 7.6456 8.7212 14.7268
# 2 15.9800 106.2946 58.8865 -0.8386 -9.6995 12.6275
# 3 20.9250 58.8865 130.2318 -9.2620 4.4297 4.3289
# 4 7.6456 -0.8386 -9.2620 28.8432 9.0567 7.6523
# 5 8.7212 -9.6995 4.4297 9.0567 28.0588 -4.7749
# 6 14.7268 12.6275 4.3289 7.6523 -4.7749 24.6410
#
#
#
# Elastic Compliance Matrix: (Units=1/GPa)
#
#
# Indices 1 2 3 4 5 6 
#
# 1 0.023159 -0.001379 -0.002271 0.000070 -0.009834 -0.014663
# 2 -0.001379 0.014176 -0.006486 -0.002525 0.006617 -0.003235
# 3 -0.002271 -0.006486 0.011577 0.005840 -0.005281 -0.000190
# 4 0.000070 -0.002525 0.005840 0.047785 -0.020400 -0.018567
# 5 -0.009834 0.006617 -0.005281 -0.020400 0.051768 0.019781
# 6 -0.014663 -0.003235 -0.000190 -0.018567 0.019781 0.060637
#
#
# Mechanical properties :
#
#
# Convention : Reuss Voigt Hill
#
# Bulk Modulus (GPa) = 34.91274 54.14401 44.52838
# Shear Modulus (GPa) = 20.92747 29.63669 25.28208
#
# Velocity S-wave (km/s) = 3.28060 3.90400 3.60580
# Velocity P-wave (km/s) = 5.68369 6.94019 6.34313
#
# Compressibility (1/GPa) = 0.02864284
#
# Stress axis : x y z
#
# Youngs Moduli (GPa) = 43.17922 70.54020 86.37551
#
# Poissons Ratio (x) = 0.09724 0.19615
# Poissons Ratio (y) = 0.05952 0.56020
# Poissons Ratio (z) = 0.09806 0.45750
#
# Static dielectric constant tensor:
#      x y z
#    x 1.626710 0.004570 -0.026350 
#    y 0.004570 1.639430 -0.049450 
#    z -0.026350 -0.049450 1.641100 
# 
# From -- ./inp_files/262574.got.cif
#   From: 2010.05.17/outbox.cif.g08.bks.cpg/sg2_132_cif.got.tgz:262574.got - 2010.06.03 11:33:40.
