data_PCOD9008057
_publ_section_title
;
Structure prediction by ZEFSAII (Michael W. Deem and Ramdas Pophale) SiO2 
 PCOD9008057
Probable space group: P -1
;
_chemical_formula_sum "Si O2"
_cell_formula_units_Z 16
_cell_length_a 10.544909
_cell_length_b 9.619829
_cell_length_c 8.281349
_cell_angle_alpha 122.368396
_cell_angle_beta 85.092471
_cell_angle_gamma 95.203057
_cell_volume 705.928395
_symmetry_space_group_name_H-M "P -1"
_symmetry_group_IT_number 2
_symmetry_cell_setting 'triclinic'
loop_
_space_group_symop_operation_xyz
x,y,z
-x,-y,-z
loop_
_atom_site_type_symbol
_atom_site_label
_atom_site_fract_x
_atom_site_fract_y
_atom_site_fract_z
Si Si1 0.796203 0.914641 0.957658
Si Si2 0.014501 0.972887 0.211574
Si Si3 0.973908 0.349965 0.531607
Si Si4 0.574385 0.148469 0.865146
Si Si5 0.685652 0.311095 0.654167
Si Si6 0.403638 0.841695 0.763707
Si Si7 0.916127 0.648376 0.165433
Si Si8 0.335558 0.345921 0.017137
O O1 0.927128 0.894135 0.027402
O O2 0.713141 0.036935 0.142866
O O3 0.720740 0.740717 0.866277
O O4 0.839080 0.001532 0.842369
O O5 0.988136 0.830537 0.255818
O O6 0.975066 0.159714 0.356470
O O7 0.835028 0.359253 0.635373
O O8 0.000000 0.500000 0.500000
O O9 0.090067 0.377473 0.660599
O O10 0.666779 0.179226 0.720876
O O11 0.531869 0.958265 0.792952
O O12 0.600278 0.224730 0.091289
O O13 0.445871 0.233926 0.876991
O O14 0.623340 0.264450 0.459166
O O15 0.621977 0.470566 0.830400
O O16 0.781352 0.650351 0.092910
O O17 0.000000 0.500000 0.000000
#
# Coordination Sequence:
#
# PCOD9008057 Si02
#       8
#     2   2   2   2   2   2   2   2
#     4   9  19  37  64  90 131 173 215 276 341 402
#     4  10  21  39  63  95 133 177 226 270 342 411
#     4  12  26  42  65 105 139 175 235 284 342 417
#     4  10  24  44  68  95 132 178 229 281 342 406
#     4  12  23  41  69  96 133 175 227 282 337 406
#     4  10  22  43  67 100 126 174 229 284 342 403
#     4  11  24  42  67  95 138 179 221 279 346 406
#     4  10  22  43  63  96 136 174 224 280 338 410
#
# _framework density 22.665189000000002
#
# number of rings (size 3 to 8) (size 9 to 14) (size 15 to 20)
#    0.000    1.500    2.500    1.875    5.250    1.500 
#    0.000    3.750    0.000    0.000    0.000    0.000 
#    0.000    0.000    0.000    0.000    0.000    0.000 
#
# Total GULP energy -89160.281872 kJ/mol
# GULP energy per Si atom -5572.517617 kJ/mol
# Density = 2.261360 g / cm^3
# Si number density = 22.665189 Si / 1000 Ang^3
#
#
#
# Elastic Constant Matrix: (Units=GPa)
#
#
# Indices 1 2 3 4 5 6 
#
# 1 67.6036 33.9504 21.4746 -19.6593 5.5404 3.7390
# 2 33.9504 131.7680 36.0708 -18.5698 4.8368 3.9281
# 3 21.4746 36.0708 69.7662 -10.5176 19.3153 -3.0388
# 4 -19.6593 -18.5698 -10.5176 42.4790 -6.3059 -3.1048
# 5 5.5404 4.8368 19.3153 -6.3059 35.5324 -8.8586
# 6 3.7390 3.9281 -3.0388 -3.1048 -8.8586 32.4883
#
#
#
# Elastic Compliance Matrix: (Units=1/GPa)
#
#
# Indices 1 2 3 4 5 6 
#
# 1 0.019471 -0.003076 -0.003482 0.006705 0.000084 -0.001531
# 2 -0.003076 0.009800 -0.004314 0.002002 0.001702 -0.000579
# 3 -0.003482 -0.004314 0.020399 0.000093 -0.009908 0.000138
# 4 0.006705 0.002002 0.000093 0.028408 0.004398 0.002909
# 5 0.000084 0.001702 -0.009908 0.004398 0.036357 0.009192
# 6 -0.001531 -0.000579 0.000138 0.002909 0.009192 0.033824
#
#
# Mechanical properties :
#
#
# Convention : Reuss Voigt Hill
#
# Bulk Modulus (GPa) = 35.81077 50.23663 43.02370
# Shear Modulus (GPa) = 27.88463 33.94272 30.91368
#
# Velocity S-wave (km/s) = 3.51135 3.87404 3.69715
# Velocity P-wave (km/s) = 5.68099 6.49798 6.10317
#
# Compressibility (1/GPa) = 0.02792456
#
# Stress axis : x y z
#
# Youngs Moduli (GPa) = 51.35972 102.04420 49.02201
#
# Poissons Ratio (x) = 0.31389 0.17069
# Poissons Ratio (y) = 0.15798 0.21150
# Poissons Ratio (z) = 0.17883 0.44026
#
# Static dielectric constant tensor:
#      x y z
#    x 1.894300 0.012500 -0.004390 
#    y 0.012500 1.983930 -0.049770 
#    z -0.004390 -0.049770 1.876310 
# 
# From -- ./inp_files/240959.got.cif
#   From: 2010.05.17/outbox.cif.g08.bks.cpg/sg2_121_cif.got.tgz:240959.got - 2010.06.03 11:33:40.
