data_PCOD9008849
_publ_section_title
;
Structure prediction by ZEFSAII (Michael W. Deem and Ramdas Pophale) SiO2 
 PCOD9008849
Probable space group: P -1
;
_chemical_formula_sum "Si O2"
_cell_formula_units_Z 15
_cell_length_a 12.512050
_cell_length_b 13.941549
_cell_length_c 5.016064
_cell_angle_alpha 97.199482
_cell_angle_beta 104.240539
_cell_angle_gamma 132.693242
_cell_volume 568.533904
_symmetry_space_group_name_H-M "P -1"
_symmetry_group_IT_number 2
_symmetry_cell_setting 'triclinic'
loop_
_space_group_symop_operation_xyz
x,y,z
-x,-y,-z
loop_
_atom_site_type_symbol
_atom_site_label
_atom_site_fract_x
_atom_site_fract_y
_atom_site_fract_z
Si Si1 0.381091 0.924668 0.646485
Si Si2 0.468992 0.628595 0.362897
Si Si3 0.823222 0.653759 0.210776
Si Si4 0.923404 0.504590 0.202268
Si Si5 0.682204 0.909153 0.228010
Si Si6 0.000000 0.000000 0.500000
Si Si7 0.193416 0.231403 0.245936
Si Si8 0.357630 0.707594 0.691344
O O1 0.292872 0.764952 0.545247
O O2 0.500000 0.000000 0.500000
O O3 0.283063 0.960786 0.598307
O O4 0.500000 0.000000 0.000000
O O5 0.358036 0.490764 0.054999
O O6 0.572937 0.772575 0.306596
O O7 0.613210 0.667039 0.623642
O O8 0.341462 0.601774 0.467838
O O9 0.874110 0.778029 0.091295
O O10 0.929486 0.625202 0.236470
O O11 0.822231 0.689798 0.525199
O O12 0.732208 0.361299 0.105856
O O13 0.000000 0.500000 0.500000
O O14 0.000000 0.500000 0.000000
O O15 0.553250 0.840447 0.885319
O O16 0.846584 0.963677 0.272245
O O17 0.109356 0.094491 0.323041
#
# Coordination Sequence:
#
# PCOD9008849 Si02
#       8
#     2   2   2   2   2   1   2   2
#     4  10  21  39  66 104 138 183 247 294 355 424
#     4  11  22  41  74 107 143 191 245 300 369 444
#     4  12  25  47  71 106 146 191 251 305 374 443
#     4  12  27  45  71 105 147 192 246 308 377 439
#     4  10  22  43  71 104 147 194 241 305 362 443
#     4  10  26  50  70 108 148 196 246 298 382 436
#     4  11  27  45  72 106 149 192 244 308 368 447
#     4  11  23  43  74 103 149 192 249 306 373 442
#
# _framework density 26.383649999999999
#
# number of rings (size 3 to 8) (size 9 to 14) (size 15 to 20)
#    0.000    1.067    2.667    3.200    3.733    2.667 
#    2.400    1.333    0.000    0.000    0.000    0.000 
#    0.000    0.000    0.000    0.000    0.000    0.000 
#
# Total GULP energy -83766.443423 kJ/mol
# GULP energy per Si atom -5584.429562 kJ/mol
# Density = 2.632360 g / cm^3
# Si number density = 26.383650 Si / 1000 Ang^3
#
#
#
# Elastic Constant Matrix: (Units=GPa)
#
#
# Indices 1 2 3 4 5 6 
#
# 1 166.1956 31.2220 12.0316 -4.3982 8.4343 2.9201
# 2 31.2220 134.5139 -5.9184 -14.5513 4.0740 -4.6024
# 3 12.0316 -5.9184 74.6949 -18.1843 2.7472 15.3936
# 4 -4.3982 -14.5513 -18.1843 43.8505 7.5753 7.3630
# 5 8.4343 4.0740 2.7472 7.5753 57.8924 -6.5868
# 6 2.9201 -4.6024 15.3936 7.3630 -6.5868 48.7499
#
#
#
# Elastic Compliance Matrix: (Units=1/GPa)
#
#
# Indices 1 2 3 4 5 6 
#
# 1 0.006428 -0.001542 -0.001110 -0.000147 -0.000786 -0.000264
# 2 -0.001542 0.008283 0.001905 0.003619 -0.000968 -0.000405
# 3 -0.001110 0.001905 0.017611 0.009518 -0.002866 -0.007139
# 4 -0.000147 0.003619 0.009518 0.030235 -0.005548 -0.007971
# 5 -0.000786 -0.000968 -0.002866 -0.005548 0.018800 0.004239
# 6 -0.000264 -0.000405 -0.007139 -0.007971 0.004239 0.024522
#
#
# Mechanical properties :
#
#
# Convention : Reuss Voigt Hill
#
# Bulk Modulus (GPa) = 32.43881 50.00832 41.22356
# Shear Modulus (GPa) = 42.49942 52.63651 47.56796
#
# Velocity S-wave (km/s) = 4.01786 4.47144 4.25070
# Velocity P-wave (km/s) = 5.81773 6.75676 6.30475
#
# Compressibility (1/GPa) = 0.03082728
#
# Stress axis : x y z
#
# Youngs Moduli (GPa) = 155.57738 120.73155 56.78159
#
# Poissons Ratio (x) = 0.18616 0.06303
# Poissons Ratio (y) = 0.23989 -0.10815
# Poissons Ratio (z) = 0.17269 -0.22995
#
# Static dielectric constant tensor:
#      x y z
#    x 2.036610 -0.178780 -0.039480 
#    y -0.178780 2.158610 0.173770 
#    z -0.039480 0.173770 2.193100 
# 
# From -- ./inp_files/78178.got.cif
#   From: 2010.05.17/outbox.cif.g08.bks.cpg/sg2_40_cif.got.tgz:78178.got - 2010.06.03 11:33:40.
