data_PCOD9008195
_publ_section_title
;
Structure prediction by ZEFSAII (Michael W. Deem and Ramdas Pophale) SiO2 
 PCOD9008195
Probable space group: P -1
;
_chemical_formula_sum "Si O2"
_cell_formula_units_Z 16
_cell_length_a 5.179093
_cell_length_b 16.908995
_cell_length_c 10.974363
_cell_angle_alpha 39.225779
_cell_angle_beta 84.020837
_cell_angle_gamma 87.135379
_cell_volume 603.725941
_symmetry_space_group_name_H-M "P -1"
_symmetry_group_IT_number 2
_symmetry_cell_setting 'triclinic'
loop_
_space_group_symop_operation_xyz
x,y,z
-x,-y,-z
loop_
_atom_site_type_symbol
_atom_site_label
_atom_site_fract_x
_atom_site_fract_y
_atom_site_fract_z
Si Si1 0.834319 0.844937 0.371451
Si Si2 0.665233 0.594509 0.731050
Si Si3 0.242152 0.886757 0.965502
Si Si4 0.481133 0.138870 0.378958
Si Si5 0.816018 0.379602 0.610778
Si Si6 0.211175 0.187729 0.090927
Si Si7 0.148977 0.709800 0.686475
Si Si8 0.605654 0.555971 0.251881
O O1 0.736488 0.706796 0.494147
O O2 0.658909 0.858634 0.486439
O O3 0.111129 0.813575 0.455927
O O4 0.790938 0.972414 0.149940
O O5 0.392797 0.624604 0.766574
O O6 0.602268 0.465780 0.819683
O O7 0.893423 0.619718 0.787044
O O8 0.139200 0.767893 0.196143
O O9 0.536309 0.863045 0.934694
O O10 0.045152 0.882855 0.863979
O O11 0.762686 0.207631 0.300213
O O12 0.500000 0.000000 0.500000
O O13 0.302877 0.190743 0.221667
O O14 0.736607 0.425020 0.426209
O O15 0.563076 0.397506 0.683986
O O16 0.000000 0.500000 0.500000
O O17 0.176402 0.334868 0.897357
#
# Coordination Sequence:
#
# PCOD9008195 Si02
#       8
#     2   2   2   2   2   2   2   2
#     4   9  21  37  58  86 123 156 195 233 296 345
#     4   9  21  38  62  79 119 166 192 234 292 353
#     4  11  22  37  57  90 121 150 189 254 294 354
#     4  11  20  36  59  90 123 157 195 246 288 344
#     4  10  21  39  64  90 115 147 197 252 305 341
#     4  11  24  34  60  90 118 155 198 239 301 339
#     4   9  21  37  54  86 116 163 199 227 291 342
#     4  10  22  42  61  89 117 155 198 245 295 356
#
# _framework density 26.502092999999999
#
# number of rings (size 3 to 8) (size 9 to 14) (size 15 to 20)
#    0.750    1.250    2.500    0.750    5.250    1.000 
#    0.000    3.750    0.000    1.500    0.000    0.000 
#    0.000    0.000    0.000    0.000    0.000    0.000 
#
# Total GULP energy -89212.398032 kJ/mol
# GULP energy per Si atom -5575.774877 kJ/mol
# Density = 2.644177 g / cm^3
# Si number density = 26.502093 Si / 1000 Ang^3
#
#
#
# Elastic Constant Matrix: (Units=GPa)
#
#
# Indices 1 2 3 4 5 6 
#
# 1 147.6423 14.7659 7.5044 -10.6110 7.3443 17.5578
# 2 14.7659 31.3770 -15.8102 -14.0890 -5.4589 11.0673
# 3 7.5044 -15.8102 112.9796 -21.4159 9.4275 -8.5666
# 4 -10.6110 -14.0890 -21.4159 26.5405 0.7196 -4.3746
# 5 7.3443 -5.4589 9.4275 0.7196 31.4493 -4.4610
# 6 17.5578 11.0673 -8.5666 -4.3746 -4.4610 38.8536
#
#
#
# Elastic Compliance Matrix: (Units=1/GPa)
#
#
# Indices 1 2 3 4 5 6 
#
# 1 0.007653 -0.003549 -0.001037 -0.000083 -0.002513 -0.002974
# 2 -0.003549 0.066994 0.017477 0.046829 0.005044 -0.007774
# 3 -0.001037 0.017477 0.015740 0.021812 -0.001770 0.001213
# 4 -0.000083 0.046829 0.021812 0.080194 -0.000152 0.000519
# 5 -0.002513 0.005044 -0.001770 -0.000152 0.034251 0.003224
# 6 -0.002974 -0.007774 0.001213 0.000519 0.003224 0.029992
#
#
# Mechanical properties :
#
#
# Convention : Reuss Voigt Hill
#
# Bulk Modulus (GPa) = 8.60807 33.87990 21.24398
# Shear Modulus (GPa) = 20.18036 38.40463 29.29250
#
# Velocity S-wave (km/s) = 2.76246 3.81086 3.32820
# Velocity P-wave (km/s) = 3.66470 5.67231 4.77520
#
# Compressibility (1/GPa) = 0.11617005
#
# Stress axis : x y z
#
# Youngs Moduli (GPa) = 130.65937 14.92668 63.53255
#
# Poissons Ratio (x) = 0.05298 0.06586
# Poissons Ratio (y) = 0.46376 -1.11037
# Poissons Ratio (z) = 0.13544 -0.26088
#
# Static dielectric constant tensor:
#      x y z
#    x 1.975140 -0.092350 -0.079870 
#    y -0.092350 2.084240 0.023450 
#    z -0.079870 0.023450 2.231070 
# 
# From -- ./inp_files/485535.got.cif
#   From: 2010.05.17/outbox.cif.g08.bks.cpg/sg2_243_cif.got.tgz:485535.got - 2010.06.03 11:33:40.
