data_PCOD9008991
_publ_section_title
;
Structure prediction by ZEFSAII (Michael W. Deem and Ramdas Pophale) SiO2 
 PCOD9008991
Probable space group: P -1
;
_chemical_formula_sum "Si O2"
_cell_formula_units_Z 16
_cell_length_a 9.228795
_cell_length_b 14.483758
_cell_length_c 8.247479
_cell_angle_alpha 68.439915
_cell_angle_beta 79.980109
_cell_angle_gamma 40.006098
_cell_volume 648.386556
_symmetry_space_group_name_H-M "P -1"
_symmetry_group_IT_number 2
_symmetry_cell_setting 'triclinic'
loop_
_space_group_symop_operation_xyz
x,y,z
-x,-y,-z
loop_
_atom_site_type_symbol
_atom_site_label
_atom_site_fract_x
_atom_site_fract_y
_atom_site_fract_z
Si Si1 0.924623 0.820130 0.704647
Si Si2 0.627565 0.371233 0.424151
Si Si3 0.223659 0.336245 0.712749
Si Si4 0.450619 0.015621 0.806497
Si Si5 0.331972 0.799305 0.199425
Si Si6 0.677851 0.087970 0.334979
Si Si7 0.903527 0.153764 0.069546
Si Si8 0.726223 0.578200 0.679973
O O1 0.147368 0.685331 0.638636
O O2 0.043439 0.778603 0.880531
O O3 0.695005 0.880530 0.754014
O O4 0.808617 0.975437 0.537325
O O5 0.500000 0.500000 0.500000
O O6 0.695816 0.234781 0.596166
O O7 0.444105 0.428138 0.289772
O O8 0.314801 0.189736 0.699966
O O9 0.422308 0.278220 0.825233
O O10 0.217575 0.423233 0.517829
O O11 0.985505 0.437532 0.783879
O O12 0.313331 0.999723 0.751684
O O13 0.500000 0.000000 0.000000
O O14 0.259868 0.754805 0.111104
O O15 0.150384 0.980564 0.091381
O O16 0.797112 0.125334 0.224516
O O17 0.422701 0.256389 0.320966
#
# Coordination Sequence:
#
# PCOD9008991 Si02
#       8
#     2   2   2   2   2   2   2   2
#     4  12  23  42  68  95 132 170 230 278 325 392
#     4  11  24  42  66  99 132 176 232 274 330 397
#     4  10  21  41  63  94 138 170 222 271 339 392
#     4  12  27  42  65 103 139 174 222 279 340 395
#     4  10  21  39  66  96 128 174 214 273 337 395
#     4  12  23  41  69 101 130 174 231 276 328 399
#     4  11  21  39  69  97 127 165 223 276 331 391
#     4  10  22  39  67  96 128 176 225 278 323 401
#
# _framework density 24.676635999999998
#
# number of rings (size 3 to 8) (size 9 to 14) (size 15 to 20)
#    0.000    1.000    5.000    2.250    3.500    2.000 
#    0.000    4.375    0.000    0.000    0.000    0.000 
#    0.000    0.000    0.000    0.000    0.000    0.000 
#
# Total GULP energy -89324.606900 kJ/mol
# GULP energy per Si atom -5582.787931 kJ/mol
# Density = 2.462047 g / cm^3
# Si number density = 24.676636 Si / 1000 Ang^3
#
#
#
# Elastic Constant Matrix: (Units=GPa)
#
#
# Indices 1 2 3 4 5 6 
#
# 1 72.4872 40.8082 10.0681 -4.5742 13.1422 -21.8823
# 2 40.8082 135.0769 1.6603 11.4234 10.5498 -28.7410
# 3 10.0681 1.6603 43.7409 3.4860 7.0742 -11.9170
# 4 -4.5742 11.4234 3.4860 17.2650 -4.5955 1.3426
# 5 13.1422 10.5498 7.0742 -4.5955 31.4432 4.8745
# 6 -21.8823 -28.7410 -11.9170 1.3426 4.8745 49.3726
#
#
#
# Elastic Compliance Matrix: (Units=1/GPa)
#
#
# Indices 1 2 3 4 5 6 
#
# 1 0.020268 -0.004943 -0.002424 0.007028 -0.006161 0.005937
# 2 -0.004943 0.011672 0.004320 -0.011894 -0.005571 0.006520
# 3 -0.002424 0.004320 0.028566 -0.012745 -0.010229 0.009692
# 4 0.007028 -0.011894 -0.012745 0.075464 0.016589 -0.010575
# 5 -0.006161 -0.005571 -0.010229 0.016589 0.043010 -0.013140
# 6 0.005937 0.006520 0.009692 -0.010575 -0.013140 0.030605
#
#
# Mechanical properties :
#
#
# Convention : Reuss Voigt Hill
#
# Bulk Modulus (GPa) = 18.37826 39.59758 28.98792
# Shear Modulus (GPa) = 21.38426 32.86737 27.12581
#
# Velocity S-wave (km/s) = 2.94697 3.65351 3.31909
# Velocity P-wave (km/s) = 4.36386 5.82056 5.14404
#
# Compressibility (1/GPa) = 0.05441213
#
# Stress axis : x y z
#
# Youngs Moduli (GPa) = 49.33899 85.67691 35.00630
#
# Poissons Ratio (x) = 0.42352 0.08484
# Poissons Ratio (y) = 0.24389 -0.15123
# Poissons Ratio (z) = 0.11958 -0.37012
#
# Static dielectric constant tensor:
#      x y z
#    x 2.012660 -0.026690 0.012060 
#    y -0.026690 2.010120 -0.023610 
#    z 0.012060 -0.023610 2.036420 
# 
# From -- ./inp_files/206338.got.cif
#   From: 2010.05.17/outbox.cif.g08.bks.cpg/sg2_104_cif.got.tgz:206338.got - 2010.06.03 11:33:40.
