data_PCOD9008017
_publ_section_title
;
Structure prediction by ZEFSAII (Michael W. Deem and Ramdas Pophale) SiO2 
 PCOD9008017
Probable space group: P -1
;
_chemical_formula_sum "Si O2"
_cell_formula_units_Z 10
_cell_length_a 11.145218
_cell_length_b 6.803097
_cell_length_c 6.726552
_cell_angle_alpha 61.602586
_cell_angle_beta 116.678308
_cell_angle_gamma 106.730022
_cell_volume 399.090547
_symmetry_space_group_name_H-M "P -1"
_symmetry_group_IT_number 2
_symmetry_cell_setting 'triclinic'
loop_
_space_group_symop_operation_xyz
x,y,z
-x,-y,-z
loop_
_atom_site_type_symbol
_atom_site_label
_atom_site_fract_x
_atom_site_fract_y
_atom_site_fract_z
Si Si1 0.921036 0.281965 0.638447
Si Si2 0.147653 0.959370 0.946790
Si Si3 0.363555 0.250877 0.243399
Si Si4 0.375278 0.137957 0.769012
Si Si5 0.355120 0.604701 0.771897
O O1 0.758618 0.015539 0.186702
O O2 0.774272 0.280862 0.439255
O O3 0.000000 0.500000 0.500000
O O4 0.013691 0.083566 0.755323
O O5 0.244881 0.095607 0.119941
O O6 0.101689 0.727401 0.134895
O O7 0.372790 0.205737 0.504113
O O8 0.487562 0.763496 0.733187
O O9 0.343007 0.505498 0.033975
O O10 0.364785 0.376593 0.759207
O O11 0.500000 0.000000 0.000000
#
# Coordination Sequence:
#
# PCOD9008017 Si02
#       5
#     2   2   2   2   2
#     4  11  20  44  67  84 129 169 196 253 310 361
#     4  10  24  41  66  92 122 164 206 248 309 364
#     4  10  21  39  63  94 120 159 210 251 305 362
#     4  11  22  38  59  95 129 156 200 264 306 356
#     4  10  22  39  64  91 123 165 203 250 309 361
#
# _framework density 25.05697
#
# number of rings (size 3 to 8) (size 9 to 14) (size 15 to 20)
#    0.000    1.600    4.000    1.800    0.000    8.800 
#    0.000    8.000    0.000    0.000    0.000    0.000 
#    0.000    0.000    0.000    0.000    0.000    0.000 
#
# Total GULP energy -55892.720537 kJ/mol
# GULP energy per Si atom -5589.272054 kJ/mol
# Density = 2.499994 g / cm^3
# Si number density = 25.056970 Si / 1000 Ang^3
#
#
#
# Elastic Constant Matrix: (Units=GPa)
#
#
# Indices 1 2 3 4 5 6 
#
# 1 187.6664 16.4969 109.4115 -19.4643 7.8420 -14.6527
# 2 16.4969 98.5774 44.7332 -0.9362 -2.9763 -4.8223
# 3 109.4115 44.7332 264.1691 -16.0920 -22.1037 -29.5120
# 4 -19.4643 -0.9362 -16.0920 31.9372 -1.9762 -6.7717
# 5 7.8420 -2.9763 -22.1037 -1.9762 79.8816 -8.8083
# 6 -14.6527 -4.8223 -29.5120 -6.7717 -8.8083 22.2849
#
#
#
# Elastic Compliance Matrix: (Units=1/GPa)
#
#
# Indices 1 2 3 4 5 6 
#
# 1 0.007516 0.000106 -0.002822 0.003466 -0.001231 0.001793
# 2 0.000106 0.011010 -0.002043 -0.000782 -0.000250 -0.000589
# 3 -0.002822 -0.002043 0.006820 0.003794 0.003191 0.009149
# 4 0.003466 -0.000782 0.003794 0.039979 0.003969 0.020851
# 5 -0.001231 -0.000250 0.003191 0.003969 0.014758 0.010401
# 6 0.001793 -0.000589 0.009149 0.020851 0.010401 0.068488
#
#
# Mechanical properties :
#
#
# Convention : Reuss Voigt Hill
#
# Bulk Modulus (GPa) = 63.17749 99.07735 81.12742
# Shear Modulus (GPa) = 30.60645 52.13881 41.37263
#
# Velocity S-wave (km/s) = 3.49875 4.56654 4.06783
# Velocity P-wave (km/s) = 6.44903 8.21164 7.38312
#
# Compressibility (1/GPa) = 0.01582842
#
# Stress axis : x y z
#
# Youngs Moduli (GPa) = 133.05599 90.82900 146.61766
#
# Poissons Ratio (x) = -0.00967 0.41381
# Poissons Ratio (y) = -0.01417 0.29951
# Poissons Ratio (z) = 0.37553 0.18555
#
# Static dielectric constant tensor:
#      x y z
#    x 2.051060 0.071530 -0.010590 
#    y 0.071530 2.121210 0.034660 
#    z -0.010590 0.034660 1.991210 
# 
# From -- ./inp_files/4682.got.cif
#   From: 2010.05.17/outbox.cif.g08.bks.cpg/sg2_3_cif.got.tgz:4682.got - 2010.06.03 11:33:40.
