data_PCOD9008801
_publ_section_title
;
Structure prediction by ZEFSAII (Michael W. Deem and Ramdas Pophale) SiO2 
 PCOD9008801
Probable space group: P -1
;
_chemical_formula_sum "Si O2"
_cell_formula_units_Z 16
_cell_length_a 12.019014
_cell_length_b 13.422878
_cell_length_c 6.664787
_cell_angle_alpha 138.181719
_cell_angle_beta 70.196967
_cell_angle_gamma 126.917317
_cell_volume 561.108878
_symmetry_space_group_name_H-M "P -1"
_symmetry_group_IT_number 2
_symmetry_cell_setting 'triclinic'
loop_
_space_group_symop_operation_xyz
x,y,z
-x,-y,-z
loop_
_atom_site_type_symbol
_atom_site_label
_atom_site_fract_x
_atom_site_fract_y
_atom_site_fract_z
Si Si1 0.829564 0.508451 0.428242
Si Si2 0.539937 0.557975 0.293078
Si Si3 0.867290 0.360650 0.548580
Si Si4 0.477056 0.838602 0.916454
Si Si5 0.137436 0.885939 0.179122
Si Si6 0.154690 0.233044 0.668975
Si Si7 0.237741 0.229298 0.073168
Si Si8 0.304239 0.958509 0.574421
O O1 0.828243 0.481020 0.631462
O O2 0.682754 0.328854 0.193745
O O3 0.846409 0.695772 0.659581
O O4 0.973052 0.530642 0.306131
O O5 0.540332 0.735218 0.610644
O O6 0.699684 0.606077 0.278080
O O7 0.406003 0.388506 0.234000
O O8 0.500000 0.500000 0.000000
O O9 0.761780 0.239782 0.602442
O O10 0.858306 0.229260 0.177874
O O11 0.500000 0.000000 0.000000
O O12 0.549137 0.921414 0.212180
O O13 0.270739 0.954285 0.352758
O O14 0.993735 0.783294 0.250692
O O15 0.130528 0.046417 0.327685
O O16 0.199185 0.225207 0.858687
O O17 0.219484 0.043139 0.843534
#
# Coordination Sequence:
#
# PCOD9008801 Si02
#       8
#     2   2   2   2   2   2   2   2
#     4  10  22  40  67  94 135 180 221 275 345 401
#     4   9  19  36  67  96 132 176 224 277 337 399
#     4  11  22  43  70  95 136 182 219 277 345 404
#     4  11  22  43  68  95 135 187 222 276 349 408
#     4  10  21  39  65  98 136 172 227 276 331 407
#     4   9  17  36  61  96 130 174 212 276 339 392
#     4   9  19  39  64  99 132 169 222 282 330 400
#     4  11  24  42  70 101 135 174 232 277 336 413
#
# _framework density 28.514966000000001
#
# number of rings (size 3 to 8) (size 9 to 14) (size 15 to 20)
#    0.000    2.000    2.500    0.750    0.000    2.500 
#    4.500    3.125    2.750    0.000    0.000    0.000 
#    0.000    0.000    0.000    0.000    0.000    0.000 
#
# Total GULP energy -89549.073911 kJ/mol
# GULP energy per Si atom -5596.817119 kJ/mol
# Density = 2.845006 g / cm^3
# Si number density = 28.514966 Si / 1000 Ang^3
#
#
#
# Elastic Constant Matrix: (Units=GPa)
#
#
# Indices 1 2 3 4 5 6 
#
# 1 91.5453 19.5722 46.0541 -12.3124 33.6636 6.8874
# 2 19.5722 78.1672 26.4406 -5.7815 12.6371 9.8202
# 3 46.0541 26.4406 133.5602 -17.1798 -2.4173 -1.1998
# 4 -12.3124 -5.7815 -17.1798 45.2916 2.9599 3.0555
# 5 33.6636 12.6371 -2.4173 2.9599 70.6325 17.6016
# 6 6.8874 9.8202 -1.1998 3.0555 17.6016 53.0198
#
#
#
# Elastic Compliance Matrix: (Units=1/GPa)
#
#
# Indices 1 2 3 4 5 6 
#
# 1 0.017475 -0.000923 -0.005604 0.003038 -0.008596 0.000452
# 2 -0.000923 0.014476 -0.002481 0.000911 -0.001753 -0.002088
# 3 -0.005604 -0.002481 0.010204 0.001799 0.003337 0.000207
# 4 0.003038 0.000911 0.001799 0.023929 -0.002266 -0.001150
# 5 -0.008596 -0.001753 0.003337 -0.002266 0.020023 -0.005000
# 6 0.000452 -0.002088 0.000207 -0.001150 -0.005000 0.020920
#
#
# Mechanical properties :
#
#
# Convention : Reuss Voigt Hill
#
# Bulk Modulus (GPa) = 41.42275 54.15627 47.78951
# Shear Modulus (GPa) = 37.56839 47.86916 42.71877
#
# Velocity S-wave (km/s) = 3.63367 4.10169 3.87475
# Velocity P-wave (km/s) = 5.67124 6.43935 6.06746
#
# Compressibility (1/GPa) = 0.02414132
#
# Stress axis : x y z
#
# Youngs Moduli (GPa) = 57.22321 69.07757 97.99744
#
# Poissons Ratio (x) = 0.06373 0.54917
# Poissons Ratio (y) = 0.05279 0.24313
# Poissons Ratio (z) = 0.32067 0.17138
#
# Static dielectric constant tensor:
#      x y z
#    x 2.252130 0.011200 -0.001640 
#    y 0.011200 2.234920 -0.021550 
#    z -0.001640 -0.021550 2.286340 
# 
# From -- ./inp_files/274636.got.cif
#   From: 2010.05.17/outbox.cif.g08.bks.cpg/sg2_138_cif.got.tgz:274636.got - 2010.06.03 11:33:40.
