data_PCOD9008906
_publ_section_title
;
Structure prediction by ZEFSAII (Michael W. Deem and Ramdas Pophale) SiO2 
 PCOD9008906
Probable space group: P -1
;
_chemical_formula_sum "Si O2"
_cell_formula_units_Z 11
_cell_length_a 16.552894
_cell_length_b 5.066329
_cell_length_c 5.702181
_cell_angle_alpha 82.769602
_cell_angle_beta 60.363772
_cell_angle_gamma 98.641749
_cell_volume 399.620119
_symmetry_space_group_name_H-M "P -1"
_symmetry_group_IT_number 2
_symmetry_cell_setting 'triclinic'
loop_
_space_group_symop_operation_xyz
x,y,z
-x,-y,-z
loop_
_atom_site_type_symbol
_atom_site_label
_atom_site_fract_x
_atom_site_fract_y
_atom_site_fract_z
Si Si1 0.453283 0.651209 0.853276
Si Si2 0.376466 0.123737 0.787771
Si Si3 0.194838 0.326412 0.444249
Si Si4 0.000000 0.000000 0.000000
Si Si5 0.224149 0.815017 0.669131
Si Si6 0.923496 0.546011 0.789198
O O1 0.370976 0.403853 0.890421
O O2 0.536177 0.766471 0.532531
O O3 0.409844 0.910072 0.937481
O O4 0.500000 0.500000 0.000000
O O5 0.290087 0.959171 0.770551
O O6 0.247427 0.558157 0.529152
O O7 0.172245 0.435303 0.213829
O O8 0.089727 0.220125 0.719300
O O9 0.230920 0.050974 0.439430
O O10 0.969887 0.826294 0.817335
O O11 0.114452 0.710278 0.944484
O O12 0.000000 0.500000 0.500000
#
# Coordination Sequence:
#
# PCOD9008906 Si02
#       6
#     2   2   2   1   2   2
#     4  10  21  39  66  92 125 169 208 256 321 390
#     4  10  22  40  61  94 130 162 210 265 317 386
#     4  11  23  40  63  90 124 170 216 269 330 386
#     4  10  22  42  64  90 126 168 224 278 326 388
#     4  11  25  41  62  95 131 167 218 274 324 390
#     4  11  24  43  67  94 130 177 225 276 334 391
#
# _framework density 27.526138
#
# number of rings (size 3 to 8) (size 9 to 14) (size 15 to 20)
#    0.000    1.455    0.000    4.364    0.000   10.182 
#    0.000    2.727    0.000    0.000    0.000    0.000 
#    0.000    0.000    0.000    0.000    0.000    0.000 
#
# Total GULP energy -61483.749712 kJ/mol
# GULP energy per Si atom -5589.431792 kJ/mol
# Density = 2.746349 g / cm^3
# Si number density = 27.526138 Si / 1000 Ang^3
#
#
#
# Elastic Constant Matrix: (Units=GPa)
#
#
# Indices 1 2 3 4 5 6 
#
# 1 103.8716 42.3852 23.9777 -7.9387 18.2640 8.7355
# 2 42.3852 219.2063 33.2474 5.2454 6.4806 17.4735
# 3 23.9777 33.2474 94.6838 -32.4978 6.9914 -4.3413
# 4 -7.9387 5.2454 -32.4978 56.2122 3.4651 3.7306
# 5 18.2640 6.4806 6.9914 3.4651 57.5000 -7.2000
# 6 8.7355 17.4735 -4.3413 3.7306 -7.2000 61.8660
#
#
#
# Elastic Compliance Matrix: (Units=1/GPa)
#
#
# Indices 1 2 3 4 5 6 
#
# 1 0.011610 -0.001762 -0.001752 0.001127 -0.003563 -0.001747
# 2 -0.001762 0.005376 -0.002178 -0.001935 0.000174 -0.001286
# 3 -0.001752 -0.002178 0.014862 0.008550 -0.001366 0.001231
# 4 0.001127 -0.001935 0.008550 0.023286 -0.002674 -0.000728
# 5 -0.003563 0.000174 -0.001366 -0.002674 0.019175 0.002751
# 6 -0.001747 -0.001286 0.001231 -0.000728 0.002751 0.017224
#
#
# Mechanical properties :
#
#
# Convention : Reuss Voigt Hill
#
# Bulk Modulus (GPa) = 48.86126 68.55358 58.70742
# Shear Modulus (GPa) = 45.56329 56.32575 50.94452
#
# Velocity S-wave (km/s) = 4.07292 4.52847 4.30672
# Velocity P-wave (km/s) = 6.31725 7.23199 6.79004
#
# Compressibility (1/GPa) = 0.02046611
#
# Stress axis : x y z
#
# Youngs Moduli (GPa) = 86.13262 185.99626 67.28671
#
# Poissons Ratio (x) = 0.32764 0.11788
# Poissons Ratio (y) = 0.15172 0.14653
# Poissons Ratio (z) = 0.15089 0.40504
#
# Static dielectric constant tensor:
#      x y z
#    x 2.517470 -0.197360 -0.292030 
#    y -0.197360 2.113030 0.149480 
#    z -0.292030 0.149480 2.294460 
# 
# From -- ./inp_files/5240.got.cif
#   From: 2010.05.17/outbox.cif.g08.bks.cpg/sg2_3_cif.got.tgz:5240.got - 2010.06.03 11:33:40.
