data_PCOD9008747
_publ_section_title
;
Structure prediction by ZEFSAII (Michael W. Deem and Ramdas Pophale) SiO2 
 PCOD9008747
Probable space group: P -1
;
_chemical_formula_sum "Si O2"
_cell_formula_units_Z 16
_cell_length_a 16.275291
_cell_length_b 9.928878
_cell_length_c 12.615454
_cell_angle_alpha 37.387762
_cell_angle_beta 42.895556
_cell_angle_gamma 42.084190
_cell_volume 776.793862
_symmetry_space_group_name_H-M "P -1"
_symmetry_group_IT_number 2
_symmetry_cell_setting 'triclinic'
loop_
_space_group_symop_operation_xyz
x,y,z
-x,-y,-z
loop_
_atom_site_type_symbol
_atom_site_label
_atom_site_fract_x
_atom_site_fract_y
_atom_site_fract_z
Si Si1 0.526518 0.910002 0.150826
Si Si2 0.033870 0.416479 0.849921
Si Si3 0.082034 0.466164 0.336156
Si Si4 0.423362 0.646858 0.082861
Si Si5 0.194925 0.519157 0.814229
Si Si6 0.803266 0.138944 0.982399
Si Si7 0.709128 0.068569 0.510674
Si Si8 0.575720 0.174308 0.341536
O O1 0.661416 0.682828 0.177931
O O2 0.405542 0.855662 0.342146
O O3 0.500000 0.000000 0.000000
O O4 0.536650 0.130369 0.070501
O O5 0.136920 0.484946 0.777682
O O6 0.003374 0.520819 0.695643
O O7 0.091632 0.127408 0.967781
O O8 0.901156 0.504645 0.989001
O O9 0.000000 0.500000 0.500000
O O10 0.203632 0.212627 0.384972
O O11 0.134320 0.680648 0.145491
O O12 0.472445 0.449275 0.252428
O O13 0.500000 0.500000 0.000000
O O14 0.272434 0.752493 0.123859
O O15 0.203075 0.777077 0.654750
O O16 0.693364 0.127644 0.175302
O O17 0.639904 0.125066 0.426699
O O18 0.500000 0.000000 0.500000
#
# Coordination Sequence:
#
# PCOD9008747 Si02
#       8
#     2   2   2   2   2   2   2   2
#     4  12  24  45  67  99 137 179 227 279 342 408
#     4  11  24  45  69  92 139 178 233 273 331 408
#     4  12  25  43  68 102 135 178 228 281 340 402
#     4  10  21  39  65  96 130 170 215 274 342 399
#     4  11  25  44  68  97 131 188 226 275 335 400
#     4  11  21  43  67  98 131 174 223 278 342 395
#     4  12  24  43  66 101 139 171 230 275 337 407
#     4  11  22  38  68 102 135 171 214 281 346 403
#
# _framework density 20.597484000000001
#
# number of rings (size 3 to 8) (size 9 to 14) (size 15 to 20)
#    0.000    0.750    1.250    8.250    0.000    0.500 
#    2.250    0.000    0.000    0.000    0.000    0.000 
#    0.000    0.000    0.000    0.000    0.000    0.000 
#
# Total GULP energy -89550.211783 kJ/mol
# GULP energy per Si atom -5596.888236 kJ/mol
# Density = 2.055060 g / cm^3
# Si number density = 20.597484 Si / 1000 Ang^3
#
#
#
# Elastic Constant Matrix: (Units=GPa)
#
#
# Indices 1 2 3 4 5 6 
#
# 1 130.4429 27.2100 40.9038 9.4583 28.0958 3.8197
# 2 27.2100 75.2290 19.6737 6.1161 18.0730 -14.3233
# 3 40.9038 19.6737 67.6419 7.8942 -0.8962 4.0881
# 4 9.4583 6.1161 7.8942 35.8236 -2.1468 -3.9362
# 5 28.0958 18.0730 -0.8962 -2.1468 43.9578 -10.3780
# 6 3.8197 -14.3233 4.0881 -3.9362 -10.3780 41.6689
#
#
#
# Elastic Compliance Matrix: (Units=1/GPa)
#
#
# Indices 1 2 3 4 5 6 
#
# 1 0.011976 -0.001030 -0.006590 -0.002363 -0.008207 -0.003072
# 2 -0.001030 0.017233 -0.004595 -0.001434 -0.005414 0.004985
# 3 -0.006590 -0.004595 0.020497 -0.001812 0.006040 -0.001653
# 4 -0.002363 -0.001434 -0.001812 0.029868 0.004425 0.003825
# 5 -0.008207 -0.005414 0.006040 0.004425 0.032147 0.006723
# 6 -0.003072 0.004985 -0.001653 0.003825 0.006723 0.028192
#
#
# Mechanical properties :
#
#
# Convention : Reuss Voigt Hill
#
# Bulk Modulus (GPa) = 39.56234 49.87653 44.71944
# Shear Modulus (GPa) = 28.94042 36.65848 32.79945
#
# Velocity S-wave (km/s) = 3.75246 4.22329 3.99482
# Velocity P-wave (km/s) = 6.16633 6.93174 6.56021
#
# Compressibility (1/GPa) = 0.02527656
#
# Stress axis : x y z
#
# Youngs Moduli (GPa) = 83.49780 58.02692 48.78837
#
# Poissons Ratio (x) = 0.05975 0.32151
# Poissons Ratio (y) = 0.08598 0.22420
# Poissons Ratio (z) = 0.55025 0.26665
#
# Static dielectric constant tensor:
#      x y z
#    x 1.739070 0.005630 0.025400 
#    y 0.005630 1.712100 -0.020720 
#    z 0.025400 -0.020720 1.616600 
# 
# From -- ./inp_files/446586.got.cif
#   From: 2010.05.17/outbox.cif.g08.bks.cpg/sg2_224_cif.got.tgz:446586.got - 2010.06.03 11:33:40.
