data_PCOD9008383
_publ_section_title
;
Structure prediction by ZEFSAII (Michael W. Deem and Ramdas Pophale) SiO2 
 PCOD9008383
Probable space group: P -1
;
_chemical_formula_sum "Si O2"
_cell_formula_units_Z 14
_cell_length_a 10.756112
_cell_length_b 11.446462
_cell_length_c 5.341445
_cell_angle_alpha 108.659246
_cell_angle_beta 61.600303
_cell_angle_gamma 114.445615
_cell_volume 520.369979
_symmetry_space_group_name_H-M "P -1"
_symmetry_group_IT_number 2
_symmetry_cell_setting 'triclinic'
loop_
_space_group_symop_operation_xyz
x,y,z
-x,-y,-z
loop_
_atom_site_type_symbol
_atom_site_label
_atom_site_fract_x
_atom_site_fract_y
_atom_site_fract_z
Si Si1 0.761643 0.406136 0.263431
Si Si2 0.529589 0.609176 0.256543
Si Si3 0.855003 0.352487 0.647655
Si Si4 0.750099 0.907237 0.734685
Si Si5 0.464111 0.864314 0.278145
Si Si6 0.104414 0.796377 0.100714
Si Si7 0.826989 0.784397 0.078871
O O1 0.604816 0.430508 0.446880
O O2 0.852529 0.433968 0.455385
O O3 0.759364 0.254751 0.142778
O O4 0.834045 0.446727 0.955173
O O5 0.511200 0.747570 0.282750
O O6 0.701495 0.651922 0.178512
O O7 0.500000 0.500000 0.000000
O O8 0.708338 0.218526 0.673979
O O9 0.965362 0.290591 0.649387
O O10 0.793524 0.875134 0.393902
O O11 0.576283 0.891393 0.947650
O O12 0.801545 0.829501 0.855808
O O13 0.841108 0.055007 0.792744
O O14 0.500000 0.000000 0.500000
O O15 0.988583 0.774402 0.971628
#
# Coordination Sequence:
#
# PCOD9008383 Si02
#       7
#     2   2   2   2   2   2   2
#     4   9  20  37  61  84 117 158 207 251 302 365
#     4  10  22  43  66  92 127 167 212 265 315 370
#     4   9  20  34  59  89 119 156 206 252 307 356
#     4  11  23  36  60  91 130 164 207 259 317 374
#     4  10  21  39  64  95 125 163 215 262 309 374
#     4  10  23  36  64  86 133 163 207 254 318 379
#     4  11  25  39  58  92 126 167 209 255 321 374
#
# _framework density 26.903936000000002
#
# number of rings (size 3 to 8) (size 9 to 14) (size 15 to 20)
#    0.857    1.143    0.000    3.429    8.000    0.571 
#    0.000   12.143    0.000    3.429    0.000    0.000 
#    0.000    0.000    0.000    0.000    0.000    0.000 
#
# Total GULP energy -78038.936982 kJ/mol
# GULP energy per Si atom -5574.209784 kJ/mol
# Density = 2.684270 g / cm^3
# Si number density = 26.903936 Si / 1000 Ang^3
#
#
#
# Elastic Constant Matrix: (Units=GPa)
#
#
# Indices 1 2 3 4 5 6 
#
# 1 76.5629 20.2395 12.9386 16.9277 -2.1029 -8.4467
# 2 20.2395 92.0470 3.4397 -1.1817 -17.0293 -3.3454
# 3 12.9386 3.4397 129.5672 4.5314 3.5373 -3.3798
# 4 16.9277 -1.1817 4.5314 28.7179 -13.3241 -2.0556
# 5 -2.1029 -17.0293 3.5373 -13.3241 48.7519 0.7572
# 6 -8.4467 -3.3454 -3.3798 -2.0556 0.7572 24.4785
#
#
#
# Elastic Compliance Matrix: (Units=1/GPa)
#
#
# Indices 1 2 3 4 5 6 
#
# 1 0.017427 -0.004543 -0.000978 -0.011884 -0.004080 0.004386
# 2 -0.004543 0.013090 -0.000259 0.006104 0.006055 0.000511
# 3 -0.000978 -0.000259 0.007906 -0.001107 -0.001019 0.000657
# 4 -0.011884 0.006104 -0.001107 0.049310 0.015173 0.000252
# 5 -0.004080 0.006055 -0.001019 0.015173 0.026676 -0.000272
# 6 0.004386 0.000511 0.000657 0.000252 -0.000272 0.042556
#
#
# Mechanical properties :
#
#
# Convention : Reuss Voigt Hill
#
# Bulk Modulus (GPa) = 37.22824 41.26806 39.24815
# Shear Modulus (GPa) = 28.17216 37.82694 32.99955
#
# Velocity S-wave (km/s) = 3.23946 3.75373 3.50604
# Velocity P-wave (km/s) = 5.27823 5.84463 5.56863
#
# Compressibility (1/GPa) = 0.02686133
#
# Stress axis : x y z
#
# Youngs Moduli (GPa) = 57.38286 76.39461 126.48184
#
# Poissons Ratio (x) = 0.34709 0.12372
# Poissons Ratio (y) = 0.26071 0.03279
# Poissons Ratio (z) = 0.05613 0.01981
#
# Static dielectric constant tensor:
#      x y z
#    x 2.194800 -0.019510 -0.451250 
#    y -0.019510 2.129120 0.083010 
#    z -0.451250 0.083010 0.578600 
# 
# From -- ./inp_files/76641.got.cif
#   From: 2010.05.17/outbox.cif.g08.bks.cpg/sg2_39_cif.got.tgz:76641.got - 2010.06.03 11:33:40.
