data_PCOD9008205
_publ_section_title
;
Structure prediction by ZEFSAII (Michael W. Deem and Ramdas Pophale) SiO2 
 PCOD9008205
Probable space group: P -1
;
_chemical_formula_sum "Si O2"
_cell_formula_units_Z 14
_cell_length_a 25.414678
_cell_length_b 10.030552
_cell_length_c 9.199800
_cell_angle_alpha 44.270131
_cell_angle_beta 149.178355
_cell_angle_gamma 149.294577
_cell_volume 611.343605
_symmetry_space_group_name_H-M "P -1"
_symmetry_group_IT_number 2
_symmetry_cell_setting 'triclinic'
loop_
_space_group_symop_operation_xyz
x,y,z
-x,-y,-z
loop_
_atom_site_type_symbol
_atom_site_label
_atom_site_fract_x
_atom_site_fract_y
_atom_site_fract_z
Si Si1 0.825186 0.966109 0.508596
Si Si2 0.096268 0.350156 0.040965
Si Si3 0.355001 0.227069 0.310986
Si Si4 0.791866 0.113639 0.018328
Si Si5 0.628361 0.981524 0.207173
Si Si6 0.975332 0.770692 0.706141
Si Si7 0.305093 0.569439 0.845999
O O1 0.816628 0.733012 0.713987
O O2 0.700361 0.938540 0.295119
O O3 0.817440 0.988669 0.300704
O O4 0.975419 0.222970 0.732089
O O5 0.190022 0.657512 0.044653
O O6 0.018398 0.213553 0.117534
O O7 0.500000 0.500000 0.500000
O O8 0.316121 0.033289 0.496545
O O9 0.347841 0.109431 0.232079
O O10 0.268525 0.311127 0.016685
O O11 0.916508 0.241830 0.097011
O O12 0.677670 0.263247 0.109337
O O13 0.458390 0.759791 0.983052
O O14 0.815030 0.516370 0.480800
O O15 0.000000 0.000000 0.500000
#
# Coordination Sequence:
#
# PCOD9008205 Si02
#       7
#     2   2   2   2   2   2   2
#     4  11  24  41  61  97 133 171 208 259 322 383
#     4  11  24  40  63  95 133 171 211 261 318 377
#     4  10  21  39  64  90 121 163 213 262 311 373
#     4  12  23  40  65  97 129 167 213 264 321 378
#     4  10  22  40  65  90 127 167 214 258 317 379
#     4  12  21  39  67  93 124 164 216 266 314 372
#     4  10  21  39  64  93 121 165 215 266 310 371
#
# _framework density 22.900378
#
# number of rings (size 3 to 8) (size 9 to 14) (size 15 to 20)
#    0.000    1.143    2.857    3.429    0.000    1.143 
#    0.000    6.429    0.000   12.000    0.000    0.000 
#    0.000    0.000    0.000    0.000    0.000    0.000 
#
# Total GULP energy -78239.362389 kJ/mol
# GULP energy per Si atom -5588.525885 kJ/mol
# Density = 2.284826 g / cm^3
# Si number density = 22.900378 Si / 1000 Ang^3
#
#
#
# Elastic Constant Matrix: (Units=GPa)
#
#
# Indices 1 2 3 4 5 6 
#
# 1 70.0970 -1.3607 27.4228 12.7355 8.3205 -14.4815
# 2 -1.3607 110.4209 26.0905 -2.5456 5.6993 -26.3606
# 3 27.4228 26.0905 85.5985 25.2206 -2.0001 -3.6652
# 4 12.7355 -2.5456 25.2206 40.2205 -8.9106 -1.8929
# 5 8.3205 5.6993 -2.0001 -8.9106 53.0559 -9.2299
# 6 -14.4815 -26.3606 -3.6652 -1.8929 -9.2299 24.9910
#
#
#
# Elastic Compliance Matrix: (Units=1/GPa)
#
#
# Indices 1 2 3 4 5 6 
#
# 1 0.021325 0.006244 -0.007730 -0.001032 -0.001491 0.017181
# 2 0.006244 0.015660 -0.007314 0.004835 0.001341 0.019926
# 3 -0.007730 -0.007314 0.019057 -0.010662 -0.000908 -0.010542
# 4 -0.001032 0.004835 -0.010662 0.033947 0.006306 0.007839
# 5 -0.001491 0.001341 -0.000908 0.006306 0.021500 0.008836
# 6 0.017181 0.019926 -0.010542 0.007839 0.008836 0.073299
#
#
# Mechanical properties :
#
#
# Convention : Reuss Voigt Hill
#
# Bulk Modulus (GPa) = 26.01269 41.15796 33.58532
# Shear Modulus (GPa) = 23.23391 37.91775 30.57583
#
# Velocity S-wave (km/s) = 3.18868 4.07353 3.65796
# Velocity P-wave (km/s) = 4.99406 6.33534 5.70426
#
# Compressibility (1/GPa) = 0.03844278
#
# Stress axis : x y z
#
# Youngs Moduli (GPa) = 46.89297 63.85529 52.47379
#
# Poissons Ratio (x) = -0.39872 0.40564
# Poissons Ratio (y) = -0.29280 0.38378
# Poissons Ratio (z) = 0.36249 0.46702
#
# Static dielectric constant tensor:
#      x y z
#    x 1.850670 -0.019370 0.021960 
#    y -0.019370 1.954940 0.017540 
#    z 0.021960 0.017540 1.901490 
# 
# From -- ./inp_files/352091.got.cif
#   From: 2010.05.17/outbox.cif.g08.bks.cpg/sg2_177_cif.got.tgz:352091.got - 2010.06.03 11:33:40.
