data_PCOD9008965
_publ_section_title
;
Structure prediction by ZEFSAII (Michael W. Deem and Ramdas Pophale) SiO2 
 PCOD9008965
Probable space group: P -1
;
_chemical_formula_sum "Si O2"
_cell_formula_units_Z 14
_cell_length_a 6.666959
_cell_length_b 19.273486
_cell_length_c 12.746778
_cell_angle_alpha 150.209196
_cell_angle_beta 125.128398
_cell_angle_gamma 67.516908
_cell_volume 637.387173
_symmetry_space_group_name_H-M "P -1"
_symmetry_group_IT_number 2
_symmetry_cell_setting 'triclinic'
loop_
_space_group_symop_operation_xyz
x,y,z
-x,-y,-z
loop_
_atom_site_type_symbol
_atom_site_label
_atom_site_fract_x
_atom_site_fract_y
_atom_site_fract_z
Si Si1 0.721104 0.783495 0.330496
Si Si2 0.189889 0.154787 0.788831
Si Si3 0.973033 0.561524 0.188379
Si Si4 0.227967 0.757350 0.884496
Si Si5 0.148147 0.685652 0.996219
Si Si6 0.315134 0.786095 0.725087
Si Si7 0.891844 0.968052 0.101528
O O1 0.785346 0.753803 0.191372
O O2 0.763591 0.651303 0.237036
O O3 0.430393 0.788780 0.248619
O O4 0.923670 0.930913 0.623855
O O5 0.474791 0.149318 0.890706
O O6 0.000000 0.000000 0.500000
O O7 0.066308 0.233010 0.941314
O O8 0.903331 0.444548 0.106944
O O9 0.232098 0.682194 0.463071
O O10 0.000000 0.500000 0.000000
O O11 0.161581 0.658673 0.839839
O O12 0.225619 0.694803 0.684821
O O13 0.046709 0.862042 0.966597
O O14 0.614986 0.868972 0.924960
O O15 0.173868 0.913051 0.838906
#
# Coordination Sequence:
#
# PCOD9008965 Si02
#       7
#     2   2   2   2   2   2   2
#     4  10  21  39  66  95 124 164 211 262 308 369
#     4  11  21  36  63  94 131 167 202 258 314 369
#     4  11  23  46  66  88 126 169 217 256 309 372
#     4  11  22  39  61  96 131 160 208 256 317 374
#     4  11  23  39  64  93 130 166 207 261 310 370
#     4  10  23  42  67  92 127 168 205 261 313 373
#     4  10  21  42  66  97 127 163 209 258 317 371
#
# _framework density 21.964673999999999
#
# number of rings (size 3 to 8) (size 9 to 14) (size 15 to 20)
#    0.000    1.429    1.429    4.286    0.000    2.857 
#   10.286    2.857    0.000    0.000    0.000    0.000 
#    0.000    0.000    0.000    0.000    0.000    0.000 
#
# Total GULP energy -78136.859996 kJ/mol
# GULP energy per Si atom -5581.204285 kJ/mol
# Density = 2.191468 g / cm^3
# Si number density = 21.964674 Si / 1000 Ang^3
#
#
#
# Elastic Constant Matrix: (Units=GPa)
#
#
# Indices 1 2 3 4 5 6 
#
# 1 98.4885 55.8967 28.7234 -9.0560 6.5279 4.3404
# 2 55.8967 115.7481 34.5991 -9.8454 6.1495 14.5326
# 3 28.7234 34.5991 70.0883 -11.4193 1.7687 14.5820
# 4 -9.0560 -9.8454 -11.4193 22.3409 2.4789 -0.9449
# 5 6.5279 6.1495 1.7687 2.4789 28.5861 -12.3165
# 6 4.3404 14.5326 14.5820 -0.9449 -12.3165 47.2097
#
#
#
# Elastic Compliance Matrix: (Units=1/GPa)
#
#
# Indices 1 2 3 4 5 6 
#
# 1 0.014706 -0.006123 -0.002850 0.002027 -0.001593 0.001038
# 2 -0.006123 0.013209 -0.002921 0.002024 -0.002863 -0.003307
# 3 -0.002850 -0.002921 0.019300 0.007515 -0.002895 -0.005405
# 4 0.002027 0.002024 0.007515 0.050980 -0.007541 -0.004078
# 5 -0.001593 -0.002863 -0.002895 -0.007541 0.042314 0.012811
# 6 0.001038 -0.003307 -0.005405 -0.004078 0.012811 0.027035
#
#
# Mechanical properties :
#
#
# Convention : Reuss Voigt Hill
#
# Bulk Modulus (GPa) = 42.68634 58.08480 50.38557
# Shear Modulus (GPa) = 25.10788 30.63437 27.87112
#
# Velocity S-wave (km/s) = 3.38465 3.73863 3.56604
# Velocity P-wave (km/s) = 5.89498 6.71852 6.32018
#
# Compressibility (1/GPa) = 0.02342670
#
# Stress axis : x y z
#
# Youngs Moduli (GPa) = 67.99966 75.70498 51.81461
#
# Poissons Ratio (x) = 0.46356 0.14765
# Poissons Ratio (y) = 0.41638 0.15136
# Poissons Ratio (z) = 0.19377 0.22115
#
# Static dielectric constant tensor:
#      x y z
#    x 1.790220 0.037990 -0.007570 
#    y 0.037990 1.850600 -0.017160 
#    z -0.007570 -0.017160 1.778310 
# 
# From -- ./inp_files/370579.got.cif
#   From: 2010.05.17/outbox.cif.g08.bks.cpg/sg2_186_cif.got.tgz:370579.got - 2010.06.03 11:33:40.
