data_PCOD9008183
_publ_section_title
;
Structure prediction by ZEFSAII (Michael W. Deem and Ramdas Pophale) SiO2 
 PCOD9008183
Probable space group: P -1
;
_chemical_formula_sum "Si O2"
_cell_formula_units_Z 16
_cell_length_a 12.923241
_cell_length_b 13.586591
_cell_length_c 9.999285
_cell_angle_alpha 134.990666
_cell_angle_beta 42.554214
_cell_angle_gamma 142.237876
_cell_volume 693.412793
_symmetry_space_group_name_H-M "P -1"
_symmetry_group_IT_number 2
_symmetry_cell_setting 'triclinic'
loop_
_space_group_symop_operation_xyz
x,y,z
-x,-y,-z
loop_
_atom_site_type_symbol
_atom_site_label
_atom_site_fract_x
_atom_site_fract_y
_atom_site_fract_z
Si Si1 0.593225 0.801809 0.042271
Si Si2 0.371766 0.776716 0.630777
Si Si3 0.944229 0.271952 0.256591
Si Si4 0.688545 0.054309 0.949328
Si Si5 0.523256 0.465422 0.788273
Si Si6 0.157080 0.631358 0.295268
Si Si7 0.796650 0.067032 0.584734
Si Si8 0.177610 0.132045 0.841657
O O1 0.375511 0.719207 0.198723
O O2 0.700107 0.858020 0.137965
O O3 0.599149 0.646588 0.830530
O O4 0.659093 0.935772 0.988413
O O5 0.272263 0.818947 0.655128
O O6 0.359397 0.610934 0.436331
O O7 0.584939 0.929868 0.599914
O O8 0.262498 0.772015 0.862772
O O9 0.956181 0.343309 0.459251
O O10 0.060157 0.431868 0.200722
O O11 0.023628 0.159252 0.065824
O O12 0.500000 0.000000 0.000000
O O13 0.192549 0.956485 0.290595
O O14 0.319201 0.305853 0.792344
O O15 0.500000 0.500000 0.000000
O O16 0.157329 0.745800 0.288586
O O17 0.899361 0.021165 0.336117
#
# Coordination Sequence:
#
# PCOD9008183 Si02
#       8
#     2   2   2   2   2   2   2   2
#     4  11  20  38  67  94 122 163 207 256 303 366
#     4  10  21  39  64  89 123 160 207 251 301 365
#     4  11  24  37  59  98 131 155 197 261 316 366
#     4  10  21  42  67  89 116 164 223 252 290 365
#     4   9  18  35  58  92 127 154 200 254 302 357
#     4  11  22  37  63  90 129 162 202 249 314 365
#     4  10  22  44  67  87 120 166 217 252 296 367
#     4  10  22  37  61  96 127 158 203 256 311 364
#
# _framework density 23.074279000000001
#
# number of rings (size 3 to 8) (size 9 to 14) (size 15 to 20)
#    0.000    1.750    3.750    2.250    7.000    1.500 
#    0.000    8.125    0.000    0.000    0.000    0.000 
#    0.000    0.000    0.000    0.000    0.000    0.000 
#
# Total GULP energy -89117.197772 kJ/mol
# GULP energy per Si atom -5569.824861 kJ/mol
# Density = 2.302176 g / cm^3
# Si number density = 23.074279 Si / 1000 Ang^3
#
#
#
# Elastic Constant Matrix: (Units=GPa)
#
#
# Indices 1 2 3 4 5 6 
#
# 1 58.3421 26.2643 59.0323 3.7074 -2.3889 -14.6296
# 2 26.2643 97.4614 40.9576 9.0684 5.5562 -19.8613
# 3 59.0323 40.9576 168.8741 19.3892 -9.7354 -23.2460
# 4 3.7074 9.0684 19.3892 29.2230 -7.2296 -9.7493
# 5 -2.3889 5.5562 -9.7354 -7.2296 32.9080 -0.5973
# 6 -14.6296 -19.8613 -23.2460 -9.7493 -0.5973 34.1124
#
#
#
# Elastic Compliance Matrix: (Units=1/GPa)
#
#
# Indices 1 2 3 4 5 6 
#
# 1 0.029055 -0.003409 -0.009090 0.005721 0.001360 0.005940
# 2 -0.003409 0.013029 -0.001286 -0.002004 -0.003184 0.004619
# 3 -0.009090 -0.001286 0.010156 -0.004445 0.001604 0.001031
# 4 0.005721 -0.002004 -0.004445 0.042862 0.009049 0.010666
# 5 0.001360 -0.003184 0.001604 0.009049 0.033541 0.002996
# 6 0.005940 0.004619 0.001031 0.010666 0.002996 0.038355
#
#
# Mechanical properties :
#
#
# Convention : Reuss Voigt Hill
#
# Bulk Modulus (GPa) = 40.53737 64.13181 52.33459
# Shear Modulus (GPa) = 24.65597 32.47691 28.56644
#
# Velocity S-wave (km/s) = 3.27241 3.75573 3.52237
# Velocity P-wave (km/s) = 5.64664 6.83091 6.26681
#
# Compressibility (1/GPa) = 0.02466859
#
# Stress axis : x y z
#
# Youngs Moduli (GPa) = 34.41805 76.75300 98.46455
#
# Poissons Ratio (x) = 0.26164 0.89509
# Poissons Ratio (y) = 0.11733 0.12662
# Poissons Ratio (z) = 0.31288 0.09870
#
# Static dielectric constant tensor:
#      x y z
#    x 1.899300 0.007350 -0.024580 
#    y 0.007350 2.007320 -0.006700 
#    z -0.024580 -0.006700 1.985510 
# 
# From -- ./inp_files/465922.got.cif
#   From: 2010.05.17/outbox.cif.g08.bks.cpg/sg2_233_cif.got.tgz:465922.got - 2010.06.03 11:33:40.
