data_PCOD9008822
_publ_section_title
;
Structure prediction by ZEFSAII (Michael W. Deem and Ramdas Pophale) SiO2 
 PCOD9008822
Probable space group: P -1
;
_chemical_formula_sum "Si O2"
_cell_formula_units_Z 14
_cell_length_a 5.295550
_cell_length_b 12.107467
_cell_length_c 14.267141
_cell_angle_alpha 40.763521
_cell_angle_beta 108.474105
_cell_angle_gamma 111.006558
_cell_volume 556.032560
_symmetry_space_group_name_H-M "P -1"
_symmetry_group_IT_number 2
_symmetry_cell_setting 'triclinic'
loop_
_space_group_symop_operation_xyz
x,y,z
-x,-y,-z
loop_
_atom_site_type_symbol
_atom_site_label
_atom_site_fract_x
_atom_site_fract_y
_atom_site_fract_z
Si Si1 0.889055 0.151244 0.441770
Si Si2 0.491420 0.793735 0.062501
Si Si3 0.642608 0.632928 0.007679
Si Si4 0.941167 0.482295 0.727291
Si Si5 0.550878 0.937542 0.696155
Si Si6 0.559985 0.875109 0.264697
Si Si7 0.931261 0.716124 0.286089
O O1 0.096236 0.326617 0.375591
O O2 0.652076 0.181442 0.322667
O O3 0.736926 0.078789 0.564610
O O4 0.000000 0.000000 0.500000
O O5 0.799510 0.811609 0.123879
O O6 0.318294 0.671062 0.197643
O O7 0.447239 0.678172 0.037515
O O8 0.421606 0.974533 0.908615
O O9 0.727076 0.818212 0.847877
O O10 0.500000 0.500000 0.000000
O O11 0.870423 0.566218 0.136102
O O12 0.072899 0.466448 0.650008
O O13 0.377782 0.024746 0.694329
O O14 0.751065 0.746450 0.335028
O O15 0.242846 0.793851 0.292091
#
# Coordination Sequence:
#
# PCOD9008822 Si02
#       7
#     2   2   2   2   2   2   2
#     4  11  26  46  72  95 145 190 238 290 361 430
#     4  10  23  36  65 104 147 181 227 288 359 421
#     4  10  21  39  66 100 142 175 235 296 349 413
#     4  11  24  42  69 110 140 188 234 293 359 417
#     4  10  25  46  66 104 134 196 233 295 353 426
#     4  11  24  41  71 103 144 183 239 288 354 420
#     4  11  23  42  69 104 145 187 230 294 351 425
#
# _framework density 25.178384000000001
#
# number of rings (size 3 to 8) (size 9 to 14) (size 15 to 20)
#    0.000    1.429    2.857    0.857   10.000    2.857 
#    0.000    1.429    0.000    0.000    0.000    0.000 
#    0.000    0.000    0.000    0.000    0.000    0.000 
#
# Total GULP energy -78253.147366 kJ/mol
# GULP energy per Si atom -5589.510526 kJ/mol
# Density = 2.512108 g / cm^3
# Si number density = 25.178384 Si / 1000 Ang^3
#
#
#
# Elastic Constant Matrix: (Units=GPa)
#
#
# Indices 1 2 3 4 5 6 
#
# 1 104.9551 47.5272 32.9900 -12.9140 -9.5675 -15.6855
# 2 47.5272 124.6244 34.3377 7.3762 -2.8727 -15.5502
# 3 32.9900 34.3377 83.6850 -8.4636 4.7673 -17.1189
# 4 -12.9140 7.3762 -8.4636 40.3073 -9.4728 -3.9645
# 5 -9.5675 -2.8727 4.7673 -9.4728 29.7906 -0.9787
# 6 -15.6855 -15.5502 -17.1189 -3.9645 -0.9787 43.9579
#
#
#
# Elastic Compliance Matrix: (Units=1/GPa)
#
#
# Indices 1 2 3 4 5 6 
#
# 1 0.014441 -0.004560 -0.002877 0.006798 0.006925 0.003187
# 2 -0.004560 0.010866 -0.002883 -0.004293 -0.001298 0.000678
# 3 -0.002877 -0.002883 0.015545 0.002644 -0.002711 0.004185
# 4 0.006798 -0.004293 0.002644 0.031536 0.011539 0.005038
# 5 0.006925 -0.001298 -0.002711 0.011539 0.039864 0.002884
# 6 0.003187 0.000678 0.004185 0.005038 0.002884 0.026275
#
#
# Mechanical properties :
#
#
# Convention : Reuss Voigt Hill
#
# Bulk Modulus (GPa) = 49.47277 60.33045 54.90161
# Shear Modulus (GPa) = 30.13825 36.03847 33.08836
#
# Velocity S-wave (km/s) = 3.46351 3.78739 3.62906
# Velocity P-wave (km/s) = 5.97378 6.56803 6.27794
#
# Compressibility (1/GPa) = 0.02021314
#
# Stress axis : x y z
#
# Youngs Moduli (GPa) = 69.24772 92.03014 64.33114
#
# Poissons Ratio (x) = 0.41962 0.18508
# Poissons Ratio (y) = 0.31574 0.18544
# Poissons Ratio (z) = 0.19923 0.26528
#
# Static dielectric constant tensor:
#      x y z
#    x 2.039230 0.002460 0.001020 
#    y 0.002460 2.008630 0.001260 
#    z 0.001020 0.001260 2.050560 
# 
# From -- ./inp_files/99553.got.cif
#   From: 2010.05.17/outbox.cif.g08.bks.cpg/sg2_50_cif.got.tgz:99553.got - 2010.06.03 11:33:40.
