data_PCOD9008901
_publ_section_title
;
Structure prediction by ZEFSAII (Michael W. Deem and Ramdas Pophale) SiO2 
 PCOD9008901
Probable space group: P -1
;
_chemical_formula_sum "Si O2"
_cell_formula_units_Z 12
_cell_length_a 13.714173
_cell_length_b 7.165234
_cell_length_c 7.200499
_cell_angle_alpha 100.093568
_cell_angle_beta 104.719544
_cell_angle_gamma 130.485928
_cell_volume 461.467608
_symmetry_space_group_name_H-M "P -1"
_symmetry_group_IT_number 2
_symmetry_cell_setting 'triclinic'
loop_
_space_group_symop_operation_xyz
x,y,z
-x,-y,-z
loop_
_atom_site_type_symbol
_atom_site_label
_atom_site_fract_x
_atom_site_fract_y
_atom_site_fract_z
Si Si1 0.488133 0.268172 0.413033
Si Si2 0.262697 0.648952 0.846077
Si Si3 0.721545 0.332484 0.690925
Si Si4 0.956448 0.390269 0.749119
Si Si5 0.158616 0.114219 0.590149
Si Si6 0.624720 0.825945 0.065610
O O1 0.500000 0.500000 0.500000
O O2 0.647121 0.404577 0.567873
O O3 0.384289 0.993604 0.436916
O O4 0.403013 0.163473 0.159331
O O5 0.263158 0.442143 0.719931
O O6 0.104769 0.539589 0.740230
O O7 0.370111 0.941615 0.837094
O O8 0.272985 0.626702 0.073857
O O9 0.868061 0.462555 0.680153
O O10 0.858387 0.064497 0.615074
O O11 0.000000 0.500000 0.000000
O O12 0.225137 0.070924 0.778297
O O13 0.000000 0.000000 0.500000
O O14 0.500000 0.500000 0.000000
#
# Coordination Sequence:
#
# PCOD9008901 Si02
#       6
#     2   2   2   2   2   2
#     4  10  21  39  66  91 135 180 222 278 335 402
#     4   9  20  43  68  96 138 178 223 287 339 403
#     4   9  19  39  66  97 128 173 228 276 339 400
#     4   9  19  39  70 101 132 170 230 288 342 407
#     4  10  22  42  68  95 136 178 227 280 346 406
#     4  11  25  43  62 101 140 183 228 278 338 415
#
# _framework density 26.003993999999999
#
# number of rings (size 3 to 8) (size 9 to 14) (size 15 to 20)
#    0.000    2.333    0.000    1.000    2.333    3.333 
#    6.000    0.000    0.000   14.000    0.000    0.000 
#    0.000    0.000    0.000    0.000    0.000    0.000 
#
# Total GULP energy -66825.582653 kJ/mol
# GULP energy per Si atom -5568.798554 kJ/mol
# Density = 2.594481 g / cm^3
# Si number density = 26.003994 Si / 1000 Ang^3
#
#
#
# Elastic Constant Matrix: (Units=GPa)
#
#
# Indices 1 2 3 4 5 6 
#
# 1 130.9010 45.2721 77.4858 -24.7547 26.3553 -43.2429
# 2 45.2721 164.3565 61.7702 -4.6035 -18.2223 -56.4389
# 3 77.4858 61.7702 176.0668 -21.0002 3.3175 -23.3458
# 4 -24.7547 -4.6035 -21.0002 47.5166 -19.4633 -4.3144
# 5 26.3553 -18.2223 3.3175 -19.4633 57.2241 -12.1613
# 6 -43.2429 -56.4389 -23.3458 -4.3144 -12.1613 54.9479
#
#
#
# Elastic Compliance Matrix: (Units=1/GPa)
#
#
# Indices 1 2 3 4 5 6 
#
# 1 0.015552 0.001791 -0.005061 0.006520 -0.001508 0.012106
# 2 0.001791 0.013635 -0.002749 0.006438 0.009446 0.016843
# 3 -0.005061 -0.002749 0.008572 0.000874 0.000628 -0.002957
# 4 0.006520 0.006438 0.000874 0.032766 0.013917 0.017768
# 5 -0.001508 0.009446 0.000628 0.013917 0.029354 0.016371
# 6 0.012106 0.016843 -0.002957 0.017768 0.016371 0.048789
#
#
# Mechanical properties :
#
#
# Convention : Reuss Voigt Hill
#
# Bulk Modulus (GPa) = 38.87868 93.37562 66.12715
# Shear Modulus (GPa) = 29.53700 51.05746 40.29723
#
# Velocity S-wave (km/s) = 3.37391 4.43589 3.94084
# Velocity P-wave (km/s) = 5.49192 7.88811 6.79645
#
# Compressibility (1/GPa) = 0.02572104
#
# Stress axis : x y z
#
# Youngs Moduli (GPa) = 64.30051 73.33827 116.66190
#
# Poissons Ratio (x) = -0.13135 0.59046
# Poissons Ratio (y) = -0.11517 0.32068
# Poissons Ratio (z) = 0.32544 0.20159
#
# Static dielectric constant tensor:
#      x y z
#    x 2.156590 0.046480 -0.016610 
#    y 0.046480 2.078980 0.035130 
#    z -0.016610 0.035130 2.129450 
# 
# From -- ./inp_files/287959.got.cif
#   From: 2010.05.17/outbox.cif.g08.bks.cpg/sg2_144_cif.got.tgz:287959.got - 2010.06.03 11:33:40.
