data_PCOD9008795
_publ_section_title
;
Structure prediction by ZEFSAII (Michael W. Deem and Ramdas Pophale) SiO2 
 PCOD9008795
Probable space group: P -1
;
_chemical_formula_sum "Si O2"
_cell_formula_units_Z 15
_cell_length_a 5.037246
_cell_length_b 5.695138
_cell_length_c 22.377164
_cell_angle_alpha 103.174315
_cell_angle_beta 85.628621
_cell_angle_gamma 82.320750
_cell_volume 615.653727
_symmetry_space_group_name_H-M "P -1"
_symmetry_group_IT_number 2
_symmetry_cell_setting 'triclinic'
loop_
_space_group_symop_operation_xyz
x,y,z
-x,-y,-z
loop_
_atom_site_type_symbol
_atom_site_label
_atom_site_fract_x
_atom_site_fract_y
_atom_site_fract_z
Si Si1 0.621822 0.768022 0.653841
Si Si2 0.839007 0.767279 0.306759
Si Si3 0.859162 0.693568 0.061790
Si Si4 0.348628 0.477952 0.108199
Si Si5 0.624960 0.484348 0.752346
Si Si6 0.500000 0.000000 0.000000
Si Si7 0.807123 0.879834 0.540773
Si Si8 0.653614 0.655939 0.423569
O O1 0.700925 0.675688 0.713366
O O2 0.855612 0.824166 0.606937
O O3 0.502042 0.554501 0.608337
O O4 0.368522 0.983017 0.677952
O O5 0.663345 0.583927 0.265897
O O6 0.872870 0.686528 0.371006
O O7 0.134653 0.746002 0.272740
O O8 0.597450 0.597832 0.086105
O O9 0.744898 0.939643 0.043447
O O10 0.084519 0.674412 0.107816
O O11 0.000000 0.500000 0.000000
O O12 0.374291 0.431036 0.175061
O O13 0.357093 0.229834 0.056399
O O14 0.750451 0.647375 0.489399
O O15 0.546110 0.087292 0.561668
O O16 0.000000 0.000000 0.500000
#
# Coordination Sequence:
#
# PCOD9008795 Si02
#       8
#     2   2   2   2   2   1   2   2
#     4  10  23  44  68  95 130 187 231 289 351 414
#     4  10  24  44  67  91 137 174 236 289 343 404
#     4  10  22  41  65  99 136 175 212 277 330 395
#     4  11  24  41  68  99 142 177 225 280 342 398
#     4  11  25  46  64  99 134 184 232 285 339 422
#     4  10  22  42  70 102 134 172 226 264 336 406
#     4  10  21  39  65  98 132 170 226 296 356 413
#     4   9  21  40  61  94 130 170 228 285 354 416
#
# _framework density 24.364342000000001
#
# number of rings (size 3 to 8) (size 9 to 14) (size 15 to 20)
#    0.000    1.867    0.000    2.800    5.600    9.600 
#    9.600    0.000    0.000    0.000    0.000    0.000 
#    0.000    0.000    0.000    0.000    0.000    0.000 
#
# Total GULP energy -83591.221823 kJ/mol
# GULP energy per Si atom -5572.748122 kJ/mol
# Density = 2.430889 g / cm^3
# Si number density = 24.364342 Si / 1000 Ang^3
#
#
#
# Elastic Constant Matrix: (Units=GPa)
#
#
# Indices 1 2 3 4 5 6 
#
# 1 167.6922 28.7541 58.5275 -26.3467 -26.7532 -15.1546
# 2 28.7541 62.3253 38.5101 -12.3694 6.6816 -22.0022
# 3 58.5275 38.5101 137.2607 -14.2018 8.0527 -0.8594
# 4 -26.3467 -12.3694 -14.2018 34.0296 -5.6061 4.2908
# 5 -26.7532 6.6816 8.0527 -5.6061 40.8879 -7.6180
# 6 -15.1546 -22.0022 -0.8594 4.2908 -7.6180 46.6248
#
#
#
# Elastic Compliance Matrix: (Units=1/GPa)
#
#
# Indices 1 2 3 4 5 6 
#
# 1 0.010512 -0.000449 -0.004133 0.007313 0.009515 0.004010
# 2 -0.000449 0.024969 -0.006236 0.004662 -0.000454 0.011019
# 3 -0.004133 -0.006236 0.010940 -0.001102 -0.004881 -0.004780
# 4 0.007313 0.004662 -0.001102 0.037570 0.009897 0.002716
# 5 0.009515 -0.000454 -0.004881 0.009897 0.034475 0.007511
# 6 0.004010 0.011019 -0.004780 0.002716 0.007511 0.028840
#
#
# Mechanical properties :
#
#
# Convention : Reuss Voigt Hill
#
# Bulk Modulus (GPa) = 40.34741 68.76240 54.55491
# Shear Modulus (GPa) = 28.21624 40.40758 34.31191
#
# Velocity S-wave (km/s) = 3.40677 4.07685 3.75678
# Velocity P-wave (km/s) = 5.66311 7.10245 6.42322
#
# Compressibility (1/GPa) = 0.02478474
#
# Stress axis : x y z
#
# Youngs Moduli (GPa) = 95.12812 40.05000 91.41145
#
# Poissons Ratio (x) = 0.01799 0.37779
# Poissons Ratio (y) = 0.04274 0.57002
# Poissons Ratio (z) = 0.39315 0.24974
#
# Static dielectric constant tensor:
#      x y z
#    x 1.970960 0.040000 0.029630 
#    y 0.040000 2.009540 -0.042250 
#    z 0.029630 -0.042250 1.929330 
# 
# From -- ./inp_files/580810.got.cif
#   From: 2010.05.17/outbox.cif.g08.bks.cpg/sg2_291_cif.got.tgz:580810.got - 2010.06.03 11:33:40.
