data_PCOD9008315
_publ_section_title
;
Structure prediction by ZEFSAII (Michael W. Deem and Ramdas Pophale) SiO2 
 PCOD9008315
Probable space group: P -1
;
_chemical_formula_sum "Si O2"
_cell_formula_units_Z 14
_cell_length_a 10.713004
_cell_length_b 6.040718
_cell_length_c 11.002916
_cell_angle_alpha 94.332690
_cell_angle_beta 123.202174
_cell_angle_gamma 68.251600
_cell_volume 545.909919
_symmetry_space_group_name_H-M "P -1"
_symmetry_group_IT_number 2
_symmetry_cell_setting 'triclinic'
loop_
_space_group_symop_operation_xyz
x,y,z
-x,-y,-z
loop_
_atom_site_type_symbol
_atom_site_label
_atom_site_fract_x
_atom_site_fract_y
_atom_site_fract_z
Si Si1 0.237472 0.218162 0.167134
Si Si2 0.988707 0.331993 0.823106
Si Si3 0.498253 0.154168 0.849219
Si Si4 0.662762 0.396341 0.384594
Si Si5 0.743145 0.048614 0.185374
Si Si6 0.915788 0.598778 0.584604
Si Si7 0.344811 0.941086 0.443108
O O1 0.252435 0.013926 0.267738
O O2 0.187683 0.482277 0.212811
O O3 0.401037 0.105525 0.170731
O O4 0.095769 0.253224 0.997715
O O5 0.023548 0.524620 0.760076
O O6 0.075957 0.089703 0.777609
O O7 0.453230 0.357622 0.731360
O O8 0.337984 0.137065 0.820270
O O9 0.617090 0.186082 0.016143
O O10 0.734988 0.217372 0.301737
O O11 0.803331 0.447768 0.530308
O O12 0.591674 0.296842 0.452628
O O13 0.790796 0.872451 0.532371
O O14 0.000000 0.500000 0.500000
O O15 0.500000 0.000000 0.500000
#
# Coordination Sequence:
#
# PCOD9008315 Si02
#       7
#     2   2   2   2   2   2   2
#     4   9  19  38  61  84 117 162 205 250 307 366
#     4   9  19  38  61  84 117 162 205 250 307 366
#     4  10  21  39  64  93 124 160 206 259 313 374
#     4  12  23  38  65  96 128 166 210 258 317 376
#     4  10  21  39  64  93 124 160 206 259 313 374
#     4  11  24  41  62  92 127 164 209 263 316 371
#     4  11  24  41  62  92 127 164 209 263 316 371
#
# _framework density 25.645256
#
# number of rings (size 3 to 8) (size 9 to 14) (size 15 to 20)
#    0.000    1.714    0.000    4.714    0.000    4.571 
#    0.000    2.143    0.000   13.714    0.000    0.000 
#    0.000    0.000    0.000    0.000    0.000    0.000 
#
# Total GULP energy -78098.164039 kJ/mol
# GULP energy per Si atom -5578.440289 kJ/mol
# Density = 2.558689 g / cm^3
# Si number density = 25.645256 Si / 1000 Ang^3
#
#
#
# Elastic Constant Matrix: (Units=GPa)
#
#
# Indices 1 2 3 4 5 6 
#
# 1 94.4197 46.2585 30.5612 -11.6114 -15.7817 -27.5604
# 2 46.2585 93.0758 46.2674 -0.4834 2.2992 -39.4960
# 3 30.5612 46.2674 185.4930 -29.5341 -26.2231 -3.3243
# 4 -11.6114 -0.4834 -29.5341 50.3175 -1.8336 -13.0705
# 5 -15.7817 2.2992 -26.2231 -1.8336 27.9253 -1.5349
# 6 -27.5604 -39.4960 -3.3243 -13.0705 -1.5349 57.5629
#
#
#
# Elastic Compliance Matrix: (Units=1/GPa)
#
#
# Indices 1 2 3 4 5 6 
#
# 1 0.018999 -0.008647 0.002389 0.007640 0.014492 0.005422
# 2 -0.008647 0.022730 -0.006353 -0.003362 -0.012396 0.009995
# 3 0.002389 -0.006353 0.009007 0.005886 0.010659 -0.001074
# 4 0.007640 -0.003362 0.005886 0.027668 0.012395 0.008304
# 5 0.014492 -0.012396 0.010659 0.012395 0.056028 0.003357
# 6 0.005422 0.009995 -0.001074 0.008304 0.003357 0.028739
#
#
# Mechanical properties :
#
#
# Convention : Reuss Voigt Hill
#
# Bulk Modulus (GPa) = 39.19674 68.79585 53.99630
# Shear Modulus (GPa) = 25.39381 43.82123 34.60752
#
# Velocity S-wave (km/s) = 3.15015 4.13818 3.67750
# Velocity P-wave (km/s) = 5.34309 7.05102 6.25562
#
# Compressibility (1/GPa) = 0.02551232
#
# Stress axis : x y z
#
# Youngs Moduli (GPa) = 52.63473 43.99513 111.02655
#
# Poissons Ratio (x) = 0.38044 -0.26526
# Poissons Ratio (y) = 0.45515 0.70538
# Poissons Ratio (z) = -0.12575 0.27951
#
# Static dielectric constant tensor:
#      x y z
#    x 2.012970 -0.008480 0.022910 
#    y -0.008480 2.073220 0.010560 
#    z 0.022910 0.010560 2.127000 
# 
# From -- ./inp_files/409221.got.cif
#   From: 2010.05.17/outbox.cif.g08.bks.cpg/sg2_205_cif.got.tgz:409221.got - 2010.06.03 11:33:40.
