data_PCOD9008692
_publ_section_title
;
Structure prediction by ZEFSAII (Michael W. Deem and Ramdas Pophale) SiO2 
 PCOD9008692
Probable space group: P -1
;
_chemical_formula_sum "Si O2"
_cell_formula_units_Z 14
_cell_length_a 12.452305
_cell_length_b 10.227476
_cell_length_c 16.065586
_cell_angle_alpha 155.270001
_cell_angle_beta 132.815459
_cell_angle_gamma 63.344192
_cell_volume 524.517303
_symmetry_space_group_name_H-M "P -1"
_symmetry_group_IT_number 2
_symmetry_cell_setting 'triclinic'
loop_
_space_group_symop_operation_xyz
x,y,z
-x,-y,-z
loop_
_atom_site_type_symbol
_atom_site_label
_atom_site_fract_x
_atom_site_fract_y
_atom_site_fract_z
Si Si1 0.421981 0.063357 0.698254
Si Si2 0.346097 0.822621 0.249193
Si Si3 0.193549 0.063503 0.435630
Si Si4 0.725011 0.162194 0.127593
Si Si5 0.050861 0.334798 0.307493
Si Si6 0.618635 0.432924 0.463071
Si Si7 0.919542 0.992399 0.364539
O O1 0.570417 0.025011 0.709013
O O2 0.272971 0.939673 0.478455
O O3 0.358832 0.841959 0.622645
O O4 0.500000 0.500000 0.000000
O O5 0.500000 0.000000 0.500000
O O6 0.212511 0.917569 0.272387
O O7 0.269610 0.384651 0.953302
O O8 0.282714 0.511657 0.735825
O O9 0.003298 0.922830 0.287309
O O10 0.824577 0.365224 0.381943
O O11 0.859803 0.081436 0.103874
O O12 0.526671 0.810027 0.825359
O O13 0.186978 0.258000 0.289810
O O14 0.031805 0.593709 0.382673
O O15 0.500000 0.500000 0.500000
O O16 0.000000 0.000000 0.500000
#
# Coordination Sequence:
#
# PCOD9008692 Si02
#       7
#     2   2   2   2   2   2   2
#     4  11  21  41  64  96 133 172 222 275 335 397
#     4  10  23  36  62  96 131 166 218 277 326 397
#     4  10  21  39  65  94 130 171 224 276 331 398
#     4  10  23  44  68  92 130 183 220 270 343 401
#     4  10  24  44  66  93 131 175 226 270 332 413
#     4  12  26  41  67 101 135 174 223 280 339 397
#     4  11  22  40  68  98 128 174 223 278 343 393
#
# _framework density 26.691208
#
# number of rings (size 3 to 8) (size 9 to 14) (size 15 to 20)
#    0.000    1.429    1.429    3.429    6.000    2.857 
#    0.000    5.714    0.000    0.000    0.000    0.000 
#    0.000    0.000    0.000    0.000    0.000    0.000 
#
# Total GULP energy -78213.093128 kJ/mol
# GULP energy per Si atom -5586.649509 kJ/mol
# Density = 2.663046 g / cm^3
# Si number density = 26.691208 Si / 1000 Ang^3
#
#
#
# Elastic Constant Matrix: (Units=GPa)
#
#
# Indices 1 2 3 4 5 6 
#
# 1 185.1122 -7.0174 4.3080 10.1727 -9.0842 -26.6105
# 2 -7.0174 85.1651 -2.3440 -6.2002 0.7025 5.4533
# 3 4.3080 -2.3440 71.1419 0.1294 5.5369 -3.4851
# 4 10.1727 -6.2002 0.1294 22.5097 0.3706 -8.2613
# 5 -9.0842 0.7025 5.5369 0.3706 44.3514 -0.8106
# 6 -26.6105 5.4533 -3.4851 -8.2613 -0.8106 40.4094
#
#
#
# Elastic Compliance Matrix: (Units=1/GPa)
#
#
# Indices 1 2 3 4 5 6 
#
# 1 0.006090 0.000145 -0.000285 -0.001370 0.001360 0.003713
# 2 0.000145 0.012036 0.000357 0.002919 -0.000246 -0.000906
# 3 -0.000285 0.000357 0.014280 0.000570 -0.001832 0.001075
# 4 -0.001370 0.002919 0.000570 0.049076 -0.000648 0.008773
# 5 0.001360 -0.000246 -0.001832 -0.000648 0.023084 0.001102
# 6 0.003713 -0.000906 0.001075 0.008773 0.001102 0.029223
#
#
# Mechanical properties :
#
#
# Convention : Reuss Voigt Hill
#
# Bulk Modulus (GPa) = 30.45053 36.81248 33.63150
# Shear Modulus (GPa) = 34.64977 44.55228 39.60102
#
# Velocity S-wave (km/s) = 3.60692 4.08999 3.85603
# Velocity P-wave (km/s) = 5.36468 6.01048 5.69674
#
# Compressibility (1/GPa) = 0.03284015
#
# Stress axis : x y z
#
# Youngs Moduli (GPa) = 164.19987 83.08224 70.02956
#
# Poissons Ratio (x) = -0.01206 0.01999
# Poissons Ratio (y) = -0.02384 -0.02502
# Poissons Ratio (z) = 0.04687 -0.02968
#
# Static dielectric constant tensor:
#      x y z
#    x 2.161130 -0.075870 -0.073250 
#    y -0.075870 2.139480 0.000290 
#    z -0.073250 0.000290 2.096600 
# 
# From -- ./inp_files/569272.got.cif
#   From: 2010.05.17/outbox.cif.g08.bks.cpg/sg2_285_cif.got.tgz:569272.got - 2010.06.03 11:33:40.
