data_PCOD9008883
_publ_section_title
;
Structure prediction by ZEFSAII (Michael W. Deem and Ramdas Pophale) SiO2 
 PCOD9008883
Probable space group: P -1
;
_chemical_formula_sum "Si O2"
_cell_formula_units_Z 16
_cell_length_a 16.170957
_cell_length_b 14.106069
_cell_length_c 8.267931
_cell_angle_alpha 108.461643
_cell_angle_beta 120.755306
_cell_angle_gamma 29.428602
_cell_volume 758.426134
_symmetry_space_group_name_H-M "P -1"
_symmetry_group_IT_number 2
_symmetry_cell_setting 'triclinic'
loop_
_space_group_symop_operation_xyz
x,y,z
-x,-y,-z
loop_
_atom_site_type_symbol
_atom_site_label
_atom_site_fract_x
_atom_site_fract_y
_atom_site_fract_z
Si Si1 0.864599 0.904280 0.111201
Si Si2 0.165016 0.867893 0.959356
Si Si3 0.824789 0.485226 0.991062
Si Si4 0.871438 0.787869 0.383091
Si Si5 0.478022 0.134074 0.324266
Si Si6 0.095084 0.409673 0.227552
Si Si7 0.553897 0.222065 0.718505
Si Si8 0.803784 0.385526 0.225517
O O1 0.809891 0.910065 0.232197
O O2 0.889005 0.001236 0.161437
O O3 0.064143 0.672150 0.127349
O O4 0.693254 0.035558 0.881694
O O5 0.211251 0.719874 0.848333
O O6 0.339715 0.766499 0.173508
O O7 0.000000 0.000000 0.000000
O O8 0.755295 0.469199 0.043933
O O9 0.993049 0.403530 0.192208
O O10 0.651520 0.709063 0.870235
O O11 0.017520 0.571706 0.343471
O O12 0.984253 0.763885 0.597272
O O13 0.682042 0.908677 0.340424
O O14 0.326331 0.205318 0.316773
O O15 0.532906 0.180479 0.511892
O O16 0.000000 0.500000 0.000000
O O17 0.345830 0.430005 0.700980
#
# Coordination Sequence:
#
# PCOD9008883 Si02
#       8
#     2   2   2   2   2   2   2   2
#     4  10  21  40  64  92 127 163 210 256 317 373
#     4  10  21  39  66  90 129 166 210 258 325 369
#     4  11  22  41  67  91 131 167 209 266 318 370
#     4  12  23  42  67  94 130 170 211 262 317 375
#     4  11  22  43  65  94 131 169 211 263 316 376
#     4  10  22  42  66  92 130 164 216 261 318 374
#     4  10  22  41  63  94 127 169 210 262 315 378
#     4  12  22  42  65  93 132 167 212 267 313 377
#
# _framework density 21.096319999999999
#
# number of rings (size 3 to 8) (size 9 to 14) (size 15 to 20)
#    0.750    0.500    5.000    2.625    0.000    3.000 
#    2.250    1.875    0.000    0.000    0.000    0.000 
#    0.000    0.000    0.000    0.000    0.000    0.000 
#
# Total GULP energy -89287.352818 kJ/mol
# GULP energy per Si atom -5580.459551 kJ/mol
# Density = 2.104830 g / cm^3
# Si number density = 21.096320 Si / 1000 Ang^3
#
#
#
# Elastic Constant Matrix: (Units=GPa)
#
#
# Indices 1 2 3 4 5 6 
#
# 1 69.7863 8.6046 11.1259 -3.2781 6.6619 -7.6418
# 2 8.6046 69.2063 4.3927 -3.2297 0.7211 -28.0940
# 3 11.1259 4.3927 64.5343 -3.3080 16.0789 -5.8968
# 4 -3.2781 -3.2297 -3.3080 30.2557 -3.9699 6.9303
# 5 6.6619 0.7211 16.0789 -3.9699 22.3663 -1.8359
# 6 -7.6418 -28.0940 -5.8968 6.9303 -1.8359 35.6346
#
#
#
# Elastic Compliance Matrix: (Units=1/GPa)
#
#
# Indices 1 2 3 4 5 6 
#
# 1 0.015237 -0.000916 -0.001576 0.000508 -0.003119 0.002025
# 2 -0.000916 0.021389 0.000002 -0.001623 0.000691 0.017018
# 3 -0.001576 0.000002 0.019255 -0.000314 -0.013245 0.002228
# 4 0.000508 -0.001623 -0.000314 0.035448 0.005777 -0.007819
# 5 -0.003119 0.000691 -0.013245 0.005777 0.056119 -0.000548
# 6 0.002025 0.017018 0.002228 -0.007819 -0.000548 0.043775
#
#
# Mechanical properties :
#
#
# Convention : Reuss Voigt Hill
#
# Bulk Modulus (GPa) = 19.64668 27.97483 23.81075
# Shear Modulus (GPa) = 23.45538 29.61157 26.53348
#
# Velocity S-wave (km/s) = 3.33802 3.75058 3.55030
# Velocity P-wave (km/s) = 4.91829 5.66084 5.30258
#
# Compressibility (1/GPa) = 0.05089919
#
# Stress axis : x y z
#
# Youngs Moduli (GPa) = 65.62930 46.75369 51.93471
#
# Poissons Ratio (x) = 0.04284 0.08187
# Poissons Ratio (y) = 0.06013 -0.00009
# Poissons Ratio (z) = 0.10345 -0.00008
#
# Static dielectric constant tensor:
#      x y z
#    x 1.778180 -0.012060 0.007680 
#    y -0.012060 1.768820 -0.020410 
#    z 0.007680 -0.020410 1.758700 
# 
# From -- ./inp_files/315664.got.cif
#   From: 2010.05.17/outbox.cif.g08.bks.cpg/sg2_158_cif.got.tgz:315664.got - 2010.06.03 11:33:40.
