data_PCOD9008113
_publ_section_title
;
Structure prediction by ZEFSAII (Michael W. Deem and Ramdas Pophale) SiO2 
 PCOD9008113
Probable space group: P -1
;
_chemical_formula_sum "Si O2"
_cell_formula_units_Z 12
_cell_length_a 5.713280
_cell_length_b 17.031396
_cell_length_c 10.736942
_cell_angle_alpha 40.086576
_cell_angle_beta 68.692978
_cell_angle_gamma 47.463005
_cell_volume 468.931147
_symmetry_space_group_name_H-M "P -1"
_symmetry_group_IT_number 2
_symmetry_cell_setting 'triclinic'
loop_
_space_group_symop_operation_xyz
x,y,z
-x,-y,-z
loop_
_atom_site_type_symbol
_atom_site_label
_atom_site_fract_x
_atom_site_fract_y
_atom_site_fract_z
Si Si1 0.522234 0.627607 0.458755
Si Si2 0.170899 0.557642 0.776789
Si Si3 0.241475 0.832192 0.807561
Si Si4 0.810586 0.811791 0.759308
Si Si5 0.763874 0.025776 0.898995
Si Si6 0.890614 0.596408 0.210482
O O1 0.234636 0.642383 0.560154
O O2 0.590140 0.618334 0.309380
O O3 0.851060 0.464210 0.656355
O O4 0.464367 0.784474 0.320426
O O5 0.937706 0.540274 0.764439
O O6 0.034450 0.665284 0.794514
O O7 0.481641 0.366605 0.983120
O O8 0.438617 0.897920 0.677280
O O9 0.018295 0.862350 0.698275
O O10 0.009579 0.916236 0.871413
O O11 0.783466 0.751374 0.972916
O O12 0.500000 0.000000 0.000000
O O13 0.000000 0.000000 0.000000
#
# Coordination Sequence:
#
# PCOD9008113 Si02
#       6
#     2   2   2   2   2   2
#     4  11  24  39  67  98 131 167 222 280 323 383
#     4  11  23  39  71  95 132 171 225 272 321 388
#     4  11  22  42  65  96 129 176 219 265 321 394
#     4  11  23  42  71  96 132 179 219 264 328 393
#     4  12  27  45  67  95 137 180 215 264 340 399
#     4  10  21  39  64 100 131 167 219 277 327 379
#
# _framework density 25.590112000000001
#
# number of rings (size 3 to 8) (size 9 to 14) (size 15 to 20)
#    0.000    1.000    1.667    7.000    7.000    0.000 
#    0.000    1.667    0.000    0.000    0.000    0.000 
#    0.000    0.000    0.000    0.000    0.000    0.000 
#
# Total GULP energy -66992.761032 kJ/mol
# GULP energy per Si atom -5582.730086 kJ/mol
# Density = 2.553187 g / cm^3
# Si number density = 25.590112 Si / 1000 Ang^3
#
#
#
# Elastic Constant Matrix: (Units=GPa)
#
#
# Indices 1 2 3 4 5 6 
#
# 1 177.4128 51.3663 23.9018 -2.2610 -15.1906 8.4462
# 2 51.3663 164.9020 -8.2953 3.0138 -3.8488 21.9418
# 3 23.9018 -8.2953 35.7196 2.2804 1.0983 0.2177
# 4 -2.2610 3.0138 2.2804 19.6080 -12.9755 0.6482
# 5 -15.1906 -3.8488 1.0983 -12.9755 59.1599 9.4982
# 6 8.4462 21.9418 0.2177 0.6482 9.4982 38.5228
#
#
#
# Elastic Compliance Matrix: (Units=1/GPa)
#
#
# Indices 1 2 3 4 5 6 
#
# 1 0.007505 -0.002513 -0.005936 0.003878 0.002878 -0.000955
# 2 -0.002513 0.007557 0.003571 -0.001744 -0.000001 -0.003744
# 3 -0.005936 0.003571 0.033384 -0.007478 -0.003565 0.000084
# 4 0.003878 -0.001744 -0.007478 0.063073 0.015614 -0.004726
# 5 0.002878 -0.000001 -0.003565 0.015614 0.022150 -0.006334
# 6 -0.000955 -0.003744 0.000084 -0.004726 -0.006334 0.029941
#
#
# Mechanical properties :
#
#
# Convention : Reuss Voigt Hill
#
# Bulk Modulus (GPa) = 25.84731 56.88670 41.36701
# Shear Modulus (GPa) = 26.84388 44.19558 35.51973
#
# Velocity S-wave (km/s) = 3.24233 4.16030 3.72966
# Velocity P-wave (km/s) = 4.91319 6.73466 5.89470
#
# Compressibility (1/GPa) = 0.03868874
#
# Stress axis : x y z
#
# Youngs Moduli (GPa) = 133.24104 132.33505 29.95481
#
# Poissons Ratio (x) = 0.33256 0.17781
# Poissons Ratio (y) = 0.33484 -0.10696
# Poissons Ratio (z) = 0.79091 -0.47252
#
# Static dielectric constant tensor:
#      x y z
#    x 2.132440 -0.049720 0.000200 
#    y -0.049720 2.052470 0.021070 
#    z 0.000200 0.021070 2.063560 
# 
# From -- ./inp_files/27972.got.cif
#   From: 2010.05.17/outbox.cif.g08.bks.cpg/sg2_14_cif.got.tgz:27972.got - 2010.06.03 11:33:40.
