data_PCOD9008298
_publ_section_title
;
Structure prediction by ZEFSAII (Michael W. Deem and Ramdas Pophale) SiO2 
 PCOD9008298
Probable space group: P -1
;
_chemical_formula_sum "Si O2"
_cell_formula_units_Z 16
_cell_length_a 5.321066
_cell_length_b 20.660715
_cell_length_c 8.357044
_cell_angle_alpha 49.898751
_cell_angle_beta 64.391342
_cell_angle_gamma 77.157657
_cell_volume 631.621069
_symmetry_space_group_name_H-M "P -1"
_symmetry_group_IT_number 2
_symmetry_cell_setting 'triclinic'
loop_
_space_group_symop_operation_xyz
x,y,z
-x,-y,-z
loop_
_atom_site_type_symbol
_atom_site_label
_atom_site_fract_x
_atom_site_fract_y
_atom_site_fract_z
Si Si1 0.172001 0.611653 0.165039
Si Si2 0.901234 0.223415 0.452656
Si Si3 0.534329 0.676657 0.418793
Si Si4 0.161073 0.532144 0.650303
Si Si5 0.262709 0.807836 0.798393
Si Si6 0.343872 0.162624 0.083692
Si Si7 0.275190 0.365908 0.219130
Si Si8 0.249536 0.943872 0.070816
O O1 0.914343 0.567061 0.203407
O O2 0.147669 0.572917 0.411154
O O3 0.187604 0.711775 0.031273
O O4 0.440994 0.596295 0.004919
O O5 0.747044 0.280326 0.528999
O O6 0.716389 0.206140 0.373758
O O7 0.918742 0.131524 0.664719
O O8 0.166577 0.289678 0.250728
O O9 0.685510 0.676590 0.548529
O O10 0.453674 0.578070 0.557347
O O11 0.636620 0.741579 0.147790
O O12 0.931561 0.563006 0.789025
O O13 0.537727 0.842004 0.762056
O O14 0.988558 0.861707 0.806449
O O15 0.563369 0.107210 0.022178
O O16 0.500000 0.000000 0.000000
O O17 0.000000 0.000000 0.000000
#
# Coordination Sequence:
#
# PCOD9008298 Si02
#       8
#     2   2   2   2   2   2   2   2
#     4  11  22  41  64  95 144 186 249 302 367 405
#     4  10  25  41  70  97 138 178 237 282 349 431
#     4  10  21  39  64  92 135 183 243 289 351 418
#     4  10  23  41  57  99 138 191 245 310 361 420
#     4  12  23  45  67 104 136 186 239 286 346 422
#     4  11  25  42  73 100 138 183 228 285 351 428
#     4  11  22  43  65  97 136 195 244 303 355 425
#     4  11  26  48  75 108 142 179 226 282 362 439
#
# _framework density 25.331641999999999
#
# number of rings (size 3 to 8) (size 9 to 14) (size 15 to 20)
#    0.000    1.250    2.500    2.625    7.000    0.500 
#    4.500    5.625    0.000    0.000    0.000    0.000 
#    0.000    0.000    0.000    0.000    0.000    0.000 
#
# Total GULP energy -89291.013633 kJ/mol
# GULP energy per Si atom -5580.688352 kJ/mol
# Density = 2.527399 g / cm^3
# Si number density = 25.331642 Si / 1000 Ang^3
#
#
#
# Elastic Constant Matrix: (Units=GPa)
#
#
# Indices 1 2 3 4 5 6 
#
# 1 110.7987 47.7659 39.3442 5.0360 7.5598 -15.4011
# 2 47.7659 89.4020 38.8804 9.5797 -5.8727 -3.1228
# 3 39.3442 38.8804 79.0346 1.4109 5.8470 -6.8842
# 4 5.0360 9.5797 1.4109 48.4342 -12.2927 -4.9901
# 5 7.5598 -5.8727 5.8470 -12.2927 39.4111 11.1047
# 6 -15.4011 -3.1228 -6.8842 -4.9901 11.1047 39.3278
#
#
#
# Elastic Compliance Matrix: (Units=1/GPa)
#
#
# Indices 1 2 3 4 5 6 
#
# 1 0.013939 -0.006178 -0.003012 -0.000822 -0.005026 0.005755
# 2 -0.006178 0.017617 -0.006285 -0.001711 0.005288 -0.003831
# 3 -0.003012 -0.006285 0.017716 0.000391 -0.003564 0.002479
# 4 -0.000822 -0.001711 0.000391 0.022847 0.006805 0.000588
# 5 -0.005026 0.005288 -0.003564 0.006805 0.032751 -0.010556
# 6 0.005755 -0.003831 0.002479 0.000588 -0.010556 0.030866
#
#
# Mechanical properties :
#
#
# Convention : Reuss Voigt Hill
#
# Bulk Modulus (GPa) = 54.58078 59.02403 56.80241
# Shear Modulus (GPa) = 28.93628 35.65094 32.29361
#
# Velocity S-wave (km/s) = 3.38346 3.75556 3.57435
# Velocity P-wave (km/s) = 6.07099 6.49282 6.28545
#
# Compressibility (1/GPa) = 0.01832147
#
# Stress axis : x y z
#
# Youngs Moduli (GPa) = 71.74317 56.76409 56.44513
#
# Poissons Ratio (x) = 0.35071 0.16999
# Poissons Ratio (y) = 0.44326 0.35476
# Poissons Ratio (z) = 0.21606 0.35677
#
# Static dielectric constant tensor:
#      x y z
#    x 2.109440 -0.034540 -0.033210 
#    y -0.034540 2.005540 0.022280 
#    z -0.033210 0.022280 2.029340 
# 
# From -- ./inp_files/141111.got.cif
#   From: 2010.05.17/outbox.cif.g08.bks.cpg/sg2_71_cif.got.tgz:141111.got - 2010.06.03 11:33:40.
