data_PCOD9008273
_publ_section_title
;
Structure prediction by ZEFSAII (Michael W. Deem and Ramdas Pophale) SiO2 
 PCOD9008273
Probable space group: P -1
;
_chemical_formula_sum "Si O2"
_cell_formula_units_Z 16
_cell_length_a 11.540212
_cell_length_b 13.177334
_cell_length_c 7.685602
_cell_angle_alpha 123.531695
_cell_angle_beta 115.439610
_cell_angle_gamma 39.502318
_cell_volume 619.712117
_symmetry_space_group_name_H-M "P -1"
_symmetry_group_IT_number 2
_symmetry_cell_setting 'triclinic'
loop_
_space_group_symop_operation_xyz
x,y,z
-x,-y,-z
loop_
_atom_site_type_symbol
_atom_site_label
_atom_site_fract_x
_atom_site_fract_y
_atom_site_fract_z
Si Si1 0.934831 0.259820 0.753731
Si Si2 0.153026 0.425754 0.882262
Si Si3 0.375603 0.676444 0.293630
Si Si4 0.455105 0.232935 0.338893
Si Si5 0.525334 0.036520 0.742823
Si Si6 0.943030 0.388026 0.528575
Si Si7 0.758314 0.302069 0.153999
Si Si8 0.237435 0.947937 0.906325
O O1 0.785785 0.255946 0.619669
O O2 0.000839 0.267368 0.618752
O O3 0.835659 0.437015 0.962578
O O4 0.095623 0.103805 0.830471
O O5 0.343889 0.233802 0.857828
O O6 0.081792 0.408866 0.642437
O O7 0.000000 0.500000 0.000000
O O8 0.442198 0.769731 0.437133
O O9 0.559928 0.477741 0.263626
O O10 0.291267 0.702328 0.077382
O O11 0.252563 0.420214 0.372986
O O12 0.577589 0.190796 0.216882
O O13 0.453659 0.091399 0.235902
O O14 0.500000 0.000000 0.500000
O O15 0.699875 0.004511 0.853194
O O16 0.895192 0.323513 0.286580
O O17 0.826313 0.137177 0.140579
#
# Coordination Sequence:
#
# PCOD9008273 Si02
#       8
#     2   2   2   2   2   2   2   2
#     4  11  23  39  62  91 123 163 212 262 310 373
#     4  10  21  41  66  90 125 166 210 257 310 376
#     4  10  22  40  61  89 125 164 205 259 325 380
#     4  11  22  40  66  92 124 166 215 261 313 381
#     4  12  26  43  66  97 132 165 209 267 324 377
#     4  10  21  39  64  92 122 164 213 260 312 374
#     4  10  22  40  62  89 125 164 206 261 323 381
#     4  12  24  40  64  92 125 166 215 262 313 378
#
# _framework density 25.818438
#
# number of rings (size 3 to 8) (size 9 to 14) (size 15 to 20)
#    0.000    1.250    0.000    7.125    0.000    8.500 
#    0.000    1.875    0.000    0.000    0.000    0.000 
#    0.000    0.000    0.000    0.000    0.000    0.000 
#
# Total GULP energy -89651.432986 kJ/mol
# GULP energy per Si atom -5603.214562 kJ/mol
# Density = 2.575967 g / cm^3
# Si number density = 25.818438 Si / 1000 Ang^3
#
#
#
# Elastic Constant Matrix: (Units=GPa)
#
#
# Indices 1 2 3 4 5 6 
#
# 1 43.6991 30.4844 9.1351 8.3372 12.3936 -8.1869
# 2 30.4844 145.2473 40.1592 -0.3656 5.2815 -2.3276
# 3 9.1351 40.1592 140.8431 -20.9367 32.8728 2.7865
# 4 8.3372 -0.3656 -20.9367 37.2128 -1.3473 5.4612
# 5 12.3936 5.2815 32.8728 -1.3473 45.2203 -2.8200
# 6 -8.1869 -2.3276 2.7865 5.4612 -2.8200 44.1959
#
#
#
# Elastic Compliance Matrix: (Units=1/GPa)
#
#
# Indices 1 2 3 4 5 6 
#
# 1 0.032447 -0.006519 0.000308 -0.008361 -0.008221 0.006156
# 2 -0.006519 0.008897 -0.002708 0.000184 0.002695 -0.000419
# 3 0.000308 -0.002708 0.010463 0.005809 -0.007321 -0.001930
# 4 -0.008361 0.000184 0.005809 0.032855 -0.001351 -0.006051
# 5 -0.008221 0.002695 -0.007321 -0.001351 0.029404 0.001124
# 6 0.006156 -0.000419 -0.001930 -0.006051 0.001124 0.024686
#
#
# Mechanical properties :
#
#
# Convention : Reuss Voigt Hill
#
# Bulk Modulus (GPa) = 29.43712 54.37187 41.90450
# Shear Modulus (GPa) = 29.77760 41.99320 35.88540
#
# Velocity S-wave (km/s) = 3.39978 4.03734 3.73220
# Velocity P-wave (km/s) = 5.18051 6.54511 5.90238
#
# Compressibility (1/GPa) = 0.03397071
#
# Stress axis : x y z
#
# Youngs Moduli (GPa) = 30.81976 112.39382 95.57812
#
# Poissons Ratio (x) = 0.73265 -0.02945
# Poissons Ratio (y) = 0.20090 0.25878
# Poissons Ratio (z) = -0.00950 0.30431
#
# Static dielectric constant tensor:
#      x y z
#    x 1.994770 0.001000 -0.031650 
#    y 0.001000 1.947540 0.030190 
#    z -0.031650 0.030190 2.160350 
# 
# From -- ./inp_files/315985.got.cif
#   From: 2010.05.17/outbox.cif.g08.bks.cpg/sg2_158_cif.got.tgz:315985.got - 2010.06.03 11:33:40.
