data_PCOD9008720
_publ_section_title
;
Structure prediction by ZEFSAII (Michael W. Deem and Ramdas Pophale) SiO2 
 PCOD9008720
Probable space group: P -1
;
_chemical_formula_sum "Si O2"
_cell_formula_units_Z 16
_cell_length_a 15.916993
_cell_length_b 16.239669
_cell_length_c 10.786141
_cell_angle_alpha 35.952301
_cell_angle_beta 34.170410
_cell_angle_gamma 34.703779
_cell_volume 815.383082
_symmetry_space_group_name_H-M "P -1"
_symmetry_group_IT_number 2
_symmetry_cell_setting 'triclinic'
loop_
_space_group_symop_operation_xyz
x,y,z
-x,-y,-z
loop_
_atom_site_type_symbol
_atom_site_label
_atom_site_fract_x
_atom_site_fract_y
_atom_site_fract_z
Si Si1 0.158202 0.204530 0.418738
Si Si2 0.157139 0.155177 0.944622
Si Si3 0.491078 0.037406 0.822116
Si Si4 0.585424 0.621385 0.587032
Si Si5 0.917114 0.062697 0.887827
Si Si6 0.469158 0.661755 0.968259
Si Si7 0.038000 0.462611 0.853154
Si Si8 0.334815 0.168977 0.478753
O O1 0.190748 0.170423 0.566097
O O2 0.026844 0.146120 0.602528
O O3 0.092381 0.385777 0.246478
O O4 0.342352 0.099866 0.269646
O O5 0.320614 0.046251 0.960647
O O6 0.039898 0.301149 0.998045
O O7 0.243409 0.221948 0.657048
O O8 0.083633 0.061319 0.064126
O O9 0.496808 0.201799 0.583402
O O10 0.500000 0.000000 0.000000
O O11 0.541256 0.631500 0.775716
O O12 0.778258 0.555422 0.387168
O O13 0.526607 0.489496 0.785030
O O14 0.722364 0.197059 0.976258
O O15 0.000000 0.000000 0.000000
O O16 0.592365 0.722592 0.802855
O O17 0.000000 0.500000 0.000000
O O18 0.500000 0.000000 0.500000
#
# Coordination Sequence:
#
# PCOD9008720 Si02
#       8
#     2   2   2   2   2   2   2   2
#     4  12  23  39  66  98 129 172 223 276 345 387
#     4  11  23  42  66  99 132 176 223 271 341 402
#     4  11  22  43  69  91 125 190 238 262 317 419
#     4  10  21  39  65  95 130 174 220 268 344 396
#     4  12  22  37  66 104 138 163 208 284 343 399
#     4  11  20  38  65  97 138 170 206 282 348 402
#     4  11  24  45  64  93 135 178 225 278 323 399
#     4  12  19  38  66  95 135 166 221 274 335 415
#
# _framework density 19.622676999999999
#
# number of rings (size 3 to 8) (size 9 to 14) (size 15 to 20)
#    0.000    0.750    7.500    2.250    0.000    0.500 
#    6.750    2.500    0.000    2.250    0.000    0.000 
#    0.000    0.000    0.000    0.000    0.000    0.000 
#
# Total GULP energy -89124.001550 kJ/mol
# GULP energy per Si atom -5570.250097 kJ/mol
# Density = 1.957802 g / cm^3
# Si number density = 19.622677 Si / 1000 Ang^3
#
#
#
# Elastic Constant Matrix: (Units=GPa)
#
#
# Indices 1 2 3 4 5 6 
#
# 1 171.3408 96.2143 69.5590 -87.4617 11.8464 -16.8411
# 2 96.2143 182.9847 52.5111 -93.1920 21.4900 -25.2521
# 3 69.5590 52.5111 77.8144 -51.3805 -0.0217 -5.7199
# 4 -87.4617 -93.1920 -51.3805 189.0464 -24.8511 54.5777
# 5 11.8464 21.4900 -0.0217 -24.8511 50.3759 -9.8908
# 6 -16.8411 -25.2521 -5.7199 54.5777 -9.8908 47.6220
#
#
#
# Elastic Compliance Matrix: (Units=1/GPa)
#
#
# Indices 1 2 3 4 5 6 
#
# 1 0.011268 -0.002984 -0.006732 0.002115 -0.000520 -0.000938
# 2 -0.002984 0.008974 -0.001994 0.002031 -0.001983 0.000723
# 3 -0.006732 -0.001994 0.022300 0.003626 0.003406 -0.004208
# 4 0.002115 0.002031 0.003626 0.011606 0.002289 -0.010565
# 5 -0.000520 -0.001983 0.003406 0.002289 0.022177 0.001157
# 6 -0.000938 0.000723 -0.004208 -0.010565 0.001157 0.032894
#
#
# Mechanical properties :
#
#
# Convention : Reuss Voigt Hill
#
# Bulk Modulus (GPa) = 52.29494 96.52320 74.40907
# Shear Modulus (GPa) = 35.96799 71.66590 53.81695
#
# Velocity S-wave (km/s) = 4.28598 6.04990 5.24266
# Velocity P-wave (km/s) = 7.15548 9.90445 8.63999
#
# Compressibility (1/GPa) = 0.01912231
#
# Stress axis : x y z
#
# Youngs Moduli (GPa) = 88.74432 111.43726 44.84315
#
# Poissons Ratio (x) = 0.33258 0.30186
# Poissons Ratio (y) = 0.26485 0.08941
# Poissons Ratio (z) = 0.59739 0.22219
#
# Static dielectric constant tensor:
#      x y z
#    x 1.748760 0.052600 0.000170 
#    y 0.052600 1.711750 0.010690 
#    z 0.000170 0.010690 1.621660 
# 
# From -- ./inp_files/466530.got.cif
#   From: 2010.05.17/outbox.cif.g08.bks.cpg/sg2_234_cif.got.tgz:466530.got - 2010.06.03 11:33:40.
