data_PCOD9008117
_publ_section_title
;
Structure prediction by ZEFSAII (Michael W. Deem and Ramdas Pophale) SiO2 
 PCOD9008117
Probable space group: P -1
;
_chemical_formula_sum "Si O2"
_cell_formula_units_Z 16
_cell_length_a 11.813369
_cell_length_b 9.212001
_cell_length_c 11.519403
_cell_angle_alpha 122.160504
_cell_angle_beta 53.779558
_cell_angle_gamma 86.406305
_cell_volume 713.725341
_symmetry_space_group_name_H-M "P -1"
_symmetry_group_IT_number 2
_symmetry_cell_setting 'triclinic'
loop_
_space_group_symop_operation_xyz
x,y,z
-x,-y,-z
loop_
_atom_site_type_symbol
_atom_site_label
_atom_site_fract_x
_atom_site_fract_y
_atom_site_fract_z
Si Si1 0.082276 0.055557 0.873188
Si Si2 0.400292 0.745268 0.663062
Si Si3 0.663813 0.266341 0.809494
Si Si4 0.856472 0.444804 0.715108
Si Si5 0.793464 0.737916 0.700152
Si Si6 0.649107 0.881823 0.610351
Si Si7 0.002414 0.497808 0.135419
Si Si8 0.808219 0.106625 0.912017
O O1 0.272362 0.859181 0.681352
O O2 0.050692 0.267882 0.029375
O O3 0.980249 0.091579 0.831670
O O4 0.000000 0.000000 0.000000
O O5 0.500000 0.500000 0.500000
O O6 0.507459 0.847731 0.639006
O O7 0.307484 0.789539 0.861932
O O8 0.813656 0.274364 0.660657
O O9 0.636511 0.096583 0.698122
O O10 0.500000 0.500000 0.000000
O O11 0.724573 0.203368 0.879751
O O12 0.738725 0.631967 0.780172
O O13 0.034540 0.395760 0.537156
O O14 0.860574 0.489981 0.867208
O O15 0.656052 0.849146 0.731288
O O16 0.835130 0.884960 0.801932
O O17 0.821572 0.693834 0.368368
O O18 0.000000 0.500000 0.000000
#
# Coordination Sequence:
#
# PCOD9008117 Si02
#       8
#     2   2   2   2   2   2   2   2
#     4  10  21  40  68  92 125 180 225 273 330 401
#     4  11  24  42  70 101 142 175 230 291 335 414
#     4  11  26  41  67 100 142 181 220 291 357 408
#     4  10  21  39  64 101 129 169 234 276 340 405
#     4   9  21  39  71  95 125 176 228 290 328 399
#     4  10  24  44  65 102 135 176 232 282 352 403
#     4  11  23  42  68  93 134 184 224 279 332 420
#     4  10  22  42  65  96 131 182 231 273 346 407
#
# _framework density 22.417589
#
# number of rings (size 3 to 8) (size 9 to 14) (size 15 to 20)
#    0.000    1.750    0.000    3.750    5.250    8.500 
#    2.250    0.625    0.000    0.000    0.000    0.000 
#    0.000    0.000    0.000    0.000    0.000    0.000 
#
# Total GULP energy -89194.953789 kJ/mol
# GULP energy per Si atom -5574.684612 kJ/mol
# Density = 2.236657 g / cm^3
# Si number density = 22.417589 Si / 1000 Ang^3
#
#
#
# Elastic Constant Matrix: (Units=GPa)
#
#
# Indices 1 2 3 4 5 6 
#
# 1 123.4536 49.8980 35.5297 15.2109 7.7767 5.3278
# 2 49.8980 134.9954 37.2585 21.5795 4.3762 7.8425
# 3 35.5297 37.2585 94.3298 24.0942 16.0572 -8.3529
# 4 15.2109 21.5795 24.0942 40.9448 0.2350 6.1028
# 5 7.7767 4.3762 16.0572 0.2350 24.6548 4.8895
# 6 5.3278 7.8425 -8.3529 6.1028 4.8895 29.4090
#
#
#
# Elastic Compliance Matrix: (Units=1/GPa)
#
#
# Indices 1 2 3 4 5 6 
#
# 1 0.010175 -0.002846 -0.002606 -0.000504 -0.000684 -0.001606
# 2 -0.002846 0.009637 -0.002699 -0.002048 0.001489 -0.002643
# 3 -0.002606 -0.002699 0.018225 -0.009826 -0.012557 0.010495
# 4 -0.000504 -0.002048 -0.009826 0.032978 0.008678 -0.010440
# 5 -0.000684 0.001489 -0.012557 0.008678 0.051421 -0.014189
# 6 -0.001606 -0.002643 0.010495 -0.010440 -0.014189 0.042505
#
#
# Mechanical properties :
#
#
# Convention : Reuss Voigt Hill
#
# Bulk Modulus (GPa) = 46.00515 66.46125 56.23320
# Shear Modulus (GPa) = 26.52694 34.34122 30.43408
#
# Velocity S-wave (km/s) = 3.44366 3.91818 3.68856
# Velocity P-wave (km/s) = 6.03143 7.08384 6.57871
#
# Compressibility (1/GPa) = 0.02173670
#
# Stress axis : x y z
#
# Youngs Moduli (GPa) = 98.28275 103.76491 54.86914
#
# Poissons Ratio (x) = 0.29529 0.14296
# Poissons Ratio (y) = 0.27969 0.14809
# Poissons Ratio (z) = 0.25608 0.28005
#
# Static dielectric constant tensor:
#      x y z
#    x 3.440320 1.819890 -7.436900 
#    y 1.819890 4.208690 -9.419140 
#    z -7.436900 -9.419140 39.207370 
# 
# From -- ./inp_files/419936.got.cif
#   From: 2010.05.17/outbox.cif.g08.bks.cpg/sg2_210_cif.got.tgz:419936.got - 2010.06.03 11:33:40.
