data_PCOD9008031
_publ_section_title
;
Structure prediction by ZEFSAII (Michael W. Deem and Ramdas Pophale) SiO2 
 PCOD9008031
Probable space group: P -1
;
_chemical_formula_sum "Si O2"
_cell_formula_units_Z 16
_cell_length_a 27.263805
_cell_length_b 5.454125
_cell_length_c 21.177186
_cell_angle_alpha 91.765256
_cell_angle_beta 11.642187
_cell_angle_gamma 91.163393
_cell_volume 634.413847
_symmetry_space_group_name_H-M "P -1"
_symmetry_group_IT_number 2
_symmetry_cell_setting 'triclinic'
loop_
_space_group_symop_operation_xyz
x,y,z
-x,-y,-z
loop_
_atom_site_type_symbol
_atom_site_label
_atom_site_fract_x
_atom_site_fract_y
_atom_site_fract_z
Si Si1 0.500549 0.386524 0.426416
Si Si2 0.220913 0.356535 0.375347
Si Si3 0.781188 0.120611 0.234804
Si Si4 0.916597 0.235903 0.346018
Si Si5 0.533377 0.877978 0.773205
Si Si6 0.274683 0.729032 0.213876
Si Si7 0.988968 0.395570 0.855125
Si Si8 0.154613 0.019823 0.160049
O O1 0.500000 0.500000 0.500000
O O2 0.376695 0.122569 0.578848
O O3 0.374957 0.619658 0.547370
O O4 0.789446 0.327829 0.053253
O O5 0.206576 0.554304 0.451614
O O6 0.259745 0.453222 0.256313
O O7 0.466464 0.202152 0.082096
O O8 0.963436 0.240251 0.699547
O O9 0.915673 0.239151 0.006100
O O10 0.000000 0.000000 0.000000
O O11 0.020129 0.314672 0.147973
O O12 0.125858 0.139155 0.128962
O O13 0.707680 0.053417 0.592498
O O14 0.724143 0.659562 0.513857
O O15 0.313453 0.786067 0.092663
O O16 0.417302 0.004146 0.858982
O O17 0.038821 0.851017 0.545899
#
# Coordination Sequence:
#
# PCOD9008031 Si02
#       8
#     2   2   2   2   2   2   2   2
#     4  10  23  46  79 105 141 190 232 276 358 433
#     4  10  21  41  68  88 129 181 239 285 356 415
#     4  11  25  48  78 115 142 181 239 294 347 432
#     4  11  24  44  64  95 138 179 229 287 360 411
#     4  12  26  42  65 100 138 179 234 291 357 415
#     4  10  21  39  63  94 128 181 233 296 344 418
#     4  11  25  43  70  98 142 184 224 285 357 426
#     4  11  24  42  65  94 132 184 239 292 346 419
#
# _framework density 25.220130999999999
#
# number of rings (size 3 to 8) (size 9 to 14) (size 15 to 20)
#    0.000    1.250    2.500    2.625    8.750    3.500 
#    4.500    0.000    0.000    0.000    0.000    0.000 
#    0.000    0.000    0.000    0.000    0.000    0.000 
#
# Total GULP energy -89091.441202 kJ/mol
# GULP energy per Si atom -5568.215075 kJ/mol
# Density = 2.516273 g / cm^3
# Si number density = 25.220131 Si / 1000 Ang^3
#
#
#
# Elastic Constant Matrix: (Units=GPa)
#
#
# Indices 1 2 3 4 5 6 
#
# 1 126.5050 47.3094 26.4065 -1.9391 -30.5270 -26.9943
# 2 47.3094 72.4106 19.9897 -2.1047 3.6709 -60.3120
# 3 26.4065 19.9897 90.4411 14.6666 -4.4008 -36.8093
# 4 -1.9391 -2.1047 14.6666 55.4620 -12.8742 -0.5452
# 5 -30.5270 3.6709 -4.4008 -12.8742 38.4006 9.3741
# 6 -26.9943 -60.3120 -36.8093 -0.5452 9.3741 42.1038
#
#
#
# Elastic Compliance Matrix: (Units=1/GPa)
#
#
# Indices 1 2 3 4 5 6 
#
# 1 0.009582 0.005562 0.002147 0.001054 0.003996 0.015112
# 2 0.005562 -0.018553 -0.013295 0.006373 0.016119 -0.038140
# 3 0.002147 -0.013295 0.009592 -0.001648 0.006129 -0.010669
# 4 0.001054 0.006373 -0.001648 0.019954 0.004891 0.007533
# 5 0.003996 0.016119 0.006129 0.004891 0.023723 0.025791
# 6 0.015112 -0.038140 -0.010669 0.007533 0.025791 -0.036166
#
#
# Mechanical properties :
#
#
# Convention : Reuss Voigt Hill
#
# Bulk Modulus (GPa) = -94.77454 52.97421 -20.90016
# Shear Modulus (GPa) = 316.71965 40.23670 178.47818
#
# Velocity S-wave (km/s) = 11.21850 3.99860 8.42151
# Velocity P-wave (km/s) = 11.40815 6.50913 9.28748
#
# Compressibility (1/GPa) = -0.01055136
#
# Stress axis : x y z
#
# Youngs Moduli (GPa) = 104.36757 -53.89952 104.25267
#
# Poissons Ratio (x) = 0.29981 -0.22383
# Poissons Ratio (y) = -0.58054 1.38608
# Poissons Ratio (z) = -0.22408 -0.71662
#
# Static dielectric constant tensor:
#      x y z
#    x 2.082950 -0.011350 0.126420 
#    y -0.011350 2.149200 0.024390 
#    z 0.126420 0.024390 2.086500 
# 
# From -- ./inp_files/614451.got.cif
#   From: 2010.05.17/outbox.cif.g08.bks.cpg/sg2_308_cif.got.tgz:614451.got - 2010.06.03 11:33:40.
