data_PCOD9008798
_publ_section_title
;
Structure prediction by ZEFSAII (Michael W. Deem and Ramdas Pophale) SiO2 
 PCOD9008798
Probable space group: P -1
;
_chemical_formula_sum "Si O2"
_cell_formula_units_Z 16
_cell_length_a 4.948082
_cell_length_b 20.373142
_cell_length_c 9.343094
_cell_angle_alpha 62.054098
_cell_angle_beta 122.816030
_cell_angle_gamma 105.756030
_cell_volume 699.053674
_symmetry_space_group_name_H-M "P -1"
_symmetry_group_IT_number 2
_symmetry_cell_setting 'triclinic'
loop_
_space_group_symop_operation_xyz
x,y,z
-x,-y,-z
loop_
_atom_site_type_symbol
_atom_site_label
_atom_site_fract_x
_atom_site_fract_y
_atom_site_fract_z
Si Si1 0.579260 0.625656 0.643611
Si Si2 0.442025 0.583909 0.345056
Si Si3 0.391953 0.035123 0.169635
Si Si4 0.306597 0.853712 0.637765
Si Si5 0.143729 0.242333 0.213844
Si Si6 0.227971 0.360938 0.899178
Si Si7 0.830166 0.933478 0.221681
Si Si8 0.760740 0.435930 0.147978
O O1 0.491359 0.636255 0.443831
O O2 0.704166 0.697509 0.692375
O O3 0.269252 0.591119 0.669729
O O4 0.871998 0.566676 0.792336
O O5 0.500000 0.500000 0.500000
O O6 0.674729 0.615042 0.256650
O O7 0.065864 0.587049 0.190712
O O8 0.602960 0.076170 0.308099
O O9 0.564420 0.964778 0.220330
O O10 0.312815 0.086002 0.956217
O O11 0.069655 0.003563 0.183672
O O12 0.615934 0.824565 0.674410
O O13 0.175600 0.790273 0.772293
O O14 0.035010 0.873293 0.424572
O O15 0.104663 0.282233 0.007892
O O16 0.567376 0.374430 0.062336
O O17 0.500000 0.500000 0.000000
#
# Coordination Sequence:
#
# PCOD9008798 Si02
#       8
#     2   2   2   2   2   2   2   2
#     4  11  23  40  59  86 125 158 201 264 319 372
#     4  12  23  40  65  95 119 154 212 272 339 391
#     4  10  21  39  65  99 132 165 208 278 321 366
#     4  12  22  41  66  93 127 180 224 251 311 393
#     4  11  25  43  60  85 129 173 219 248 304 403
#     4  11  23  41  60  86 125 161 200 265 321 376
#     4  10  21  39  65  98 134 161 213 273 327 357
#     4  11  20  37  63  86 112 154 202 253 318 384
#
# _framework density 22.888085
#
# number of rings (size 3 to 8) (size 9 to 14) (size 15 to 20)
#    0.000    1.000    0.000    9.000    0.000    0.000 
#    6.750    0.000    0.000    0.000    0.000    0.000 
#    0.000    0.000    0.000    0.000    0.000    0.000 
#
# Total GULP energy -89377.544348 kJ/mol
# GULP energy per Si atom -5586.096522 kJ/mol
# Density = 2.283599 g / cm^3
# Si number density = 22.888085 Si / 1000 Ang^3
#
#
#
# Elastic Constant Matrix: (Units=GPa)
#
#
# Indices 1 2 3 4 5 6 
#
# 1 94.8400 2.9518 16.4262 3.3802 -8.6158 -7.5262
# 2 2.9518 27.2150 0.6218 5.0867 -9.2294 -9.3246
# 3 16.4262 0.6218 94.2480 -2.6012 -1.7470 -5.7462
# 4 3.3802 5.0867 -2.6012 22.7522 -2.6727 1.3053
# 5 -8.6158 -9.2294 -1.7470 -2.6727 44.5192 -6.8842
# 6 -7.5262 -9.3246 -5.7462 1.3053 -6.8842 26.5044
#
#
#
# Elastic Compliance Matrix: (Units=1/GPa)
#
#
# Indices 1 2 3 4 5 6 
#
# 1 0.011500 0.001755 -0.001751 -0.002193 0.003071 0.004409
# 2 0.001755 0.051142 0.000690 -0.011300 0.013814 0.022785
# 3 -0.001751 0.000690 0.011098 0.001323 0.000669 0.002260
# 4 -0.002193 -0.011300 0.001323 0.047239 -0.000943 -0.006883
# 5 0.003071 0.013814 0.000669 -0.000943 0.027927 0.013177
# 6 0.004409 0.022785 0.002260 -0.006883 0.013177 0.051249
#
#
# Mechanical properties :
#
#
# Convention : Reuss Voigt Hill
#
# Bulk Modulus (GPa) = 13.31078 28.47806 20.89442
# Shear Modulus (GPa) = 22.34050 31.84206 27.09128
#
# Velocity S-wave (km/s) = 3.12761 3.73394 3.44414
# Velocity P-wave (km/s) = 4.34405 5.57306 4.99649
#
# Compressibility (1/GPa) = 0.07512708
#
# Stress axis : x y z
#
# Youngs Moduli (GPa) = 86.95909 19.55353 90.10973
#
# Poissons Ratio (x) = -0.03431 0.15775
# Poissons Ratio (y) = -0.15257 -0.06219
# Poissons Ratio (z) = 0.15223 -0.01350
#
# Static dielectric constant tensor:
#      x y z
#    x 1.813040 0.001640 -0.003160 
#    y 0.001640 1.887540 0.003120 
#    z -0.003160 0.003120 1.911970 
# 
# From -- ./inp_files/141288.got.cif
#   From: 2010.05.17/outbox.cif.g08.bks.cpg/sg2_71_cif.got.tgz:141288.got - 2010.06.03 11:33:40.
