data_PCOD9008687
_publ_section_title
;
Structure prediction by ZEFSAII (Michael W. Deem and Ramdas Pophale) SiO2 
 PCOD9008687
Probable space group: P -1
;
_chemical_formula_sum "Si O2"
_cell_formula_units_Z 12
_cell_length_a 7.207669
_cell_length_b 12.235231
_cell_length_c 16.722750
_cell_angle_alpha 157.454530
_cell_angle_beta 101.715866
_cell_angle_gamma 90.274090
_cell_volume 475.493197
_symmetry_space_group_name_H-M "P -1"
_symmetry_group_IT_number 2
_symmetry_cell_setting 'triclinic'
loop_
_space_group_symop_operation_xyz
x,y,z
-x,-y,-z
loop_
_atom_site_type_symbol
_atom_site_label
_atom_site_fract_x
_atom_site_fract_y
_atom_site_fract_z
Si Si1 0.265420 0.739759 0.440473
Si Si2 0.280829 0.139269 0.220080
Si Si3 0.523382 0.466681 0.789273
Si Si4 0.324976 0.687471 0.051978
Si Si5 0.192034 0.044241 0.974768
Si Si6 0.965750 0.013003 0.601011
O O1 0.310104 0.671799 0.305796
O O2 0.212767 0.394459 0.238513
O O3 0.494001 0.031734 0.688198
O O4 0.085808 0.820675 0.510093
O O5 0.500000 0.500000 0.500000
O O6 0.270539 0.980688 0.023467
O O7 0.258342 0.870062 0.102383
O O8 0.057238 0.161882 0.219466
O O9 0.640157 0.823252 0.995271
O O10 0.290737 0.205369 0.551088
O O11 0.450639 0.522024 0.906237
O O12 0.121056 0.403103 0.891337
O O13 0.000000 0.000000 0.500000
#
# Coordination Sequence:
#
# PCOD9008687 Si02
#       6
#     2   2   2   2   2   2
#     4  10  21  43  60  94 132 161 208 268 315 370
#     4  11  20  41  67  90 131 168 214 264 318 370
#     4   9  22  42  62  98 120 170 211 254 327 377
#     4  11  22  39  63  97 127 169 212 260 316 382
#     4   9  21  40  65  92 124 171 205 266 316 366
#     4  10  21  39  65  94 129 165 207 263 318 380
#
# _framework density 25.236954000000001
#
# number of rings (size 3 to 8) (size 9 to 14) (size 15 to 20)
#    1.000    1.000    1.667    2.500    0.000    4.000 
#    6.000    0.833    0.000    0.000    0.000    0.000 
#    0.000    0.000    0.000    0.000    0.000    0.000 
#
# Total GULP energy -66847.228179 kJ/mol
# GULP energy per Si atom -5570.602348 kJ/mol
# Density = 2.517951 g / cm^3
# Si number density = 25.236954 Si / 1000 Ang^3
#
#
#
# Elastic Constant Matrix: (Units=GPa)
#
#
# Indices 1 2 3 4 5 6 
#
# 1 120.1784 41.9992 44.8555 0.0974 39.1606 10.6283
# 2 41.9992 -20.7642 -15.0516 4.1846 -73.4255 -18.0573
# 3 44.8555 -15.0516 129.4989 -1.4051 17.5288 -11.4508
# 4 0.0974 4.1846 -1.4051 31.1278 -1.8468 -0.2084
# 5 39.1606 -73.4255 17.5288 -1.8468 -14.6614 -2.0577
# 6 10.6283 -18.0573 -11.4508 -0.2084 -2.0577 29.7122
#
#
#
# Elastic Compliance Matrix: (Units=1/GPa)
#
#
# Indices 1 2 3 4 5 6 
#
# 1 0.007331 0.002301 -0.003093 -0.000208 0.004680 -0.002093
# 2 0.002301 0.004531 0.001811 -0.001380 -0.014432 0.001619
# 3 -0.003093 0.001811 0.010301 -0.000075 -0.005817 0.005774
# 4 -0.000208 -0.001380 -0.000075 0.032438 0.002236 -0.000411
# 5 0.004680 -0.014432 -0.005817 0.002236 0.011007 -0.011909
# 6 -0.002093 0.001619 0.005774 -0.000411 -0.011909 0.036786
#
#
# Mechanical properties :
#
#
# Convention : Reuss Voigt Hill
#
# Bulk Modulus (GPa) = 41.31735 41.39103 41.35419
# Shear Modulus (GPa) = 46.11570 19.70973 32.91271
#
# Velocity S-wave (km/s) = 4.27934 2.79765 3.61522
# Velocity P-wave (km/s) = 6.38939 5.18385 5.81793
#
# Compressibility (1/GPa) = 0.02420291
#
# Stress axis : x y z
#
# Youngs Moduli (GPa) = 136.39830 220.70625 97.07832
#
# Poissons Ratio (x) = -0.50791 0.30024
# Poissons Ratio (y) = -0.31389 -0.17584
# Poissons Ratio (z) = 0.42185 -0.39976
#
# Static dielectric constant tensor:
#      x y z
#    x 0.977180 1.399730 0.354420 
#    y 1.399730 0.394540 -0.411770 
#    z 0.354420 -0.411770 1.940550 
# 
# From -- ./inp_files/583716.got.cif
#   From: 2010.05.17/outbox.cif.g08.bks.cpg/sg2_292_cif.got.tgz:583716.got - 2010.06.03 11:33:40.
