data_PCOD9008737
_publ_section_title
;
Structure prediction by ZEFSAII (Michael W. Deem and Ramdas Pophale) SiO2 
 PCOD9008737
Probable space group: P -1
;
_chemical_formula_sum "Si O2"
_cell_formula_units_Z 14
_cell_length_a 18.541322
_cell_length_b 21.632473
_cell_length_c 11.466654
_cell_angle_alpha 28.371976
_cell_angle_beta 29.202919
_cell_angle_gamma 18.491320
_cell_volume 670.232523
_symmetry_space_group_name_H-M "P -1"
_symmetry_group_IT_number 2
_symmetry_cell_setting 'triclinic'
loop_
_space_group_symop_operation_xyz
x,y,z
-x,-y,-z
loop_
_atom_site_type_symbol
_atom_site_label
_atom_site_fract_x
_atom_site_fract_y
_atom_site_fract_z
Si Si1 0.028105 0.116140 0.700143
Si Si2 0.547441 0.552095 0.729849
Si Si3 0.775724 0.903123 0.004283
Si Si4 0.268028 0.526704 0.046317
Si Si5 0.450153 0.213624 0.511131
Si Si6 0.103537 0.776226 0.554647
Si Si7 0.529962 0.676338 0.153587
O O1 0.817771 0.350381 0.649737
O O2 0.986804 0.120106 0.615317
O O3 0.286283 0.993942 0.560764
O O4 0.000000 0.000000 0.000000
O O5 0.512983 0.724135 0.528871
O O6 0.500000 0.500000 0.000000
O O7 0.387828 0.585274 0.806215
O O8 0.691052 0.821170 0.215272
O O9 0.991902 0.734496 0.069049
O O10 0.895373 0.900068 0.734781
O O11 0.559500 0.126393 0.998012
O O12 0.322828 0.392426 0.298375
O O13 0.386472 0.386977 0.994102
O O14 0.298660 0.743884 0.377598
O O15 0.251993 0.539775 0.728746
#
# Coordination Sequence:
#
# PCOD9008737 Si02
#       7
#     2   2   2   2   2   2   2
#     4  12  22  41  69  96 123 164 217 265 323 377
#     4  10  21  39  65  96 127 159 213 271 313 377
#     4  11  25  41  64  94 134 175 208 260 328 385
#     4  10  21  40  68  96 124 167 223 270 310 371
#     4  11  25  40  62 101 134 167 211 265 330 378
#     4  10  23  40  64  94 126 167 218 265 313 383
#     4  10  21  42  65  91 126 169 223 262 315 375
#
# _framework density 20.888273999999999
#
# number of rings (size 3 to 8) (size 9 to 14) (size 15 to 20)
#    0.000    1.429    4.286    0.857    2.000    6.857 
#    0.000    1.429    0.000    0.000    0.000    0.000 
#    0.000    0.000    0.000    0.000    0.000    0.000 
#
# Total GULP energy -78235.350081 kJ/mol
# GULP energy per Si atom -5588.239292 kJ/mol
# Density = 2.084073 g / cm^3
# Si number density = 20.888274 Si / 1000 Ang^3
#
#
#
# Elastic Constant Matrix: (Units=GPa)
#
#
# Indices 1 2 3 4 5 6 
#
# 1 68.8799 24.1508 15.1852 -16.0364 8.3328 2.4366
# 2 24.1508 76.9876 -6.6063 -7.6793 -14.9348 7.4593
# 3 15.1852 -6.6063 30.5226 -7.0273 -6.1244 7.9010
# 4 -16.0364 -7.6793 -7.0273 21.4664 6.0922 -5.1745
# 5 8.3328 -14.9348 -6.1244 6.0922 37.6276 -6.4335
# 6 2.4366 7.4593 7.9010 -5.1745 -6.4335 33.8082
#
#
#
# Elastic Compliance Matrix: (Units=1/GPa)
#
#
# Indices 1 2 3 4 5 6 
#
# 1 0.028147 -0.012102 -0.017046 0.016601 -0.015788 0.004162
# 2 -0.012102 0.020708 0.013859 -0.001841 0.012630 -0.004814
# 3 -0.017046 0.013859 0.050456 0.001861 0.015408 -0.010404
# 4 0.016601 -0.001841 0.001861 0.064215 -0.013468 0.006040
# 5 -0.015788 0.012630 0.015408 -0.013468 0.039820 0.000266
# 6 0.004162 -0.004814 -0.010404 0.006040 0.000266 0.033748
#
#
# Mechanical properties :
#
#
# Convention : Reuss Voigt Hill
#
# Bulk Modulus (GPa) = 14.54890 26.87215 20.71052
# Shear Modulus (GPa) = 17.20690 28.15779 22.68235
#
# Velocity S-wave (km/s) = 2.87323 3.67552 3.29886
# Velocity P-wave (km/s) = 4.24117 5.55925 4.94433
#
# Compressibility (1/GPa) = 0.06873373
#
# Stress axis : x y z
#
# Youngs Moduli (GPa) = 35.52779 48.29116 19.81929
#
# Poissons Ratio (x) = 0.58443 0.33783
# Poissons Ratio (y) = 0.42997 -0.27468
# Poissons Ratio (z) = 0.60559 -0.66929
#
# Static dielectric constant tensor:
#      x y z
#    x 1.770460 0.013680 0.011090 
#    y 0.013680 1.776530 -0.026820 
#    z 0.011090 -0.026820 1.737830 
# 
# From -- ./inp_files/260423.got.cif
#   From: 2010.05.17/outbox.cif.g08.bks.cpg/sg2_131_cif.got.tgz:260423.got - 2010.06.03 11:33:40.
