data_PCOD9008351
_publ_section_title
;
Structure prediction by ZEFSAII (Michael W. Deem and Ramdas Pophale) SiO2 
 PCOD9008351
Probable space group: P -1
;
_chemical_formula_sum "Si O2"
_cell_formula_units_Z 16
_cell_length_a 6.426961
_cell_length_b 14.118560
_cell_length_c 15.344894
_cell_angle_alpha 151.095424
_cell_angle_beta 87.395555
_cell_angle_gamma 105.077692
_cell_volume 598.229878
_symmetry_space_group_name_H-M "P -1"
_symmetry_group_IT_number 2
_symmetry_cell_setting 'triclinic'
loop_
_space_group_symop_operation_xyz
x,y,z
-x,-y,-z
loop_
_atom_site_type_symbol
_atom_site_label
_atom_site_fract_x
_atom_site_fract_y
_atom_site_fract_z
Si Si1 0.458519 0.793048 0.930818
Si Si2 0.956787 0.749644 0.301558
Si Si3 0.947358 0.135101 0.185478
Si Si4 0.629349 0.082479 0.694073
Si Si5 0.364093 0.514608 0.405047
Si Si6 0.454682 0.365203 0.010008
Si Si7 0.776417 0.987065 0.800894
Si Si8 0.240390 0.616856 0.298954
O O1 0.237283 0.836014 0.989112
O O2 0.497047 0.630279 0.732968
O O3 0.497693 0.705133 0.952283
O O4 0.670952 0.037468 0.107792
O O5 0.692825 0.577353 0.147394
O O6 0.156681 0.756128 0.238318
O O7 0.026817 0.670135 0.326180
O O8 0.000000 0.000000 0.500000
O O9 0.138474 0.382296 0.362860
O O10 0.005833 0.053702 0.210380
O O11 0.000000 0.000000 0.000000
O O12 0.744922 0.052995 0.757431
O O13 0.479131 0.843878 0.462862
O O14 0.444154 0.173603 0.793573
O O15 0.554029 0.748266 0.623535
O O16 0.265648 0.553983 0.346664
O O17 0.252108 0.434960 0.087947
#
# Coordination Sequence:
#
# PCOD9008351 Si02
#       8
#     2   2   2   2   2   2   2   2
#     4   9  21  40  61  90 123 164 203 250 310 362
#     4  12  24  42  66  93 124 166 211 256 317 374
#     4  10  21  39  64  94 125 163 207 251 305 370
#     4  10  22  42  63  93 125 167 208 254 314 367
#     4   9  20  39  63  92 122 165 206 251 309 360
#     4  10  22  41  62  92 123 164 211 252 315 366
#     4  10  21  41  62  89 131 159 205 260 299 363
#     4  10  22  44  62  88 133 160 205 267 304 369
#
# _framework density 26.745571000000002
#
# number of rings (size 3 to 8) (size 9 to 14) (size 15 to 20)
#    0.000    2.000    1.250    1.125    0.000    9.000 
#    9.000    3.750    0.000    0.000    0.000    0.000 
#    0.000    0.000    0.000    0.000    0.000    0.000 
#
# Total GULP energy -89588.761032 kJ/mol
# GULP energy per Si atom -5599.297565 kJ/mol
# Density = 2.668470 g / cm^3
# Si number density = 26.745571 Si / 1000 Ang^3
#
#
#
# Elastic Constant Matrix: (Units=GPa)
#
#
# Indices 1 2 3 4 5 6 
#
# 1 68.4638 14.9850 26.4059 -5.3285 -5.8593 -17.1649
# 2 14.9850 97.8881 9.5972 12.9971 -1.9782 -17.0808
# 3 26.4059 9.5972 109.9617 9.5748 -7.4805 5.4853
# 4 -5.3285 12.9971 9.5748 33.1860 11.5199 1.5508
# 5 -5.8593 -1.9782 -7.4805 11.5199 48.8311 5.5110
# 6 -17.1649 -17.0808 5.4853 1.5508 5.5110 44.1482
#
#
#
# Elastic Compliance Matrix: (Units=1/GPa)
#
#
# Indices 1 2 3 4 5 6 
#
# 1 0.019257 -0.001855 -0.005328 0.005236 -0.000643 0.007328
# 2 -0.001855 0.011970 -0.000250 -0.005470 0.001063 0.004000
# 3 -0.005328 -0.000250 0.011166 -0.004705 0.002590 -0.003714
# 4 0.005236 -0.005470 -0.004705 0.037664 -0.009237 0.000334
# 5 -0.000643 0.001063 0.002590 -0.009237 0.023331 -0.002749
# 6 0.007328 0.004000 -0.003714 0.000334 -0.002749 0.027840
#
#
# Mechanical properties :
#
#
# Convention : Reuss Voigt Hill
#
# Bulk Modulus (GPa) = 36.32769 42.03221 39.17995
# Shear Modulus (GPa) = 32.20187 40.25476 36.22831
#
# Velocity S-wave (km/s) = 3.47365 3.88377 3.68442
# Velocity P-wave (km/s) = 5.44981 5.98843 5.72546
#
# Compressibility (1/GPa) = 0.02752721
#
# Stress axis : x y z
#
# Youngs Moduli (GPa) = 51.92977 83.54208 89.55454
#
# Poissons Ratio (x) = 0.15499 0.47711
# Poissons Ratio (y) = 0.09634 0.02241
# Poissons Ratio (z) = 0.27666 0.02090
#
# Static dielectric constant tensor:
#      x y z
#    x 2.101980 -0.030310 -0.027280 
#    y -0.030310 2.132300 0.026170 
#    z -0.027280 0.026170 2.039780 
# 
# From -- ./inp_files/550186.got.cif
#   From: 2010.05.17/outbox.cif.g08.bks.cpg/sg2_276_cif.got.tgz:550186.got - 2010.06.03 11:33:40.
