data_PCOD9008870
_publ_section_title
;
Structure prediction by ZEFSAII (Michael W. Deem and Ramdas Pophale) SiO2 
 PCOD9008870
Probable space group: P -1
;
_chemical_formula_sum "Si O2"
_cell_formula_units_Z 16
_cell_length_a 14.198546
_cell_length_b 6.187921
_cell_length_c 8.824848
_cell_angle_alpha 110.866088
_cell_angle_beta 97.746017
_cell_angle_gamma 91.507805
_cell_volume 715.568523
_symmetry_space_group_name_H-M "P -1"
_symmetry_group_IT_number 2
_symmetry_cell_setting 'triclinic'
loop_
_space_group_symop_operation_xyz
x,y,z
-x,-y,-z
loop_
_atom_site_type_symbol
_atom_site_label
_atom_site_fract_x
_atom_site_fract_y
_atom_site_fract_z
Si Si1 0.766932 0.310973 0.619971
Si Si2 0.613855 0.026834 0.046294
Si Si3 0.914611 0.202601 0.864049
Si Si4 0.123399 0.339095 0.888067
Si Si5 0.726189 0.864756 0.316147
Si Si6 0.435761 0.758164 0.414775
Si Si7 0.236428 0.198925 0.168926
Si Si8 0.596012 0.476449 0.318638
O O1 0.864844 0.294139 0.725741
O O2 0.669867 0.224622 0.668800
O O3 0.752374 0.581256 0.662795
O O4 0.762476 0.124458 0.438694
O O5 0.632589 0.300106 0.158746
O O6 0.653925 0.894925 0.167877
O O7 0.500000 0.000000 0.000000
O O8 0.670653 0.928714 0.892434
O O9 0.025467 0.181298 0.854408
O O10 0.848180 0.977976 0.835488
O O11 0.904750 0.397749 0.039962
O O12 0.181666 0.267321 0.739002
O O13 0.195942 0.302037 0.031103
O O14 0.666397 0.708975 0.386620
O O15 0.492826 0.572327 0.290579
O O16 0.418396 0.659177 0.558266
O O17 0.500000 0.000000 0.500000
#
# Coordination Sequence:
#
# PCOD9008870 Si02
#       8
#     2   2   2   2   2   2   2   2
#     4  11  23  38  60  91 125 155 202 257 304 366
#     4  11  23  40  59  89 123 163 207 256 301 362
#     4  10  21  39  66  89 119 161 206 253 312 367
#     4   9  21  42  63  89 121 161 203 256 307 364
#     4  11  23  41  61  89 125 158 206 255 309 366
#     4  11  22  39  59  90 122 161 200 245 302 365
#     4  10  22  39  63  90 124 161 206 253 303 368
#     4  11  22  37  64  85 117 167 200 247 303 363
#
# _framework density 22.359842
#
# number of rings (size 3 to 8) (size 9 to 14) (size 15 to 20)
#    0.000    1.500    2.500    1.875    1.750    3.000 
#    0.000    0.625    0.000    0.000    0.000    0.000 
#    0.000    0.000    0.000    0.000    0.000    0.000 
#
# Total GULP energy -89292.157221 kJ/mol
# GULP energy per Si atom -5580.759826 kJ/mol
# Density = 2.230895 g / cm^3
# Si number density = 22.359842 Si / 1000 Ang^3
#
#
#
# Elastic Constant Matrix: (Units=GPa)
#
#
# Indices 1 2 3 4 5 6 
#
# 1 121.4817 15.4487 30.4355 19.1647 -14.6249 -0.8435
# 2 15.4487 90.6324 35.5098 26.6756 -11.7506 22.2930
# 3 30.4355 35.5098 56.3460 10.7779 -1.3629 2.3458
# 4 19.1647 26.6756 10.7779 27.2427 -0.7846 10.6607
# 5 -14.6249 -11.7506 -1.3629 -0.7846 31.0156 1.8750
# 6 -0.8435 22.2930 2.3458 10.6607 1.8750 34.5462
#
#
#
# Elastic Compliance Matrix: (Units=1/GPa)
#
#
# Indices 1 2 3 4 5 6 
#
# 1 0.011813 0.004378 -0.007125 -0.009831 0.006630 0.000621
# 2 0.004378 0.024886 -0.013988 -0.017618 0.011047 -0.010165
# 3 -0.007125 -0.013988 0.029086 0.004697 -0.007616 0.005841
# 4 -0.009831 -0.017618 0.004697 0.061794 -0.009071 -0.007767
# 5 0.006630 0.011047 -0.007616 -0.009071 0.039339 -0.005786
# 6 0.000621 -0.010165 0.005841 -0.007767 -0.005786 0.037836
#
#
# Mechanical properties :
#
#
# Convention : Reuss Voigt Hill
#
# Bulk Modulus (GPa) = 30.94526 47.91646 39.43086
# Shear Modulus (GPa) = 20.08076 31.03199 25.55638
#
# Velocity S-wave (km/s) = 3.00004 3.72942 3.38443
# Velocity P-wave (km/s) = 5.08626 6.32621 5.73982
#
# Compressibility (1/GPa) = 0.03231512
#
# Stress axis : x y z
#
# Youngs Moduli (GPa) = 84.64955 40.18382 34.38109
#
# Poissons Ratio (x) = -0.17594 0.24498
# Poissons Ratio (y) = -0.37063 0.48092
# Poissons Ratio (z) = 0.60317 0.56209
#
# Static dielectric constant tensor:
#      x y z
#    x 1.818830 -0.033840 0.009780 
#    y -0.033840 1.854560 0.011180 
#    z 0.009780 0.011180 1.888300 
# 
# From -- ./inp_files/289196.got.cif
#   From: 2010.05.17/outbox.cif.g08.bks.cpg/sg2_145_cif.got.tgz:289196.got - 2010.06.03 11:33:40.
