data_PCOD9008572
_publ_section_title
;
Structure prediction by ZEFSAII (Michael W. Deem and Ramdas Pophale) SiO2 
 PCOD9008572
Probable space group: P -1
;
_chemical_formula_sum "Si O2"
_cell_formula_units_Z 16
_cell_length_a 11.398411
_cell_length_b 15.236151
_cell_length_c 6.359955
_cell_angle_alpha 97.114343
_cell_angle_beta 50.940587
_cell_angle_gamma 76.973898
_cell_volume 782.277532
_symmetry_space_group_name_H-M "P -1"
_symmetry_group_IT_number 2
_symmetry_cell_setting 'triclinic'
loop_
_space_group_symop_operation_xyz
x,y,z
-x,-y,-z
loop_
_atom_site_type_symbol
_atom_site_label
_atom_site_fract_x
_atom_site_fract_y
_atom_site_fract_z
Si Si1 0.119372 0.044296 0.651655
Si Si2 0.482876 0.796972 0.775793
Si Si3 0.824994 0.641438 0.173934
Si Si4 0.337355 0.987790 0.764659
Si Si5 0.002797 0.286328 0.364219
Si Si6 0.842180 0.154600 0.668029
Si Si7 0.074653 0.540507 0.239576
Si Si8 0.295879 0.135552 0.219990
O O1 0.238792 0.100327 0.484455
O O2 0.955326 0.115058 0.737877
O O3 0.169091 0.019998 0.830630
O O4 0.162065 0.940947 0.462989
O O5 0.649413 0.717353 0.472761
O O6 0.397072 0.876334 0.719557
O O7 0.538956 0.851700 0.912967
O O8 0.337901 0.773334 0.032713
O O9 0.939827 0.593944 0.229778
O O10 0.801931 0.555169 0.044157
O O11 0.927961 0.686001 0.920552
O O12 0.500000 0.000000 0.500000
O O13 0.299210 0.054456 0.031172
O O14 0.919738 0.209151 0.439761
O O15 0.884524 0.378924 0.658686
O O16 0.165602 0.234410 0.306061
O O17 0.000000 0.500000 0.500000
#
# Coordination Sequence:
#
# PCOD9008572 Si02
#       8
#     2   2   2   2   2   2   2   2
#     4  10  22  43  55  82 131 186 214 250 298 378
#     4  12  22  39  60  97 126 162 213 274 308 361
#     4  10  21  39  68  95 117 154 213 258 313 377
#     4  12  22  34  60  87 119 170 222 261 302 345
#     4  10  21  39  65  91 120 167 206 251 315 380
#     4  10  23  41  60  88 137 171 207 258 318 360
#     4   9  19  41  69  94 117 154 205 260 312 383
#     4  11  21  38  60  85 126 167 220 260 298 351
#
# _framework density 20.453099999999999
#
# number of rings (size 3 to 8) (size 9 to 14) (size 15 to 20)
#    0.000    1.500    3.750    1.875    0.000    0.500 
#    2.250    0.625    0.000    6.750    0.000    0.000 
#    0.000    0.000    0.000    0.000    0.000    0.000 
#
# Total GULP energy -89158.671922 kJ/mol
# GULP energy per Si atom -5572.416995 kJ/mol
# Density = 2.040655 g / cm^3
# Si number density = 20.453100 Si / 1000 Ang^3
#
#
#
# Elastic Constant Matrix: (Units=GPa)
#
#
# Indices 1 2 3 4 5 6 
#
# 1 80.6451 30.2142 38.2616 4.4457 -3.6570 -6.4672
# 2 30.2142 102.6976 47.3571 -3.6589 -0.9339 -6.5144
# 3 38.2616 47.3571 90.3278 11.0411 -8.8630 -3.1834
# 4 4.4457 -3.6589 11.0411 34.4561 4.5817 3.5708
# 5 -3.6570 -0.9339 -8.8630 4.5817 29.5823 -7.6844
# 6 -6.4672 -6.5144 -3.1834 3.5708 -7.6844 19.8465
#
#
#
# Elastic Compliance Matrix: (Units=1/GPa)
#
#
# Indices 1 2 3 4 5 6 
#
# 1 0.016210 -0.002070 -0.005276 -0.001344 0.001784 0.004689
# 2 -0.002070 0.013797 -0.007057 0.004188 -0.002303 0.001077
# 3 -0.005276 -0.007057 0.018625 -0.007194 0.006541 0.002779
# 4 -0.001344 0.004188 -0.007194 0.034375 -0.010202 -0.010352
# 5 0.001784 -0.002303 0.006541 -0.010202 0.042467 0.019153
# 6 0.004689 0.001077 0.002779 -0.010352 0.019153 0.061992
#
#
# Mechanical properties :
#
#
# Convention : Reuss Voigt Hill
#
# Bulk Modulus (GPa) = 50.44112 56.14849 53.29480
# Shear Modulus (GPa) = 22.43353 27.29949 24.86651
#
# Velocity S-wave (km/s) = 3.31543 3.65737 3.49059
# Velocity P-wave (km/s) = 6.27467 6.73402 6.50840
#
# Compressibility (1/GPa) = 0.01982510
#
# Stress axis : x y z
#
# Youngs Moduli (GPa) = 61.69040 72.47974 53.69248
#
# Poissons Ratio (x) = 0.15004 0.28331
# Poissons Ratio (y) = 0.12771 0.37889
# Poissons Ratio (z) = 0.32551 0.51146
#
# Static dielectric constant tensor:
#      x y z
#    x 1.729120 0.005620 0.034630 
#    y 0.005620 1.763040 -0.009320 
#    z 0.034630 -0.009320 1.929610 
# 
# From -- ./inp_files/77732.got.cif
#   From: 2010.05.17/outbox.cif.g08.bks.cpg/sg2_39_cif.got.tgz:77732.got - 2010.06.03 11:33:40.
