data_PCOD9008089
_publ_section_title
;
Structure prediction by ZEFSAII (Michael W. Deem and Ramdas Pophale) SiO2 
 PCOD9008089
Probable space group: P -1
;
_chemical_formula_sum "Si O2"
_cell_formula_units_Z 14
_cell_length_a 17.923297
_cell_length_b 12.562581
_cell_length_c 5.597433
_cell_angle_alpha 61.563580
_cell_angle_beta 59.834554
_cell_angle_gamma 28.652301
_cell_volume 520.594309
_symmetry_space_group_name_H-M "P -1"
_symmetry_group_IT_number 2
_symmetry_cell_setting 'triclinic'
loop_
_space_group_symop_operation_xyz
x,y,z
-x,-y,-z
loop_
_atom_site_type_symbol
_atom_site_label
_atom_site_fract_x
_atom_site_fract_y
_atom_site_fract_z
Si Si1 0.157557 0.728289 0.886511
Si Si2 0.841496 0.970437 0.170896
Si Si3 0.327994 0.317129 0.809589
Si Si4 0.960892 0.482343 0.831975
Si Si5 0.572611 0.662141 0.753142
Si Si6 0.348647 0.662221 0.317838
Si Si7 0.386393 0.866465 0.238414
O O1 0.202350 0.572859 0.784852
O O2 0.210289 0.783284 0.592326
O O3 0.285550 0.548834 0.077686
O O4 0.984180 0.897279 0.078169
O O5 0.929276 0.765393 0.093484
O O6 0.757803 0.997220 0.498818
O O7 0.729445 0.183243 0.954293
O O8 0.365379 0.283373 0.507885
O O9 0.491499 0.177685 0.804424
O O10 0.229141 0.321817 0.060570
O O11 0.000000 0.500000 0.500000
O O12 0.000000 0.500000 0.000000
O O13 0.563555 0.562206 0.681529
O O14 0.404088 0.887014 0.910118
O O15 0.442056 0.661602 0.299297
#
# Coordination Sequence:
#
# PCOD9008089 Si02
#       7
#     2   2   2   2   2   2   2
#     4   9  21  38  62  91 140 181 232 272 327 407
#     4  11  25  42  65 101 133 177 228 293 347 402
#     4   9  22  43  68  97 133 179 221 279 343 415
#     4  11  28  52  83 101 127 175 237 299 363 419
#     4  10  21  39  63  97 139 191 219 269 330 410
#     4  11  22  36  61  98 138 188 229 269 332 404
#     4  11  23  38  65  96 146 177 226 272 338 412
#
# _framework density 26.892340999999998
#
# number of rings (size 3 to 8) (size 9 to 14) (size 15 to 20)
#    0.000    1.714    0.000    2.571    8.000   12.571 
#    0.000    1.429    0.000    0.000    0.000    0.000 
#    0.000    0.000    0.000    0.000    0.000    0.000 
#
# Total GULP energy -77995.406169 kJ/mol
# GULP energy per Si atom -5571.100441 kJ/mol
# Density = 2.683113 g / cm^3
# Si number density = 26.892341 Si / 1000 Ang^3
#
#
#
# Elastic Constant Matrix: (Units=GPa)
#
#
# Indices 1 2 3 4 5 6 
#
# 1 140.5395 37.0360 88.6575 30.3969 -25.1221 -23.2242
# 2 37.0360 77.5564 54.5688 27.5218 -12.9430 -7.9159
# 3 88.6575 54.5688 238.4920 58.6470 -30.9769 -26.2204
# 4 30.3969 27.5218 58.6470 51.4021 -9.7995 -8.6194
# 5 -25.1221 -12.9430 -30.9769 -9.7995 45.2270 20.0042
# 6 -23.2242 -7.9159 -26.2204 -8.6194 20.0042 43.1198
#
#
#
# Elastic Compliance Matrix: (Units=1/GPa)
#
#
# Indices 1 2 3 4 5 6 
#
# 1 0.010293 -0.002106 -0.002485 -0.001325 0.002051 0.002430
# 2 -0.002106 0.017365 -0.001562 -0.006081 0.001839 -0.000965
# 3 -0.002485 -0.001562 0.007078 -0.005336 0.001448 0.000940
# 4 -0.001325 -0.006081 -0.005336 0.029716 -0.000094 0.000909
# 5 0.002051 0.001839 0.001448 -0.000094 0.029855 -0.011546
# 6 0.002430 -0.000965 0.000940 0.000909 -0.011546 0.030433
#
#
# Mechanical properties :
#
#
# Convention : Reuss Voigt Hill
#
# Bulk Modulus (GPa) = 44.58508 90.79027 67.68768
# Shear Modulus (GPa) = 34.59672 46.37147 40.48410
#
# Velocity S-wave (km/s) = 3.59066 4.15702 3.88418
# Velocity P-wave (km/s) = 5.81425 7.54155 6.73352
#
# Compressibility (1/GPa) = 0.02242903
#
# Stress axis : x y z
#
# Youngs Moduli (GPa) = 97.15501 57.58682 141.28712
#
# Poissons Ratio (x) = 0.12129 0.35109
# Poissons Ratio (y) = 0.20463 0.22072
# Poissons Ratio (z) = 0.24142 0.08996
#
# Static dielectric constant tensor:
#      x y z
#    x 2.304350 0.052920 0.169540 
#    y 0.052920 2.210330 0.050940 
#    z 0.169540 0.050940 2.527450 
# 
# From -- ./inp_files/119221.got.cif
#   From: 2010.05.17/outbox.cif.g08.bks.cpg/sg2_60_cif.got.tgz:119221.got - 2010.06.03 11:33:40.
