data_PCOD9008727
_publ_section_title
;
Structure prediction by ZEFSAII (Michael W. Deem and Ramdas Pophale) SiO2 
 PCOD9008727
Probable space group: P -1
;
_chemical_formula_sum "Si O2"
_cell_formula_units_Z 10
_cell_length_a 14.209389
_cell_length_b 11.283443
_cell_length_c 14.361524
_cell_angle_alpha 27.750512
_cell_angle_beta 159.446978
_cell_angle_gamma 150.464258
_cell_volume 364.131456
_symmetry_space_group_name_H-M "P -1"
_symmetry_group_IT_number 2
_symmetry_cell_setting 'triclinic'
loop_
_space_group_symop_operation_xyz
x,y,z
-x,-y,-z
loop_
_atom_site_type_symbol
_atom_site_label
_atom_site_fract_x
_atom_site_fract_y
_atom_site_fract_z
Si Si1 0.106926 0.740245 0.361870
Si Si2 0.538613 0.580415 0.176388
Si Si3 0.083523 0.913693 0.737021
Si Si4 0.394706 0.059275 0.188349
Si Si5 0.082912 0.348727 0.060471
O O1 0.246070 0.601965 0.507198
O O2 0.353668 0.930286 0.516797
O O3 0.000000 0.500000 0.500000
O O4 0.847266 0.865989 0.025769
O O5 0.269022 0.423368 0.089459
O O6 0.672572 0.842457 0.176078
O O7 0.503329 0.704368 0.956742
O O8 0.876861 0.850155 0.680174
O O9 0.140485 0.632692 0.965383
O O10 0.000000 0.000000 0.500000
O O11 0.229979 0.797906 0.161406
#
# Coordination Sequence:
#
# PCOD9008727 Si02
#       5
#     2   2   2   2   2
#     4  10  21  41  68  99 139 182 223 278 345 408
#     4  10  21  39  65  95 136 179 227 283 338 407
#     4  10  23  42  65  95 136 182 230 288 347 406
#     4  10  23  42  67 102 140 179 226 281 342 410
#     4  10  23  42  65 101 135 177 235 284 342 413
#
# _framework density 27.462610000000002
#
# number of rings (size 3 to 8) (size 9 to 14) (size 15 to 20)
#    0.000    2.000    0.000    3.000    0.000   10.400 
#    0.000    0.000    0.000    0.000    0.000    0.000 
#    0.000    0.000    0.000    0.000    0.000    0.000 
#
# Total GULP energy -55972.129150 kJ/mol
# GULP energy per Si atom -5597.212915 kJ/mol
# Density = 2.740010 g / cm^3
# Si number density = 27.462610 Si / 1000 Ang^3
#
#
#
# Elastic Constant Matrix: (Units=GPa)
#
#
# Indices 1 2 3 4 5 6 
#
# 1 173.7425 51.0666 39.4636 18.6350 -16.7617 44.7788
# 2 51.0666 220.5543 49.7333 12.8173 2.7233 5.8092
# 3 39.4636 49.7333 76.7646 13.0767 -5.5548 5.7771
# 4 18.6350 12.8173 13.0767 40.0915 0.9334 0.1814
# 5 -16.7617 2.7233 -5.5548 0.9334 49.4214 -5.2495
# 6 44.7788 5.8092 5.7771 0.1814 -5.2495 75.5771
#
#
#
# Elastic Compliance Matrix: (Units=1/GPa)
#
#
# Indices 1 2 3 4 5 6 
#
# 1 0.008327 -0.001089 -0.002621 -0.002697 0.002163 -0.004493
# 2 -0.001089 0.005491 -0.003058 -0.000231 -0.000970 0.000390
# 3 -0.002621 -0.003058 0.016981 -0.003376 0.001314 0.000590
# 4 -0.002697 -0.000231 -0.003376 0.027402 -0.001619 0.001696
# 5 0.002163 -0.000970 0.001314 -0.001619 0.021218 0.000170
# 6 -0.004493 0.000390 0.000590 0.001696 0.000170 0.015826
#
#
# Mechanical properties :
#
#
# Convention : Reuss Voigt Hill
#
# Bulk Modulus (GPa) = 57.92512 83.50982 70.71747
# Shear Modulus (GPa) = 43.65489 55.07120 49.36304
#
# Velocity S-wave (km/s) = 3.99132 4.48293 4.24425
# Velocity P-wave (km/s) = 6.50991 7.56770 7.05865
#
# Compressibility (1/GPa) = 0.01726367
#
# Stress axis : x y z
#
# Youngs Moduli (GPa) = 120.09164 182.12580 58.88812
#
# Poissons Ratio (x) = 0.19825 0.15437
# Poissons Ratio (y) = 0.13072 0.18007
# Poissons Ratio (z) = 0.31481 0.55690
#
# Static dielectric constant tensor:
#      x y z
#    x 2.245350 0.046670 0.070800 
#    y 0.046670 2.296110 0.139130 
#    z 0.070800 0.139130 2.336210 
# 
# From -- ./inp_files/530396.got.cif
#   From: 2010.05.17/outbox.cif.g08.bks.cpg/sg2_266_cif.got.tgz:530396.got - 2010.06.03 11:33:40.
