data_PCOD9008050
_publ_section_title
;
Structure prediction by ZEFSAII (Michael W. Deem and Ramdas Pophale) SiO2 
 PCOD9008050
Probable space group: P -1
;
_chemical_formula_sum "Si O2"
_cell_formula_units_Z 14
_cell_length_a 8.604009
_cell_length_b 7.342881
_cell_length_c 18.477459
_cell_angle_alpha 62.559622
_cell_angle_beta 44.327788
_cell_angle_gamma 73.383092
_cell_volume 722.142448
_symmetry_space_group_name_H-M "P -1"
_symmetry_group_IT_number 2
_symmetry_cell_setting 'triclinic'
loop_
_space_group_symop_operation_xyz
x,y,z
-x,-y,-z
loop_
_atom_site_type_symbol
_atom_site_label
_atom_site_fract_x
_atom_site_fract_y
_atom_site_fract_z
Si Si1 0.308399 0.941123 0.751670
Si Si2 0.560319 0.343768 0.945755
Si Si3 0.179115 0.575266 0.296276
Si Si4 0.441171 0.375551 0.358542
Si Si5 0.199108 0.065291 0.029367
Si Si6 0.676510 0.681203 0.432707
Si Si7 0.525340 0.827308 0.218063
O O1 0.381262 0.740564 0.724405
O O2 0.058012 0.926627 0.867736
O O3 0.332211 0.123890 0.651826
O O4 0.466661 0.997170 0.757372
O O5 0.686301 0.460289 0.815384
O O6 0.342880 0.214881 0.009370
O O7 0.500000 0.500000 0.000000
O O8 0.720294 0.165748 0.948868
O O9 0.229479 0.406665 0.370943
O O10 0.303633 0.785346 0.250552
O O11 0.923650 0.601628 0.362877
O O12 0.375664 0.271530 0.474814
O O13 0.537302 0.610705 0.295179
O O14 0.271823 0.139741 0.911472
O O15 0.500000 0.500000 0.500000
#
# Coordination Sequence:
#
# PCOD9008050 Si02
#       7
#     2   2   2   2   2   2   2
#     4  12  23  40  65  96 124 162 211 260 307 361
#     4  10  21  39  63  95 127 165 205 248 317 370
#     4   9  21  44  61  88 127 163 204 255 308 372
#     4  10  24  41  62  91 124 165 213 246 310 372
#     4  10  22  38  63  95 129 161 204 256 308 375
#     4  12  22  43  67  88 126 165 210 264 310 353
#     4   9  22  41  62  88 130 163 196 257 319 365
#
# _framework density 19.386755999999998
#
# number of rings (size 3 to 8) (size 9 to 14) (size 15 to 20)
#    0.857    0.857    2.857    1.286    2.000    2.857 
#    0.000    4.286    0.000    0.000    0.000    0.000 
#    0.000    0.000    0.000    0.000    0.000    0.000 
#
# Total GULP energy -78082.784880 kJ/mol
# GULP energy per Si atom -5577.341777 kJ/mol
# Density = 1.934263 g / cm^3
# Si number density = 19.386756 Si / 1000 Ang^3
#
#
#
# Elastic Constant Matrix: (Units=GPa)
#
#
# Indices 1 2 3 4 5 6 
#
# 1 54.2340 18.1317 25.9855 13.4315 -4.7745 12.7301
# 2 18.1317 68.4773 11.0259 24.5934 -9.4299 14.2804
# 3 25.9855 11.0259 79.9304 8.5201 2.9567 18.9770
# 4 13.4315 24.5934 8.5201 29.2852 2.1389 8.5941
# 5 -4.7745 -9.4299 2.9567 2.1389 32.4923 2.6427
# 6 12.7301 14.2804 18.9770 8.5941 2.6427 17.6037
#
#
#
# Elastic Compliance Matrix: (Units=1/GPa)
#
#
# Indices 1 2 3 4 5 6 
#
# 1 0.025771 -0.000588 -0.005458 -0.007343 0.005369 -0.009496
# 2 -0.000588 0.025231 0.001734 -0.017820 0.009441 -0.014630
# 3 -0.005458 0.001734 0.018080 0.000909 -0.000596 -0.017304
# 4 -0.007343 -0.017820 0.000909 0.054830 -0.009408 -0.006569
# 5 0.005369 0.009441 -0.000596 -0.009408 0.035931 -0.011699
# 6 -0.009496 -0.014630 -0.017304 -0.006569 -0.011699 0.099158
#
#
# Mechanical properties :
#
#
# Convention : Reuss Voigt Hill
#
# Bulk Modulus (GPa) = 16.54063 34.76977 25.65520
# Shear Modulus (GPa) = 17.37460 25.70947 21.54203
#
# Velocity S-wave (km/s) = 2.99692 3.64557 3.33704
# Velocity P-wave (km/s) = 4.53055 5.97444 5.30188
#
# Compressibility (1/GPa) = 0.06045719
#
# Stress axis : x y z
#
# Youngs Moduli (GPa) = 38.80389 39.63426 55.31092
#
# Poissons Ratio (x) = 0.02330 0.30190
# Poissons Ratio (y) = 0.02281 -0.09593
# Poissons Ratio (z) = 0.21180 -0.06874
#
# Static dielectric constant tensor:
#      x y z
#    x 1.694690 0.014160 0.027280 
#    y 0.014160 1.649930 -0.021870 
#    z 0.027280 -0.021870 1.667970 
# 
# From -- ./inp_files/552537.got.cif
#   From: 2010.05.17/outbox.cif.g08.bks.cpg/sg2_277_cif.got.tgz:552537.got - 2010.06.03 11:33:40.
