data_PCOD9008982
_publ_section_title
;
Structure prediction by ZEFSAII (Michael W. Deem and Ramdas Pophale) SiO2 
 PCOD9008982
Probable space group: P -1
;
_chemical_formula_sum "Si O2"
_cell_formula_units_Z 14
_cell_length_a 8.782124
_cell_length_b 16.400816
_cell_length_c 6.210767
_cell_angle_alpha 118.105978
_cell_angle_beta 127.393441
_cell_angle_gamma 55.367499
_cell_volume 573.824891
_symmetry_space_group_name_H-M "P -1"
_symmetry_group_IT_number 2
_symmetry_cell_setting 'triclinic'
loop_
_space_group_symop_operation_xyz
x,y,z
-x,-y,-z
loop_
_atom_site_type_symbol
_atom_site_label
_atom_site_fract_x
_atom_site_fract_y
_atom_site_fract_z
Si Si1 0.986322 0.428356 0.208780
Si Si2 0.371900 0.618578 0.000955
Si Si3 0.997925 0.099899 0.018083
Si Si4 0.587378 0.211319 0.534317
Si Si5 0.380396 0.947355 0.964832
Si Si6 0.696845 0.621714 0.952037
Si Si7 0.293574 0.185121 0.573412
O O1 0.870718 0.362500 0.137362
O O2 0.000000 0.500000 0.500000
O O3 0.203253 0.377651 0.198948
O O4 0.825894 0.507151 0.000336
O O5 0.463701 0.643477 0.883356
O O6 0.500000 0.500000 0.000000
O O7 0.435683 0.675023 0.319434
O O8 0.098363 0.155946 0.331936
O O9 0.775365 0.163642 0.808148
O O10 0.162673 0.044017 0.906926
O O11 0.000000 0.000000 0.000000
O O12 0.642511 0.148785 0.284749
O O13 0.390766 0.194644 0.439892
O O14 0.520786 0.901465 0.240793
O O15 0.500000 0.000000 0.000000
O O16 0.754181 0.707489 0.223805
#
# Coordination Sequence:
#
# PCOD9008982 Si02
#       7
#     2   2   2   2   2   2   2
#     4  10  21  39  66  95 133 172 225 279 338 404
#     4   9  21  42  65  97 136 173 228 279 338 413
#     4  12  24  42  68  95 134 176 225 283 337 408
#     4  11  24  44  69  99 136 181 227 279 348 406
#     4  12  24  43  68  95 134 180 224 282 345 402
#     4   9  22  41  62  95 131 177 219 277 347 399
#     4  11  24  44  65  96 142 172 223 285 342 407
#
# _framework density 24.397686
#
# number of rings (size 3 to 8) (size 9 to 14) (size 15 to 20)
#    0.000    1.429    2.857    1.714    2.000    6.286 
#    0.000    2.857    0.000    0.000    0.000    0.000 
#    0.000    0.000    0.000    0.000    0.000    0.000 
#
# Total GULP energy -78056.581522 kJ/mol
# GULP energy per Si atom -5575.470109 kJ/mol
# Density = 2.434216 g / cm^3
# Si number density = 24.397686 Si / 1000 Ang^3
#
#
#
# Elastic Constant Matrix: (Units=GPa)
#
#
# Indices 1 2 3 4 5 6 
#
# 1 193.0633 8.0480 43.2966 14.2604 11.2789 5.7296
# 2 8.0480 94.1076 33.2732 16.8942 7.9424 9.8513
# 3 43.2966 33.2732 105.0840 19.8618 17.6700 9.1810
# 4 14.2604 16.8942 19.8618 50.6826 -2.5064 2.8327
# 5 11.2789 7.9424 17.6700 -2.5064 35.6474 13.8583
# 6 5.7296 9.8513 9.1810 2.8327 13.8583 38.3814
#
#
#
# Elastic Compliance Matrix: (Units=1/GPa)
#
#
# Indices 1 2 3 4 5 6 
#
# 1 0.005780 0.000548 -0.002212 -0.000982 -0.000892 -0.000080
# 2 0.000548 0.012567 -0.003346 -0.002955 -0.000736 -0.002023
# 3 -0.002212 -0.003346 0.013062 -0.003664 -0.005397 0.000284
# 4 -0.000982 -0.002955 -0.003664 0.022774 0.005057 -0.001725
# 5 -0.000892 -0.000736 -0.005397 0.005057 0.036118 -0.011801
# 6 -0.000080 -0.002023 0.000284 -0.001725 -0.011801 0.030906
#
#
# Mechanical properties :
#
#
# Convention : Reuss Voigt Hill
#
# Bulk Modulus (GPa) = 46.75408 62.38785 54.57096
# Shear Modulus (GPa) = 36.13845 45.45139 40.79492
#
# Velocity S-wave (km/s) = 3.85284 4.32086 4.09355
# Velocity P-wave (km/s) = 6.24479 7.10773 6.69019
#
# Compressibility (1/GPa) = 0.02138851
#
# Stress axis : x y z
#
# Youngs Moduli (GPa) = 173.01168 79.57588 76.55547
#
# Poissons Ratio (x) = -0.04359 0.16937
# Poissons Ratio (y) = -0.09477 0.25613
# Poissons Ratio (z) = 0.38277 0.26623
#
# Static dielectric constant tensor:
#      x y z
#    x 1.944210 -0.005140 -0.119430 
#    y -0.005140 1.934220 -0.086340 
#    z -0.119430 -0.086340 1.728420 
# 
# From -- ./inp_files/39630.got.cif
#   From: 2010.05.17/outbox.cif.g08.bks.cpg/sg2_20_cif.got.tgz:39630.got - 2010.06.03 11:33:40.
