data_PCOD9008804
_publ_section_title
;
Structure prediction by ZEFSAII (Michael W. Deem and Ramdas Pophale) SiO2 
 PCOD9008804
Probable space group: P -1
;
_chemical_formula_sum "Si O2"
_cell_formula_units_Z 16
_cell_length_a 11.811155
_cell_length_b 8.664059
_cell_length_c 15.757247
_cell_angle_alpha 98.288125
_cell_angle_beta 42.583046
_cell_angle_gamma 128.517839
_cell_volume 686.877418
_symmetry_space_group_name_H-M "P -1"
_symmetry_group_IT_number 2
_symmetry_cell_setting 'triclinic'
loop_
_space_group_symop_operation_xyz
x,y,z
-x,-y,-z
loop_
_atom_site_type_symbol
_atom_site_label
_atom_site_fract_x
_atom_site_fract_y
_atom_site_fract_z
Si Si1 0.674480 0.104988 0.539000
Si Si2 0.214661 0.350921 0.744026
Si Si3 0.616898 0.991985 0.854955
Si Si4 0.788239 0.854307 0.027990
Si Si5 0.597942 0.436319 0.001113
Si Si6 0.451989 0.705178 0.499857
Si Si7 0.770850 0.411257 0.735434
Si Si8 0.696630 0.313926 0.157105
O O1 0.623815 0.227597 0.525263
O O2 0.969399 0.330133 0.428105
O O3 0.638305 0.936719 0.479356
O O4 0.460655 0.918156 0.714179
O O5 0.218737 0.468273 0.669252
O O6 0.401050 0.338427 0.621804
O O7 0.331576 0.537653 0.771485
O O8 0.935877 0.077735 0.899605
O O9 0.393245 0.776954 0.895777
O O10 0.782757 0.232551 0.727358
O O11 0.663992 0.851082 0.851371
O O12 0.500000 0.000000 0.000000
O O13 0.753783 0.649315 0.001641
O O14 0.490750 0.714105 0.179083
O O15 0.000000 0.000000 0.000000
O O16 0.770114 0.464260 0.839919
O O17 0.500000 0.500000 0.000000
O O18 0.000000 0.500000 0.000000
#
# Coordination Sequence:
#
# PCOD9008804 Si02
#       8
#     2   2   2   2   2   2   2   2
#     4  10  22  41  68 100 139 178 225 283 343 411
#     4  10  21  39  65  98 137 178 229 282 339 408
#     4  10  22  40  62  91 131 175 217 269 332 397
#     4  11  22  38  65  98 134 176 223 279 339 401
#     4   9  20  37  60  92 128 170 220 271 325 396
#     4   9  21  41  67 101 137 180 224 280 348 409
#     4  10  22  40  64  94 130 174 224 275 334 401
#     4  11  24  42  66  99 135 174 228 284 337 404
#
# _framework density 23.29382
#
# number of rings (size 3 to 8) (size 9 to 14) (size 15 to 20)
#    0.000    2.000    0.000    2.250    0.000   13.500 
#    0.000    3.750    0.000    8.250    0.000    0.000 
#    0.000    0.000    0.000    0.000    0.000    0.000 
#
# Total GULP energy -89211.903836 kJ/mol
# GULP energy per Si atom -5575.743990 kJ/mol
# Density = 2.324080 g / cm^3
# Si number density = 23.293820 Si / 1000 Ang^3
#
#
#
# Elastic Constant Matrix: (Units=GPa)
#
#
# Indices 1 2 3 4 5 6 
#
# 1 94.3569 58.5164 41.9780 -7.0799 6.4777 3.3627
# 2 58.5164 156.5703 50.5360 -6.8122 5.3514 -14.0343
# 3 41.9780 50.5360 105.6327 -29.2751 0.1740 1.3643
# 4 -7.0799 -6.8122 -29.2751 55.6991 5.0098 8.7861
# 5 6.4777 5.3514 0.1740 5.0098 18.6910 -2.6961
# 6 3.3627 -14.0343 1.3643 8.7861 -2.6961 46.9853
#
#
#
# Elastic Compliance Matrix: (Units=1/GPa)
#
#
# Indices 1 2 3 4 5 6 
#
# 1 0.015643 -0.004673 -0.003881 0.000207 -0.004492 -0.002699
# 2 -0.004673 0.009395 -0.003139 -0.001644 -0.000091 0.003534
# 3 -0.003881 -0.003139 0.014525 0.007155 -0.000159 -0.002429
# 4 0.000207 -0.001644 0.007155 0.022984 -0.006606 -0.005390
# 5 -0.004492 -0.000091 -0.000159 -0.006606 0.057554 0.004837
# 6 -0.002699 0.003534 -0.002429 -0.005390 0.004837 0.023888
#
#
# Mechanical properties :
#
#
# Convention : Reuss Voigt Hill
#
# Bulk Modulus (GPa) = 61.81613 73.18009 67.49811
# Shear Modulus (GPa) = 28.94075 37.97705 33.45890
#
# Velocity S-wave (km/s) = 3.52862 4.04214 3.79408
# Velocity P-wave (km/s) = 6.57242 7.29859 6.94501
#
# Compressibility (1/GPa) = 0.01617701
#
# Stress axis : x y z
#
# Youngs Moduli (GPa) = 63.92699 106.44197 68.84606
#
# Poissons Ratio (x) = 0.49740 0.26721
# Poissons Ratio (y) = 0.29873 0.21608
# Poissons Ratio (z) = 0.24812 0.33408
#
# Static dielectric constant tensor:
#      x y z
#    x 1.979320 -0.014740 0.050750 
#    y -0.014740 2.030770 0.045430 
#    z 0.050750 0.045430 1.877310 
# 
# From -- ./inp_files/515756.got.cif
#   From: 2010.05.17/outbox.cif.g08.bks.cpg/sg2_258_cif.got.tgz:515756.got - 2010.06.03 11:33:40.
