data_PCOD9008235
_publ_section_title
;
Structure prediction by ZEFSAII (Michael W. Deem and Ramdas Pophale) SiO2 
 PCOD9008235
Probable space group: P -1
;
_chemical_formula_sum "Si O2"
_cell_formula_units_Z 10
_cell_length_a 9.274256
_cell_length_b 9.141760
_cell_length_c 6.712835
_cell_angle_alpha 46.679675
_cell_angle_beta 70.438258
_cell_angle_gamma 78.519261
_cell_volume 389.772107
_symmetry_space_group_name_H-M "P -1"
_symmetry_group_IT_number 2
_symmetry_cell_setting 'triclinic'
loop_
_space_group_symop_operation_xyz
x,y,z
-x,-y,-z
loop_
_atom_site_type_symbol
_atom_site_label
_atom_site_fract_x
_atom_site_fract_y
_atom_site_fract_z
Si Si1 0.619760 0.142121 0.927472
Si Si2 0.127109 0.637859 0.927249
Si Si3 0.266188 0.430145 0.451914
Si Si4 0.536136 0.278047 0.271405
Si Si5 0.913476 0.908830 0.937520
O O1 0.638498 0.383577 0.668303
O O2 0.566901 0.144033 0.186545
O O3 0.500000 0.000000 0.000000
O O4 0.777921 0.059320 0.847345
O O5 0.169172 0.526561 0.224170
O O6 0.047499 0.851852 0.780436
O O7 0.300758 0.690904 0.723329
O O8 0.000000 0.500000 0.000000
O O9 0.379790 0.258102 0.487778
O O10 0.159175 0.311697 0.767678
O O11 0.500000 0.500000 0.000000
O O12 0.000000 0.000000 0.000000
#
# Coordination Sequence:
#
# PCOD9008235 Si02
#       5
#     2   2   2   2   2
#     4  10  22  39  63  93 123 156 211 252 296 370
#     4  10  21  39  64  91 124 158 202 258 307 357
#     4  10  23  42  64  87 129 166 195 251 313 359
#     4   8  18  39  59  84 124 160 194 248 306 356
#     4  12  23  41  64  90 125 164 205 253 305 358
#
# _framework density 25.656019000000001
#
# number of rings (size 3 to 8) (size 9 to 14) (size 15 to 20)
#    0.000    2.400    4.000    0.600    8.400    1.600 
#    0.000    1.000    0.000    0.000    0.000    0.000 
#    0.000    0.000    0.000    0.000    0.000    0.000 
#
# Total GULP energy -55723.715233 kJ/mol
# GULP energy per Si atom -5572.371523 kJ/mol
# Density = 2.559762 g / cm^3
# Si number density = 25.656019 Si / 1000 Ang^3
#
#
#
# Elastic Constant Matrix: (Units=GPa)
#
#
# Indices 1 2 3 4 5 6 
#
# 1 185.0918 102.8858 2.5700 -9.4443 -1.9359 -12.5113
# 2 102.8858 225.9906 21.5875 -24.3768 8.2413 -21.2089
# 3 2.5700 21.5875 58.1949 -6.5537 16.0579 -4.7840
# 4 -9.4443 -24.3768 -6.5537 47.5748 -1.6460 -9.1484
# 5 -1.9359 8.2413 16.0579 -1.6460 34.4714 -11.2935
# 6 -12.5113 -21.2089 -4.7840 -9.1484 -11.2935 79.4893
#
#
#
# Elastic Compliance Matrix: (Units=1/GPa)
#
#
# Indices 1 2 3 4 5 6 
#
# 1 0.007321 -0.003405 0.000677 -0.000080 0.001045 0.000424
# 2 -0.003405 0.006578 -0.001774 0.002702 -0.000359 0.001372
# 3 0.000677 -0.001774 0.020487 0.001690 -0.009076 -0.000229
# 4 -0.000080 0.002702 0.001690 0.023347 0.000863 0.003619
# 5 0.001045 -0.000359 -0.009076 0.000863 0.034925 0.004584
# 6 0.000424 0.001372 -0.000229 0.003619 0.004584 0.014067
#
#
# Mechanical properties :
#
#
# Convention : Reuss Voigt Hill
#
# Bulk Modulus (GPa) = 39.39434 80.37378 59.88406
# Shear Modulus (GPa) = 40.26119 55.12270 47.69195
#
# Velocity S-wave (km/s) = 3.96570 4.64025 4.31617
# Velocity P-wave (km/s) = 6.02969 7.75272 6.94485
#
# Compressibility (1/GPa) = 0.02538435
#
# Stress axis : x y z
#
# Youngs Moduli (GPa) = 136.58504 152.02660 48.81028
#
# Poissons Ratio (x) = 0.51763 -0.03306
# Poissons Ratio (y) = 0.46505 0.08657
# Poissons Ratio (z) = -0.09250 0.26963
#
# Static dielectric constant tensor:
#      x y z
#    x 1.938600 0.029930 -0.013830 
#    y 0.029930 2.050560 0.113160 
#    z -0.013830 0.113160 2.293170 
# 
# From -- ./inp_files/146189.got.cif
#   From: 2010.05.17/outbox.cif.g08.bks.cpg/sg2_74_cif.got.tgz:146189.got - 2010.06.03 11:33:40.
