data_PCOD9008252
_publ_section_title
;
Structure prediction by ZEFSAII (Michael W. Deem and Ramdas Pophale) SiO2 
 PCOD9008252
Probable space group: P -1
;
_chemical_formula_sum "Si O2"
_cell_formula_units_Z 14
_cell_length_a 16.329909
_cell_length_b 10.263289
_cell_length_c 6.964666
_cell_angle_alpha 93.637608
_cell_angle_beta 66.016588
_cell_angle_gamma 39.094254
_cell_volume 506.625134
_symmetry_space_group_name_H-M "P -1"
_symmetry_group_IT_number 2
_symmetry_cell_setting 'triclinic'
loop_
_space_group_symop_operation_xyz
x,y,z
-x,-y,-z
loop_
_atom_site_type_symbol
_atom_site_label
_atom_site_fract_x
_atom_site_fract_y
_atom_site_fract_z
Si Si1 0.575351 0.069389 0.639969
Si Si2 0.013902 0.876703 0.648448
Si Si3 0.629663 0.406383 0.077100
Si Si4 0.080236 0.287578 0.263641
Si Si5 0.376880 0.072442 0.841335
Si Si6 0.262209 0.758906 0.477317
Si Si7 0.032138 0.298687 0.852438
O O1 0.438253 0.359381 0.864295
O O2 0.519136 0.001023 0.773856
O O3 0.540241 0.091144 0.448896
O O4 0.789265 0.849373 0.421587
O O5 0.005813 0.737964 0.583038
O O6 0.200502 0.688861 0.554728
O O7 0.000000 0.000000 0.500000
O O8 0.825839 0.142139 0.975767
O O9 0.463119 0.540971 0.345337
O O10 0.688172 0.276270 0.799667
O O11 0.000000 0.500000 0.500000
O O12 0.175881 0.400733 0.001854
O O13 0.302214 0.044287 0.031956
O O14 0.037665 0.324651 0.077792
O O15 0.097567 0.067442 0.728493
#
# Coordination Sequence:
#
# PCOD9008252 Si02
#       7
#     2   2   2   2   2   2   2
#     4   9  18  35  63  94 122 163 207 247 312 377
#     4  10  22  40  62  87 122 171 203 250 314 361
#     4   9  18  34  59  91 115 159 208 251 298 371
#     4  11  25  39  62  97 128 160 214 258 301 377
#     4  10  21  39  64  91 127 168 200 256 315 366
#     4   9  19  35  62  89 118 159 211 250 299 370
#     4  10  21  42  65  92 128 164 205 259 312 367
#
# _framework density 27.633844
#
# number of rings (size 3 to 8) (size 9 to 14) (size 15 to 20)
#    0.000    2.286    0.000    2.571    8.000    0.571 
#    2.571   12.143    0.000   14.571    0.000    0.000 
#    0.000    0.000    0.000    0.000    0.000    0.000 
#
# Total GULP energy -78213.586072 kJ/mol
# GULP energy per Si atom -5586.684719 kJ/mol
# Density = 2.757095 g / cm^3
# Si number density = 27.633844 Si / 1000 Ang^3
#
#
#
# Elastic Constant Matrix: (Units=GPa)
#
#
# Indices 1 2 3 4 5 6 
#
# 1 123.5009 69.8314 33.8449 -16.7308 -4.6113 45.9256
# 2 69.8314 92.2520 36.6783 -14.3004 12.1626 19.6877
# 3 33.8449 36.6783 70.1883 6.4242 20.1628 2.7004
# 4 -16.7308 -14.3004 6.4242 42.5461 15.5673 1.6835
# 5 -4.6113 12.1626 20.1628 15.5673 71.1702 -10.2941
# 6 45.9256 19.6877 2.7004 1.6835 -10.2941 64.3879
#
#
#
# Elastic Compliance Matrix: (Units=1/GPa)
#
#
# Indices 1 2 3 4 5 6 
#
# 1 0.020030 -0.010487 -0.004732 0.004822 0.001826 -0.010716
# 2 -0.010487 0.022695 -0.006165 0.005941 -0.004113 -0.000014
# 3 -0.004732 -0.006165 0.021108 -0.006060 -0.003329 0.004001
# 4 0.004822 0.005941 -0.006060 0.031065 -0.006779 -0.006898
# 5 0.001826 -0.004113 -0.003329 -0.006779 0.017747 0.003110
# 6 -0.010716 -0.000014 0.004001 -0.006898 0.003110 0.023688
#
#
# Mechanical properties :
#
#
# Convention : Reuss Voigt Hill
#
# Bulk Modulus (GPa) = 47.47077 62.96116 55.21597
# Shear Modulus (GPa) = 26.86423 45.32662 36.09543
#
# Velocity S-wave (km/s) = 3.12131 4.05440 3.61806
# Velocity P-wave (km/s) = 5.49599 6.68963 6.12197
#
# Compressibility (1/GPa) = 0.02106559
#
# Stress axis : x y z
#
# Youngs Moduli (GPa) = 49.92627 44.06240 47.37637
#
# Poissons Ratio (x) = 0.46207 0.22418
# Poissons Ratio (y) = 0.52356 0.29207
# Poissons Ratio (z) = 0.23624 0.27164
#
# Static dielectric constant tensor:
#      x y z
#    x 2.380200 -0.118580 -0.110390 
#    y -0.118580 2.387050 -0.001760 
#    z -0.110390 -0.001760 2.166250 
# 
# From -- ./inp_files/461369.got.cif
#   From: 2010.05.17/outbox.cif.g08.bks.cpg/sg2_231_cif.got.tgz:461369.got - 2010.06.03 11:33:40.
