data_PCOD9008771
_publ_section_title
;
Structure prediction by ZEFSAII (Michael W. Deem and Ramdas Pophale) SiO2 
 PCOD9008771
Probable space group: P -1
;
_chemical_formula_sum "Si O2"
_cell_formula_units_Z 16
_cell_length_a 4.981829
_cell_length_b 11.865301
_cell_length_c 14.323163
_cell_angle_alpha 123.985801
_cell_angle_beta 89.908223
_cell_angle_gamma 114.455192
_cell_volume 608.703873
_symmetry_space_group_name_H-M "P -1"
_symmetry_group_IT_number 2
_symmetry_cell_setting 'triclinic'
loop_
_space_group_symop_operation_xyz
x,y,z
-x,-y,-z
loop_
_atom_site_type_symbol
_atom_site_label
_atom_site_fract_x
_atom_site_fract_y
_atom_site_fract_z
Si Si1 0.113948 0.408070 0.564877
Si Si2 0.192200 0.185070 0.096382
Si Si3 0.747630 0.226052 0.999655
Si Si4 0.212352 0.948859 0.235432
Si Si5 0.207604 0.134328 0.465537
Si Si6 0.153590 0.376209 0.342758
Si Si7 0.525254 0.838823 0.341845
Si Si8 0.488504 0.341912 0.900173
O O1 0.125638 0.267644 0.552623
O O2 0.003111 0.342695 0.429818
O O3 0.475688 0.531822 0.610699
O O4 0.948060 0.502558 0.643201
O O5 0.098234 0.229671 0.213885
O O6 0.533070 0.227220 0.083370
O O7 0.073944 0.268562 0.061963
O O8 0.000000 0.000000 0.000000
O O9 0.634972 0.061716 0.866565
O O10 0.727568 0.327970 0.962904
O O11 0.346254 0.896044 0.299386
O O12 0.850749 0.815963 0.159912
O O13 0.279054 0.117857 0.349546
O O14 0.489996 0.164960 0.547910
O O15 0.889316 0.969182 0.396871
O O16 0.450080 0.677131 0.217313
O O17 0.500000 0.500000 0.000000
#
# Coordination Sequence:
#
# PCOD9008771 Si02
#       8
#     2   2   2   2   2   2   2   2
#     4  10  23  44  69  94 132 179 207 279 341 391
#     4  12  26  45  71 101 135 179 226 288 339 393
#     4  11  24  44  65 103 133 179 228 275 333 406
#     4  10  21  41  65  97 141 170 233 274 327 412
#     4  10  21  39  65  97 132 176 217 278 340 390
#     4  10  24  45  64  99 133 163 230 271 327 411
#     4   9  21  37  62  99 133 166 230 274 321 411
#     4  10  22  42  66  96 139 186 219 277 342 397
#
# _framework density 26.285361999999999
#
# number of rings (size 3 to 8) (size 9 to 14) (size 15 to 20)
#    0.000    1.750    1.250    1.500    3.500    4.000 
#    4.500    0.000    0.000    0.000    0.000    0.000 
#    0.000    0.000    0.000    0.000    0.000    0.000 
#
# Total GULP energy -89343.087738 kJ/mol
# GULP energy per Si atom -5583.942984 kJ/mol
# Density = 2.622554 g / cm^3
# Si number density = 26.285362 Si / 1000 Ang^3
#
#
#
# Elastic Constant Matrix: (Units=GPa)
#
#
# Indices 1 2 3 4 5 6 
#
# 1 122.4736 9.3547 17.8053 -1.8940 -6.2379 -10.6082
# 2 9.3547 41.6805 19.0091 3.3557 8.3331 -11.2702
# 3 17.8053 19.0091 146.6979 11.8845 -31.2746 -11.2235
# 4 -1.8940 3.3557 11.8845 26.7533 -5.7835 1.7123
# 5 -6.2379 8.3331 -31.2746 -5.7835 45.1442 -1.6829
# 6 -10.6082 -11.2702 -11.2235 1.7123 -1.6829 34.3445
#
#
#
# Elastic Compliance Matrix: (Units=1/GPa)
#
#
# Indices 1 2 3 4 5 6 
#
# 1 0.008616 -0.001529 -0.000503 0.001189 0.001351 0.002002
# 2 -0.001529 0.030971 -0.004922 -0.004385 -0.009607 0.007830
# 3 -0.000503 -0.004922 0.009334 -0.002142 0.007096 0.001735
# 4 0.001189 -0.004385 -0.002142 0.040165 0.004503 -0.003553
# 5 0.001351 -0.009607 0.007096 0.004503 0.029634 0.000811
# 6 0.002002 0.007830 0.001735 -0.003553 0.000811 0.033089
#
#
# Mechanical properties :
#
#
# Convention : Reuss Voigt Hill
#
# Bulk Modulus (GPa) = 28.55949 44.79890 36.67919
# Shear Modulus (GPa) = 28.18700 38.89391 33.54045
#
# Velocity S-wave (km/s) = 3.27822 3.85083 3.57601
# Velocity P-wave (km/s) = 5.02173 6.07060 5.57090
#
# Compressibility (1/GPa) = 0.03501463
#
# Stress axis : x y z
#
# Youngs Moduli (GPa) = 116.06960 32.28839 107.12964
#
# Poissons Ratio (x) = 0.04937 0.05384
# Poissons Ratio (y) = 0.17747 0.52724
# Poissons Ratio (z) = 0.05834 0.15891
#
# Static dielectric constant tensor:
#      x y z
#    x 2.119680 0.036390 -0.088690 
#    y 0.036390 2.229750 -0.101000 
#    z -0.088690 -0.101000 2.158500 
# 
# From -- ./inp_files/483042.got.cif
#   From: 2010.05.17/outbox.cif.g08.bks.cpg/sg2_242_cif.got.tgz:483042.got - 2010.06.03 11:33:40.
