data_PCOD9008975
_publ_section_title
;
Structure prediction by ZEFSAII (Michael W. Deem and Ramdas Pophale) SiO2 
 PCOD9008975
Probable space group: P -1
;
_chemical_formula_sum "Si O2"
_cell_formula_units_Z 16
_cell_length_a 20.154198
_cell_length_b 13.124495
_cell_length_c 8.644034
_cell_angle_alpha 124.884449
_cell_angle_beta 130.894595
_cell_angle_gamma 26.714914
_cell_volume 776.436255
_symmetry_space_group_name_H-M "P -1"
_symmetry_group_IT_number 2
_symmetry_cell_setting 'triclinic'
loop_
_space_group_symop_operation_xyz
x,y,z
-x,-y,-z
loop_
_atom_site_type_symbol
_atom_site_label
_atom_site_fract_x
_atom_site_fract_y
_atom_site_fract_z
Si Si1 0.297164 0.415403 0.730265
Si Si2 0.826785 0.875778 0.793945
Si Si3 0.660686 0.052372 0.003876
Si Si4 0.832665 0.607421 0.010959
Si Si5 0.996459 0.864573 0.829122
Si Si6 0.807969 0.703186 0.397463
Si Si7 0.834262 0.068286 0.428662
Si Si8 0.829781 0.358523 0.598416
O O1 0.478803 0.224069 0.885020
O O2 0.244831 0.333876 0.587709
O O3 0.260580 0.513450 0.590805
O O4 0.176541 0.613944 0.844907
O O5 0.918970 0.881875 0.866202
O O6 0.745628 0.904718 0.548136
O O7 0.703199 0.042995 0.886171
O O8 0.974512 0.620327 0.868838
O O9 0.769168 0.804250 0.997192
O O10 0.701316 0.124023 0.231993
O O11 0.797461 0.516891 0.795327
O O12 0.759352 0.711495 0.162344
O O13 0.899940 0.961142 0.606551
O O14 0.000000 0.000000 0.000000
O O15 0.000000 0.500000 0.500000
O O16 0.792188 0.264812 0.524113
O O17 0.981241 0.869410 0.359441
#
# Coordination Sequence:
#
# PCOD9008975 Si02
#       8
#     2   2   2   2   2   2   2   2
#     4  11  25  43  65  98 137 165 214 281 337 376
#     4  11  22  40  68  98 129 174 222 264 326 396
#     4  12  26  40  67 102 136 169 215 282 334 380
#     4  11  21  39  68  96 128 177 224 265 319 398
#     4  11  23  44  72  93 128 180 226 260 320 405
#     4  10  21  39  66  95 129 169 218 270 320 388
#     4  10  23  41  66  99 128 175 223 267 322 395
#     4  10  22  41  67  94 131 174 226 265 317 401
#
# _framework density 20.606971000000001
#
# number of rings (size 3 to 8) (size 9 to 14) (size 15 to 20)
#    0.000    1.250    3.750    2.625    8.750    3.000 
#    0.000    1.875    0.000    0.000    0.000    0.000 
#    0.000    0.000    0.000    0.000    0.000    0.000 
#
# Total GULP energy -89287.930120 kJ/mol
# GULP energy per Si atom -5580.495633 kJ/mol
# Density = 2.056007 g / cm^3
# Si number density = 20.606971 Si / 1000 Ang^3
#
#
#
# Elastic Constant Matrix: (Units=GPa)
#
#
# Indices 1 2 3 4 5 6 
#
# 1 131.2314 57.9203 47.2777 -10.4461 4.2704 3.8062
# 2 57.9203 13.4516 37.5759 11.6378 18.5697 18.2205
# 3 47.2777 37.5759 97.3555 19.6700 19.8977 1.8332
# 4 -10.4461 11.6378 19.6700 29.0724 -5.2639 -0.1924
# 5 4.2704 18.5697 19.8977 -5.2639 33.3998 -0.6783
# 6 3.8062 18.2205 1.8332 -0.1924 -0.6783 17.5033
#
#
#
# Elastic Compliance Matrix: (Units=1/GPa)
#
#
# Indices 1 2 3 4 5 6 
#
# 1 0.005921 0.010447 -0.006514 0.001799 -0.002635 -0.011562
# 2 0.010447 -0.019043 -0.004703 0.017432 0.015183 0.018824
# 3 -0.006514 -0.004703 0.020922 -0.016686 -0.011575 0.003489
# 4 0.001799 0.017432 -0.016686 0.040344 0.006050 -0.016112
# 5 -0.002635 0.015183 -0.011575 0.006050 0.029425 -0.012813
# 6 -0.011562 0.018824 0.003489 -0.016112 -0.012813 0.039012
#
#
# Mechanical properties :
#
#
# Convention : Reuss Voigt Hill
#
# Bulk Modulus (GPa) = 159.79022 58.62071 109.20546
# Shear Modulus (GPa) = 41.59464 22.61273 32.10368
#
# Velocity S-wave (km/s) = 4.49762 3.31620 3.95131
# Velocity P-wave (km/s) = 10.23140 6.57051 8.59806
#
# Compressibility (1/GPa) = 0.00625821
#
# Stress axis : x y z
#
# Youngs Moduli (GPa) = 168.89954 -52.51334 47.79721
#
# Poissons Ratio (x) = 0.54858 0.31137
# Poissons Ratio (y) = -1.76442 0.22478
# Poissons Ratio (z) = 1.10028 -0.24696
#
# Static dielectric constant tensor:
#      x y z
#    x 1.710970 -0.075410 -0.196400 
#    y -0.075410 1.795110 0.138650 
#    z -0.196400 0.138650 2.040910 
# 
# From -- ./inp_files/225529.got.cif
#   From: 2010.05.17/outbox.cif.g08.bks.cpg/sg2_113_cif.got.tgz:225529.got - 2010.06.03 11:33:40.
