data_PCOD9008216
_publ_section_title
;
Structure prediction by ZEFSAII (Michael W. Deem and Ramdas Pophale) SiO2 
 PCOD9008216
Probable space group: P -1
;
_chemical_formula_sum "Si O2"
_cell_formula_units_Z 16
_cell_length_a 9.787106
_cell_length_b 19.211623
_cell_length_c 7.385619
_cell_angle_alpha 33.354188
_cell_angle_beta 92.306454
_cell_angle_gamma 94.540553
_cell_volume 760.274464
_symmetry_space_group_name_H-M "P -1"
_symmetry_group_IT_number 2
_symmetry_cell_setting 'triclinic'
loop_
_space_group_symop_operation_xyz
x,y,z
-x,-y,-z
loop_
_atom_site_type_symbol
_atom_site_label
_atom_site_fract_x
_atom_site_fract_y
_atom_site_fract_z
Si Si1 0.863542 0.524595 0.183030
Si Si2 0.790189 0.751028 0.873636
Si Si3 0.351367 0.462550 0.159962
Si Si4 0.155212 0.647834 0.894111
Si Si5 0.955852 0.113707 0.635885
Si Si6 0.247058 0.735196 0.107339
Si Si7 0.459692 0.355070 0.752508
Si Si8 0.159852 0.998736 0.467568
O O1 0.815677 0.377182 0.522516
O O2 0.841981 0.608027 0.183281
O O3 0.761331 0.579501 0.909129
O O4 0.022726 0.547671 0.094165
O O5 0.904240 0.820504 0.593928
O O6 0.787106 0.858034 0.797184
O O7 0.627225 0.712769 0.941103
O O8 0.371178 0.369148 0.532916
O O9 0.500000 0.500000 0.000000
O O10 0.288862 0.586512 0.970264
O O11 0.113032 0.772413 0.517494
O O12 0.174957 0.696099 0.996341
O O13 0.842610 0.046202 0.640985
O O14 0.000000 0.000000 0.000000
O O15 0.406607 0.714905 0.136226
O O16 0.220700 0.880945 0.831070
O O17 0.500000 0.500000 0.500000
O O18 0.000000 0.000000 0.500000
#
# Coordination Sequence:
#
# PCOD9008216 Si02
#       8
#     2   2   2   2   2   2   2   2
#     4  11  22  39  64 100 126 163 219 271 317 370
#     4  10  21  39  64  90 125 168 211 254 314 387
#     4  12  23  38  59  94 131 164 206 263 330 374
#     4  10  22  37  63  94 127 166 214 268 318 382
#     4   9  20  40  64  94 126 161 213 272 323 370
#     4  11  21  40  67  91 128 171 213 261 317 384
#     4  12  22  41  65  92 130 176 208 261 321 389
#     4   9  21  39  62  91 124 169 213 262 314 380
#
# _framework density 21.045030000000001
#
# number of rings (size 3 to 8) (size 9 to 14) (size 15 to 20)
#    0.000    1.500    3.750    1.500    0.000    7.500 
#    0.000    0.000    0.000    2.250    0.000    0.000 
#    0.000    0.000    0.000    0.000    0.000    0.000 
#
# Total GULP energy -89068.496969 kJ/mol
# GULP energy per Si atom -5566.781061 kJ/mol
# Density = 2.099713 g / cm^3
# Si number density = 21.045030 Si / 1000 Ang^3
#
#
#
# Elastic Constant Matrix: (Units=GPa)
#
#
# Indices 1 2 3 4 5 6 
#
# 1 119.8963 17.2116 36.3554 -11.9984 16.7154 -9.5536
# 2 17.2116 64.5309 23.3681 -12.2862 2.4151 2.9350
# 3 36.3554 23.3681 97.3410 -9.5765 19.6119 -0.2473
# 4 -11.9984 -12.2862 -9.5765 29.7470 4.0009 10.4716
# 5 16.7154 2.4151 19.6119 4.0009 35.7259 -7.1398
# 6 -9.5536 2.9350 -0.2473 10.4716 -7.1398 30.0624
#
#
#
# Elastic Compliance Matrix: (Units=1/GPa)
#
#
# Indices 1 2 3 4 5 6 
#
# 1 0.010140 -0.001229 -0.002588 0.002597 -0.003200 0.001656
# 2 -0.001229 0.018794 -0.003038 0.008329 -0.001040 -0.005399
# 3 -0.002588 -0.003038 0.013909 0.004507 -0.007475 -0.003756
# 4 0.002597 0.008329 0.004507 0.048468 -0.013694 -0.020086
# 5 -0.003200 -0.001040 -0.007475 -0.013694 0.037745 0.012757
# 6 0.001656 -0.005399 -0.003756 -0.020086 0.012757 0.044313
#
#
# Mechanical properties :
#
#
# Convention : Reuss Voigt Hill
#
# Bulk Modulus (GPa) = 34.32323 48.40428 41.36375
# Shear Modulus (GPa) = 25.40809 32.76260 29.08534
#
# Velocity S-wave (km/s) = 3.47842 3.94989 3.72163
# Velocity P-wave (km/s) = 5.69889 6.62212 6.17778
#
# Compressibility (1/GPa) = 0.02913479
#
# Stress axis : x y z
#
# Youngs Moduli (GPa) = 98.62386 53.20710 71.89757
#
# Poissons Ratio (x) = 0.06537 0.18604
# Poissons Ratio (y) = 0.12117 0.21841
# Poissons Ratio (z) = 0.25520 0.16163
#
# Static dielectric constant tensor:
#      x y z
#    x 1.667350 0.083680 0.047670 
#    y 0.083680 1.845680 -0.005030 
#    z 0.047670 -0.005030 1.808490 
# 
# From -- ./inp_files/222871.got.cif
#   From: 2010.05.17/outbox.cif.g08.bks.cpg/sg2_112_cif.got.tgz:222871.got - 2010.06.03 11:33:40.
