data_PCOD9008152
_publ_section_title
;
Structure prediction by ZEFSAII (Michael W. Deem and Ramdas Pophale) SiO2 
 PCOD9008152
Probable space group: P -1
;
_chemical_formula_sum "Si O2"
_cell_formula_units_Z 16
_cell_length_a 5.324356
_cell_length_b 20.444613
_cell_length_c 7.926178
_cell_angle_alpha 58.881282
_cell_angle_beta 117.108133
_cell_angle_gamma 100.385924
_cell_volume 655.771525
_symmetry_space_group_name_H-M "P -1"
_symmetry_group_IT_number 2
_symmetry_cell_setting 'triclinic'
loop_
_space_group_symop_operation_xyz
x,y,z
-x,-y,-z
loop_
_atom_site_type_symbol
_atom_site_label
_atom_site_fract_x
_atom_site_fract_y
_atom_site_fract_z
Si Si1 0.778036 0.545728 0.748072
Si Si2 0.336228 0.340620 0.150405
Si Si3 0.676734 0.791267 0.453817
Si Si4 0.785707 0.929802 0.113345
Si Si5 0.325817 0.615550 0.129501
Si Si6 0.060670 0.808323 0.095778
Si Si7 0.822935 0.677860 0.378893
Si Si8 0.139082 0.955683 0.761122
O O1 0.610874 0.608933 0.731946
O O2 0.611814 0.475938 0.723390
O O3 0.931812 0.592981 0.587472
O O4 0.000000 0.500000 0.000000
O O5 0.357836 0.250940 0.324775
O O6 0.549782 0.359326 0.044973
O O7 0.007278 0.364429 0.978858
O O8 0.741797 0.878658 0.339402
O O9 0.878045 0.732001 0.483719
O O10 0.384406 0.790793 0.264624
O O11 0.933493 0.865389 0.125934
O O12 0.951903 0.997835 0.155875
O O13 0.481694 0.952994 0.900182
O O14 0.503169 0.659113 0.262015
O O15 0.917409 0.728842 0.183182
O O16 0.054997 0.867289 0.858102
O O17 0.000000 0.000000 0.500000
#
# Coordination Sequence:
#
# PCOD9008152 Si02
#       8
#     2   2   2   2   2   2   2   2
#     4   9  20  41  63  88 121 168 216 264 320 388
#     4  10  23  39  64  90 129 166 218 264 323 382
#     4   9  21  39  61  86 124 171 206 260 317 382
#     4   9  20  40  61  92 124 166 212 257 319 391
#     4  11  23  40  60  96 125 165 217 273 320 384
#     4  10  21  39  64  87 124 169 206 255 328 382
#     4  10  22  39  61  88 127 162 208 266 327 375
#     4  10  21  39  64  92 128 159 211 264 319 383
#
# _framework density 24.398741999999999
#
# number of rings (size 3 to 8) (size 9 to 14) (size 15 to 20)
#    0.000    2.250    0.000    1.125    8.750    1.500 
#    6.750    3.125    0.000    0.000    0.000    0.000 
#    0.000    0.000    0.000    0.000    0.000    0.000 
#
# Total GULP energy -89159.400365 kJ/mol
# GULP energy per Si atom -5572.462523 kJ/mol
# Density = 2.434321 g / cm^3
# Si number density = 24.398742 Si / 1000 Ang^3
#
#
#
# Elastic Constant Matrix: (Units=GPa)
#
#
# Indices 1 2 3 4 5 6 
#
# 1 48.5280 26.5907 18.1411 -0.5343 -6.7966 -0.4125
# 2 26.5907 91.9968 36.9231 -14.0961 -9.8767 18.7292
# 3 18.1411 36.9231 166.2242 -24.5149 -18.9357 13.2992
# 4 -0.5343 -14.0961 -24.5149 45.5487 7.6436 -11.6417
# 5 -6.7966 -9.8767 -18.9357 7.6436 21.6797 -2.1968
# 6 -0.4125 18.7292 13.2992 -11.6417 -2.1968 37.8839
#
#
#
# Elastic Compliance Matrix: (Units=1/GPa)
#
#
# Indices 1 2 3 4 5 6 
#
# 1 0.025979 -0.007689 -0.001274 -0.002541 0.004833 0.004031
# 2 -0.007689 0.015559 -0.001595 0.001868 0.001964 -0.006528
# 3 -0.001274 -0.001595 0.007452 0.002559 0.004399 -0.000800
# 4 -0.002541 0.001868 0.002559 0.026473 -0.006445 0.005912
# 5 0.004833 0.001964 0.004399 -0.006445 0.054521 -0.001282
# 6 0.004031 -0.006528 -0.000800 0.005912 -0.001282 0.031690
#
#
# Mechanical properties :
#
#
# Convention : Reuss Voigt Hill
#
# Bulk Modulus (GPa) = 35.87648 52.22876 44.05262
# Shear Modulus (GPa) = 26.03064 36.02873 31.02968
#
# Velocity S-wave (km/s) = 3.26986 3.84691 3.57006
# Velocity P-wave (km/s) = 5.38444 6.41751 5.92354
#
# Compressibility (1/GPa) = 0.02787341
#
# Stress axis : x y z
#
# Youngs Moduli (GPa) = 38.49243 64.27291 134.19261
#
# Poissons Ratio (x) = 0.49418 0.17097
# Poissons Ratio (y) = 0.29596 0.21409
# Poissons Ratio (z) = 0.04904 0.10254
#
# Static dielectric constant tensor:
#      x y z
#    x 2.082100 -0.000810 -0.092520 
#    y -0.000810 1.999190 -0.045660 
#    z -0.092520 -0.045660 2.039980 
# 
# From -- ./inp_files/51076.got.cif
#   From: 2010.05.17/outbox.cif.g08.bks.cpg/sg2_26_cif.got.tgz:51076.got - 2010.06.03 11:33:40.
