data_PCOD9008138
_publ_section_title
;
Structure prediction by ZEFSAII (Michael W. Deem and Ramdas Pophale) SiO2 
 PCOD9008138
Probable space group: P -1
;
_chemical_formula_sum "Si O2"
_cell_formula_units_Z 14
_cell_length_a 17.126063
_cell_length_b 8.651868
_cell_length_c 9.749362
_cell_angle_alpha 92.104289
_cell_angle_beta 142.351600
_cell_angle_gamma 116.079042
_cell_volume 564.918093
_symmetry_space_group_name_H-M "P -1"
_symmetry_group_IT_number 2
_symmetry_cell_setting 'triclinic'
loop_
_space_group_symop_operation_xyz
x,y,z
-x,-y,-z
loop_
_atom_site_type_symbol
_atom_site_label
_atom_site_fract_x
_atom_site_fract_y
_atom_site_fract_z
Si Si1 0.776019 0.820517 0.558058
Si Si2 0.234545 0.732087 0.521336
Si Si3 0.436435 0.727614 0.039098
Si Si4 0.389605 0.529550 0.432978
Si Si5 0.865006 0.524884 0.152104
Si Si6 0.979992 0.212115 0.071842
Si Si7 0.350236 0.969233 0.207943
O O1 0.584500 0.720743 0.222146
O O2 0.704455 0.646533 0.577955
O O3 0.917332 0.822877 0.687437
O O4 0.914243 0.077699 0.831200
O O5 0.099107 0.484873 0.238819
O O6 0.092264 0.711819 0.418421
O O7 0.401516 0.987193 0.681057
O O8 0.346793 0.720181 0.779450
O O9 0.253931 0.517209 0.881705
O O10 0.500000 0.500000 0.500000
O O11 0.535072 0.794620 0.707374
O O12 0.247905 0.492495 0.130224
O O13 0.803194 0.287914 0.084298
O O14 0.772353 0.053713 0.849843
O O15 0.500000 0.000000 0.500000
#
# Coordination Sequence:
#
# PCOD9008138 Si02
#       7
#     2   2   2   2   2   2   2
#     4  11  23  37  62  91 125 156 199 248 311 360
#     4  10  25  42  63  87 122 163 209 247 296 361
#     4  11  23  43  63  89 120 165 204 248 303 359
#     4  11  19  35  58  92 124 153 195 251 309 355
#     4  10  21  39  64  86 120 160 203 251 298 357
#     4  10  22  39  57  93 119 155 199 255 299 360
#     4   9  18  35  55  85 121 152 192 244 298 354
#
# _framework density 24.782354000000002
#
# number of rings (size 3 to 8) (size 9 to 14) (size 15 to 20)
#    0.000    1.714    2.857    1.286    6.000    1.143 
#    0.000    0.000    0.000    2.571    0.000    0.000 
#    0.000    0.000    0.000    0.000    0.000    0.000 
#
# Total GULP energy -78086.999273 kJ/mol
# GULP energy per Si atom -5577.642805 kJ/mol
# Density = 2.472595 g / cm^3
# Si number density = 24.782354 Si / 1000 Ang^3
#
#
#
# Elastic Constant Matrix: (Units=GPa)
#
#
# Indices 1 2 3 4 5 6 
#
# 1 61.6832 24.7082 33.0648 -6.7909 31.2212 -7.5623
# 2 24.7082 106.5659 45.8987 -4.5231 -3.2146 6.1652
# 3 33.0648 45.8987 97.5695 -34.2905 33.5445 -6.9344
# 4 -6.7909 -4.5231 -34.2905 63.4422 -17.5901 8.8355
# 5 31.2212 -3.2146 33.5445 -17.5901 39.6074 -5.5791
# 6 -7.5623 6.1652 -6.9344 8.8355 -5.5791 39.9136
#
#
#
# Elastic Compliance Matrix: (Units=1/GPa)
#
#
# Indices 1 2 3 4 5 6 
#
# 1 0.036249 -0.011349 0.003185 -0.005358 -0.033777 0.005639
# 2 -0.011349 0.017863 -0.011671 -0.000241 0.019589 -0.004146
# 3 0.003185 -0.011671 0.024268 0.006547 -0.020784 0.002268
# 4 -0.005358 -0.000241 0.006547 0.021313 0.007633 -0.003492
# 5 -0.033777 0.019589 -0.020784 0.007633 0.073835 -0.004405
# 6 0.005639 -0.004146 0.002268 -0.003492 -0.004405 0.027314
#
#
# Mechanical properties :
#
#
# Convention : Reuss Voigt Hill
#
# Bulk Modulus (GPa) = 25.83377 52.57357 39.20367
# Shear Modulus (GPa) = 19.73064 39.40244 29.56654
#
# Velocity S-wave (km/s) = 2.82469 3.99173 3.45780
# Velocity P-wave (km/s) = 4.59188 6.51962 5.63874
#
# Compressibility (1/GPa) = 0.03870902
#
# Stress axis : x y z
#
# Youngs Moduli (GPa) = 27.58733 55.98305 41.20723
#
# Poissons Ratio (x) = 0.63535 -0.13125
# Poissons Ratio (y) = 0.31309 0.48093
# Poissons Ratio (z) = -0.08787 0.65338
#
# Static dielectric constant tensor:
#      x y z
#    x 2.239410 -0.138080 0.192100 
#    y -0.138080 2.066150 -0.057460 
#    z 0.192100 -0.057460 2.212830 
# 
# From -- ./inp_files/468916.got.cif
#   From: 2010.05.17/outbox.cif.g08.bks.cpg/sg2_235_cif.got.tgz:468916.got - 2010.06.03 11:33:40.
