data_PCOD9008136
_publ_section_title
;
Structure prediction by ZEFSAII (Michael W. Deem and Ramdas Pophale) SiO2 
 PCOD9008136
Probable space group: P -1
;
_chemical_formula_sum "Si O2"
_cell_formula_units_Z 10
_cell_length_a 22.704636
_cell_length_b 10.027364
_cell_length_c 5.099535
_cell_angle_alpha 56.182677
_cell_angle_beta 68.697013
_cell_angle_gamma 32.627085
_cell_volume 505.462252
_symmetry_space_group_name_H-M "P -1"
_symmetry_group_IT_number 2
_symmetry_cell_setting 'triclinic'
loop_
_space_group_symop_operation_xyz
x,y,z
-x,-y,-z
loop_
_atom_site_type_symbol
_atom_site_label
_atom_site_fract_x
_atom_site_fract_y
_atom_site_fract_z
Si Si1 0.558538 0.040271 0.783664
Si Si2 0.926432 0.105575 0.752577
Si Si3 0.442614 0.769235 0.935234
Si Si4 0.225371 0.329139 0.875921
Si Si5 0.008823 0.596294 0.130833
O O1 0.543997 0.116416 0.422864
O O2 0.511542 0.274832 0.805870
O O3 0.500000 0.000000 0.000000
O O4 0.689989 0.763205 0.956157
O O5 0.819960 0.443246 0.505417
O O6 0.000000 0.000000 0.500000
O O7 0.000000 0.000000 0.000000
O O8 0.917232 0.932124 0.942856
O O9 0.308765 0.032132 0.914471
O O10 0.500000 0.500000 0.000000
O O11 0.126218 0.445383 0.060128
O O12 0.000000 0.500000 0.500000
O O13 0.000000 0.500000 0.000000
#
# Coordination Sequence:
#
# PCOD9008136 Si02
#       5
#     2   2   2   2   2
#     4  10  22  41  65  89 126 163 217 254 306 378
#     4  10  21  39  64  85 123 166 207 250 307 371
#     4  10  22  41  65  89 131 165 206 262 315 364
#     4   9  24  39  68  87 134 167 206 250 327 359
#     4  11  23  40  60  94 125 158 211 259 300 372
#
# _framework density 19.783871000000001
#
# number of rings (size 3 to 8) (size 9 to 14) (size 15 to 20)
#    1.200    0.800    0.000    3.600    8.400    0.000 
#    3.600    0.000    0.000    0.000    0.000    0.000 
#    0.000    0.000    0.000    0.000    0.000    0.000 
#
# Total GULP energy -55669.581154 kJ/mol
# GULP energy per Si atom -5566.958115 kJ/mol
# Density = 1.973884 g / cm^3
# Si number density = 19.783871 Si / 1000 Ang^3
#
#
#
# Elastic Constant Matrix: (Units=GPa)
#
#
# Indices 1 2 3 4 5 6 
#
# 1 86.6165 20.0572 23.6548 2.3806 -12.8687 0.6089
# 2 20.0572 104.1592 31.4705 -5.6464 -7.6801 8.3749
# 3 23.6548 31.4705 113.6745 12.9202 -15.2958 0.5464
# 4 2.3806 -5.6464 12.9202 46.6012 8.0820 -1.7020
# 5 -12.8687 -7.6801 -15.2958 8.0820 31.7923 10.6569
# 6 0.6089 8.3749 0.5464 -1.7020 10.6569 37.6464
#
#
#
# Elastic Compliance Matrix: (Units=1/GPa)
#
#
# Indices 1 2 3 4 5 6 
#
# 1 0.013118 -0.001699 -0.001421 -0.001397 0.005004 -0.001293
# 2 -0.001699 0.011169 -0.002806 0.001940 0.001047 -0.002625
# 3 -0.001421 -0.002806 0.011136 -0.004384 0.005660 -0.001315
# 4 -0.001397 0.001940 -0.004384 0.024789 -0.009687 0.003517
# 5 0.005004 0.001047 0.005660 -0.009687 0.043307 -0.013093
# 6 -0.001293 -0.002625 -0.001315 0.003517 -0.013093 0.031052
#
#
# Mechanical properties :
#
#
# Convention : Reuss Voigt Hill
#
# Bulk Modulus (GPa) = 42.42534 50.53502 46.48018
# Shear Modulus (GPa) = 32.40860 38.49248 35.45054
#
# Velocity S-wave (km/s) = 4.05178 4.41574 4.23767
# Velocity P-wave (km/s) = 6.58636 7.18313 6.89121
#
# Compressibility (1/GPa) = 0.02357082
#
# Stress axis : x y z
#
# Youngs Moduli (GPa) = 76.23296 89.53294 89.80158
#
# Poissons Ratio (x) = 0.15216 0.12759
# Poissons Ratio (y) = 0.12956 0.25194
# Poissons Ratio (z) = 0.10831 0.25119
#
# Static dielectric constant tensor:
#      x y z
#    x 1.678670 0.020320 0.009920 
#    y 0.020320 1.769900 -0.068130 
#    z 0.009920 -0.068130 1.709300 
# 
# From -- ./inp_files/115299.got.cif
#   From: 2010.05.17/outbox.cif.g08.bks.cpg/sg2_58_cif.got.tgz:115299.got - 2010.06.03 11:33:40.
