data_PCOD9008280
_publ_section_title
;
Structure prediction by ZEFSAII (Michael W. Deem and Ramdas Pophale) SiO2 
 PCOD9008280
Probable space group: P -1
;
_chemical_formula_sum "Si O2"
_cell_formula_units_Z 16
_cell_length_a 21.910177
_cell_length_b 15.554983
_cell_length_c 7.483768
_cell_angle_alpha 100.931055
_cell_angle_beta 114.415323
_cell_angle_gamma 21.958764
_cell_volume 714.188967
_symmetry_space_group_name_H-M "P -1"
_symmetry_group_IT_number 2
_symmetry_cell_setting 'triclinic'
loop_
_space_group_symop_operation_xyz
x,y,z
-x,-y,-z
loop_
_atom_site_type_symbol
_atom_site_label
_atom_site_fract_x
_atom_site_fract_y
_atom_site_fract_z
Si Si1 0.282102 0.783195 0.150653
Si Si2 0.815421 0.891476 0.884216
Si Si3 0.226238 0.801354 0.492471
Si Si4 0.273477 0.380876 0.335988
Si Si5 0.579963 0.047251 0.862693
Si Si6 0.020970 0.539791 0.704341
Si Si7 0.063984 0.815902 0.397633
Si Si8 0.655298 0.726323 0.030549
O O1 0.207692 0.834026 0.268923
O O2 0.534346 0.459019 0.290173
O O3 0.236838 0.944347 0.167448
O O4 0.142150 0.917949 0.875337
O O5 0.644191 0.061841 0.874351
O O6 0.825217 0.811347 0.698267
O O7 0.053764 0.597204 0.145924
O O8 0.202638 0.731261 0.507855
O O9 0.035898 0.080808 0.487962
O O10 0.193464 0.574652 0.380879
O O11 0.459310 0.134587 0.608084
O O12 0.353985 0.284604 0.192290
O O13 0.427147 0.245230 0.926915
O O14 0.800078 0.727236 0.059333
O O15 0.114333 0.518001 0.746352
O O16 0.000000 0.500000 0.500000
O O17 0.500000 0.000000 0.000000
#
# Coordination Sequence:
#
# PCOD9008280 Si02
#       8
#     2   2   2   2   2   2   2   2
#     4  10  21  41  62  92 127 159 207 255 312 366
#     4  10  23  41  61  93 124 163 210 259 302 375
#     4  10  21  39  65  92 123 167 200 255 318 370
#     4  10  23  41  61  91 128 162 212 257 304 370
#     4  11  23  40  65  88 123 170 205 259 310 363
#     4  10  23  41  63  90 127 163 208 256 311 369
#     4  10  21  39  64  92 125 163 207 256 305 374
#     4   9  22  40  59  89 120 163 207 256 304 364
#
# _framework density 22.403034000000002
#
# number of rings (size 3 to 8) (size 9 to 14) (size 15 to 20)
#    0.000    2.000    0.000    1.875    5.250    7.500 
#    2.250    3.750    0.000    0.000    0.000    0.000 
#    0.000    0.000    0.000    0.000    0.000    0.000 
#
# Total GULP energy -89318.920226 kJ/mol
# GULP energy per Si atom -5582.432514 kJ/mol
# Density = 2.235204 g / cm^3
# Si number density = 22.403034 Si / 1000 Ang^3
#
#
#
# Elastic Constant Matrix: (Units=GPa)
#
#
# Indices 1 2 3 4 5 6 
#
# 1 85.2771 45.0008 21.9851 14.8688 -9.7038 -31.2724
# 2 45.0008 95.0529 34.9100 29.3672 -8.6117 -16.0196
# 3 21.9851 34.9100 85.3790 13.6976 6.3894 -15.4841
# 4 14.8688 29.3672 13.6976 35.7393 -1.3991 -3.4379
# 5 -9.7038 -8.6117 6.3894 -1.3991 20.9625 12.3989
# 6 -31.2724 -16.0196 -15.4841 -3.4379 12.3989 44.2360
#
#
#
# Elastic Compliance Matrix: (Units=1/GPa)
#
#
# Indices 1 2 3 4 5 6 
#
# 1 0.019876 -0.007172 0.000203 -0.001364 -0.000782 0.011638
# 2 -0.007172 0.019462 -0.005408 -0.010920 0.007248 -0.002796
# 3 0.000203 -0.005408 0.016227 -0.001637 -0.011261 0.006894
# 4 -0.001364 -0.010920 -0.001637 0.037895 -0.000699 -0.002351
# 5 -0.000782 0.007248 -0.011261 -0.000699 0.065743 -0.020351
# 6 0.011638 -0.002796 0.006894 -0.002351 -0.020351 0.037755
#
#
# Mechanical properties :
#
#
# Convention : Reuss Voigt Hill
#
# Bulk Modulus (GPa) = 32.45793 52.16675 42.31234
# Shear Modulus (GPa) = 21.55334 31.10845 26.33090
#
# Velocity S-wave (km/s) = 3.10509 3.73041 3.43202
# Velocity P-wave (km/s) = 5.23212 6.47231 5.88498
#
# Compressibility (1/GPa) = 0.03080912
#
# Stress axis : x y z
#
# Youngs Moduli (GPa) = 50.31300 51.38345 61.62457
#
# Poissons Ratio (x) = 0.36852 -0.01248
# Poissons Ratio (y) = 0.36085 0.33328
# Poissons Ratio (z) = -0.01019 0.27789
#
# Static dielectric constant tensor:
#      x y z
#    x 1.909150 -0.100400 -0.077680 
#    y -0.100400 2.100780 0.068420 
#    z -0.077680 0.068420 1.918950 
# 
# From -- ./inp_files/124839.got.cif
#   From: 2010.05.17/outbox.cif.g08.bks.cpg/sg2_63_cif.got.tgz:124839.got - 2010.06.03 11:33:40.
