data_PCOD9008384
_publ_section_title
;
Structure prediction by ZEFSAII (Michael W. Deem and Ramdas Pophale) SiO2 
 PCOD9008384
Probable space group: P -1
;
_chemical_formula_sum "Si O2"
_cell_formula_units_Z 16
_cell_length_a 20.585962
_cell_length_b 27.686353
_cell_length_c 8.649736
_cell_angle_alpha 41.243728
_cell_angle_beta 149.256730
_cell_angle_gamma 161.753539
_cell_volume 722.509435
_symmetry_space_group_name_H-M "P -1"
_symmetry_group_IT_number 2
_symmetry_cell_setting 'triclinic'
loop_
_space_group_symop_operation_xyz
x,y,z
-x,-y,-z
loop_
_atom_site_type_symbol
_atom_site_label
_atom_site_fract_x
_atom_site_fract_y
_atom_site_fract_z
Si Si1 0.731980 0.448856 0.215545
Si Si2 0.766819 0.316117 0.562204
Si Si3 0.826062 0.746448 0.003699
Si Si4 0.760094 0.934847 0.121449
Si Si5 0.276568 0.389499 0.165174
Si Si6 0.752326 0.038640 0.114800
Si Si7 0.869591 0.853344 0.137329
Si Si8 0.405114 0.980840 0.690386
O O1 0.814437 0.410683 0.545216
O O2 0.935474 0.554262 0.223694
O O3 0.796574 0.564122 0.134877
O O4 0.378809 0.266865 0.950980
O O5 0.585550 0.150603 0.637033
O O6 0.540469 0.236530 0.169148
O O7 0.729119 0.741300 0.968359
O O8 0.627663 0.605041 0.807269
O O9 0.058231 0.807416 0.390079
O O10 0.044728 0.913479 0.956380
O O11 0.655321 0.920837 0.095511
O O12 0.000000 0.000000 0.500000
O O13 0.500000 0.500000 0.500000
O O14 0.998061 0.204964 0.112671
O O15 0.889330 0.074902 0.464403
O O16 0.514851 0.977582 0.801949
O O17 0.000000 0.000000 0.000000
O O18 0.500000 0.000000 0.000000
#
# Coordination Sequence:
#
# PCOD9008384 Si02
#       8
#     2   2   2   2   2   2   2   2
#     4  11  23  40  64  88 133 172 217 270 333 386
#     4  10  23  40  64  96 127 177 220 271 329 391
#     4  10  24  38  65  98 129 171 216 271 332 387
#     4  10  21  39  64  95 125 166 221 271 317 395
#     4  11  23  42  65  94 128 172 225 268 322 397
#     4  11  22  37  67  94 123 172 215 269 326 390
#     4  12  23  42  65  97 133 172 216 277 336 394
#     4  11  21  40  66  98 130 165 218 272 329 390
#
# _framework density 22.145040000000002
#
# number of rings (size 3 to 8) (size 9 to 14) (size 15 to 20)
#    0.000    1.250    3.750    3.000    3.500    2.000 
#    0.000    0.000    0.000    3.750    0.000    0.000 
#    0.000    0.000    0.000    0.000    0.000    0.000 
#
# Total GULP energy -89077.044291 kJ/mol
# GULP energy per Si atom -5567.315268 kJ/mol
# Density = 2.209464 g / cm^3
# Si number density = 22.145040 Si / 1000 Ang^3
#
#
#
# Elastic Constant Matrix: (Units=GPa)
#
#
# Indices 1 2 3 4 5 6 
#
# 1 117.8730 23.3108 31.6634 -0.0274 6.7804 -30.2706
# 2 23.3108 89.4997 27.6728 -12.8494 4.1755 -8.4140
# 3 31.6634 27.6728 67.6215 -9.1320 -0.6309 -6.4362
# 4 -0.0274 -12.8494 -9.1320 29.2232 -6.8890 7.8532
# 5 6.7804 4.1755 -0.6309 -6.8890 32.9429 0.4054
# 6 -30.2706 -8.4140 -6.4362 7.8532 0.4054 29.9518
#
#
#
# Elastic Compliance Matrix: (Units=1/GPa)
#
#
# Indices 1 2 3 4 5 6 
#
# 1 0.014446 -0.001421 -0.005820 -0.007561 -0.004670 0.014996
# 2 -0.001421 0.013549 -0.004261 0.004403 -0.000590 0.000308
# 3 -0.005820 -0.004261 0.019711 0.006327 0.003495 -0.004550
# 4 -0.007561 0.004403 0.006327 0.045253 0.010793 -0.017056
# 5 -0.004670 -0.000590 0.003495 0.010793 0.033807 -0.007422
# 6 0.014996 0.000308 -0.004550 -0.017056 -0.007422 0.052223
#
#
# Mechanical properties :
#
#
# Convention : Reuss Voigt Hill
#
# Bulk Modulus (GPa) = 40.48186 48.92093 44.70139
# Shear Modulus (GPa) = 23.78367 31.24672 27.51519
#
# Velocity S-wave (km/s) = 3.28074 3.76041 3.52873
# Velocity P-wave (km/s) = 5.71586 6.40260 6.06895
#
# Compressibility (1/GPa) = 0.02470242
#
# Stress axis : x y z
#
# Youngs Moduli (GPa) = 69.22350 73.80402 50.73246
#
# Poissons Ratio (x) = 0.10486 0.29527
# Poissons Ratio (y) = 0.09835 0.21618
# Poissons Ratio (z) = 0.40289 0.31449
#
# Static dielectric constant tensor:
#      x y z
#    x 1.900680 -0.127080 -0.169130 
#    y -0.127080 1.957040 0.120300 
#    z -0.169130 0.120300 1.762690 
# 
# From -- ./inp_files/350246.got.cif
#   From: 2010.05.17/outbox.cif.g08.bks.cpg/sg2_176_cif.got.tgz:350246.got - 2010.06.03 11:33:40.
