data_PCOD9008239
_publ_section_title
;
Structure prediction by ZEFSAII (Michael W. Deem and Ramdas Pophale) SiO2 
 PCOD9008239
Probable space group: P -1
;
_chemical_formula_sum "Si O2"
_cell_formula_units_Z 12
_cell_length_a 14.269770
_cell_length_b 7.420473
_cell_length_c 7.392267
_cell_angle_alpha 140.459495
_cell_angle_beta 79.218953
_cell_angle_gamma 103.795720
_cell_volume 483.938848
_symmetry_space_group_name_H-M "P -1"
_symmetry_group_IT_number 2
_symmetry_cell_setting 'triclinic'
loop_
_space_group_symop_operation_xyz
x,y,z
-x,-y,-z
loop_
_atom_site_type_symbol
_atom_site_label
_atom_site_fract_x
_atom_site_fract_y
_atom_site_fract_z
Si Si1 0.389994 0.910236 0.408139
Si Si2 0.903306 0.339524 0.177168
Si Si3 0.308400 0.279263 0.005856
Si Si4 0.871478 0.424828 0.670544
Si Si5 0.571394 0.790088 0.739402
Si Si6 0.112551 0.059283 0.447472
O O1 0.328624 0.012889 0.673825
O O2 0.377528 0.077728 0.357972
O O3 0.500000 0.000000 0.500000
O O4 0.368386 0.570539 0.126627
O O5 0.872534 0.327539 0.386674
O O6 0.019578 0.430823 0.207776
O O7 0.859008 0.600027 0.299016
O O8 0.879749 0.056884 0.848327
O O9 0.351159 0.250408 0.167258
O O10 0.200587 0.348280 0.101409
O O11 0.842730 0.152785 0.600822
O O12 0.500000 0.500000 0.500000
O O13 0.500000 0.000000 0.000000
O O14 0.000000 0.000000 0.500000
#
# Coordination Sequence:
#
# PCOD9008239 Si02
#       6
#     2   2   2   2   2   2
#     4  12  24  44  69  92 127 168 211 260 330 381
#     4  10  23  42  66  91 131 177 212 258 320 378
#     4  12  26  41  65 101 128 165 218 268 307 386
#     4  10  24  41  65  96 131 169 217 265 315 368
#     4  12  23  42  68  91 124 166 209 256 321 383
#     4  10  21  39  64  91 124 171 215 258 316 375
#
# _framework density 24.796520999999998
#
# number of rings (size 3 to 8) (size 9 to 14) (size 15 to 20)
#    0.000    1.000    3.333    3.500    0.000   15.333 
#    0.000    0.000    0.000    0.000    0.000    0.000 
#    0.000    0.000    0.000    0.000    0.000    0.000 
#
# Total GULP energy -67351.562104 kJ/mol
# GULP energy per Si atom -5612.630175 kJ/mol
# Density = 2.474008 g / cm^3
# Si number density = 24.796521 Si / 1000 Ang^3
#
#
#
# Elastic Constant Matrix: (Units=GPa)
#
#
# Indices 1 2 3 4 5 6 
#
# 1 113.4494 36.3457 27.6123 -9.5536 -24.1839 -19.0810
# 2 36.3457 111.1337 -4.6343 -5.9950 9.6810 -24.2479
# 3 27.6123 -4.6343 109.8253 -1.4201 -10.3636 -1.6956
# 4 -9.5536 -5.9950 -1.4201 41.7657 -3.9840 4.1127
# 5 -24.1839 9.6810 -10.3636 -3.9840 33.5756 0.6711
# 6 -19.0810 -24.2479 -1.6956 4.1127 0.6711 44.4240
#
#
#
# Elastic Compliance Matrix: (Units=1/GPa)
#
#
# Indices 1 2 3 4 5 6 
#
# 1 0.014146 -0.004914 -0.002629 0.003223 0.011121 0.002827
# 2 -0.004914 0.012270 0.001174 -0.000448 -0.006864 0.004777
# 3 -0.002629 0.001174 0.009892 -0.000006 0.000823 -0.000123
# 4 0.003223 -0.000448 -0.000006 0.025264 0.005473 -0.001282
# 5 0.011121 -0.006864 0.000823 0.005473 0.040677 -0.000060
# 6 0.002827 0.004777 -0.000123 -0.001282 -0.000060 0.026447
#
#
# Mechanical properties :
#
#
# Convention : Reuss Voigt Hill
#
# Bulk Modulus (GPa) = 42.42990 50.33955 46.38472
# Shear Modulus (GPa) = 33.49138 42.29203 37.89170
#
# Velocity S-wave (km/s) = 3.67910 4.13433 3.91334
# Velocity P-wave (km/s) = 5.93263 6.56775 6.25825
#
# Compressibility (1/GPa) = 0.02356829
#
# Stress axis : x y z
#
# Youngs Moduli (GPa) = 70.68984 81.49822 101.09585
#
# Poissons Ratio (x) = 0.40049 0.26581
# Poissons Ratio (y) = 0.34738 -0.11864
# Poissons Ratio (z) = 0.18586 -0.09564
#
# Static dielectric constant tensor:
#      x y z
#    x 1.971190 0.016970 0.005480 
#    y 0.016970 1.967610 0.002670 
#    z 0.005480 0.002670 1.875360 
# 
# From -- ./inp_files/329703.got.cif
#   From: 2010.05.17/outbox.cif.g08.bks.cpg/sg2_165_cif.got.tgz:329703.got - 2010.06.03 11:33:40.
