data_PCOD9008765
_publ_section_title
;
Structure prediction by ZEFSAII (Michael W. Deem and Ramdas Pophale) SiO2 
 PCOD9008765
Probable space group: P -1
;
_chemical_formula_sum "Si O2"
_cell_formula_units_Z 12
_cell_length_a 12.565234
_cell_length_b 5.047468
_cell_length_c 9.611908
_cell_angle_alpha 72.206667
_cell_angle_beta 75.589865
_cell_angle_gamma 92.596641
_cell_volume 557.301426
_symmetry_space_group_name_H-M "P -1"
_symmetry_group_IT_number 2
_symmetry_cell_setting 'triclinic'
loop_
_space_group_symop_operation_xyz
x,y,z
-x,-y,-z
loop_
_atom_site_type_symbol
_atom_site_label
_atom_site_fract_x
_atom_site_fract_y
_atom_site_fract_z
Si Si1 0.904386 0.229548 0.584503
Si Si2 0.580022 0.778458 0.467073
Si Si3 0.232343 0.130582 0.836410
Si Si4 0.818843 0.509741 0.940601
Si Si5 0.227931 0.312480 0.377133
Si Si6 0.004674 0.221546 0.838168
O O1 0.799667 0.398410 0.592978
O O2 0.930295 0.118393 0.747091
O O3 0.000000 0.500000 0.500000
O O4 0.870901 0.957373 0.542713
O O5 0.500000 0.500000 0.500000
O O6 0.658791 0.842632 0.296610
O O7 0.663360 0.759535 0.572095
O O8 0.500000 0.000000 0.500000
O O9 0.221295 0.316839 0.946846
O O10 0.133927 0.237276 0.756946
O O11 0.212898 0.812279 0.949206
O O12 0.764929 0.607224 0.801526
O O13 0.950910 0.495299 0.863506
O O14 0.000000 0.000000 0.000000
#
# Coordination Sequence:
#
# PCOD9008765 Si02
#       6
#     2   2   2   2   2   2
#     4  11  22  36  60  95 130 169 206 245 314 393
#     4  12  27  47  67  91 123 170 226 278 321 364
#     4  11  22  40  64  94 129 169 211 260 312 378
#     4  10  21  39  65  97 130 165 203 254 324 393
#     4  11  23  43  63  89 129 166 207 270 319 372
#     4   9  19  35  61  96 131 163 198 245 309 388
#
# _framework density 21.532335
#
# number of rings (size 3 to 8) (size 9 to 14) (size 15 to 20)
#    0.000    1.333    0.000    7.000    0.000    5.333 
#    0.000    5.000    0.000    0.000    0.000    0.000 
#    0.000    0.000    0.000    0.000    0.000    0.000 
#
# Total GULP energy -66910.421374 kJ/mol
# GULP energy per Si atom -5575.868448 kJ/mol
# Density = 2.148333 g / cm^3
# Si number density = 21.532335 Si / 1000 Ang^3
#
#
#
# Elastic Constant Matrix: (Units=GPa)
#
#
# Indices 1 2 3 4 5 6 
#
# 1 119.6490 47.8328 50.4771 -12.7934 0.0924 -10.4936
# 2 47.8328 174.6842 46.1630 3.2860 -4.6674 -19.0766
# 3 50.4771 46.1630 102.6016 -8.2276 6.2714 -4.4779
# 4 -12.7934 3.2860 -8.2276 27.1173 -4.7643 -3.0807
# 5 0.0924 -4.6674 6.2714 -4.7643 48.5154 5.3707
# 6 -10.4936 -19.0766 -4.4779 -3.0807 5.3707 39.9434
#
#
#
# Elastic Compliance Matrix: (Units=1/GPa)
#
#
# Indices 1 2 3 4 5 6 
#
# 1 0.011667 -0.001871 -0.004473 0.004704 0.000622 0.001949
# 2 -0.001871 0.007195 -0.002412 -0.002116 0.000530 0.002440
# 3 -0.004473 -0.002412 0.013265 0.001854 -0.001704 -0.000468
# 4 0.004704 -0.002116 0.001854 0.040837 0.003209 0.003151
# 5 0.000622 0.000530 -0.001704 0.003209 0.021464 -0.002413
# 6 0.001949 0.002440 -0.000468 0.003151 -0.002413 0.027228
#
#
# Mechanical properties :
#
#
# Convention : Reuss Voigt Hill
#
# Bulk Modulus (GPa) = 68.43426 76.20896 72.32161
# Shear Modulus (GPa) = 34.71257 39.94600 37.32929
#
# Velocity S-wave (km/s) = 4.01947 4.31183 4.16822
# Velocity P-wave (km/s) = 7.30702 7.76266 7.53828
#
# Compressibility (1/GPa) = 0.01461256
#
# Stress axis : x y z
#
# Youngs Moduli (GPa) = 85.71482 138.98751 75.38712
#
# Poissons Ratio (x) = 0.26011 0.33723
# Poissons Ratio (y) = 0.16041 0.18184
# Poissons Ratio (z) = 0.38343 0.33524
#
# Static dielectric constant tensor:
#      x y z
#    x 1.824630 0.034590 -0.060490 
#    y 0.034590 1.814520 -0.026310 
#    z -0.060490 -0.026310 1.841840 
# 
# From -- ./inp_files/228909.got.cif
#   From: 2010.05.17/outbox.cif.g08.bks.cpg/sg2_115_cif.got.tgz:228909.got - 2010.06.03 11:33:40.
