data_PCOD9008495
_publ_section_title
;
Structure prediction by ZEFSAII (Michael W. Deem and Ramdas Pophale) SiO2 
 PCOD9008495
Probable space group: P -1
;
_chemical_formula_sum "Si O2"
_cell_formula_units_Z 14
_cell_length_a 5.277125
_cell_length_b 18.906191
_cell_length_c 9.081236
_cell_angle_alpha 142.215673
_cell_angle_beta 93.996071
_cell_angle_gamma 75.518453
_cell_volume 524.833878
_symmetry_space_group_name_H-M "P -1"
_symmetry_group_IT_number 2
_symmetry_cell_setting 'triclinic'
loop_
_space_group_symop_operation_xyz
x,y,z
-x,-y,-z
loop_
_atom_site_type_symbol
_atom_site_label
_atom_site_fract_x
_atom_site_fract_y
_atom_site_fract_z
Si Si1 0.494602 0.172723 0.761959
Si Si2 0.618526 0.667665 0.538357
Si Si3 0.173812 0.792719 0.918007
Si Si4 0.764190 0.886468 0.811569
Si Si5 0.911535 0.633262 0.783337
Si Si6 0.986182 0.159831 0.564013
Si Si7 0.794636 0.450427 0.998161
O O1 0.251584 0.124005 0.621705
O O2 0.726711 0.139572 0.594692
O O3 0.657237 0.138679 0.867404
O O4 0.307951 0.317820 0.016508
O O5 0.315532 0.702596 0.638829
O O6 0.672505 0.764058 0.587686
O O7 0.744597 0.698795 0.741791
O O8 0.751771 0.526949 0.273236
O O9 0.930821 0.880099 0.958989
O O10 0.129627 0.703001 0.897271
O O11 0.930647 0.891373 0.680119
O O12 0.500000 0.000000 0.000000
O O13 0.000000 0.500000 0.500000
O O14 0.890257 0.307123 0.780163
O O15 0.500000 0.500000 0.000000
O O16 0.000000 0.500000 0.000000
#
# Coordination Sequence:
#
# PCOD9008495 Si02
#       7
#     2   2   2   2   2   2   2
#     4  11  24  44  69 101 147 180 232 290 347 425
#     4  10  23  39  68 100 139 185 235 284 348 423
#     4  10  23  45  69  99 145 186 236 285 355 427
#     4  11  26  49  73 101 138 189 246 300 356 424
#     4  10  21  39  65 101 141 192 228 275 344 431
#     4  12  25  44  71 109 141 186 235 292 357 421
#     4  12  24  40  64 102 151 185 225 288 357 426
#
# _framework density 26.675107000000001
#
# number of rings (size 3 to 8) (size 9 to 14) (size 15 to 20)
#    0.000    1.143    2.857    2.571    6.000    1.714 
#    0.000    1.429    0.000    0.000    0.000    0.000 
#    0.000    0.000    0.000    0.000    0.000    0.000 
#
# Total GULP energy -78123.878945 kJ/mol
# GULP energy per Si atom -5580.277067 kJ/mol
# Density = 2.661439 g / cm^3
# Si number density = 26.675107 Si / 1000 Ang^3
#
#
#
# Elastic Constant Matrix: (Units=GPa)
#
#
# Indices 1 2 3 4 5 6 
#
# 1 135.6180 33.4413 46.8718 -0.7777 -27.5676 2.1563
# 2 33.4413 69.2235 44.3755 -10.8590 -2.6823 -10.5096
# 3 46.8718 44.3755 146.3336 12.0863 -25.7804 20.7481
# 4 -0.7777 -10.8590 12.0863 41.2394 7.1519 3.4647
# 5 -27.5676 -2.6823 -25.7804 7.1519 51.1999 -9.9140
# 6 2.1563 -10.5096 20.7481 3.4647 -9.9140 43.7824
#
#
#
# Elastic Compliance Matrix: (Units=1/GPa)
#
#
# Indices 1 2 3 4 5 6 
#
# 1 0.009658 -0.004101 -0.000913 -0.001470 0.004763 0.000168
# 2 -0.004101 0.024823 -0.009101 0.009295 -0.005128 0.008577
# 3 -0.000913 -0.009101 0.012145 -0.006276 0.004802 -0.006311
# 4 -0.001470 0.009295 -0.006276 0.029679 -0.007366 0.001261
# 5 0.004763 -0.005128 0.004802 -0.007366 0.025793 0.002683
# 6 0.000168 0.008577 -0.006311 0.001261 0.002683 0.028389
#
#
# Mechanical properties :
#
#
# Convention : Reuss Voigt Hill
#
# Bulk Modulus (GPa) = 54.36087 66.72802 60.54444
# Shear Modulus (GPa) = 30.33079 42.34344 36.33712
#
# Velocity S-wave (km/s) = 3.37567 3.98851 3.69482
# Velocity P-wave (km/s) = 5.96797 6.80297 6.39910
#
# Compressibility (1/GPa) = 0.01839559
#
# Stress axis : x y z
#
# Youngs Moduli (GPa) = 103.54623 40.28558 82.33758
#
# Poissons Ratio (x) = 0.16520 0.07517
# Poissons Ratio (y) = 0.42463 0.74936
# Poissons Ratio (z) = 0.09454 0.36664
#
# Static dielectric constant tensor:
#      x y z
#    x 2.690060 0.150190 -0.148990 
#    y 0.150190 1.906820 0.026470 
#    z -0.148990 0.026470 2.100150 
# 
# From -- ./inp_files/70873.got.cif
#   From: 2010.05.17/outbox.cif.g08.bks.cpg/sg2_36_cif.got.tgz:70873.got - 2010.06.03 11:33:40.
