data_PCOD9008408
_publ_section_title
;
Structure prediction by ZEFSAII (Michael W. Deem and Ramdas Pophale) SiO2 
 PCOD9008408
Probable space group: P -1
;
_chemical_formula_sum "Si O2"
_cell_formula_units_Z 14
_cell_length_a 19.827718
_cell_length_b 7.883015
_cell_length_c 22.447037
_cell_angle_alpha 150.531484
_cell_angle_beta 20.120596
_cell_angle_gamma 141.845720
_cell_volume 583.599101
_symmetry_space_group_name_H-M "P -1"
_symmetry_group_IT_number 2
_symmetry_cell_setting 'triclinic'
loop_
_space_group_symop_operation_xyz
x,y,z
-x,-y,-z
loop_
_atom_site_type_symbol
_atom_site_label
_atom_site_fract_x
_atom_site_fract_y
_atom_site_fract_z
Si Si1 0.467449 0.630564 0.658644
Si Si2 0.455679 0.725582 0.400546
Si Si3 0.729109 0.341607 0.958858
Si Si4 0.068464 0.576843 0.808038
Si Si5 0.851770 0.768207 0.244290
Si Si6 0.625567 0.616496 0.010228
Si Si7 0.215519 0.405656 0.258563
O O1 0.472321 0.612486 0.721370
O O2 0.697512 0.501749 0.416740
O O3 0.351421 0.386021 0.641537
O O4 0.365531 0.026444 0.852506
O O5 0.588767 0.645941 0.206905
O O6 0.500000 0.000000 0.500000
O O7 0.229033 0.855236 0.604273
O O8 0.683596 0.319044 0.920377
O O9 0.947669 0.434946 0.812798
O O10 0.710140 0.982747 0.896780
O O11 0.047161 0.314331 0.800987
O O12 0.000000 0.000000 0.000000
O O13 0.000000 0.500000 0.000000
O O14 0.389278 0.629310 0.197871
O O15 0.767451 0.586477 0.825469
O O16 0.000000 0.500000 0.500000
#
# Coordination Sequence:
#
# PCOD9008408 Si02
#       7
#     2   2   2   2   2   2   2
#     4  11  21  41  62  97 136 181 232 289 348 411
#     4  10  21  39  64  95 139 184 227 277 340 420
#     4  12  24  46  71 103 146 188 234 289 365 422
#     4  12  23  38  62 100 142 185 237 284 337 429
#     4  11  22  37  61  92 138 187 231 277 339 414
#     4  11  25  47  76 105 142 182 241 307 358 427
#     4  11  26  50  76 105 141 182 244 303 370 429
#
# _framework density 23.989070000000002
#
# number of rings (size 3 to 8) (size 9 to 14) (size 15 to 20)
#    0.000    0.857    1.429    7.714    0.000    0.571 
#    2.571    0.000    0.000    0.000    0.000    0.000 
#    0.000    0.000    0.000    0.000    0.000    0.000 
#
# Total GULP energy -78002.800685 kJ/mol
# GULP energy per Si atom -5571.628620 kJ/mol
# Density = 2.393447 g / cm^3
# Si number density = 23.989070 Si / 1000 Ang^3
#
#
#
# Elastic Constant Matrix: (Units=GPa)
#
#
# Indices 1 2 3 4 5 6 
#
# 1 129.8018 13.4453 35.3698 -5.2224 1.2717 -38.9956
# 2 13.4453 52.5533 8.9390 -0.6418 8.7361 -12.2397
# 3 35.3698 8.9390 117.9266 -21.1329 7.4246 -11.5648
# 4 -5.2224 -0.6418 -21.1329 39.3042 -4.8768 -1.1719
# 5 1.2717 8.7361 7.4246 -4.8768 32.4785 -8.0592
# 6 -38.9956 -12.2397 -11.5648 -1.1719 -8.0592 42.4460
#
#
#
# Elastic Compliance Matrix: (Units=1/GPa)
#
#
# Indices 1 2 3 4 5 6 
#
# 1 0.011549 -0.000612 -0.002428 0.000897 0.002973 0.010361
# 2 -0.000612 0.021088 -0.000805 -0.000590 -0.004452 0.004438
# 3 -0.002428 -0.000805 0.010274 0.005044 -0.001219 0.000244
# 4 0.000897 -0.000590 0.005044 0.028895 0.004209 0.003625
# 5 0.002973 -0.004452 -0.001219 0.004209 0.034723 0.007825
# 6 0.010361 0.004438 0.000244 0.003625 0.007825 0.036010
#
#
# Mechanical properties :
#
#
# Convention : Reuss Voigt Hill
#
# Bulk Modulus (GPa) = 28.39220 46.19889 37.29555
# Shear Modulus (GPa) = 30.87023 39.01424 34.94224
#
# Velocity S-wave (km/s) = 3.59115 4.03716 3.82067
# Velocity P-wave (km/s) = 5.39039 6.40560 5.91980
#
# Compressibility (1/GPa) = 0.03522094
#
# Stress axis : x y z
#
# Youngs Moduli (GPa) = 86.58975 47.41989 97.33590
#
# Poissons Ratio (x) = 0.02901 0.23631
# Poissons Ratio (y) = 0.05298 0.07838
# Poissons Ratio (z) = 0.21022 0.03818
#
# Static dielectric constant tensor:
#      x y z
#    x 1.568600 -0.206340 -0.089100 
#    y -0.206340 2.109540 -0.021450 
#    z -0.089100 -0.021450 1.964490 
# 
# From -- ./inp_files/613615.got.cif
#   From: 2010.05.17/outbox.cif.g08.bks.cpg/sg2_307_cif.got.tgz:613615.got - 2010.06.03 11:33:40.
