data_PCOD9008817
_publ_section_title
;
Structure prediction by ZEFSAII (Michael W. Deem and Ramdas Pophale) SiO2 
 PCOD9008817
Probable space group: P -1
;
_chemical_formula_sum "Si O2"
_cell_formula_units_Z 16
_cell_length_a 5.281003
_cell_length_b 22.924273
_cell_length_c 5.209426
_cell_angle_alpha 100.596965
_cell_angle_beta 84.879522
_cell_angle_gamma 95.032729
_cell_volume 615.799471
_symmetry_space_group_name_H-M "P -1"
_symmetry_group_IT_number 2
_symmetry_cell_setting 'triclinic'
loop_
_space_group_symop_operation_xyz
x,y,z
-x,-y,-z
loop_
_atom_site_type_symbol
_atom_site_label
_atom_site_fract_x
_atom_site_fract_y
_atom_site_fract_z
Si Si1 0.835481 0.533234 0.340923
Si Si2 0.072560 0.851212 0.615516
Si Si3 0.475738 0.806305 0.146091
Si Si4 0.183147 0.590695 0.982877
Si Si5 0.736222 0.924782 0.345304
Si Si6 0.687916 0.037018 0.204216
Si Si7 0.654373 0.752237 0.605292
Si Si8 0.691679 0.626621 0.740764
O O1 0.760182 0.479644 0.111657
O O2 0.620269 0.568420 0.522515
O O3 0.000000 0.500000 0.500000
O O4 0.025895 0.586123 0.254234
O O5 0.238455 0.825207 0.350424
O O6 0.207413 0.897433 0.846022
O O7 0.904300 0.898330 0.527624
O O8 0.901598 0.795355 0.687428
O O9 0.650958 0.867571 0.137026
O O10 0.602097 0.765509 0.321219
O O11 0.446642 0.774058 0.847949
O O12 0.454180 0.626577 0.959377
O O13 0.963746 0.615003 0.836291
O O14 0.480053 0.942833 0.523594
O O15 0.855946 0.983800 0.243224
O O16 0.500000 0.000000 0.000000
O O17 0.697055 0.685326 0.618743
#
# Coordination Sequence:
#
# PCOD9008817 Si02
#       8
#     2   2   2   2   2   2   2   2
#     4   9  21  42  70 105 144 185 232 295 364 426
#     4  10  23  45  71  94 136 186 226 290 364 424
#     4  10  25  46  69  97 139 177 240 296 351 424
#     4  10  23  42  68 105 143 185 235 296 362 428
#     4   9  21  41  61  99 129 173 224 282 356 430
#     4  10  21  39  66 100 133 166 226 292 352 436
#     4  11  27  47  68 103 137 189 243 292 354 427
#     4  11  25  42  70 101 142 188 243 295 356 429
#
# _framework density 25.982481
#
# number of rings (size 3 to 8) (size 9 to 14) (size 15 to 20)
#    0.000    2.000    0.000    0.750    8.750   10.000 
#    9.000    0.000    0.000    0.000    0.000    0.000 
#    0.000    0.000    0.000    0.000    0.000    0.000 
#
# Total GULP energy -89355.066304 kJ/mol
# GULP energy per Si atom -5584.691644 kJ/mol
# Density = 2.592334 g / cm^3
# Si number density = 25.982481 Si / 1000 Ang^3
#
#
#
# Elastic Constant Matrix: (Units=GPa)
#
#
# Indices 1 2 3 4 5 6 
#
# 1 73.0285 42.2730 6.2325 -9.2535 -6.8338 -3.4812
# 2 42.2730 160.1427 3.9751 -13.0728 -6.5069 0.7471
# 3 6.2325 3.9751 62.9301 -3.5048 -5.7005 4.9096
# 4 -9.2535 -13.0728 -3.5048 34.8943 -3.0899 -5.1810
# 5 -6.8338 -6.5069 -5.7005 -3.0899 40.1765 -8.7488
# 6 -3.4812 0.7471 4.9096 -5.1810 -8.7488 28.8212
#
#
#
# Elastic Compliance Matrix: (Units=1/GPa)
#
#
# Indices 1 2 3 4 5 6 
#
# 1 0.017133 -0.004069 -0.001251 0.003783 0.003252 0.004055
# 2 -0.004069 0.007486 0.000100 0.001762 0.000628 -0.000195
# 3 -0.001251 0.000100 0.016404 0.001180 0.001741 -0.002207
# 4 0.003783 0.001762 0.001180 0.032021 0.005202 0.007546
# 5 0.003252 0.000628 0.001741 0.005202 0.028283 0.009600
# 6 0.004055 -0.000195 -0.002207 0.007546 0.009600 0.039838
#
#
# Mechanical properties :
#
#
# Convention : Reuss Voigt Hill
#
# Bulk Modulus (GPa) = 32.69793 44.56249 38.63021
# Shear Modulus (GPa) = 30.90262 37.01978 33.96120
#
# Velocity S-wave (km/s) = 3.45246 3.77874 3.61928
# Velocity P-wave (km/s) = 5.33896 6.01887 5.68908
#
# Compressibility (1/GPa) = 0.03058298
#
# Stress axis : x y z
#
# Youngs Moduli (GPa) = 58.36833 133.57540 60.96137
#
# Poissons Ratio (x) = 0.54358 0.07625
# Poissons Ratio (y) = 0.23753 -0.00612
# Poissons Ratio (z) = 0.07301 -0.01341
#
# Static dielectric constant tensor:
#      x y z
#    x 2.236270 0.069380 0.016720 
#    y 0.069380 2.035760 -0.012450 
#    z 0.016720 -0.012450 2.118310 
# 
# From -- ./inp_files/11288.got.cif
#   From: 2010.05.17/outbox.cif.g08.bks.cpg/sg2_6_cif.got.tgz:11288.got - 2010.06.03 11:33:40.
