data_PCOD9008322
_publ_section_title
;
Structure prediction by ZEFSAII (Michael W. Deem and Ramdas Pophale) SiO2 
 PCOD9008322
Probable space group: P -1
;
_chemical_formula_sum "Si O2"
_cell_formula_units_Z 16
_cell_length_a 9.174868
_cell_length_b 9.240656
_cell_length_c 14.421909
_cell_angle_alpha 41.197211
_cell_angle_beta 82.231830
_cell_angle_gamma 69.384363
_cell_volume 736.883979
_symmetry_space_group_name_H-M "P -1"
_symmetry_group_IT_number 2
_symmetry_cell_setting 'triclinic'
loop_
_space_group_symop_operation_xyz
x,y,z
-x,-y,-z
loop_
_atom_site_type_symbol
_atom_site_label
_atom_site_fract_x
_atom_site_fract_y
_atom_site_fract_z
Si Si1 0.742033 0.137612 0.890943
Si Si2 0.974527 0.659213 0.518016
Si Si3 0.686083 0.927806 0.539458
Si Si4 0.927404 0.834772 0.194600
Si Si5 0.392095 0.432541 0.177623
Si Si6 0.518393 0.158185 0.739073
Si Si7 0.287079 0.704701 0.504648
Si Si8 0.339237 0.831242 0.840470
O O1 0.634055 0.398506 0.812955
O O2 0.634233 0.071818 0.859044
O O3 0.902132 0.145152 0.829292
O O4 0.812298 0.974216 0.053382
O O5 0.800587 0.812966 0.498254
O O6 0.000000 0.500000 0.500000
O O7 0.038777 0.438619 0.691377
O O8 0.106231 0.771728 0.455482
O O9 0.708424 0.727862 0.714106
O O10 0.500000 0.000000 0.500000
O O11 0.713353 0.150485 0.472650
O O12 0.834311 0.962428 0.234145
O O13 0.574514 0.274879 0.211671
O O14 0.335938 0.611591 0.008536
O O15 0.378183 0.417971 0.643474
O O16 0.616922 0.209640 0.621449
O O17 0.450133 0.960571 0.811893
#
# Coordination Sequence:
#
# PCOD9008322 Si02
#       8
#     2   2   2   2   2   2   2   2
#     4  10  21  40  66  94 127 173 219 275 331 394
#     4  12  26  44  70  99 132 178 226 276 340 399
#     4  12  26  44  69  98 137 177 220 275 338 402
#     4  10  21  39  64  94 128 166 220 274 326 392
#     4  10  21  39  64  93 125 168 213 267 327 387
#     4  11  22  41  67  99 131 172 226 274 331 390
#     4  11  25  42  66  99 139 176 220 281 329 397
#     4  10  21  40  68  90 127 168 216 271 326 393
#
# _framework density 21.713052000000001
#
# number of rings (size 3 to 8) (size 9 to 14) (size 15 to 20)
#    0.000    1.250    3.750    1.875    5.250    2.000 
#    2.250    0.000    0.000   12.750    0.000    0.000 
#    0.000    0.000    0.000    0.000    0.000    0.000 
#
# Total GULP energy -89324.015724 kJ/mol
# GULP energy per Si atom -5582.750983 kJ/mol
# Density = 2.166363 g / cm^3
# Si number density = 21.713052 Si / 1000 Ang^3
#
#
#
# Elastic Constant Matrix: (Units=GPa)
#
#
# Indices 1 2 3 4 5 6 
#
# 1 133.0674 68.7121 18.5896 6.7797 1.5672 -13.6306
# 2 68.7121 156.3499 24.4598 -0.6321 9.6604 -29.1728
# 3 18.5896 24.4598 64.6598 -9.8627 -6.4638 -9.9039
# 4 6.7797 -0.6321 -9.8627 30.4932 -5.0153 -4.6673
# 5 1.5672 9.6604 -6.4638 -5.0153 26.1043 0.3544
# 6 -13.6306 -29.1728 -9.9039 -4.6673 0.3544 52.2787
#
#
#
# Elastic Compliance Matrix: (Units=1/GPa)
#
#
# Indices 1 2 3 4 5 6 
#
# 1 0.010059 -0.004208 -0.001810 -0.002970 -0.000061 -0.000333
# 2 -0.004208 0.009536 -0.002115 0.000424 -0.003771 0.003887
# 3 -0.001810 -0.002115 0.019149 0.008136 0.007160 0.002654
# 4 -0.002970 0.000424 0.008136 0.038297 0.009335 0.004359
# 5 -0.000061 -0.003771 0.007160 0.009335 0.043276 -0.000224
# 6 -0.000333 0.003887 0.002654 0.004359 -0.000224 0.022104
#
#
# Mechanical properties :
#
#
# Convention : Reuss Voigt Hill
#
# Bulk Modulus (GPa) = 44.48694 64.17779 54.33236
# Shear Modulus (GPa) = 30.08804 37.92963 34.00884
#
# Velocity S-wave (km/s) = 3.72655 4.18408 3.96193
# Velocity P-wave (km/s) = 6.24895 7.27760 6.78280
#
# Compressibility (1/GPa) = 0.02247851
#
# Stress axis : x y z
#
# Youngs Moduli (GPa) = 99.41823 104.86713 52.22181
#
# Poissons Ratio (x) = 0.44125 0.09454
# Poissons Ratio (y) = 0.41832 0.11042
# Poissons Ratio (z) = 0.17998 0.22175
#
# Static dielectric constant tensor:
#      x y z
#    x 1.752460 -0.044150 0.017670 
#    y -0.044150 1.797050 0.019190 
#    z 0.017670 0.019190 1.911530 
# 
# From -- ./inp_files/494240.got.cif
#   From: 2010.05.17/outbox.cif.g08.bks.cpg/sg2_248_cif.got.tgz:494240.got - 2010.06.03 11:33:40.
