data_PCOD9008455
_publ_section_title
;
Structure prediction by ZEFSAII (Michael W. Deem and Ramdas Pophale) SiO2 
 PCOD9008455
Probable space group: P -1
;
_chemical_formula_sum "Si O2"
_cell_formula_units_Z 12
_cell_length_a 8.794925
_cell_length_b 5.440954
_cell_length_c 15.012533
_cell_angle_alpha 82.753090
_cell_angle_beta 50.319534
_cell_angle_gamma 110.964045
_cell_volume 449.069556
_symmetry_space_group_name_H-M "P -1"
_symmetry_group_IT_number 2
_symmetry_cell_setting 'triclinic'
loop_
_space_group_symop_operation_xyz
x,y,z
-x,-y,-z
loop_
_atom_site_type_symbol
_atom_site_label
_atom_site_fract_x
_atom_site_fract_y
_atom_site_fract_z
Si Si1 0.161909 0.397567 0.554757
Si Si2 0.286765 0.833137 0.018041
Si Si3 0.339509 0.422691 0.810446
Si Si4 0.482336 0.753914 0.579520
Si Si5 0.642788 0.228923 0.716043
Si Si6 0.977789 0.834997 0.895576
O O1 0.279235 0.477212 0.606069
O O2 0.259961 0.194368 0.502567
O O3 0.281521 0.664339 0.421842
O O4 0.884136 0.272610 0.662347
O O5 0.118672 0.467692 0.110387
O O6 0.425345 0.932142 0.865174
O O7 0.154125 0.997988 0.078375
O O8 0.500000 0.000000 0.000000
O O9 0.382439 0.683190 0.719351
O O10 0.576891 0.467162 0.760789
O O11 0.122867 0.311423 0.962683
O O12 0.249358 0.128048 0.793387
O O13 0.500000 0.000000 0.500000
#
# Coordination Sequence:
#
# PCOD9008455 Si02
#       6
#     2   2   2   2   2   2
#     4   9  20  42  61  93 128 177 217 277 337 402
#     4  11  24  43  67 102 136 179 230 284 343 401
#     4   9  21  41  67 100 133 183 221 282 338 410
#     4  10  21  39  64  98 132 170 226 274 344 403
#     4   9  20  41  65  89 135 172 226 276 337 406
#     4  10  23  44  68  98 138 182 229 276 345 409
#
# _framework density 26.721919
#
# number of rings (size 3 to 8) (size 9 to 14) (size 15 to 20)
#    0.000    2.333    0.000    0.500    4.667    6.000 
#   12.000    2.500    0.000    0.000    0.000    0.000 
#    0.000    0.000    0.000    0.000    0.000    0.000 
#
# Total GULP energy -66825.128903 kJ/mol
# GULP energy per Si atom -5568.760742 kJ/mol
# Density = 2.666110 g / cm^3
# Si number density = 26.721919 Si / 1000 Ang^3
#
#
#
# Elastic Constant Matrix: (Units=GPa)
#
#
# Indices 1 2 3 4 5 6 
#
# 1 150.0430 29.0467 30.4000 7.7610 -17.6526 -42.3164
# 2 29.0467 114.6480 17.0898 -23.0959 -6.6226 -19.9877
# 3 30.4000 17.0898 100.5253 -0.6503 -12.8545 -20.1987
# 4 7.7610 -23.0959 -0.6503 35.7783 -5.3275 7.4097
# 5 -17.6526 -6.6226 -12.8545 -5.3275 58.4530 10.5837
# 6 -42.3164 -19.9877 -20.1987 7.4097 10.5837 25.2607
#
#
#
# Elastic Compliance Matrix: (Units=1/GPa)
#
#
# Indices 1 2 3 4 5 6 
#
# 1 0.015245 -0.001094 0.001200 -0.010276 -0.001493 0.029271
# 2 -0.001094 0.011226 -0.000576 0.006662 0.000631 0.004370
# 3 0.001200 -0.000576 0.012111 -0.002774 0.000569 0.011815
# 4 -0.010276 0.006662 -0.002774 0.041288 0.006018 -0.028793
# 5 -0.001493 0.000631 0.000569 0.006018 0.019479 -0.011474
# 6 0.029271 0.004370 0.011815 -0.028793 -0.011474 0.114779
#
#
# Mechanical properties :
#
#
# Convention : Reuss Voigt Hill
#
# Bulk Modulus (GPa) = 26.56617 57.58770 42.07694
# Shear Modulus (GPa) = 21.96677 43.14371 32.55524
#
# Velocity S-wave (km/s) = 2.87025 4.02250 3.49420
# Velocity P-wave (km/s) = 4.57687 6.57050 5.66212
#
# Compressibility (1/GPa) = 0.03764186
#
# Stress axis : x y z
#
# Youngs Moduli (GPa) = 65.59715 89.07933 82.56679
#
# Poissons Ratio (x) = 0.09749 -0.09908
# Poissons Ratio (y) = 0.07179 0.04753
# Poissons Ratio (z) = -0.07872 0.05127
#
# Static dielectric constant tensor:
#      x y z
#    x 2.174120 0.086700 -0.028670 
#    y 0.086700 2.632000 0.268170 
#    z -0.028670 0.268170 2.372120 
# 
# From -- ./inp_files/24778.got.cif
#   From: 2010.05.17/outbox.cif.g08.bks.cpg/sg2_13_cif.got.tgz:24778.got - 2010.06.03 11:33:40.
