data_PCOD9008943
_publ_section_title
;
Structure prediction by ZEFSAII (Michael W. Deem and Ramdas Pophale) SiO2 
 PCOD9008943
Probable space group: P -1
;
_chemical_formula_sum "Si O2"
_cell_formula_units_Z 16
_cell_length_a 19.754141
_cell_length_b 15.744462
_cell_length_c 8.629361
_cell_angle_alpha 75.888636
_cell_angle_beta 66.109709
_cell_angle_gamma 18.745535
_cell_volume 693.783977
_symmetry_space_group_name_H-M "P -1"
_symmetry_group_IT_number 2
_symmetry_cell_setting 'triclinic'
loop_
_space_group_symop_operation_xyz
x,y,z
-x,-y,-z
loop_
_atom_site_type_symbol
_atom_site_label
_atom_site_fract_x
_atom_site_fract_y
_atom_site_fract_z
Si Si1 0.323865 0.271832 0.340053
Si Si2 0.931416 0.299316 0.025252
Si Si3 0.044859 0.871729 0.397033
Si Si4 0.438845 0.328251 0.087635
Si Si5 0.273077 0.921366 0.321333
Si Si6 0.184151 0.129699 0.625166
Si Si7 0.183030 0.761696 0.803397
Si Si8 0.638940 0.748385 0.342628
O O1 0.445821 0.228180 0.211214
O O2 0.225259 0.385513 0.559354
O O3 0.094085 0.518806 0.321361
O O4 0.528923 0.963023 0.280804
O O5 0.754653 0.472807 0.964328
O O6 0.156113 0.096741 0.814891
O O7 0.937179 0.197541 0.150056
O O8 0.793753 0.521497 0.170075
O O9 0.312773 0.547895 0.209770
O O10 0.000000 0.000000 0.500000
O O11 0.967998 0.867663 0.545690
O O12 0.843829 0.128885 0.339947
O O13 0.691205 0.070462 0.878355
O O14 0.530810 0.573738 0.256460
O O15 0.261608 0.989976 0.459095
O O16 0.392821 0.968457 0.519065
O O17 0.000000 0.000000 0.000000
#
# Coordination Sequence:
#
# PCOD9008943 Si02
#       8
#     2   2   2   2   2   2   2   2
#     4  10  24  44  67  96 142 160 217 278 312 398
#     4  10  21  39  66  94 127 164 225 264 315 392
#     4  12  25  39  62  94 129 167 213 265 325 378
#     4  10  21  43  61  91 130 170 211 270 321 379
#     4  11  21  42  68  87 128 171 215 261 321 381
#     4  11  21  43  70  96 128 178 216 261 331 385
#     4  11  20  41  64  87 124 167 213 268 306 378
#     4  11  23  45  66 102 128 175 213 265 337 377
#
# _framework density 23.061934000000001
#
# number of rings (size 3 to 8) (size 9 to 14) (size 15 to 20)
#    0.000    1.250    7.500    0.750    1.750    2.500 
#    6.750    1.250    0.000    0.000    0.000    0.000 
#    0.000    0.000    0.000    0.000    0.000    0.000 
#
# Total GULP energy -89344.336224 kJ/mol
# GULP energy per Si atom -5584.021014 kJ/mol
# Density = 2.300944 g / cm^3
# Si number density = 23.061934 Si / 1000 Ang^3
#
#
#
# Elastic Constant Matrix: (Units=GPa)
#
#
# Indices 1 2 3 4 5 6 
#
# 1 60.2547 15.1751 22.1320 5.3609 8.7295 19.5131
# 2 15.1751 78.1082 35.1624 -0.7118 2.0797 17.6007
# 3 22.1320 35.1624 131.4441 3.4308 -1.3733 19.2572
# 4 5.3609 -0.7118 3.4308 26.5413 10.3662 8.5547
# 5 8.7295 2.0797 -1.3733 10.3662 40.5204 5.7672
# 6 19.5131 17.6007 19.2572 8.5547 5.7672 41.4328
#
#
#
# Elastic Compliance Matrix: (Units=1/GPa)
#
#
# Indices 1 2 3 4 5 6 
#
# 1 0.020668 -0.001264 -0.002036 -0.000150 -0.003314 -0.007758
# 2 -0.001264 0.015740 -0.003342 0.003014 -0.000699 -0.005063
# 3 -0.002036 -0.003342 0.009160 -0.000792 0.001395 -0.001909
# 4 -0.000150 0.003014 -0.000792 0.044720 -0.010361 -0.008633
# 5 -0.003314 -0.000699 0.001395 -0.010361 0.028209 -0.000578
# 6 -0.007758 -0.005063 -0.001909 -0.008633 -0.000578 0.032690
#
#
# Mechanical properties :
#
#
# Convention : Reuss Voigt Hill
#
# Bulk Modulus (GPa) = 30.97501 46.08287 38.52894
# Shear Modulus (GPa) = 28.53364 34.85475 31.69419
#
# Velocity S-wave (km/s) = 3.52129 3.89183 3.71119
# Velocity P-wave (km/s) = 5.47659 6.34198 5.92511
#
# Compressibility (1/GPa) = 0.03228409
#
# Stress axis : x y z
#
# Youngs Moduli (GPa) = 48.38306 63.53364 109.17534
#
# Poissons Ratio (x) = 0.08029 0.22228
# Poissons Ratio (y) = 0.06115 0.36486
# Poissons Ratio (z) = 0.09851 0.21233
#
# Static dielectric constant tensor:
#      x y z
#    x 1.880490 0.003130 -0.086340 
#    y 0.003130 1.817110 0.061550 
#    z -0.086340 0.061550 1.784440 
# 
# From -- ./inp_files/215704.got.cif
#   From: 2010.05.17/outbox.cif.g08.bks.cpg/sg2_108_cif.got.tgz:215704.got - 2010.06.03 11:33:40.
