data_PCOD9008404
_publ_section_title
;
Structure prediction by ZEFSAII (Michael W. Deem and Ramdas Pophale) SiO2 
 PCOD9008404
Probable space group: P -1
;
_chemical_formula_sum "Si O2"
_cell_formula_units_Z 16
_cell_length_a 19.244332
_cell_length_b 29.105102
_cell_length_c 12.929274
_cell_angle_alpha 24.255946
_cell_angle_beta 35.650651
_cell_angle_gamma 18.896811
_cell_volume 892.894937
_symmetry_space_group_name_H-M "P -1"
_symmetry_group_IT_number 2
_symmetry_cell_setting 'triclinic'
loop_
_space_group_symop_operation_xyz
x,y,z
-x,-y,-z
loop_
_atom_site_type_symbol
_atom_site_label
_atom_site_fract_x
_atom_site_fract_y
_atom_site_fract_z
Si Si1 0.764668 0.753979 0.705188
Si Si2 0.730452 0.711630 0.417963
Si Si3 0.899223 0.506850 0.847287
Si Si4 0.385734 0.457097 0.806549
Si Si5 0.592369 0.818556 0.152295
Si Si6 0.567725 0.732902 0.137828
Si Si7 0.785955 0.984617 0.189058
Si Si8 0.280687 0.635296 0.348127
O O1 0.852203 0.627340 0.753436
O O2 0.857795 0.803468 0.516115
O O3 0.500000 0.000000 0.500000
O O4 0.744165 0.676480 0.979077
O O5 0.727999 0.669773 0.623703
O O6 0.614644 0.744918 0.390040
O O7 0.000000 0.500000 0.500000
O O8 0.613365 0.926977 0.118074
O O9 0.164405 0.311650 0.894082
O O10 0.829611 0.438859 0.104153
O O11 0.291862 0.604810 0.520685
O O12 0.529416 0.421294 0.782672
O O13 0.575933 0.213599 0.034129
O O14 0.558854 0.770542 0.190896
O O15 0.642560 0.544726 0.422392
O O16 0.323111 0.942690 0.942640
O O17 0.019188 0.869251 0.149154
#
# Coordination Sequence:
#
# PCOD9008404 Si02
#       8
#     2   2   2   2   2   2   2   2
#     4  10  17  29  47  78 110 134 165 207 260 307
#     4   9  20  37  52  76 106 130 168 214 265 318
#     4  11  19  33  52  77 108 137 172 215 256 308
#     4  10  21  33  47  74 104 145 181 211 241 302
#     4  10  21  33  55  79 102 137 167 211 272 309
#     4  10  20  33  49  78 109 134 172 209 256 317
#     4  10  19  31  48  71 106 145 173 212 251 302
#     4  10  20  34  48  69 109 145 180 207 247 298
#
# _framework density 17.919241
#
# number of rings (size 3 to 8) (size 9 to 14) (size 15 to 20)
#    0.000    2.000    3.750    2.625    1.750    2.000 
#    0.000    0.000    0.000    0.750    0.000    8.750 
#    0.000    0.000    0.000    0.000    0.000    0.000 
#
# Total GULP energy -89116.683160 kJ/mol
# GULP energy per Si atom -5569.792697 kJ/mol
# Density = 1.787846 g / cm^3
# Si number density = 17.919241 Si / 1000 Ang^3
#
#
#
# Elastic Constant Matrix: (Units=GPa)
#
#
# Indices 1 2 3 4 5 6 
#
# 1 116.1696 25.1467 23.3362 1.7164 11.9778 -0.1496
# 2 25.1467 48.0450 9.5103 -13.5943 -0.2753 -8.0429
# 3 23.3362 9.5103 47.5188 -8.5108 5.9037 0.5663
# 4 1.7164 -13.5943 -8.5108 20.0997 -3.6731 1.4977
# 5 11.9778 -0.2753 5.9037 -3.6731 31.7830 2.5829
# 6 -0.1496 -8.0429 0.5663 1.4977 2.5829 31.9958
#
#
#
# Elastic Compliance Matrix: (Units=1/GPa)
#
#
# Indices 1 2 3 4 5 6 
#
# 1 0.012093 -0.008188 -0.005437 -0.009641 -0.004645 -0.001079
# 2 -0.008188 0.032775 0.000969 0.023769 0.005397 0.006635
# 3 -0.005437 0.000969 0.025816 0.011863 -0.001311 -0.000688
# 4 -0.009641 0.023769 0.011863 0.073391 0.009997 0.001477
# 5 -0.004645 0.005397 -0.001311 0.009997 0.034816 -0.001920
# 6 -0.001079 0.006635 -0.000688 0.001477 -0.001920 0.033015
#
#
# Mechanical properties :
#
#
# Convention : Reuss Voigt Hill
#
# Bulk Modulus (GPa) = 22.04020 36.41331 29.22676
# Shear Modulus (GPa) = 19.81448 27.02505 23.41976
#
# Velocity S-wave (km/s) = 3.32891 3.88771 3.61911
# Velocity P-wave (km/s) = 5.20596 6.36532 5.81461
#
# Compressibility (1/GPa) = 0.04537163
#
# Stress axis : x y z
#
# Youngs Moduli (GPa) = 82.69431 30.51136 38.73561
#
# Poissons Ratio (x) = 0.24984 0.21059
# Poissons Ratio (y) = 0.67714 -0.03754
# Poissons Ratio (z) = 0.44959 -0.02957
#
# Static dielectric constant tensor:
#      x y z
#    x 1.670750 -0.028620 0.019390 
#    y -0.028620 1.661670 0.005350 
#    z 0.019390 0.005350 1.664290 
# 
# From -- ./inp_files/432301.got.cif
#   From: 2010.05.17/outbox.cif.g08.bks.cpg/sg2_217_cif.got.tgz:432301.got - 2010.06.03 11:33:40.
