data_PCOD9008633
_publ_section_title
;
Structure prediction by ZEFSAII (Michael W. Deem and Ramdas Pophale) SiO2 
 PCOD9008633
Probable space group: P -1
;
_chemical_formula_sum "Si O2"
_cell_formula_units_Z 14
_cell_length_a 10.130551
_cell_length_b 5.230323
_cell_length_c 19.012787
_cell_angle_alpha 101.097429
_cell_angle_beta 42.401925
_cell_angle_gamma 101.228769
_cell_volume 664.514169
_symmetry_space_group_name_H-M "P -1"
_symmetry_group_IT_number 2
_symmetry_cell_setting 'triclinic'
loop_
_space_group_symop_operation_xyz
x,y,z
-x,-y,-z
loop_
_atom_site_type_symbol
_atom_site_label
_atom_site_fract_x
_atom_site_fract_y
_atom_site_fract_z
Si Si1 0.002438 0.574778 0.330515
Si Si2 0.572948 0.439086 0.856521
Si Si3 0.195030 0.168080 0.453400
Si Si4 0.941252 0.001463 0.260717
Si Si5 0.328605 0.156444 0.043175
Si Si6 0.517251 0.354042 0.236964
Si Si7 0.589303 0.933742 0.290766
O O1 0.233299 0.667911 0.259735
O O2 0.977058 0.267597 0.306108
O O3 0.865637 0.637066 0.452439
O O4 0.946681 0.751679 0.295724
O O5 0.662587 0.582151 0.898390
O O6 0.493147 0.636325 0.842140
O O7 0.398066 0.240416 0.942547
O O8 0.296863 0.308326 0.352893
O O9 0.367643 0.992522 0.402495
O O10 0.000000 0.000000 0.500000
O O11 0.119411 0.008777 0.134266
O O12 0.739815 0.999180 0.297421
O O13 0.500000 0.000000 0.000000
O O14 0.628039 0.129651 0.219585
O O15 0.598461 0.638173 0.246731
#
# Coordination Sequence:
#
# PCOD9008633 Si02
#       7
#     2   2   2   2   2   2   2
#     4  11  24  37  67  93 125 169 205 257 310 360
#     4  10  22  39  63  96 123 158 208 262 314 359
#     4  10  25  40  64  96 125 165 210 251 306 373
#     4  11  24  43  63  91 131 162 212 254 310 366
#     4  10  21  39  65  93 119 160 209 262 309 366
#     4  10  24  42  64  89 131 162 207 254 309 368
#     4  10  24  43  62  90 131 169 202 255 304 370
#
# _framework density 21.068023
#
# number of rings (size 3 to 8) (size 9 to 14) (size 15 to 20)
#    0.857    0.857    1.429    1.714    8.000    2.286 
#    0.000    1.429    0.000    0.000    0.000    0.000 
#    0.000    0.000    0.000    0.000    0.000    0.000 
#
# Total GULP energy -78134.488933 kJ/mol
# GULP energy per Si atom -5581.034924 kJ/mol
# Density = 2.102007 g / cm^3
# Si number density = 21.068023 Si / 1000 Ang^3
#
#
#
# Elastic Constant Matrix: (Units=GPa)
#
#
# Indices 1 2 3 4 5 6 
#
# 1 58.9004 1.5934 9.0597 -5.5037 -9.9214 -5.8213
# 2 1.5934 74.3370 12.4734 -0.4786 2.7080 -12.4636
# 3 9.0597 12.4734 52.7718 -10.3767 0.6248 -1.3010
# 4 -5.5037 -0.4786 -10.3767 23.3248 -6.9655 7.2020
# 5 -9.9214 2.7080 0.6248 -6.9655 31.6273 -8.6125
# 6 -5.8213 -12.4636 -1.3010 7.2020 -8.6125 33.1522
#
#
#
# Elastic Compliance Matrix: (Units=1/GPa)
#
#
# Indices 1 2 3 4 5 6 
#
# 1 0.019689 0.000533 -0.002591 0.004566 0.008486 0.004769
# 2 0.000533 0.015193 -0.004196 -0.003415 -0.000070 0.006364
# 3 -0.002591 -0.004196 0.022346 0.010408 0.000502 -0.003286
# 4 0.004566 -0.003415 0.010408 0.054617 0.011081 -0.009060
# 5 0.008486 -0.000070 0.000502 0.011081 0.039241 0.009271
# 6 0.004769 0.006364 -0.003286 -0.009060 0.009271 0.037642
#
#
# Mechanical properties :
#
#
# Convention : Reuss Voigt Hill
#
# Bulk Modulus (GPa) = 22.36239 25.80691 24.08465
# Shear Modulus (GPa) = 23.13276 28.47971 25.80624
#
# Velocity S-wave (km/s) = 3.31721 3.68067 3.50366
# Velocity P-wave (km/s) = 5.03083 5.50809 5.27486
#
# Compressibility (1/GPa) = 0.04471795
#
# Stress axis : x y z
#
# Youngs Moduli (GPa) = 50.78883 65.82167 44.75092
#
# Poissons Ratio (x) = -0.03505 0.11596
# Poissons Ratio (y) = -0.02705 0.18779
# Poissons Ratio (z) = 0.13160 0.27621
#
# Static dielectric constant tensor:
#      x y z
#    x 1.733610 -0.008880 0.007110 
#    y -0.008880 1.795870 0.017650 
#    z 0.007110 0.017650 1.819460 
# 
# From -- ./inp_files/552893.got.cif
#   From: 2010.05.17/outbox.cif.g08.bks.cpg/sg2_277_cif.got.tgz:552893.got - 2010.06.03 11:33:40.
