data_PCOD9008374
_publ_section_title
;
Structure prediction by ZEFSAII (Michael W. Deem and Ramdas Pophale) SiO2 
 PCOD9008374
Probable space group: P -1
;
_chemical_formula_sum "Si O2"
_cell_formula_units_Z 16
_cell_length_a 8.948105
_cell_length_b 20.542546
_cell_length_c 13.135155
_cell_angle_alpha 147.683104
_cell_angle_beta 32.614368
_cell_angle_gamma 127.966104
_cell_volume 655.399620
_symmetry_space_group_name_H-M "P -1"
_symmetry_group_IT_number 2
_symmetry_cell_setting 'triclinic'
loop_
_space_group_symop_operation_xyz
x,y,z
-x,-y,-z
loop_
_atom_site_type_symbol
_atom_site_label
_atom_site_fract_x
_atom_site_fract_y
_atom_site_fract_z
Si Si1 0.763291 0.023128 0.948709
Si Si2 0.833110 0.407306 0.582356
Si Si3 0.735647 0.736002 0.398512
Si Si4 0.240630 0.784299 0.455650
Si Si5 0.893533 0.073181 0.554960
Si Si6 0.499383 0.690067 0.965744
Si Si7 0.466403 0.577242 0.439972
Si Si8 0.150330 0.329709 0.981429
O O1 0.004175 0.022908 0.725051
O O2 0.954985 0.910845 0.766125
O O3 0.500000 0.000000 0.000000
O O4 0.593705 0.156992 0.277601
O O5 0.821775 0.305303 0.539794
O O6 0.614406 0.421691 0.632588
O O7 0.152406 0.362904 0.287948
O O8 0.794592 0.542185 0.838387
O O9 0.943385 0.820607 0.409466
O O10 0.713887 0.644461 0.383374
O O11 0.840084 0.668245 0.142495
O O12 0.562576 0.792199 0.312329
O O13 0.324651 0.717665 0.208625
O O14 0.000000 0.000000 0.500000
O O15 0.565745 0.171784 0.869650
O O16 0.441566 0.573285 0.783112
O O17 0.172910 0.657722 0.775580
#
# Coordination Sequence:
#
# PCOD9008374 Si02
#       8
#     2   2   2   2   2   2   2   2
#     4   9  23  43  59  85 119 167 211 255 302 359
#     4  11  20  36  65  96 130 163 197 254 315 376
#     4  11  24  41  62  91 130 164 202 265 311 353
#     4  11  19  36  64  90 123 164 210 242 310 372
#     4  10  24  45  69  85 119 171 218 255 303 370
#     4  10  21  39  64  95 121 166 209 250 306 374
#     4  11  21  39  63  96 135 155 199 258 316 374
#     4  11  21  37  61  97 128 160 201 253 313 373
#
# _framework density 24.412586999999998
#
# number of rings (size 3 to 8) (size 9 to 14) (size 15 to 20)
#    0.000    1.500    3.750    1.875    5.250    1.000 
#    0.000    4.375    0.000    0.000    0.000    0.000 
#    0.000    0.000    0.000    0.000    0.000    0.000 
#
# Total GULP energy -89335.648871 kJ/mol
# GULP energy per Si atom -5583.478054 kJ/mol
# Density = 2.435702 g / cm^3
# Si number density = 24.412587 Si / 1000 Ang^3
#
#
#
# Elastic Constant Matrix: (Units=GPa)
#
#
# Indices 1 2 3 4 5 6 
#
# 1 52.0841 20.0671 22.3274 -4.6972 -13.8155 -18.6677
# 2 20.0671 89.5968 11.3330 -16.7270 7.8144 -17.4368
# 3 22.3274 11.3330 112.9120 -5.5547 2.0377 -20.0037
# 4 -4.6972 -16.7270 -5.5547 29.0684 -11.4256 -5.6162
# 5 -13.8155 7.8144 2.0377 -11.4256 33.7583 6.0894
# 6 -18.6677 -17.4368 -20.0037 -5.6162 6.0894 38.9047
#
#
#
# Elastic Compliance Matrix: (Units=1/GPa)
#
#
# Indices 1 2 3 4 5 6 
#
# 1 0.030944 -0.003937 -0.003695 0.010039 0.015351 0.010230
# 2 -0.003937 0.015174 0.001001 0.008222 -0.003698 0.007192
# 3 -0.003695 0.001001 0.010464 0.001873 -0.002595 0.004733
# 4 0.010039 0.008222 0.001873 0.050365 0.016588 0.014140
# 5 0.015351 -0.003698 -0.002595 0.016588 0.042511 0.000114
# 6 0.010230 0.007192 0.004733 0.014140 0.000114 0.038293
#
#
# Mechanical properties :
#
#
# Convention : Reuss Voigt Hill
#
# Bulk Modulus (GPa) = 23.08365 40.22756 31.65561
# Shear Modulus (GPa) = 23.20706 33.73732 28.47219
#
# Velocity S-wave (km/s) = 3.08656 3.72151 3.41881
# Velocity P-wave (km/s) = 4.70942 5.91440 5.34597
#
# Compressibility (1/GPa) = 0.04332070
#
# Stress axis : x y z
#
# Youngs Moduli (GPa) = 32.31620 65.90407 95.56597
#
# Poissons Ratio (x) = 0.25946 0.35307
# Poissons Ratio (y) = 0.12723 -0.09566
# Poissons Ratio (z) = 0.11939 -0.06597
#
# Static dielectric constant tensor:
#      x y z
#    x 2.117330 0.081870 -0.133780 
#    y 0.081870 2.013220 0.020470 
#    z -0.133780 0.020470 2.092990 
# 
# From -- ./inp_files/472484.got.cif
#   From: 2010.05.17/outbox.cif.g08.bks.cpg/sg2_237_cif.got.tgz:472484.got - 2010.06.03 11:33:40.
