data_PCOD9008879
_publ_section_title
;
Structure prediction by ZEFSAII (Michael W. Deem and Ramdas Pophale) SiO2 
 PCOD9008879
Probable space group: P -1
;
_chemical_formula_sum "Si O2"
_cell_formula_units_Z 14
_cell_length_a 9.618668
_cell_length_b 11.319202
_cell_length_c 7.936746
_cell_angle_alpha 111.746527
_cell_angle_beta 69.797039
_cell_angle_gamma 65.565010
_cell_volume 590.195187
_symmetry_space_group_name_H-M "P -1"
_symmetry_group_IT_number 2
_symmetry_cell_setting 'triclinic'
loop_
_space_group_symop_operation_xyz
x,y,z
-x,-y,-z
loop_
_atom_site_type_symbol
_atom_site_label
_atom_site_fract_x
_atom_site_fract_y
_atom_site_fract_z
Si Si1 0.061476 0.307117 0.520576
Si Si2 0.274924 0.087118 0.636683
Si Si3 0.492721 0.704876 0.047384
Si Si4 0.328589 0.609520 0.348129
Si Si5 0.204339 0.894427 0.767309
Si Si6 0.103808 0.392200 0.069204
Si Si7 0.323370 0.003090 0.065203
O O1 0.196193 0.187491 0.550561
O O2 0.861963 0.342256 0.631596
O O3 0.025972 0.476123 0.659317
O O4 0.153382 0.193880 0.258280
O O5 0.500000 0.000000 0.500000
O O6 0.218739 0.970780 0.630899
O O7 0.154733 0.222395 0.905460
O O8 0.539624 0.585479 0.807858
O O9 0.687197 0.664865 0.007891
O O10 0.422639 0.655791 0.202441
O O11 0.344951 0.888975 0.145715
O O12 0.277819 0.715488 0.592452
O O13 0.328263 0.913506 0.851337
O O14 0.000000 0.000000 0.000000
O O15 0.000000 0.500000 0.000000
O O16 0.500000 0.000000 0.000000
#
# Coordination Sequence:
#
# PCOD9008879 Si02
#       7
#     2   2   2   2   2   2   2
#     4  10  21  39  66  90 123 166 220 262 311 381
#     4  11  22  40  67  92 126 172 222 266 311 383
#     4  10  22  41  69  92 124 164 222 263 313 380
#     4  10  22  43  65  93 123 168 216 267 316 383
#     4  12  25  40  61  96 136 166 210 262 329 388
#     4   9  19  38  62  97 119 156 214 269 308 362
#     4  12  25  42  63  94 131 172 210 263 329 384
#
# _framework density 23.720966000000001
#
# number of rings (size 3 to 8) (size 9 to 14) (size 15 to 20)
#    0.000    1.429    1.429    4.286    2.000    2.857 
#    2.571    2.143    0.000    0.000    0.000    0.000 
#    0.000    0.000    0.000    0.000    0.000    0.000 
#
# Total GULP energy -78120.164158 kJ/mol
# GULP energy per Si atom -5580.011726 kJ/mol
# Density = 2.366698 g / cm^3
# Si number density = 23.720966 Si / 1000 Ang^3
#
#
#
# Elastic Constant Matrix: (Units=GPa)
#
#
# Indices 1 2 3 4 5 6 
#
# 1 56.5415 0.2207 14.1242 13.6631 25.4035 4.1962
# 2 0.2207 69.7406 27.6765 22.4079 9.2313 -0.1837
# 3 14.1242 27.6765 147.0069 38.6281 43.0737 2.1055
# 4 13.6631 22.4079 38.6281 49.3468 12.0163 11.6231
# 5 25.4035 9.2313 43.0737 12.0163 52.3239 -2.1352
# 6 4.1962 -0.1837 2.1055 11.6231 -2.1352 28.8590
#
#
#
# Elastic Compliance Matrix: (Units=1/GPa)
#
#
# Indices 1 2 3 4 5 6 
#
# 1 0.024699 0.002658 0.002761 -0.006448 -0.013341 -0.002166
# 2 0.002658 0.017597 -0.000973 -0.008295 -0.001566 0.003022
# 3 0.002761 -0.000973 0.011118 -0.007166 -0.008634 0.001028
# 4 -0.006448 -0.008295 -0.007166 0.033701 0.002264 -0.011998
# 5 -0.013341 -0.001566 -0.008634 0.002264 0.032618 0.004061
# 6 -0.002166 0.003022 0.001028 -0.011998 0.004061 0.040043
#
#
# Mechanical properties :
#
#
# Convention : Reuss Voigt Hill
#
# Bulk Modulus (GPa) = 16.04993 39.70354 27.87673
# Shear Modulus (GPa) = 29.12844 41.52377 35.32610
#
# Velocity S-wave (km/s) = 3.50803 4.18845 3.86325
# Velocity P-wave (km/s) = 4.81552 6.33758 5.62824
#
# Compressibility (1/GPa) = 0.06230557
#
# Stress axis : x y z
#
# Youngs Moduli (GPa) = 40.48788 56.82729 89.94247
#
# Poissons Ratio (x) = -0.15106 -0.24831
# Poissons Ratio (y) = -0.10762 0.08753
# Poissons Ratio (z) = -0.11178 0.05530
#
# Static dielectric constant tensor:
#      x y z
#    x 1.869330 -0.014750 0.038640 
#    y -0.014750 1.910880 0.003700 
#    z 0.038640 0.003700 2.075880 
# 
# From -- ./inp_files/154254.got.cif
#   From: 2010.05.17/outbox.cif.g08.bks.cpg/sg2_78_cif.got.tgz:154254.got - 2010.06.03 11:33:40.
