data_PCOD9008686
_publ_section_title
;
Structure prediction by ZEFSAII (Michael W. Deem and Ramdas Pophale) SiO2 
 PCOD9008686
Probable space group: P -1
;
_chemical_formula_sum "Si O2"
_cell_formula_units_Z 12
_cell_length_a 7.910782
_cell_length_b 7.399712
_cell_length_c 15.715758
_cell_angle_alpha 133.734510
_cell_angle_beta 50.495714
_cell_angle_gamma 125.703111
_cell_volume 495.523708
_symmetry_space_group_name_H-M "P -1"
_symmetry_group_IT_number 2
_symmetry_cell_setting 'triclinic'
loop_
_space_group_symop_operation_xyz
x,y,z
-x,-y,-z
loop_
_atom_site_type_symbol
_atom_site_label
_atom_site_fract_x
_atom_site_fract_y
_atom_site_fract_z
Si Si1 0.294754 0.858238 0.959158
Si Si2 0.285191 0.275385 0.468343
Si Si3 0.160653 0.865149 0.523004
Si Si4 0.996356 0.105730 0.229443
Si Si5 0.600127 0.975607 0.200674
Si Si6 0.544069 0.448942 0.750684
O O1 0.351699 0.588325 0.829601
O O2 0.316599 0.029854 0.923169
O O3 0.500000 0.000000 0.000000
O O4 0.069818 0.863588 0.084146
O O5 0.500000 0.500000 0.500000
O O6 0.204273 0.107814 0.524278
O O7 0.383679 0.093415 0.313194
O O8 0.070093 0.327978 0.505242
O O9 0.628609 0.262715 0.596605
O O10 0.109524 0.938709 0.657865
O O11 0.225869 0.331280 0.233021
O O12 0.807152 0.161790 0.246340
O O13 0.534990 0.714881 0.191855
#
# Coordination Sequence:
#
# PCOD9008686 Si02
#       6
#     2   2   2   2   2   2
#     4  10  23  43  65  91 127 167 209 258 311 371
#     4  10  21  39  65  94 129 165 207 262 309 368
#     4  10  22  40  64  96 125 164 212 254 315 371
#     4  11  23  40  64  93 127 164 208 260 311 371
#     4  11  24  41  64  95 124 166 215 252 312 376
#     4  10  23  43  66  90 128 168 204 260 311 367
#
# _framework density 24.216802999999999
#
# number of rings (size 3 to 8) (size 9 to 14) (size 15 to 20)
#    0.000    1.667    0.000    4.000    0.000   10.000 
#    0.000    5.000    0.000    0.000    0.000    0.000 
#    0.000    0.000    0.000    0.000    0.000    0.000 
#
# Total GULP energy -67154.298766 kJ/mol
# GULP energy per Si atom -5596.191564 kJ/mol
# Density = 2.416168 g / cm^3
# Si number density = 24.216803 Si / 1000 Ang^3
#
#
#
# Elastic Constant Matrix: (Units=GPa)
#
#
# Indices 1 2 3 4 5 6 
#
# 1 75.2063 10.3464 67.6164 -10.9089 -14.2320 4.3474
# 2 10.3464 94.6419 44.6504 -27.2193 1.8691 4.2234
# 3 67.6164 44.6504 194.1699 -37.8726 -8.4384 -24.9616
# 4 -10.9089 -27.2193 -37.8726 26.6535 -12.1861 -0.3277
# 5 -14.2320 1.8691 -8.4384 -12.1861 57.8700 3.5152
# 6 4.3474 4.2234 -24.9616 -0.3277 3.5152 35.1553
#
#
#
# Elastic Compliance Matrix: (Units=1/GPa)
#
#
# Indices 1 2 3 4 5 6 
#
# 1 0.023372 0.002559 -0.009807 0.000383 0.004963 -0.010653
# 2 0.002559 0.015912 -0.001617 0.016598 0.003592 -0.003581
# 3 -0.009807 -0.001617 0.013102 0.013922 0.001835 0.010656
# 4 0.000383 0.016598 0.013922 0.083023 0.018661 0.006752
# 5 0.004963 0.003592 0.001835 0.018661 0.022693 -0.001837
# 6 -0.010653 -0.003581 0.010656 0.006752 -0.001837 0.038006
#
#
# Mechanical properties :
#
#
# Convention : Reuss Voigt Hill
#
# Bulk Modulus (GPa) = 28.85420 67.69383 48.27402
# Shear Modulus (GPa) = 22.18384 40.02942 31.10663
#
# Velocity S-wave (km/s) = 3.02992 4.07007 3.58789
# Velocity P-wave (km/s) = 4.91745 7.07822 6.09437
#
# Compressibility (1/GPa) = 0.03465700
#
# Stress axis : x y z
#
# Youngs Moduli (GPa) = 42.78587 62.84724 76.32321
#
# Poissons Ratio (x) = -0.16083 0.74847
# Poissons Ratio (y) = -0.10949 0.12341
# Poissons Ratio (z) = 0.41958 0.10162
#
# Static dielectric constant tensor:
#      x y z
#    x 1.885720 -0.012980 -0.053140 
#    y -0.012980 1.995810 0.118380 
#    z -0.053140 0.118380 2.030680 
# 
# From -- ./inp_files/338360.got.cif
#   From: 2010.05.17/outbox.cif.g08.bks.cpg/sg2_170_cif.got.tgz:338360.got - 2010.06.03 11:33:40.
