data_PCOD9008744
_publ_section_title
;
Structure prediction by ZEFSAII (Michael W. Deem and Ramdas Pophale) SiO2 
 PCOD9008744
Probable space group: P -1
;
_chemical_formula_sum "Si O2"
_cell_formula_units_Z 16
_cell_length_a 14.822083
_cell_length_b 8.010706
_cell_length_c 11.272807
_cell_angle_alpha 65.931018
_cell_angle_beta 125.658821
_cell_angle_gamma 69.741618
_cell_volume 612.336279
_symmetry_space_group_name_H-M "P -1"
_symmetry_group_IT_number 2
_symmetry_cell_setting 'triclinic'
loop_
_space_group_symop_operation_xyz
x,y,z
-x,-y,-z
loop_
_atom_site_type_symbol
_atom_site_label
_atom_site_fract_x
_atom_site_fract_y
_atom_site_fract_z
Si Si1 0.761138 0.159376 0.247297
Si Si2 0.556224 0.666416 0.108975
Si Si3 0.366468 0.332193 0.561976
Si Si4 0.368839 0.439347 0.193100
Si Si5 0.779305 0.143378 0.842915
Si Si6 0.856886 0.500666 0.296132
Si Si7 0.046225 0.585180 0.331000
Si Si8 0.322269 0.096353 0.271359
O O1 0.679330 0.335480 0.257578
O O2 0.647445 0.125303 0.136117
O O3 0.700146 0.381124 0.033124
O O4 0.973073 0.848710 0.504571
O O5 0.578471 0.684935 0.257403
O O6 0.652379 0.695096 0.092114
O O7 0.254050 0.647146 0.330270
O O8 0.225449 0.347325 0.459542
O O9 0.532207 0.090719 0.671027
O O10 0.363839 0.612996 0.234897
O O11 0.256345 0.393943 0.143888
O O12 0.567730 0.102084 0.468012
O O13 0.787719 0.944369 0.832654
O O14 0.949369 0.898000 0.130187
O O15 0.895914 0.484536 0.468554
O O16 0.896887 0.619828 0.208726
#
# Coordination Sequence:
#
# PCOD9008744 Si02
#       8
#     2   2   2   2   2   2   2   2
#     4  11  21  40  65  90 132 177 213 273 322 391
#     4  10  23  38  63  96 123 177 217 260 335 384
#     4  10  21  40  62  94 128 166 210 272 326 388
#     4  10  21  39  65  96 128 166 220 263 326 389
#     4  11  20  40  69  91 127 172 211 266 328 388
#     4  10  22  42  59  92 133 169 219 274 316 390
#     4  10  22  39  61  91 126 170 216 264 329 386
#     4  10  22  38  67  96 127 167 213 274 319 391
#
# _framework density 26.129432999999999
#
# number of rings (size 3 to 8) (size 9 to 14) (size 15 to 20)
#    0.000    1.750    1.250    3.750    1.750    2.000 
#    0.000    3.750    0.000    5.250    0.000    0.000 
#    0.000    0.000    0.000    0.000    0.000    0.000 
#
# Total GULP energy -89230.194236 kJ/mol
# GULP energy per Si atom -5576.887140 kJ/mol
# Density = 2.606996 g / cm^3
# Si number density = 26.129433 Si / 1000 Ang^3
#
#
#
# Elastic Constant Matrix: (Units=GPa)
#
#
# Indices 1 2 3 4 5 6 
#
# 1 57.1210 18.6926 38.8423 10.8609 45.6122 19.6192
# 2 18.6926 93.4029 27.4497 -1.1712 -16.5748 0.6613
# 3 38.8423 27.4497 84.2684 -19.3129 -34.2428 1.5511
# 4 10.8609 -1.1712 -19.3129 21.3434 -13.1699 -0.2527
# 5 45.6122 -16.5748 -34.2428 -13.1699 -5.9582 -11.6260
# 6 19.6192 0.6613 1.5511 -0.2527 -11.6260 32.6333
#
#
#
# Elastic Compliance Matrix: (Units=1/GPa)
#
#
# Indices 1 2 3 4 5 6 
#
# 1 0.005660 -0.000124 0.003189 0.006492 0.010519 0.000246
# 2 -0.000124 0.012061 -0.004670 -0.003495 0.000009 0.000028
# 3 0.003189 -0.004670 0.009091 0.001373 -0.007963 -0.005081
# 4 0.006492 -0.003495 0.001373 0.036477 -0.013005 -0.008248
# 5 0.010519 0.000009 -0.007963 -0.013005 -0.000605 -0.006262
# 6 0.000246 0.000028 -0.005081 -0.008248 -0.006262 0.028442
#
#
# Mechanical properties :
#
#
# Convention : Reuss Voigt Hill
#
# Bulk Modulus (GPa) = 42.36723 44.97351 43.67037
# Shear Modulus (GPa) = 48.92270 19.59088 34.25679
#
# Velocity S-wave (km/s) = 4.33173 2.74115 3.62476
# Velocity P-wave (km/s) = 6.42402 5.22185 5.85388
#
# Compressibility (1/GPa) = 0.02360315
#
# Stress axis : x y z
#
# Youngs Moduli (GPa) = 176.66822 82.91236 110.00472
#
# Poissons Ratio (x) = 0.01026 -0.35080
# Poissons Ratio (y) = 0.02185 0.51368
# Poissons Ratio (z) = -0.56339 0.38717
#
# Static dielectric constant tensor:
#      x y z
#    x 2.125340 0.117590 0.070660 
#    y 0.117590 2.135070 0.023870 
#    z 0.070660 0.023870 2.085670 
# 
# From -- ./inp_files/446977.got.cif
#   From: 2010.05.17/outbox.cif.g08.bks.cpg/sg2_224_cif.got.tgz:446977.got - 2010.06.03 11:33:40.
