data_PCOD9008800
_publ_section_title
;
Structure prediction by ZEFSAII (Michael W. Deem and Ramdas Pophale) SiO2 
 PCOD9008800
Probable space group: P -1
;
_chemical_formula_sum "Si O2"
_cell_formula_units_Z 14
_cell_length_a 12.996741
_cell_length_b 5.403168
_cell_length_c 15.691062
_cell_angle_alpha 117.081807
_cell_angle_beta 42.772298
_cell_angle_gamma 121.580203
_cell_volume 632.662698
_symmetry_space_group_name_H-M "P -1"
_symmetry_group_IT_number 2
_symmetry_cell_setting 'triclinic'
loop_
_space_group_symop_operation_xyz
x,y,z
-x,-y,-z
loop_
_atom_site_type_symbol
_atom_site_label
_atom_site_fract_x
_atom_site_fract_y
_atom_site_fract_z
Si Si1 0.892888 0.271256 0.463687
Si Si2 0.589336 0.374077 0.600430
Si Si3 0.973601 0.679952 0.803434
Si Si4 0.803881 0.649793 0.370759
Si Si5 0.419582 0.761108 0.835273
Si Si6 0.248357 0.224361 0.764819
Si Si7 0.396073 0.403060 0.963291
O O1 0.720002 0.315935 0.572420
O O2 0.000000 0.500000 0.500000
O O3 0.973482 0.318305 0.327748
O O4 0.863666 0.927800 0.440448
O O5 0.672563 0.398564 0.461932
O O6 0.556928 0.681813 0.686245
O O7 0.409543 0.157033 0.685826
O O8 0.038347 0.429385 0.763309
O O9 0.789670 0.640744 0.914344
O O10 0.083030 0.970366 0.829809
O O11 0.727030 0.715258 0.341440
O O12 0.261251 0.519287 0.855089
O O13 0.442306 0.647065 0.898645
O O14 0.414877 0.086953 0.880291
O O15 0.500000 0.500000 0.000000
#
# Coordination Sequence:
#
# PCOD9008800 Si02
#       7
#     2   2   2   2   2   2   2
#     4  10  23  39  64  95 134 176 223 279 335 410
#     4   9  22  39  65 100 132 171 227 272 348 401
#     4  10  25  41  66  97 131 179 222 285 339 400
#     4  10  21  39  65  98 135 177 211 291 339 403
#     4  10  27  44  73 102 129 187 225 285 332 402
#     4   9  22  41  66  99 137 167 230 274 352 400
#     4  12  28  49  70  98 137 184 233 278 337 404
#
# _framework density 22.128696000000001
#
# number of rings (size 3 to 8) (size 9 to 14) (size 15 to 20)
#    0.857    1.143    0.000    0.857   10.000   10.857 
#    0.000    0.000    0.000    0.000    0.000    0.000 
#    0.000    0.000    0.000    0.000    0.000    0.000 
#
# Total GULP energy -78056.600842 kJ/mol
# GULP energy per Si atom -5575.471489 kJ/mol
# Density = 2.207833 g / cm^3
# Si number density = 22.128696 Si / 1000 Ang^3
#
#
#
# Elastic Constant Matrix: (Units=GPa)
#
#
# Indices 1 2 3 4 5 6 
#
# 1 97.4823 32.3483 21.9159 -3.9304 -9.3587 21.8765
# 2 32.3483 58.9679 16.3271 21.4918 -6.9475 11.2279
# 3 21.9159 16.3271 85.1494 10.2080 -29.4229 -2.9830
# 4 -3.9304 21.4918 10.2080 34.7994 0.9067 2.8255
# 5 -9.3587 -6.9475 -29.4229 0.9067 41.5318 3.3182
# 6 21.8765 11.2279 -2.9830 2.8255 3.3182 34.3623
#
#
#
# Elastic Compliance Matrix: (Units=1/GPa)
#
#
# Indices 1 2 3 4 5 6 
#
# 1 0.016836 -0.010216 -0.003974 0.010076 -0.000269 -0.008528
# 2 -0.010216 0.030638 0.000365 -0.020102 0.003695 -0.002180
# 3 -0.003974 0.000365 0.017542 -0.006391 0.011465 0.003352
# 4 0.010076 -0.020102 -0.006391 0.044609 -0.006317 -0.003459
# 5 -0.000269 0.003695 0.011465 -0.006317 0.033113 -0.002719
# 6 -0.008528 -0.002180 0.003352 -0.003459 -0.002719 0.036081
#
#
# Mechanical properties :
#
#
# Convention : Reuss Voigt Hill
#
# Bulk Modulus (GPa) = 26.76210 42.53136 34.64673
# Shear Modulus (GPa) = 22.83897 33.53926 28.18911
#
# Velocity S-wave (km/s) = 3.21611 3.89735 3.57301
# Velocity P-wave (km/s) = 5.09031 6.28603 5.71950
#
# Compressibility (1/GPa) = 0.03736628
#
# Stress axis : x y z
#
# Youngs Moduli (GPa) = 59.39715 32.63910 57.00540
#
# Poissons Ratio (x) = 0.33343 0.22655
# Poissons Ratio (y) = 0.60677 -0.02079
# Poissons Ratio (z) = 0.23605 -0.01190
#
# Static dielectric constant tensor:
#      x y z
#    x 1.819880 -0.036490 0.025760 
#    y -0.036490 1.896880 0.011640 
#    z 0.025760 0.011640 1.809650 
# 
# From -- ./inp_files/564271.got.cif
#   From: 2010.05.17/outbox.cif.g08.bks.cpg/sg2_283_cif.got.tgz:564271.got - 2010.06.03 11:33:40.
