data_PCOD9008608
_publ_section_title
;
Structure prediction by ZEFSAII (Michael W. Deem and Ramdas Pophale) SiO2 
 PCOD9008608
Probable space group: P -1
;
_chemical_formula_sum "Si O2"
_cell_formula_units_Z 14
_cell_length_a 9.254005
_cell_length_b 7.813646
_cell_length_c 16.366646
_cell_angle_alpha 92.151321
_cell_angle_beta 54.682091
_cell_angle_gamma 54.246798
_cell_volume 645.611033
_symmetry_space_group_name_H-M "P -1"
_symmetry_group_IT_number 2
_symmetry_cell_setting 'triclinic'
loop_
_space_group_symop_operation_xyz
x,y,z
-x,-y,-z
loop_
_atom_site_type_symbol
_atom_site_label
_atom_site_fract_x
_atom_site_fract_y
_atom_site_fract_z
Si Si1 0.253156 0.488410 0.711985
Si Si2 0.244432 0.927473 0.880302
Si Si3 0.743355 0.819294 0.978389
Si Si4 0.028701 0.302553 0.819291
Si Si5 0.106830 0.149852 0.622550
Si Si6 0.306748 0.599107 0.360615
Si Si7 0.683715 0.628204 0.485069
O O1 0.250437 0.284745 0.721988
O O2 0.516732 0.377536 0.659131
O O3 0.209797 0.552787 0.631721
O O4 0.996604 0.728432 0.851410
O O5 0.147283 0.066364 0.827644
O O6 0.502191 0.631763 0.771835
O O7 0.307572 0.046472 0.918781
O O8 0.000000 0.000000 0.000000
O O9 0.832413 0.555735 0.944777
O O10 0.500000 0.000000 0.000000
O O11 0.927650 0.313094 0.764833
O O12 0.186312 0.277146 0.560721
O O13 0.951033 0.165081 0.602466
O O14 0.372882 0.873584 0.567084
O O15 0.262918 0.501876 0.449333
#
# Coordination Sequence:
#
# PCOD9008608 Si02
#       7
#     2   2   2   2   2   2   2
#     4   9  22  40  62  87 126 162 201 253 308 361
#     4  12  22  39  64  90 125 159 204 259 304 360
#     4  10  21  40  61  87 123 163 207 245 305 369
#     4   9  20  42  60  85 124 167 196 249 310 360
#     4  10  21  39  65  92 122 161 205 249 307 368
#     4  12  22  39  65  96 121 159 208 256 303 359
#     4  10  21  41  61  90 129 159 200 254 307 364
#
# _framework density 21.684884
#
# number of rings (size 3 to 8) (size 9 to 14) (size 15 to 20)
#    0.857    0.857    2.857    2.143    0.000    0.571 
#    0.000    7.143    0.000    0.000    0.000    0.000 
#    0.000    0.000    0.000    0.000    0.000    0.000 
#
# Total GULP energy -78112.081584 kJ/mol
# GULP energy per Si atom -5579.434399 kJ/mol
# Density = 2.163553 g / cm^3
# Si number density = 21.684884 Si / 1000 Ang^3
#
#
#
# Elastic Constant Matrix: (Units=GPa)
#
#
# Indices 1 2 3 4 5 6 
#
# 1 76.0459 12.6239 4.0007 -20.5098 7.4819 -28.6523
# 2 12.6239 54.2703 5.1541 -17.7861 -3.9649 -17.8397
# 3 4.0007 5.1541 76.7829 -12.9761 15.2581 -6.9287
# 4 -20.5098 -17.7861 -12.9761 35.0436 -0.6585 4.6080
# 5 7.4819 -3.9649 15.2581 -0.6585 23.5582 -2.5538
# 6 -28.6523 -17.8397 -6.9287 4.6080 -2.5538 26.6301
#
#
#
# Elastic Compliance Matrix: (Units=1/GPa)
#
#
# Indices 1 2 3 4 5 6 
#
# 1 0.032611 0.011583 0.006337 0.021912 -0.007566 0.039978
# 2 0.011583 0.033042 0.002695 0.020396 0.004195 0.032172
# 3 0.006337 0.002695 0.017397 0.009945 -0.011428 0.010333
# 4 0.021912 0.020396 0.009945 0.051292 -0.005233 0.030450
# 5 -0.007566 0.004195 -0.011428 -0.005233 0.052557 -0.002358
# 6 0.039978 0.032172 0.010333 0.030450 -0.002358 0.099311
#
#
# Mechanical properties :
#
#
# Convention : Reuss Voigt Hill
#
# Bulk Modulus (GPa) = 8.04636 27.85074 17.94855
# Shear Modulus (GPa) = 17.45767 29.40106 23.42937
#
# Velocity S-wave (km/s) = 2.84044 3.68616 3.29058
# Velocity P-wave (km/s) = 3.80475 5.56671 4.76783
#
# Compressibility (1/GPa) = 0.12427977
#
# Stress axis : x y z
#
# Youngs Moduli (GPa) = 30.66472 30.26424 57.48176
#
# Poissons Ratio (x) = -0.35054 -0.36429
# Poissons Ratio (y) = -0.35518 -0.15490
# Poissons Ratio (z) = -0.19434 -0.08156
#
# Static dielectric constant tensor:
#      x y z
#    x 1.793380 0.025160 0.021180 
#    y 0.025160 1.774650 0.061650 
#    z 0.021180 0.061650 1.888140 
# 
# From -- ./inp_files/180795.got.cif
#   From: 2010.05.17/outbox.cif.g08.bks.cpg/sg2_91_cif.got.tgz:180795.got - 2010.06.03 11:33:40.
