data_PCOD9008500
_publ_section_title
;
Structure prediction by ZEFSAII (Michael W. Deem and Ramdas Pophale) SiO2 
 PCOD9008500
Probable space group: P -1
;
_chemical_formula_sum "Si O2"
_cell_formula_units_Z 15
_cell_length_a 5.733504
_cell_length_b 5.019899
_cell_length_c 21.606561
_cell_angle_alpha 105.871850
_cell_angle_beta 108.338811
_cell_angle_gamma 98.005061
_cell_volume 550.224512
_symmetry_space_group_name_H-M "P -1"
_symmetry_group_IT_number 2
_symmetry_cell_setting 'triclinic'
loop_
_space_group_symop_operation_xyz
x,y,z
-x,-y,-z
loop_
_atom_site_type_symbol
_atom_site_label
_atom_site_fract_x
_atom_site_fract_y
_atom_site_fract_z
Si Si1 0.743474 0.016840 0.946248
Si Si2 0.475862 0.171588 0.412020
Si Si3 0.738130 0.497393 0.121626
Si Si4 0.164012 0.231855 0.185034
Si Si5 0.500000 0.500000 0.000000
Si Si6 0.020144 0.790830 0.701107
Si Si7 0.674681 0.639972 0.267056
Si Si8 0.732054 0.772671 0.464050
O O1 0.516597 0.749257 0.938830
O O2 0.732284 0.958005 0.867722
O O3 0.696961 0.320110 0.976595
O O4 0.000000 0.000000 0.000000
O O5 0.238556 0.199367 0.353431
O O6 0.711990 0.438583 0.432667
O O7 0.387498 0.207276 0.477354
O O8 0.562077 0.878556 0.404817
O O9 0.673809 0.573911 0.189311
O O10 0.989031 0.390522 0.141582
O O11 0.731883 0.705060 0.078125
O O12 0.008290 0.100958 0.224228
O O13 0.395933 0.466523 0.250188
O O14 0.108404 0.497547 0.694545
O O15 0.244895 0.021123 0.701016
O O16 0.000000 0.000000 0.500000
#
# Coordination Sequence:
#
# PCOD9008500 Si02
#       8
#     2   2   2   2   1   2   2   2
#     4  11  24  45  63 101 133 170 231 294 362 436
#     4  10  22  39  65 100 140 183 231 287 335 402
#     4  10  24  43  62  97 130 167 229 290 351 438
#     4  10  24  47  67  94 141 176 228 299 361 420
#     4  12  24  40  72  92 128 180 224 292 364 442
#     4  11  24  45  68  99 137 182 239 288 343 425
#     4  10  25  43  65  95 132 179 228 290 350 418
#     4  10  21  39  65 102 143 185 227 281 342 401
#
# _framework density 27.261600000000001
#
# number of rings (size 3 to 8) (size 9 to 14) (size 15 to 20)
#    0.000    1.600    1.333    1.600    5.600    4.800 
#    4.800    0.000    0.000    0.000    0.000    0.000 
#    0.000    0.000    0.000    0.000    0.000    0.000 
#
# Total GULP energy -83906.667145 kJ/mol
# GULP energy per Si atom -5593.777810 kJ/mol
# Density = 2.719955 g / cm^3
# Si number density = 27.261600 Si / 1000 Ang^3
#
#
#
# Elastic Constant Matrix: (Units=GPa)
#
#
# Indices 1 2 3 4 5 6 
#
# 1 76.0478 39.8812 22.1727 -4.8408 14.2550 8.7135
# 2 39.8812 131.9565 30.3036 -6.5903 15.3030 2.7506
# 3 22.1727 30.3036 124.6517 -37.4943 17.5265 -8.0102
# 4 -4.8408 -6.5903 -37.4943 46.3680 -1.1233 12.4579
# 5 14.2550 15.3030 17.5265 -1.1233 68.0625 -6.2445
# 6 8.7135 2.7506 -8.0102 12.4579 -6.2445 58.2319
#
#
#
# Elastic Compliance Matrix: (Units=1/GPa)
#
#
# Indices 1 2 3 4 5 6 
#
# 1 0.016689 -0.004313 -0.001608 0.000547 -0.002367 -0.002886
# 2 -0.004313 0.009300 -0.001484 -0.000345 -0.000812 -0.000011
# 3 -0.001608 -0.001484 0.011701 0.009100 -0.002217 -0.000264
# 4 0.000547 -0.000345 0.009100 0.030371 -0.002390 -0.005568
# 5 -0.002367 -0.000812 -0.002217 -0.002390 0.016116 0.002327
# 6 -0.002886 -0.000011 -0.000264 -0.005568 0.002327 0.019009
#
#
# Mechanical properties :
#
#
# Convention : Reuss Voigt Hill
#
# Bulk Modulus (GPa) = 43.70577 57.48568 50.59572
# Shear Modulus (GPa) = 39.80145 50.55238 45.17692
#
# Velocity S-wave (km/s) = 3.82512 4.31088 4.07524
# Velocity P-wave (km/s) = 5.96452 6.77575 6.38303
#
# Compressibility (1/GPa) = 0.02288028
#
# Stress axis : x y z
#
# Youngs Moduli (GPa) = 59.91817 107.53061 85.46119
#
# Poissons Ratio (x) = 0.46375 0.13745
# Poissons Ratio (y) = 0.25841 0.12683
# Poissons Ratio (z) = 0.09637 0.15958
#
# Static dielectric constant tensor:
#      x y z
#    x 2.062870 -0.133690 0.190410 
#    y -0.133690 1.116890 0.849740 
#    z 0.190410 0.849740 1.514970 
# 
# From -- ./inp_files/13858.got.cif
#   From: 2010.05.17/outbox.cif.g08.bks.cpg/sg2_7_cif.got.tgz:13858.got - 2010.06.03 11:33:40.
