data_PCOD9008498
_publ_section_title
;
Structure prediction by ZEFSAII (Michael W. Deem and Ramdas Pophale) SiO2 
 PCOD9008498
Probable space group: P -1
;
_chemical_formula_sum "Si O2"
_cell_formula_units_Z 14
_cell_length_a 21.795011
_cell_length_b 14.742549
_cell_length_c 11.044211
_cell_angle_alpha 147.726548
_cell_angle_beta 41.842441
_cell_angle_gamma 159.566484
_cell_volume 639.855421
_symmetry_space_group_name_H-M "P -1"
_symmetry_group_IT_number 2
_symmetry_cell_setting 'triclinic'
loop_
_space_group_symop_operation_xyz
x,y,z
-x,-y,-z
loop_
_atom_site_type_symbol
_atom_site_label
_atom_site_fract_x
_atom_site_fract_y
_atom_site_fract_z
Si Si1 0.679533 0.701599 0.410556
Si Si2 0.845108 0.303188 0.777011
Si Si3 0.786900 0.634797 0.689387
Si Si4 0.793251 0.271500 0.357925
Si Si5 0.429092 0.528134 0.963233
Si Si6 0.096868 0.234028 0.736292
Si Si7 0.421848 0.118171 0.525646
O O1 0.500000 0.500000 0.500000
O O2 0.647534 0.592080 0.195562
O O3 0.741826 0.636789 0.319837
O O4 0.815829 0.080127 0.639316
O O5 0.031930 0.569489 0.729630
O O6 0.676941 0.059196 0.656732
O O7 0.856237 0.495576 0.050428
O O8 0.842132 0.535692 0.537586
O O9 0.618466 0.350754 0.522055
O O10 0.705192 0.600207 0.887271
O O11 0.953846 0.995025 0.788066
O O12 0.713726 0.159705 0.483753
O O13 0.624617 0.928613 0.141459
O O14 0.450160 0.364319 0.780322
O O15 0.000000 0.000000 0.500000
#
# Coordination Sequence:
#
# PCOD9008498 Si02
#       7
#     2   2   2   2   2   2   2
#     4  11  28  49  69 103 135 181 230 279 341 403
#     4  11  25  45  69  99 137 180 227 283 332 405
#     4  11  23  42  68 105 137 177 232 274 340 404
#     4  11  21  39  68 104 140 179 219 285 337 400
#     4  10  22  41  72  98 140 179 223 284 335 403
#     4  12  29  47  71  99 137 184 225 282 341 406
#     4  10  21  39  65 102 137 180 221 273 345 400
#
# _framework density 21.879943999999998
#
# number of rings (size 3 to 8) (size 9 to 14) (size 15 to 20)
#    0.000    1.143    1.429    5.571   10.000    4.000 
#    0.000    0.000    0.000    0.000    0.000    0.000 
#    0.000    0.000    0.000    0.000    0.000    0.000 
#
# Total GULP energy -78321.478160 kJ/mol
# GULP energy per Si atom -5594.391297 kJ/mol
# Density = 2.183014 g / cm^3
# Si number density = 21.879944 Si / 1000 Ang^3
#
#
#
# Elastic Constant Matrix: (Units=GPa)
#
#
# Indices 1 2 3 4 5 6 
#
# 1 51.7084 -13.3774 1.9667 -13.3173 -3.6125 13.0275
# 2 -13.3774 83.0484 -3.1352 -11.6729 -4.1302 10.9371
# 3 1.9667 -3.1352 90.7450 -0.6644 4.5489 -8.4450
# 4 -13.3173 -11.6729 -0.6644 18.2007 -5.6108 -12.4666
# 5 -3.6125 -4.1302 4.5489 -5.6108 28.7160 4.6614
# 6 13.0275 10.9371 -8.4450 -12.4666 4.6614 24.8207
#
#
#
# Elastic Compliance Matrix: (Units=1/GPa)
#
#
# Indices 1 2 3 4 5 6 
#
# 1 0.033470 0.011462 -0.001903 0.027843 0.013520 -0.011820
# 2 0.011462 0.017676 -0.000562 0.017785 0.008633 -0.006685
# 3 -0.001903 -0.000562 0.011873 0.002732 -0.002835 0.007191
# 4 0.027843 0.017785 0.002732 0.116197 0.023054 0.032510
# 5 0.013520 0.008633 -0.002835 0.023054 0.044111 -0.008569
# 6 -0.011820 -0.006685 0.007191 0.032510 -0.008569 0.069823
#
#
# Mechanical properties :
#
#
# Convention : Reuss Voigt Hill
#
# Bulk Modulus (GPa) = 12.34386 21.82334 17.08360
# Shear Modulus (GPa) = 16.54747 30.35067 23.44907
#
# Velocity S-wave (km/s) = 2.75305 3.72848 3.27726
# Velocity P-wave (km/s) = 3.96983 5.34146 4.70589
#
# Compressibility (1/GPa) = 0.08101190
#
# Stress axis : x y z
#
# Youngs Moduli (GPa) = 29.87723 56.57472 84.22462
#
# Poissons Ratio (x) = -0.64846 0.16030
# Poissons Ratio (y) = -0.34245 0.04737
# Poissons Ratio (z) = 0.05686 0.03182
#
# Static dielectric constant tensor:
#      x y z
#    x 1.800020 -0.016140 0.001500 
#    y -0.016140 1.817870 0.024720 
#    z 0.001500 0.024720 1.773110 
# 
# From -- ./inp_files/175711.got.cif
#   From: 2010.05.17/outbox.cif.g08.bks.cpg/sg2_88_cif.got.tgz:175711.got - 2010.06.03 11:33:40.
