data_PCOD9008130
_publ_section_title
;
Structure prediction by ZEFSAII (Michael W. Deem and Ramdas Pophale) SiO2 
 PCOD9008130
Probable space group: P -1
;
_chemical_formula_sum "Si O2"
_cell_formula_units_Z 10
_cell_length_a 11.547533
_cell_length_b 5.297543
_cell_length_c 17.353662
_cell_angle_alpha 129.455190
_cell_angle_beta 30.510969
_cell_angle_gamma 121.685923
_cell_volume 415.481717
_symmetry_space_group_name_H-M "P -1"
_symmetry_group_IT_number 2
_symmetry_cell_setting 'triclinic'
loop_
_space_group_symop_operation_xyz
x,y,z
-x,-y,-z
loop_
_atom_site_type_symbol
_atom_site_label
_atom_site_fract_x
_atom_site_fract_y
_atom_site_fract_z
Si Si1 0.236779 0.386145 0.302205
Si Si2 0.966356 0.390655 0.319766
Si Si3 0.816258 0.082756 0.187150
Si Si4 0.357671 0.773248 0.182905
Si Si5 0.463628 0.345097 0.632684
O O1 0.367454 0.687280 0.250420
O O2 0.000000 0.500000 0.500000
O O3 0.149243 0.215154 0.239594
O O4 0.402704 0.136046 0.204189
O O5 0.934316 0.222598 0.223772
O O6 0.724978 0.434694 0.509302
O O7 0.089801 0.731121 0.307354
O O8 0.655381 0.377412 0.299781
O O9 0.684604 0.768274 0.231883
O O10 0.000000 0.000000 0.000000
O O11 0.500000 0.500000 0.000000
O O12 0.500000 0.000000 0.500000
#
# Coordination Sequence:
#
# PCOD9008130 Si02
#       5
#     2   2   2   2   2
#     4  10  22  40  62  85 118 151 205 241 288 353
#     4   9  23  37  64  84 123 158 197 231 306 343
#     4  11  23  40  59  92 122 151 198 247 287 349
#     4  10  22  40  62  85 123 155 194 249 296 340
#     4  10  21  39  64  84 120 159 197 238 291 354
#
# _framework density 24.068446000000002
#
# number of rings (size 3 to 8) (size 9 to 14) (size 15 to 20)
#    1.200    0.800    0.000    4.200    8.400    0.000 
#    7.200    0.000    0.000    0.000    0.000    0.000 
#    0.000    0.000    0.000    0.000    0.000    0.000 
#
# Total GULP energy -55764.860217 kJ/mol
# GULP energy per Si atom -5576.486022 kJ/mol
# Density = 2.401367 g / cm^3
# Si number density = 24.068446 Si / 1000 Ang^3
#
#
#
# Elastic Constant Matrix: (Units=GPa)
#
#
# Indices 1 2 3 4 5 6 
#
# 1 91.4602 45.7839 5.8580 -3.2313 13.1452 -5.5710
# 2 45.7839 109.1434 29.6933 -8.7710 -0.3109 -43.0707
# 3 5.8580 29.6933 106.7883 -14.6690 23.5140 -14.5569
# 4 -3.2313 -8.7710 -14.6690 44.8262 -9.8364 -2.5304
# 5 13.1452 -0.3109 23.5140 -9.8364 31.7621 -4.5937
# 6 -5.5710 -43.0707 -14.5569 -2.5304 -4.5937 58.1405
#
#
#
# Elastic Compliance Matrix: (Units=1/GPa)
#
#
# Indices 1 2 3 4 5 6 
#
# 1 0.017512 -0.011234 0.003438 -0.002775 -0.011750 -0.006833
# 2 -0.011234 0.021677 -0.005456 0.005267 0.012679 0.014847
# 3 0.003438 -0.005456 0.013085 0.000967 -0.011047 -0.001267
# 4 -0.002775 0.005267 0.000967 0.025822 0.009311 0.005737
# 5 -0.011750 0.012679 -0.011047 0.009311 0.048947 0.009773
# 6 -0.006833 0.014847 -0.001267 0.005737 0.009773 0.028249
#
#
# Mechanical properties :
#
#
# Convention : Reuss Voigt Hill
#
# Bulk Modulus (GPa) = 38.80364 52.22915 45.51639
# Shear Modulus (GPa) = 26.26240 42.01619 34.13929
#
# Velocity S-wave (km/s) = 3.30685 4.18269 3.77028
# Velocity P-wave (km/s) = 5.54414 6.71371 6.15676
#
# Compressibility (1/GPa) = 0.02577078
#
# Stress axis : x y z
#
# Youngs Moduli (GPa) = 57.10480 46.13085 76.42092
#
# Poissons Ratio (x) = 0.51823 -0.26272
# Poissons Ratio (y) = 0.64151 0.41693
# Poissons Ratio (z) = -0.19631 0.25168
#
# Static dielectric constant tensor:
#      x y z
#    x 2.059350 -0.107230 0.028830 
#    y -0.107230 2.223840 -0.024960 
#    z 0.028830 -0.024960 1.913020 
# 
# From -- ./inp_files/59414.got.cif
#   From: 2010.05.17/outbox.cif.g08.bks.cpg/sg2_30_cif.got.tgz:59414.got - 2010.06.03 11:33:40.
