data_PCOD9008319
_publ_section_title
;
Structure prediction by ZEFSAII (Michael W. Deem and Ramdas Pophale) SiO2 
 PCOD9008319
Probable space group: P -1
;
_chemical_formula_sum "Si O2"
_cell_formula_units_Z 14
_cell_length_a 5.374091
_cell_length_b 18.815990
_cell_length_c 9.062602
_cell_angle_alpha 68.890214
_cell_angle_beta 64.745746
_cell_angle_gamma 48.302918
_cell_volume 614.882774
_symmetry_space_group_name_H-M "P -1"
_symmetry_group_IT_number 2
_symmetry_cell_setting 'triclinic'
loop_
_space_group_symop_operation_xyz
x,y,z
-x,-y,-z
loop_
_atom_site_type_symbol
_atom_site_label
_atom_site_fract_x
_atom_site_fract_y
_atom_site_fract_z
Si Si1 0.759622 0.398696 0.434693
Si Si2 0.544320 0.257083 0.275037
Si Si3 0.729285 0.396589 0.093610
Si Si4 0.698487 0.046345 0.919321
Si Si5 0.020365 0.774649 0.315710
Si Si6 0.540296 0.769856 0.996123
Si Si7 0.768769 0.136329 0.583686
O O1 0.500000 0.500000 0.500000
O O2 0.684889 0.408393 0.272604
O O3 0.729276 0.325832 0.587896
O O4 0.173952 0.342625 0.376581
O O5 0.666756 0.317778 0.136573
O O6 0.793747 0.171099 0.389810
O O7 0.474513 0.213379 0.187326
O O8 0.500000 0.500000 0.000000
O O9 0.126311 0.339635 0.987344
O O10 0.455143 0.155286 0.962380
O O11 0.837800 0.044707 0.720520
O O12 0.500000 0.000000 0.000000
O O13 0.000000 0.000000 0.000000
O O14 0.205176 0.780299 0.125553
O O15 0.006211 0.845572 0.383935
O O16 0.653802 0.798965 0.353556
#
# Coordination Sequence:
#
# PCOD9008319 Si02
#       7
#     2   2   2   2   2   2   2
#     4  10  23  38  57  90 129 175 235 278 319 391
#     4  10  23  42  62  92 137 181 223 271 348 391
#     4  11  25  40  63  96 137 183 227 277 331 399
#     4  11  24  44  72 105 129 170 228 280 340 411
#     4  10  21  39  64  93 124 182 218 268 333 388
#     4  10  25  41  67  96 137 176 220 286 341 397
#     4  10  21  43  67  94 132 171 217 273 334 403
#
# _framework density 22.768567999999998
#
# number of rings (size 3 to 8) (size 9 to 14) (size 15 to 20)
#    0.000    1.714    1.429    1.714   10.000    4.000 
#    0.000    1.429    0.000    0.000    0.000    0.000 
#    0.000    0.000    0.000    0.000    0.000    0.000 
#
# Total GULP energy -77974.731413 kJ/mol
# GULP energy per Si atom -5569.623672 kJ/mol
# Density = 2.271675 g / cm^3
# Si number density = 22.768568 Si / 1000 Ang^3
#
#
#
# Elastic Constant Matrix: (Units=GPa)
#
#
# Indices 1 2 3 4 5 6 
#
# 1 70.4389 14.8042 30.7892 -8.9491 13.1484 1.1968
# 2 14.8042 59.5813 27.6558 -15.4133 15.6666 -0.8744
# 3 30.7892 27.6558 67.0118 -34.4566 3.8334 -4.8919
# 4 -8.9491 -15.4133 -34.4566 48.4424 -3.7425 1.4053
# 5 13.1484 15.6666 3.8334 -3.7425 32.0811 -14.5742
# 6 1.1968 -0.8744 -4.8919 1.4053 -14.5742 25.3051
#
#
#
# Elastic Compliance Matrix: (Units=1/GPa)
#
#
# Indices 1 2 3 4 5 6 
#
# 1 0.022280 0.003708 -0.014968 -0.006189 -0.015514 -0.012410
# 2 0.003708 0.026303 -0.013087 -0.001331 -0.018607 -0.012439
# 3 -0.014968 -0.013087 0.038318 0.021235 0.018107 0.016913
# 4 -0.006189 -0.001331 0.021235 0.034584 0.007840 0.006946
# 5 -0.015514 -0.018607 0.018107 0.007840 0.063384 0.039661
# 6 -0.012410 -0.012439 0.016913 0.006946 0.039661 0.065401
#
#
# Mechanical properties :
#
#
# Convention : Reuss Voigt Hill
#
# Bulk Modulus (GPa) = 26.17341 38.17004 32.17173
# Shear Modulus (GPa) = 16.04101 29.41792 22.72946
#
# Velocity S-wave (km/s) = 2.65717 3.59840 3.16299
# Velocity P-wave (km/s) = 4.57541 5.83655 5.24403
#
# Compressibility (1/GPa) = 0.03820671
#
# Stress axis : x y z
#
# Youngs Moduli (GPa) = 44.88232 38.01903 26.09718
#
# Poissons Ratio (x) = -0.14096 0.39063
# Poissons Ratio (y) = -0.16641 0.34153
# Poissons Ratio (z) = 0.67181 0.49755
#
# Static dielectric constant tensor:
#      x y z
#    x 0.444190 -0.717730 0.069590 
#    y -0.717730 1.503450 0.026620 
#    z 0.069590 0.026620 1.924550 
# 
# From -- ./inp_files/37934.got.cif
#   From: 2010.05.17/outbox.cif.g08.bks.cpg/sg2_19_cif.got.tgz:37934.got - 2010.06.03 11:33:40.
