data_PCOD9008317
_publ_section_title
;
Structure prediction by ZEFSAII (Michael W. Deem and Ramdas Pophale) SiO2 
 PCOD9008317
Probable space group: P -1
;
_chemical_formula_sum "Si O2"
_cell_formula_units_Z 16
_cell_length_a 14.065084
_cell_length_b 16.269329
_cell_length_c 5.427523
_cell_angle_alpha 69.078189
_cell_angle_beta 118.634906
_cell_angle_gamma 146.797079
_cell_volume 594.435693
_symmetry_space_group_name_H-M "P -1"
_symmetry_group_IT_number 2
_symmetry_cell_setting 'triclinic'
loop_
_space_group_symop_operation_xyz
x,y,z
-x,-y,-z
loop_
_atom_site_type_symbol
_atom_site_label
_atom_site_fract_x
_atom_site_fract_y
_atom_site_fract_z
Si Si1 0.855777 0.276658 0.103169
Si Si2 0.432661 0.210170 0.623574
Si Si3 0.205212 0.912993 0.179540
Si Si4 0.934182 0.054172 0.407810
Si Si5 0.405609 0.820372 0.780327
Si Si6 0.175868 0.315270 0.755196
Si Si7 0.214889 0.588046 0.423643
Si Si8 0.490431 0.419321 0.796480
O O1 0.825680 0.184514 0.957653
O O2 0.704418 0.170857 0.247808
O O3 0.056437 0.415596 0.333106
O O4 0.824453 0.349618 0.850609
O O5 0.588809 0.325601 0.491738
O O6 0.443244 0.299390 0.723485
O O7 0.220556 0.056384 0.451512
O O8 0.494546 0.163064 0.891331
O O9 0.173235 0.983619 0.921966
O O10 0.023924 0.794061 0.253454
O O11 0.430369 0.056866 0.345638
O O12 0.088004 0.229126 0.470618
O O13 0.000000 0.000000 0.500000
O O14 0.244822 0.648432 0.665723
O O15 0.333101 0.338974 0.892900
O O16 0.313966 0.462379 0.944257
O O17 0.500000 0.500000 0.500000
#
# Coordination Sequence:
#
# PCOD9008317 Si02
#       8
#     2   2   2   2   2   2   2   2
#     4  10  22  40  63  93 130 163 211 265 315 380
#     4  10  22  41  61  90 130 162 212 264 315 375
#     4  11  24  41  64  95 129 168 215 266 315 376
#     4  11  23  43  61  90 130 171 215 267 313 373
#     4  10  22  40  64  95 124 169 209 258 323 379
#     4  11  24  40  63  92 121 169 217 255 323 376
#     4  10  21  39  64  93 124 167 210 260 318 380
#     4  11  24  43  61  91 128 167 214 268 313 374
#
# _framework density 26.916284999999998
#
# number of rings (size 3 to 8) (size 9 to 14) (size 15 to 20)
#    0.000    1.500    1.250    3.000    0.000    5.000 
#    0.000    0.000    0.000    0.000    0.000    0.000 
#    0.000    0.000    0.000    0.000    0.000    0.000 
#
# Total GULP energy -89179.125669 kJ/mol
# GULP energy per Si atom -5573.695354 kJ/mol
# Density = 2.685502 g / cm^3
# Si number density = 26.916285 Si / 1000 Ang^3
#
#
#
# Elastic Constant Matrix: (Units=GPa)
#
#
# Indices 1 2 3 4 5 6 
#
# 1 130.8029 60.1253 7.8419 4.3610 -18.4795 19.2757
# 2 60.1253 121.6914 44.4934 19.9488 5.2917 -7.2601
# 3 7.8419 44.4934 66.0998 23.2997 -11.2682 -1.2624
# 4 4.3610 19.9488 23.2997 56.7996 -4.0254 -0.5588
# 5 -18.4795 5.2917 -11.2682 -4.0254 33.8893 11.2263
# 6 19.2757 -7.2601 -1.2624 -0.5588 11.2263 47.7332
#
#
#
# Elastic Compliance Matrix: (Units=1/GPa)
#
#
# Indices 1 2 3 4 5 6 
#
# 1 0.019662 -0.015979 0.011661 0.000745 0.022246 -0.015285
# 2 -0.015979 0.024963 -0.018108 -0.001656 -0.023923 0.015378
# 3 0.011661 -0.018108 0.031764 -0.006052 0.023042 -0.012113
# 4 0.000745 -0.001656 -0.006052 0.020702 0.001375 -0.000794
# 5 0.022246 -0.023923 0.023042 0.001375 0.062003 -0.026579
# 6 -0.015285 0.015378 -0.012113 -0.000794 -0.026579 0.035382
#
#
# Mechanical properties :
#
#
# Convention : Reuss Voigt Hill
#
# Bulk Modulus (GPa) = 31.70989 60.39057 46.05023
# Shear Modulus (GPa) = 20.01285 41.42665 30.71975
#
# Velocity S-wave (km/s) = 2.72972 3.92738 3.38199
# Velocity P-wave (km/s) = 4.66279 6.56132 5.69177
#
# Compressibility (1/GPa) = 0.03153590
#
# Stress axis : x y z
#
# Youngs Moduli (GPa) = 50.86061 40.06005 31.48246
#
# Poissons Ratio (x) = 0.64014 -0.36712
# Poissons Ratio (y) = 0.81272 0.57008
# Poissons Ratio (z) = -0.59310 0.72540
#
# Static dielectric constant tensor:
#      x y z
#    x 2.178280 0.090000 -0.117120 
#    y 0.090000 2.253990 -0.083010 
#    z -0.117120 -0.083010 2.323230 
# 
# From -- ./inp_files/99716.got.cif
#   From: 2010.05.17/outbox.cif.g08.bks.cpg/sg2_50_cif.got.tgz:99716.got - 2010.06.03 11:33:40.
