data_PCOD9008843
_publ_section_title
;
Structure prediction by ZEFSAII (Michael W. Deem and Ramdas Pophale) SiO2 
 PCOD9008843
Probable space group: P -1
;
_chemical_formula_sum "Si O2"
_cell_formula_units_Z 16
_cell_length_a 10.507891
_cell_length_b 10.011657
_cell_length_c 18.916303
_cell_angle_alpha 45.448742
_cell_angle_beta 148.663471
_cell_angle_gamma 115.206980
_cell_volume 651.898916
_symmetry_space_group_name_H-M "P -1"
_symmetry_group_IT_number 2
_symmetry_cell_setting 'triclinic'
loop_
_space_group_symop_operation_xyz
x,y,z
-x,-y,-z
loop_
_atom_site_type_symbol
_atom_site_label
_atom_site_fract_x
_atom_site_fract_y
_atom_site_fract_z
Si Si1 0.176360 0.690629 0.073439
Si Si2 0.618863 0.258091 0.121728
Si Si3 0.250469 0.376255 0.779783
Si Si4 0.026781 0.913756 0.270829
Si Si5 0.586080 0.875999 0.798970
Si Si6 0.441945 0.449847 0.413145
Si Si7 0.895757 0.693801 0.618638
Si Si8 0.386091 0.690550 0.650970
O O1 0.388740 0.630967 0.262681
O O2 0.315998 0.456795 0.190098
O O3 0.884080 0.787254 0.938696
O O4 0.131430 0.863999 0.927906
O O5 0.451437 0.167688 0.121409
O O6 0.929991 0.184905 0.321038
O O7 0.500000 0.500000 0.000000
O O8 0.542937 0.256989 0.004867
O O9 0.266304 0.527025 0.670962
O O10 0.156205 0.208850 0.770645
O O11 0.042005 0.530736 0.684438
O O12 0.297811 0.764148 0.408532
O O13 0.176734 0.879574 0.431091
O O14 0.442160 0.765725 0.724421
O O15 0.404086 0.125271 0.611643
O O16 0.500000 0.500000 0.500000
O O17 0.166318 0.419746 0.302357
#
# Coordination Sequence:
#
# PCOD9008843 Si02
#       8
#     2   2   2   2   2   2   2   2
#     4  11  26  45  67 100 137 185 230 265 343 404
#     4  10  21  39  66 103 129 172 222 284 344 385
#     4  11  23  45  70  97 139 174 229 286 335 404
#     4  11  25  47  67 102 136 187 227 267 343 405
#     4  12  23  43  70 102 137 177 229 282 340 400
#     4  11  23  43  71 102 139 173 220 292 338 401
#     4  11  22  41  70 105 134 169 222 291 346 392
#     4  11  26  45  66  98 141 185 227 276 324 409
#
# _framework density 24.543683000000001
#
# number of rings (size 3 to 8) (size 9 to 14) (size 15 to 20)
#    0.000    1.000    5.000    2.625    0.000    3.500 
#    0.000    0.000    0.000    0.000    0.000    0.000 
#    0.000    0.000    0.000    0.000    0.000    0.000 
#
# Total GULP energy -89412.636775 kJ/mol
# GULP energy per Si atom -5588.289798 kJ/mol
# Density = 2.448782 g / cm^3
# Si number density = 24.543683 Si / 1000 Ang^3
#
#
#
# Elastic Constant Matrix: (Units=GPa)
#
#
# Indices 1 2 3 4 5 6 
#
# 1 110.3588 10.7847 35.9817 -5.4039 -18.9922 0.6739
# 2 10.7847 29.3666 16.4263 -3.7700 0.9412 -4.2111
# 3 35.9817 16.4263 141.2925 -23.7965 -20.4210 -8.6149
# 4 -5.4039 -3.7700 -23.7965 31.3497 4.1678 -5.4844
# 5 -18.9922 0.9412 -20.4210 4.1678 50.0467 -2.1793
# 6 0.6739 -4.2111 -8.6149 -5.4844 -2.1793 35.2307
#
#
#
# Elastic Compliance Matrix: (Units=1/GPa)
#
#
# Indices 1 2 3 4 5 6 
#
# 1 0.010557 -0.003070 -0.002040 -0.000700 0.003248 -0.000976
# 2 -0.003070 0.038118 -0.003458 0.002567 -0.003334 0.003963
# 3 -0.002040 -0.003458 0.009759 0.006831 0.002846 0.003251
# 4 -0.000700 0.002567 0.006831 0.038723 -0.000403 0.007994
# 5 0.003248 -0.003334 0.002846 -0.000403 0.022539 0.001567
# 6 -0.000976 0.003963 0.003251 0.007994 0.001567 0.031013
#
#
# Mechanical properties :
#
#
# Convention : Reuss Voigt Hill
#
# Bulk Modulus (GPa) = 24.21326 45.26703 34.74014
# Shear Modulus (GPa) = 27.53137 37.84709 32.68923
#
# Velocity S-wave (km/s) = 3.35286 3.93113 3.65345
# Velocity P-wave (km/s) = 4.98755 6.25208 5.65527
#
# Compressibility (1/GPa) = 0.04129969
#
# Stress axis : x y z
#
# Youngs Moduli (GPa) = 94.72460 26.23404 102.47096
#
# Poissons Ratio (x) = 0.08054 0.20899
# Poissons Ratio (y) = 0.29080 0.35432
# Poissons Ratio (z) = 0.19319 0.09071
#
# Static dielectric constant tensor:
#      x y z
#    x 2.104470 0.161920 0.087600 
#    y 0.161920 2.044140 0.075720 
#    z 0.087600 0.075720 2.036820 
# 
# From -- ./inp_files/438683.got.cif
#   From: 2010.05.17/outbox.cif.g08.bks.cpg/sg2_220_cif.got.tgz:438683.got - 2010.06.03 11:33:40.
