data_PCOD9008698
_publ_section_title
;
Structure prediction by ZEFSAII (Michael W. Deem and Ramdas Pophale) SiO2 
 PCOD9008698
Probable space group: P -1
;
_chemical_formula_sum "Si O2"
_cell_formula_units_Z 14
_cell_length_a 5.324870
_cell_length_b 15.854244
_cell_length_c 8.123181
_cell_angle_alpha 52.130267
_cell_angle_beta 93.085309
_cell_angle_gamma 98.664579
_cell_volume 534.520049
_symmetry_space_group_name_H-M "P -1"
_symmetry_group_IT_number 2
_symmetry_cell_setting 'triclinic'
loop_
_space_group_symop_operation_xyz
x,y,z
-x,-y,-z
loop_
_atom_site_type_symbol
_atom_site_label
_atom_site_fract_x
_atom_site_fract_y
_atom_site_fract_z
Si Si1 0.169392 0.266667 0.124120
Si Si2 0.947826 0.045325 0.261040
Si Si3 0.534602 0.423330 0.747413
Si Si4 0.270499 0.936820 0.169713
Si Si5 0.767353 0.634706 0.634659
Si Si6 0.514748 0.893565 0.523364
Si Si7 0.737127 0.292521 0.646919
O O1 0.959372 0.170735 0.161990
O O2 0.140542 0.319555 0.237863
O O3 0.402134 0.198526 0.254677
O O4 0.277919 0.356801 0.889239
O O5 0.128729 0.031315 0.129164
O O6 0.000000 0.000000 0.500000
O O7 0.720317 0.947597 0.332120
O O8 0.500000 0.500000 0.500000
O O9 0.662886 0.506583 0.788739
O O10 0.698202 0.341565 0.766064
O O11 0.278073 0.870020 0.424634
O O12 0.209932 0.830082 0.185074
O O13 0.500000 0.000000 0.000000
O O14 0.528547 0.692385 0.482672
O O15 0.012519 0.648659 0.507332
O O16 0.500000 0.000000 0.500000
#
# Coordination Sequence:
#
# PCOD9008698 Si02
#       7
#     2   2   2   2   2   2   2
#     4  11  21  42  70  97 130 180 227 275 342 398
#     4  10  21  39  65  94 134 170 221 265 327 408
#     4  10  24  47  67  97 134 173 230 289 341 396
#     4  12  24  40  62  99 138 173 221 271 337 404
#     4  11  24  45  73  95 134 175 235 282 333 401
#     4  11  22  40  65  95 136 173 219 271 327 414
#     4  11  24  45  69  98 138 179 219 283 344 399
#
# _framework density 26.191723
#
# number of rings (size 3 to 8) (size 9 to 14) (size 15 to 20)
#    0.000    1.143    4.286    3.429    0.000    0.571 
#    5.143   12.143    0.000    0.000    0.000    0.000 
#    0.000    0.000    0.000    0.000    0.000    0.000 
#
# Total GULP energy -77978.311874 kJ/mol
# GULP energy per Si atom -5569.879420 kJ/mol
# Density = 2.613211 g / cm^3
# Si number density = 26.191723 Si / 1000 Ang^3
#
#
#
# Elastic Constant Matrix: (Units=GPa)
#
#
# Indices 1 2 3 4 5 6 
#
# 1 65.7633 3.5066 29.2792 15.7381 -13.5158 -18.8864
# 2 3.5066 187.0920 32.9125 9.5209 -6.5303 -8.6427
# 3 29.2792 32.9125 106.5565 1.7647 -11.8998 14.8540
# 4 15.7381 9.5209 1.7647 47.0904 6.1955 -13.5018
# 5 -13.5158 -6.5303 -11.8998 6.1955 59.6859 3.9199
# 6 -18.8864 -8.6427 14.8540 -13.5018 3.9199 37.8872
#
#
#
# Elastic Compliance Matrix: (Units=1/GPa)
#
#
# Indices 1 2 3 4 5 6 
#
# 1 0.025272 0.002187 -0.009160 -0.004849 0.003682 0.014579
# 2 0.002187 0.006016 -0.002830 -0.000997 0.000485 0.003166
# 3 -0.009160 -0.002830 0.014469 -0.000259 0.001257 -0.011107
# 4 -0.004849 -0.000997 -0.000259 0.025668 -0.004387 0.007058
# 5 0.003682 0.000485 0.001257 -0.004387 0.018480 -0.002022
# 6 0.014579 0.003166 -0.011107 0.007058 -0.002022 0.041463
#
#
# Mechanical properties :
#
#
# Convention : Reuss Voigt Hill
#
# Bulk Modulus (GPa) = 38.24189 54.53428 46.38809
# Shear Modulus (GPa) = 31.31056 48.51360 39.91208
#
# Velocity S-wave (km/s) = 3.46126 4.30845 3.90788
# Velocity P-wave (km/s) = 5.53229 6.75401 6.17345
#
# Compressibility (1/GPa) = 0.02614933
#
# Stress axis : x y z
#
# Youngs Moduli (GPa) = 39.56971 166.23254 69.11498
#
# Poissons Ratio (x) = -0.36347 0.63312
# Poissons Ratio (y) = -0.08652 0.19557
# Poissons Ratio (z) = 0.36247 0.47037
#
# Static dielectric constant tensor:
#      x y z
#    x 2.060470 -0.043810 0.265540 
#    y -0.043810 2.039120 0.131920 
#    z 0.265540 0.131920 2.112170 
# 
# From -- ./inp_files/137180.got.cif
#   From: 2010.05.17/outbox.cif.g08.bks.cpg/sg2_69_cif.got.tgz:137180.got - 2010.06.03 11:33:40.
