data_PCOD9008052
_publ_section_title
;
Structure prediction by ZEFSAII (Michael W. Deem and Ramdas Pophale) SiO2 
 PCOD9008052
Probable space group: P -1
;
_chemical_formula_sum "Si O2"
_cell_formula_units_Z 16
_cell_length_a 6.545874
_cell_length_b 11.764219
_cell_length_c 18.911419
_cell_angle_alpha 140.487806
_cell_angle_beta 127.246667
_cell_angle_gamma 72.950595
_cell_volume 692.824073
_symmetry_space_group_name_H-M "P -1"
_symmetry_group_IT_number 2
_symmetry_cell_setting 'triclinic'
loop_
_space_group_symop_operation_xyz
x,y,z
-x,-y,-z
loop_
_atom_site_type_symbol
_atom_site_label
_atom_site_fract_x
_atom_site_fract_y
_atom_site_fract_z
Si Si1 0.793738 0.199960 0.085086
Si Si2 0.955472 0.729629 0.523912
Si Si3 0.485279 0.066433 0.318765
Si Si4 0.098400 0.670769 0.678587
Si Si5 0.789432 0.555390 0.177327
Si Si6 0.634718 0.809314 0.790438
Si Si7 0.263770 0.634512 0.078209
Si Si8 0.427370 0.811919 0.442530
O O1 0.803898 0.192330 0.168404
O O2 0.724817 0.382381 0.135988
O O3 0.106091 0.230973 0.145305
O O4 0.631530 0.009470 0.917661
O O5 0.039070 0.546994 0.430011
O O6 0.663817 0.723578 0.431297
O O7 0.210836 0.908937 0.636035
O O8 0.962333 0.734836 0.613927
O O9 0.371015 0.175718 0.288014
O O10 0.525516 0.138967 0.441321
O O11 0.280846 0.850404 0.175203
O O12 0.367576 0.654605 0.689441
O O13 0.553832 0.647444 0.180128
O O14 0.106418 0.688604 0.310099
O O15 0.749936 0.457350 0.045458
O O16 0.000000 0.500000 0.000000
O O17 0.500000 0.000000 0.500000
#
# Coordination Sequence:
#
# PCOD9008052 Si02
#       8
#     2   2   2   2   2   2   2   2
#     4  11  21  39  63  95 129 170 214 264 318 385
#     4  10  23  41  65  96 135 169 213 265 324 386
#     4  11  23  44  66  94 133 174 211 270 325 381
#     4  10  21  39  63  95 128 173 211 259 320 388
#     4  11  25  43  64  96 129 166 219 272 314 385
#     4  10  22  39  62  95 134 168 211 263 324 384
#     4  11  25  46  66  89 128 173 218 267 328 375
#     4  12  25  41  67  99 128 170 220 268 324 386
#
# _framework density 23.093885
#
# number of rings (size 3 to 8) (size 9 to 14) (size 15 to 20)
#    0.000    1.250    1.250    4.125    0.000    7.000 
#    2.250    5.000    0.000    0.000    0.000    0.000 
#    0.000    0.000    0.000    0.000    0.000    0.000 
#
# Total GULP energy -89367.303920 kJ/mol
# GULP energy per Si atom -5585.456495 kJ/mol
# Density = 2.304132 g / cm^3
# Si number density = 23.093885 Si / 1000 Ang^3
#
#
#
# Elastic Constant Matrix: (Units=GPa)
#
#
# Indices 1 2 3 4 5 6 
#
# 1 36.0483 5.9723 9.8755 -11.2533 18.7051 8.1369
# 2 5.9723 77.9608 9.7655 -11.5030 10.2070 -1.5102
# 3 9.8755 9.7655 85.3715 -13.2261 5.4278 14.4125
# 4 -11.2533 -11.5030 -13.2261 30.6417 12.1354 -0.0452
# 5 18.7051 10.2070 5.4278 12.1354 46.2315 -7.9579
# 6 8.1369 -1.5102 14.4125 -0.0452 -7.9579 28.8027
#
#
#
# Elastic Compliance Matrix: (Units=1/GPa)
#
#
# Indices 1 2 3 4 5 6 
#
# 1 0.087967 0.009115 0.011146 0.065987 -0.064435 -0.047649
# 2 0.009115 0.015582 0.001108 0.014423 -0.012009 -0.005608
# 3 0.011146 0.001108 0.016335 0.016968 -0.013712 -0.015026
# 4 0.065987 0.014423 0.016968 0.095049 -0.064402 -0.044021
# 5 -0.064435 -0.012009 -0.013712 -0.064402 0.076703 0.045526
# 6 -0.047649 -0.005608 -0.015026 -0.044021 0.045526 0.067914
#
#
# Mechanical properties :
#
#
# Convention : Reuss Voigt Hill
#
# Bulk Modulus (GPa) = 6.14934 27.84526 16.99730
# Shear Modulus (GPa) = 13.47636 32.71966 23.09801
#
# Velocity S-wave (km/s) = 2.41829 3.76814 3.16599
# Velocity P-wave (km/s) = 3.23513 5.56915 4.55420
#
# Compressibility (1/GPa) = 0.16261916
#
# Stress axis : x y z
#
# Youngs Moduli (GPa) = 11.36796 64.17794 61.21866
#
# Poissons Ratio (x) = -0.58495 -0.68232
# Poissons Ratio (y) = -0.10361 -0.06783
# Poissons Ratio (z) = -0.12670 -0.07111
#
# Static dielectric constant tensor:
#      x y z
#    x 1.893550 -0.008950 0.014540 
#    y -0.008950 1.858730 0.007800 
#    z 0.014540 0.007800 1.894980 
# 
# From -- ./inp_files/549575.got.cif
#   From: 2010.05.17/outbox.cif.g08.bks.cpg/sg2_275_cif.got.tgz:549575.got - 2010.06.03 11:33:40.
