data_PCOD9008914
_publ_section_title
;
Structure prediction by ZEFSAII (Michael W. Deem and Ramdas Pophale) SiO2 
 PCOD9008914
Probable space group: P -1
;
_chemical_formula_sum "Si O2"
_cell_formula_units_Z 12
_cell_length_a 14.776793
_cell_length_b 8.510075
_cell_length_c 11.994784
_cell_angle_alpha 101.647971
_cell_angle_beta 18.313712
_cell_angle_gamma 96.139693
_cell_volume 446.261534
_symmetry_space_group_name_H-M "P -1"
_symmetry_group_IT_number 2
_symmetry_cell_setting 'triclinic'
loop_
_space_group_symop_operation_xyz
x,y,z
-x,-y,-z
loop_
_atom_site_type_symbol
_atom_site_label
_atom_site_fract_x
_atom_site_fract_y
_atom_site_fract_z
Si Si1 0.210073 0.442118 0.596034
Si Si2 0.728446 0.209468 0.383154
Si Si3 0.711286 0.099576 0.621830
Si Si4 0.106171 0.216666 0.493823
Si Si5 0.320807 0.275744 0.662895
Si Si6 0.800459 0.380577 0.680040
O O1 0.362094 0.594391 0.441974
O O2 0.156715 0.365184 0.530922
O O3 0.368616 0.303402 0.481257
O O4 0.871145 0.536510 0.048198
O O5 0.654895 0.107059 0.557640
O O6 0.583504 0.209363 0.432475
O O7 0.916841 0.829158 0.054399
O O8 0.889071 0.237553 0.462120
O O9 0.892551 0.928521 0.441491
O O10 0.500000 0.500000 0.000000
O O11 0.392732 0.153917 0.067180
O O12 0.819180 0.273322 0.756994
O O13 0.000000 0.500000 0.500000
#
# Coordination Sequence:
#
# PCOD9008914 Si02
#       6
#     2   2   2   2   2   2
#     4   9  21  38  69  93 130 170 226 275 331 385
#     4  10  21  39  66  92 129 169 222 274 321 393
#     4  11  26  43  66  99 145 180 217 272 344 400
#     4  11  25  46  64 101 143 181 215 276 341 407
#     4   9  21  39  67  96 126 164 230 282 323 374
#     4  12  25  43  69  96 126 174 231 273 322 394
#
# _framework density 26.890059999999998
#
# number of rings (size 3 to 8) (size 9 to 14) (size 15 to 20)
#    1.000    0.667    1.667    2.000    4.667    0.000 
#    0.000    1.667    0.000    0.000    0.000    0.000 
#    0.000    0.000    0.000    0.000    0.000    0.000 
#
# Total GULP energy -67206.061783 kJ/mol
# GULP energy per Si atom -5600.505149 kJ/mol
# Density = 2.682886 g / cm^3
# Si number density = 26.890060 Si / 1000 Ang^3
#
#
#
# Elastic Constant Matrix: (Units=GPa)
#
#
# Indices 1 2 3 4 5 6 
#
# 1 215.6581 31.1499 47.9187 -1.9692 -26.2125 -36.6438
# 2 31.1499 98.9711 18.8122 6.0508 -9.7645 -30.3665
# 3 47.9187 18.8122 64.1443 4.7767 -0.5242 -7.9780
# 4 -1.9692 6.0508 4.7767 31.3894 -10.3063 2.4466
# 5 -26.2125 -9.7645 -0.5242 -10.3063 50.7175 -3.9927
# 6 -36.6438 -30.3665 -7.9780 2.4466 -3.9927 62.8916
#
#
#
# Elastic Compliance Matrix: (Units=1/GPa)
#
#
# Indices 1 2 3 4 5 6 
#
# 1 0.006846 0.000165 -0.004843 0.002251 0.004264 0.003637
# 2 0.000165 0.012877 -0.002990 -0.001614 0.002691 0.006168
# 3 -0.004843 -0.002990 0.020120 -0.003898 -0.003805 -0.001803
# 4 0.002251 -0.001614 -0.003898 0.035588 0.007978 -0.000840
# 5 0.004264 0.002691 -0.003805 0.007978 0.024378 0.004538
# 6 0.003637 0.006168 -0.001803 -0.000840 0.004538 0.021090
#
#
# Mechanical properties :
#
#
# Convention : Reuss Voigt Hill
#
# Bulk Modulus (GPa) = 40.80698 63.83727 52.32212
# Shear Modulus (GPa) = 34.62479 47.72587 41.17533
#
# Velocity S-wave (km/s) = 3.59227 4.21747 3.91736
# Velocity P-wave (km/s) = 5.69335 6.89258 6.32147
#
# Compressibility (1/GPa) = 0.02450561
#
# Stress axis : x y z
#
# Youngs Moduli (GPa) = 146.06816 77.65712 49.70233
#
# Poissons Ratio (x) = -0.01280 0.24071
# Poissons Ratio (y) = -0.02408 0.14863
# Poissons Ratio (z) = 0.70743 0.23223
#
# Static dielectric constant tensor:
#      x y z
#    x 2.000750 0.025250 0.023300 
#    y 0.025250 2.198920 -0.025630 
#    z 0.023300 -0.025630 2.237210 
# 
# From -- ./inp_files/135588.got.cif
#   From: 2010.05.17/outbox.cif.g08.bks.cpg/sg2_68_cif.got.tgz:135588.got - 2010.06.03 11:33:40.
