data_PCOD9008489
_publ_section_title
;
Structure prediction by ZEFSAII (Michael W. Deem and Ramdas Pophale) SiO2 
 PCOD9008489
Probable space group: P -1
;
_chemical_formula_sum "Si O2"
_cell_formula_units_Z 12
_cell_length_a 8.904406
_cell_length_b 7.447316
_cell_length_c 16.292688
_cell_angle_alpha 63.731687
_cell_angle_beta 32.647327
_cell_angle_gamma 82.824921
_cell_volume 448.919665
_symmetry_space_group_name_H-M "P -1"
_symmetry_group_IT_number 2
_symmetry_cell_setting 'triclinic'
loop_
_space_group_symop_operation_xyz
x,y,z
-x,-y,-z
loop_
_atom_site_type_symbol
_atom_site_label
_atom_site_fract_x
_atom_site_fract_y
_atom_site_fract_z
Si Si1 0.748850 0.170533 0.919376
Si Si2 0.628253 0.484035 0.543689
Si Si3 0.420611 0.016636 0.798448
Si Si4 0.327897 0.565460 0.957558
Si Si5 0.637927 0.222529 0.337298
Si Si6 0.166980 0.279886 0.434093
O O1 0.084122 0.344123 0.683491
O O2 0.636842 0.333456 0.986838
O O3 0.500000 0.000000 0.000000
O O4 0.734568 0.003631 0.035476
O O5 0.452284 0.205109 0.680000
O O6 0.376221 0.572985 0.647021
O O7 0.779046 0.540176 0.554841
O O8 0.794990 0.096174 0.628439
O O9 0.239135 0.744375 0.915188
O O10 0.645765 0.598365 0.760271
O O11 0.016454 0.317849 0.133606
O O12 0.363349 0.166744 0.407011
O O13 0.500000 0.000000 0.500000
#
# Coordination Sequence:
#
# PCOD9008489 Si02
#       6
#     2   2   2   2   2   2
#     4  10  21  39  65 101 133 167 219 272 335 385
#     4  10  22  41  70  91 134 177 218 273 337 382
#     4  10  22  41  69  99 133 166 226 280 330 383
#     4  10  23  42  66 100 133 176 224 266 338 397
#     4  10  24  43  65  96 137 178 222 270 330 402
#     4  10  21  42  67  94 133 179 216 271 333 393
#
# _framework density 26.730840000000001
#
# number of rings (size 3 to 8) (size 9 to 14) (size 15 to 20)
#    2.000    0.000    1.667    1.500    0.000    4.000 
#    3.000    1.667    0.000    0.000    0.000    0.000 
#    0.000    0.000    0.000    0.000    0.000    0.000 
#
# Total GULP energy -66936.072273 kJ/mol
# GULP energy per Si atom -5578.006023 kJ/mol
# Density = 2.667000 g / cm^3
# Si number density = 26.730840 Si / 1000 Ang^3
#
#
#
# Elastic Constant Matrix: (Units=GPa)
#
#
# Indices 1 2 3 4 5 6 
#
# 1 81.6740 10.6694 34.8413 4.3669 1.0756 17.3065
# 2 10.6694 38.4256 25.2739 -5.5148 11.1885 5.6763
# 3 34.8413 25.2739 246.5222 -1.2943 -1.3190 -0.6692
# 4 4.3669 -5.5148 -1.2943 53.0591 -0.8363 13.4380
# 5 1.0756 11.1885 -1.3190 -0.8363 45.9045 -9.9751
# 6 17.3065 5.6763 -0.6692 13.4380 -9.9751 40.7761
#
#
#
# Elastic Compliance Matrix: (Units=1/GPa)
#
#
# Indices 1 2 3 4 5 6 
#
# 1 0.014637 -0.001358 -0.001954 0.000227 -0.001474 -0.006491
# 2 -0.001358 0.033483 -0.003288 0.005476 -0.009944 -0.008376
# 3 -0.001954 -0.003288 0.004679 -0.000519 0.001379 0.001872
# 4 0.000227 0.005476 -0.000519 0.021533 -0.002844 -0.008659
# 5 -0.001474 -0.009944 0.001379 -0.002844 0.026272 0.009397
# 6 -0.006491 -0.008376 0.001872 -0.008659 0.009397 0.033628
#
#
# Mechanical properties :
#
#
# Convention : Reuss Voigt Hill
#
# Bulk Modulus (GPa) = 25.25300 56.46565 40.85932
# Shear Modulus (GPa) = 31.12681 47.67041 39.39861
#
# Velocity S-wave (km/s) = 3.41611 4.22755 3.84331
# Velocity P-wave (km/s) = 5.00274 6.70815 5.91721
#
# Compressibility (1/GPa) = 0.03959926
#
# Stress axis : x y z
#
# Youngs Moduli (GPa) = 68.31796 29.86623 213.70374
#
# Poissons Ratio (x) = 0.04057 0.41753
# Poissons Ratio (y) = 0.09280 0.70264
# Poissons Ratio (z) = 0.13348 0.09820
#
# Static dielectric constant tensor:
#      x y z
#    x 2.146200 -0.002840 0.083360 
#    y -0.002840 2.256720 0.072650 
#    z 0.083360 0.072650 2.068960 
# 
# From -- ./inp_files/565856.got.cif
#   From: 2010.05.17/outbox.cif.g08.bks.cpg/sg2_283_cif.got.tgz:565856.got - 2010.06.03 11:33:40.
