data_PCOD9008410
_publ_section_title
;
Structure prediction by ZEFSAII (Michael W. Deem and Ramdas Pophale) SiO2 
 PCOD9008410
Probable space group: P -1
;
_chemical_formula_sum "Si O2"
_cell_formula_units_Z 12
_cell_length_a 5.252639
_cell_length_b 23.514421
_cell_length_c 9.055928
_cell_angle_alpha 153.400386
_cell_angle_beta 76.831649
_cell_angle_gamma 112.265531
_cell_volume 446.546112
_symmetry_space_group_name_H-M "P -1"
_symmetry_group_IT_number 2
_symmetry_cell_setting 'triclinic'
loop_
_space_group_symop_operation_xyz
x,y,z
-x,-y,-z
loop_
_atom_site_type_symbol
_atom_site_label
_atom_site_fract_x
_atom_site_fract_y
_atom_site_fract_z
Si Si1 0.259637 0.531412 0.190121
Si Si2 0.807341 0.444255 0.254503
Si Si3 0.683737 0.963435 0.268824
Si Si4 0.386519 0.784904 0.606020
Si Si5 0.003643 0.141443 0.395882
Si Si6 0.360686 0.302141 0.204245
O O1 0.170167 0.633782 0.339831
O O2 0.422042 0.632635 0.538588
O O3 0.762114 0.579689 0.520777
O O4 0.500000 0.500000 0.000000
O O5 0.528960 0.320167 0.067713
O O6 0.000000 0.500000 0.500000
O O7 0.001616 0.413097 0.035828
O O8 0.500000 0.000000 0.500000
O O9 0.492772 0.883721 0.966147
O O10 0.798309 0.856102 0.085030
O O11 0.911261 0.104227 0.491760
O O12 0.661448 0.763993 0.453851
O O13 0.232931 0.840528 0.635507
O O14 0.000000 0.000000 0.000000
#
# Coordination Sequence:
#
# PCOD9008410 Si02
#       6
#     2   2   2   2   2   2
#     4  10  22  37  62  93 116 163 210 258 308 373
#     4   9  19  39  62  84 121 159 202 251 321 367
#     4  10  21  39  64  96 121 165 213 259 310 376
#     4  10  23  43  65  89 133 169 203 261 320 376
#     4  10  21  42  65  88 128 171 206 253 324 375
#     4   9  20  40  62  84 123 163 197 259 314 368
#
# _framework density 26.872924999999999
#
# number of rings (size 3 to 8) (size 9 to 14) (size 15 to 20)
#    0.000    2.333    0.000    2.000    7.000    2.000 
#   12.000    7.500    0.000    0.000    0.000    0.000 
#    0.000    0.000    0.000    0.000    0.000    0.000 
#
# Total GULP energy -67051.503293 kJ/mol
# GULP energy per Si atom -5587.625274 kJ/mol
# Density = 2.681176 g / cm^3
# Si number density = 26.872925 Si / 1000 Ang^3
#
#
#
# Elastic Constant Matrix: (Units=GPa)
#
#
# Indices 1 2 3 4 5 6 
#
# 1 120.2054 91.5504 13.2866 -1.5660 -22.5261 -12.8791
# 2 91.5504 245.1115 44.9606 -9.6113 -16.6399 12.9342
# 3 13.2866 44.9606 64.8841 -9.5284 1.3485 5.7921
# 4 -1.5660 -9.6113 -9.5284 51.9779 7.1065 -17.0776
# 5 -22.5261 -16.6399 1.3485 7.1065 30.5575 -2.8634
# 6 -12.8791 12.9342 5.7921 -17.0776 -2.8634 71.2892
#
#
#
# Elastic Compliance Matrix: (Units=1/GPa)
#
#
# Indices 1 2 3 4 5 6 
#
# 1 0.013906 -0.004848 -0.000037 -0.000393 0.008044 0.003624
# 2 -0.004848 0.006618 -0.003454 -0.000165 0.000049 -0.001833
# 3 -0.000037 -0.003454 0.018366 0.003114 -0.003468 -0.000265
# 4 -0.000393 -0.000165 0.003114 0.022048 -0.005197 0.004779
# 5 0.008044 0.000049 -0.003468 -0.005197 0.040240 0.002097
# 6 0.003624 -0.001833 -0.000265 0.004779 0.002097 0.016265
#
#
# Mechanical properties :
#
#
# Convention : Reuss Voigt Hill
#
# Bulk Modulus (GPa) = 45.02100 81.08847 63.05474
# Shear Modulus (GPa) = 35.32955 49.45849 42.39402
#
# Velocity S-wave (km/s) = 3.62980 4.29471 3.97618
# Velocity P-wave (km/s) = 5.86148 7.40493 6.67795
#
# Compressibility (1/GPa) = 0.02221185
#
# Stress axis : x y z
#
# Youngs Moduli (GPa) = 71.91277 151.11046 54.44719
#
# Poissons Ratio (x) = 0.73254 0.00200
# Poissons Ratio (y) = 0.34861 0.18809
# Poissons Ratio (z) = 0.00265 0.52201
#
# Static dielectric constant tensor:
#      x y z
#    x 2.070990 0.260090 0.108560 
#    y 0.260090 1.885290 -0.077890 
#    z 0.108560 -0.077890 2.037100 
# 
# From -- ./inp_files/141938.got.cif
#   From: 2010.05.17/outbox.cif.g08.bks.cpg/sg2_71_cif.got.tgz:141938.got - 2010.06.03 11:33:40.
