data_PCOD9008787
_publ_section_title
;
Structure prediction by ZEFSAII (Michael W. Deem and Ramdas Pophale) SiO2 
 PCOD9008787
Probable space group: P -1
;
_chemical_formula_sum "Si O2"
_cell_formula_units_Z 16
_cell_length_a 15.804841
_cell_length_b 19.525144
_cell_length_c 6.464536
_cell_angle_alpha 82.676041
_cell_angle_beta 94.847171
_cell_angle_gamma 159.881900
_cell_volume 676.928213
_symmetry_space_group_name_H-M "P -1"
_symmetry_group_IT_number 2
_symmetry_cell_setting 'triclinic'
loop_
_space_group_symop_operation_xyz
x,y,z
-x,-y,-z
loop_
_atom_site_type_symbol
_atom_site_label
_atom_site_fract_x
_atom_site_fract_y
_atom_site_fract_z
Si Si1 0.963859 0.302385 0.432310
Si Si2 0.338689 0.031247 0.269737
Si Si3 0.554004 0.334257 0.362508
Si Si4 0.750866 0.805816 0.327776
Si Si5 0.266594 0.736798 0.479938
Si Si6 0.627686 0.504409 0.003735
Si Si7 0.354523 0.957196 0.906639
Si Si8 0.205491 0.246339 0.274377
O O1 0.779756 0.217097 0.532019
O O2 0.234103 0.526883 0.484830
O O3 0.881159 0.164875 0.554352
O O4 0.889038 0.248875 0.197648
O O5 0.402005 0.158114 0.285400
O O6 0.591915 0.184844 0.324478
O O7 0.287916 0.963422 0.059110
O O8 0.370980 0.239720 0.501452
O O9 0.684293 0.479149 0.154581
O O10 0.565272 0.659344 0.156620
O O11 0.794679 0.766804 0.473425
O O12 0.003037 0.037161 0.231658
O O13 0.447986 0.859283 0.282076
O O14 0.000000 0.500000 0.500000
O O15 0.832568 0.707657 0.853109
O O16 0.475164 0.432002 0.170891
O O17 0.500000 0.000000 0.000000
#
# Coordination Sequence:
#
# PCOD9008787 Si02
#       8
#     2   2   2   2   2   2   2   2
#     4  11  23  42  62  89 129 164 211 275 321 373
#     4  11  23  42  62  91 125 166 217 268 320 379
#     4  11  26  41  59  92 137 174 204 257 327 387
#     4  10  21  40  66  95 127 169 209 249 316 374
#     4  11  21  40  66  90 119 156 216 277 316 374
#     4  10  21  39  65  98 128 162 214 253 310 375
#     4  11  21  40  69  92 112 163 227 271 319 371
#     4   9  20  40  69  97 122 161 212 266 292 365
#
# _framework density 23.636182999999999
#
# number of rings (size 3 to 8) (size 9 to 14) (size 15 to 20)
#    0.000    1.500    3.750    1.500    0.000    5.500 
#    2.250    2.500    0.000    0.000    0.000    0.000 
#    0.000    0.000    0.000    0.000    0.000    0.000 
#
# Total GULP energy -89374.632325 kJ/mol
# GULP energy per Si atom -5585.914520 kJ/mol
# Density = 2.358239 g / cm^3
# Si number density = 23.636183 Si / 1000 Ang^3
#
#
#
# Elastic Constant Matrix: (Units=GPa)
#
#
# Indices 1 2 3 4 5 6 
#
# 1 65.3695 10.2477 26.4727 -1.3003 0.5176 -14.8456
# 2 10.2477 78.5329 36.1431 6.2691 4.1662 -18.6070
# 3 26.4727 36.1431 102.9435 21.4339 3.2167 -13.5414
# 4 -1.3003 6.2691 21.4339 41.7645 -4.6370 1.9665
# 5 0.5176 4.1662 3.2167 -4.6370 32.2642 -3.0885
# 6 -14.8456 -18.6070 -13.5414 1.9665 -3.0885 34.0050
#
#
#
# Elastic Compliance Matrix: (Units=1/GPa)
#
#
# Indices 1 2 3 4 5 6 
#
# 1 0.018696 0.001157 -0.004927 0.002738 0.001084 0.006773
# 2 0.001157 0.016810 -0.005097 -0.000341 -0.001002 0.007602
# 3 -0.004927 -0.005097 0.014422 -0.007018 -0.001608 0.001063
# 4 0.002738 -0.000341 -0.007018 0.028322 0.004481 -0.003016
# 5 0.001084 -0.001002 -0.001608 0.004481 0.032096 0.001941
# 6 0.006773 0.007602 0.001063 -0.003016 0.001941 0.037298
#
#
# Mechanical properties :
#
#
# Convention : Reuss Voigt Hill
#
# Bulk Modulus (GPa) = 31.06306 43.61923 37.34114
# Shear Modulus (GPa) = 28.39148 33.20556 30.79852
#
# Velocity S-wave (km/s) = 3.46957 3.75221 3.61366
# Velocity P-wave (km/s) = 5.40567 6.10464 5.76576
#
# Compressibility (1/GPa) = 0.03219258
#
# Stress axis : x y z
#
# Youngs Moduli (GPa) = 53.48848 59.48859 69.33863
#
# Poissons Ratio (x) = -0.06880 0.34162
# Poissons Ratio (y) = -0.06186 0.35343
# Poissons Ratio (z) = 0.26353 0.30322
#
# Static dielectric constant tensor:
#      x y z
#    x 1.977710 -0.012870 0.053500 
#    y -0.012870 1.909300 0.016400 
#    z 0.053500 0.016400 1.946840 
# 
# From -- ./inp_files/112420.got.cif
#   From: 2010.05.17/outbox.cif.g08.bks.cpg/sg2_57_cif.got.tgz:112420.got - 2010.06.03 11:33:40.
