data_PCOD9008835
_publ_section_title
;
Structure prediction by ZEFSAII (Michael W. Deem and Ramdas Pophale) SiO2 
 PCOD9008835
Probable space group: P -1
;
_chemical_formula_sum "Si O2"
_cell_formula_units_Z 16
_cell_length_a 16.373407
_cell_length_b 5.710209
_cell_length_c 25.613732
_cell_angle_alpha 125.637154
_cell_angle_beta 159.025013
_cell_angle_gamma 54.121100
_cell_volume 689.383237
_symmetry_space_group_name_H-M "P -1"
_symmetry_group_IT_number 2
_symmetry_cell_setting 'triclinic'
loop_
_space_group_symop_operation_xyz
x,y,z
-x,-y,-z
loop_
_atom_site_type_symbol
_atom_site_label
_atom_site_fract_x
_atom_site_fract_y
_atom_site_fract_z
Si Si1 0.676140 0.780416 0.043693
Si Si2 0.719335 0.778978 0.406616
Si Si3 0.837927 0.618503 0.691734
Si Si4 0.507555 0.208027 0.838273
Si Si5 0.839094 0.128407 0.373736
Si Si6 0.058032 0.326887 0.066498
Si Si7 0.103590 0.107621 0.909651
Si Si8 0.524655 0.689151 0.617402
O O1 0.764908 0.968147 0.075016
O O2 0.912515 0.591411 0.183938
O O3 0.527710 0.542678 0.901271
O O4 0.500000 0.000000 0.000000
O O5 0.586941 0.857308 0.283083
O O6 0.715330 0.435960 0.361703
O O7 0.987341 0.822426 0.563131
O O8 0.600633 0.977622 0.407595
O O9 0.697522 0.623853 0.663128
O O10 0.677369 0.504247 0.537204
O O11 0.878812 0.951641 0.751763
O O12 0.343084 0.092855 0.768734
O O13 0.757212 0.031473 0.975486
O O14 0.000000 0.000000 0.500000
O O15 0.317888 0.354256 0.242789
O O16 0.914631 0.547682 0.050530
O O17 0.000000 0.500000 0.000000
O O18 0.000000 0.000000 0.000000
#
# Coordination Sequence:
#
# PCOD9008835 Si02
#       8
#     2   2   2   2   2   2   2   2
#     4  11  25  45  71 101 140 192 251 313 369 448
#     4  10  21  39  66 101 138 184 238 302 371 441
#     4  10  25  49  67 105 148 201 252 303 381 453
#     4  10  22  40  69  98 138 184 238 311 377 433
#     4   9  20  38  59  96 140 179 231 292 369 441
#     4  12  27  46  77 115 153 197 251 312 390 458
#     4  11  24  46  69 100 146 185 249 308 365 455
#     4  11  24  46  73 104 151 197 249 310 375 460
#
# _framework density 23.209153000000001
#
# number of rings (size 3 to 8) (size 9 to 14) (size 15 to 20)
#    0.000    1.500    1.250    2.250    5.250    7.500 
#    6.750    0.000    0.000    0.000    0.000    0.000 
#    0.000    0.000    0.000    0.000    0.000    0.000 
#
# Total GULP energy -89321.350640 kJ/mol
# GULP energy per Si atom -5582.584415 kJ/mol
# Density = 2.315633 g / cm^3
# Si number density = 23.209153 Si / 1000 Ang^3
#
#
#
# Elastic Constant Matrix: (Units=GPa)
#
#
# Indices 1 2 3 4 5 6 
#
# 1 64.9120 42.8564 38.2794 3.3147 8.7609 -7.3642
# 2 42.8564 128.1930 48.6107 6.1947 0.0388 -11.5868
# 3 38.2794 48.6107 141.5800 23.5815 -1.9516 4.1429
# 4 3.3147 6.1947 23.5815 31.0354 6.1958 9.8499
# 5 8.7609 0.0388 -1.9516 6.1958 26.3053 -4.0745
# 6 -7.3642 -11.5868 4.1429 9.8499 -4.0745 46.2245
#
#
#
# Elastic Compliance Matrix: (Units=1/GPa)
#
#
# Indices 1 2 3 4 5 6 
#
# 1 0.023528 -0.006022 -0.005122 0.004047 -0.008999 0.001042
# 2 -0.006022 0.010818 -0.001896 -0.001356 0.002546 0.002436
# 3 -0.005122 -0.001896 0.010468 -0.007829 0.004301 -0.000182
# 4 0.004047 -0.001356 -0.007829 0.043770 -0.013712 -0.009529
# 5 -0.008999 0.002546 0.004301 -0.013712 0.045447 0.005747
# 6 0.001042 0.002436 -0.000182 -0.009529 0.005747 0.024964
#
#
# Mechanical properties :
#
#
# Convention : Reuss Voigt Hill
#
# Bulk Modulus (GPa) = 53.38293 66.01977 59.70135
# Shear Modulus (GPa) = 26.13411 34.37561 30.25486
#
# Velocity S-wave (km/s) = 3.35927 3.85271 3.61442
# Velocity P-wave (km/s) = 6.17228 6.94971 6.57250
#
# Compressibility (1/GPa) = 0.01873258
#
# Stress axis : x y z
#
# Youngs Moduli (GPa) = 42.50219 92.43867 95.53105
#
# Poissons Ratio (x) = 0.55666 0.48935
# Poissons Ratio (y) = 0.25595 0.18116
# Poissons Ratio (z) = 0.21771 0.17530
#
# Static dielectric constant tensor:
#      x y z
#    x 1.918800 -0.012800 0.017950 
#    y -0.012800 1.894020 -0.055570 
#    z 0.017950 -0.055570 1.928590 
# 
# From -- ./inp_files/620165.got.cif
#   From: 2010.05.17/outbox.cif.g08.bks.cpg/sg2_311_cif.got.tgz:620165.got - 2010.06.03 11:33:40.
