data_PCOD9008682
_publ_section_title
;
Structure prediction by ZEFSAII (Michael W. Deem and Ramdas Pophale) SiO2 
 PCOD9008682
Probable space group: P -1
;
_chemical_formula_sum "Si O2"
_cell_formula_units_Z 14
_cell_length_a 11.720740
_cell_length_b 8.921890
_cell_length_c 9.529759
_cell_angle_alpha 136.513626
_cell_angle_beta 106.198995
_cell_angle_gamma 76.447972
_cell_volume 657.803525
_symmetry_space_group_name_H-M "P -1"
_symmetry_group_IT_number 2
_symmetry_cell_setting 'triclinic'
loop_
_space_group_symop_operation_xyz
x,y,z
-x,-y,-z
loop_
_atom_site_type_symbol
_atom_site_label
_atom_site_fract_x
_atom_site_fract_y
_atom_site_fract_z
Si Si1 0.838464 0.561632 0.610200
Si Si2 0.091818 0.991837 0.156501
Si Si3 0.066026 0.309286 0.977010
Si Si4 0.609543 0.377709 0.535778
Si Si5 0.682403 0.915100 0.114138
Si Si6 0.499986 0.447157 0.127943
Si Si7 0.751501 0.251206 0.149830
O O1 0.924750 0.596730 0.795880
O O2 0.717243 0.525939 0.629661
O O3 0.841584 0.358847 0.364296
O O4 0.850547 0.775441 0.663474
O O5 0.190254 0.808068 0.018421
O O6 0.015068 0.901175 0.193528
O O7 0.000000 0.000000 0.000000
O O8 0.195974 0.226915 0.909529
O O9 0.000000 0.500000 0.000000
O O10 0.500000 0.500000 0.500000
O O11 0.570670 0.373017 0.680527
O O12 0.650668 0.135360 0.339276
O O13 0.709946 0.023199 0.045716
O O14 0.571336 0.766090 0.998060
O O15 0.635373 0.408624 0.199700
O O16 0.500000 0.500000 0.000000
#
# Coordination Sequence:
#
# PCOD9008682 Si02
#       7
#     2   2   2   2   2   2   2
#     4  10  21  40  68  93 127 163 230 263 309 401
#     4  10  21  39  65  94 127 169 222 270 318 379
#     4  11  24  43  67  93 135 176 216 276 332 380
#     4  11  22  41  71 101 128 174 224 264 329 405
#     4  11  23  43  69  93 133 178 221 261 332 403
#     4  12  26  41  68 102 138 167 213 283 337 385
#     4  11  22  40  70  99 122 177 222 260 327 402
#
# _framework density 21.282951000000001
#
# number of rings (size 3 to 8) (size 9 to 14) (size 15 to 20)
#    0.000    1.143    7.143    0.429    4.000    2.857 
#    0.000    5.714    3.143    0.000    0.000    0.000 
#    0.000    0.000    0.000    0.000    0.000    0.000 
#
# Total GULP energy -78047.561244 kJ/mol
# GULP energy per Si atom -5574.825803 kJ/mol
# Density = 2.123451 g / cm^3
# Si number density = 21.282951 Si / 1000 Ang^3
#
#
#
# Elastic Constant Matrix: (Units=GPa)
#
#
# Indices 1 2 3 4 5 6 
#
# 1 81.7119 14.2100 26.2617 7.0262 -2.6697 -0.0052
# 2 14.2100 69.6285 21.6704 2.9111 2.1199 -10.4937
# 3 26.2617 21.6704 87.3102 10.1956 -4.1149 -1.7992
# 4 7.0262 2.9111 10.1956 24.3134 4.8182 -6.0258
# 5 -2.6697 2.1199 -4.1149 4.8182 30.3768 10.4140
# 6 -0.0052 -10.4937 -1.7992 -6.0258 10.4140 26.4371
#
#
#
# Elastic Compliance Matrix: (Units=1/GPa)
#
#
# Indices 1 2 3 4 5 6 
#
# 1 0.014052 -0.002248 -0.003177 -0.003701 0.002563 -0.002959
# 2 -0.002248 0.017677 -0.004260 0.004014 -0.006086 0.010038
# 3 -0.003177 -0.004260 0.014336 -0.006394 0.004300 -0.003867
# 4 -0.003701 0.004014 -0.006394 0.052549 -0.016544 0.019651
# 5 0.002563 -0.006086 0.004300 -0.016544 0.044854 -0.023562
# 6 -0.002959 0.010038 -0.003867 0.019651 -0.023562 0.055307
#
#
# Mechanical properties :
#
#
# Convention : Reuss Voigt Hill
#
# Bulk Modulus (GPa) = 37.46008 40.32611 38.89309
# Shear Modulus (GPa) = 22.02233 27.99270 25.00751
#
# Velocity S-wave (km/s) = 3.22023 3.63059 3.43155
# Velocity P-wave (km/s) = 5.60943 6.04679 5.83221
#
# Compressibility (1/GPa) = 0.02669508
#
# Stress axis : x y z
#
# Youngs Moduli (GPa) = 71.16518 56.57083 69.75532
#
# Poissons Ratio (x) = 0.12719 0.22158
# Poissons Ratio (y) = 0.16000 0.29714
# Poissons Ratio (z) = 0.22606 0.24098
#
# Static dielectric constant tensor:
#      x y z
#    x 1.851320 0.009050 -0.016590 
#    y 0.009050 1.757590 -0.010570 
#    z -0.016590 -0.010570 1.860320 
# 
# From -- ./inp_files/418639.got.cif
#   From: 2010.05.17/outbox.cif.g08.bks.cpg/sg2_210_cif.got.tgz:418639.got - 2010.06.03 11:33:40.
