data_PCOD9008171
_publ_section_title
;
Structure prediction by ZEFSAII (Michael W. Deem and Ramdas Pophale) SiO2 
 PCOD9008171
Probable space group: P -1
;
_chemical_formula_sum "Si O2"
_cell_formula_units_Z 16
_cell_length_a 24.883631
_cell_length_b 9.241450
_cell_length_c 12.528389
_cell_angle_alpha 42.448185
_cell_angle_beta 35.213652
_cell_angle_gamma 26.528346
_cell_volume 741.730696
_symmetry_space_group_name_H-M "P -1"
_symmetry_group_IT_number 2
_symmetry_cell_setting 'triclinic'
loop_
_space_group_symop_operation_xyz
x,y,z
-x,-y,-z
loop_
_atom_site_type_symbol
_atom_site_label
_atom_site_fract_x
_atom_site_fract_y
_atom_site_fract_z
Si Si1 0.037249 0.679403 0.320082
Si Si2 0.684489 0.638746 0.048171
Si Si3 0.480384 0.283667 0.342536
Si Si4 0.351531 0.886756 0.545476
Si Si5 0.755723 0.231249 0.365537
Si Si6 0.271565 0.839058 0.912248
Si Si7 0.411769 0.274896 0.226443
Si Si8 0.104910 0.865247 0.305265
O O1 0.063787 0.758641 0.343553
O O2 0.000000 0.500000 0.500000
O O3 0.178995 0.458047 0.143768
O O4 0.909819 0.006126 0.283036
O O5 0.713093 0.461378 0.210449
O O6 0.672123 0.484861 0.055585
O O7 0.549923 0.024765 0.065087
O O8 0.353612 0.570284 0.468741
O O9 0.611911 0.216935 0.185919
O O10 0.441136 0.352006 0.244697
O O11 0.500000 0.000000 0.500000
O O12 0.500000 0.500000 0.500000
O O13 0.260865 0.979840 0.539785
O O14 0.255689 0.992609 0.743785
O O15 0.393299 0.056347 0.401669
O O16 0.128079 0.040709 0.100219
O O17 0.265093 0.584533 0.241821
O O18 0.000000 0.000000 0.500000
#
# Coordination Sequence:
#
# PCOD9008171 Si02
#       8
#     2   2   2   2   2   2   2   2
#     4  11  25  42  62  90 124 167 212 252 307 374
#     4  10  21  40  63  94 121 158 209 259 320 358
#     4  12  20  35  64 100 121 151 212 260 308 365
#     4  11  17  38  65  97 124 152 205 266 315 360
#     4  11  20  38  65  90 130 156 199 262 313 368
#     4  10  21  39  64  88 130 161 204 254 312 375
#     4  12  22  38  67  93 125 158 212 265 303 374
#     4  11  27  47  58  85 136 178 204 245 320 379
#
# _framework density 21.571173000000002
#
# number of rings (size 3 to 8) (size 9 to 14) (size 15 to 20)
#    0.000    1.000    6.250    1.875    0.000    4.500 
#    0.000    0.625    0.000    0.000    0.000    0.000 
#    0.000    0.000    0.000    0.000    0.000    0.000 
#
# Total GULP energy -89254.539695 kJ/mol
# GULP energy per Si atom -5578.408731 kJ/mol
# Density = 2.152208 g / cm^3
# Si number density = 21.571173 Si / 1000 Ang^3
#
#
#
# Elastic Constant Matrix: (Units=GPa)
#
#
# Indices 1 2 3 4 5 6 
#
# 1 160.6475 28.5956 28.7621 15.8065 -9.3196 0.8535
# 2 28.5956 31.1701 26.6741 13.6813 -2.1213 -10.8525
# 3 28.7621 26.6741 151.1129 34.3129 -17.5524 9.1876
# 4 15.8065 13.6813 34.3129 32.9432 2.3608 -2.8820
# 5 -9.3196 -2.1213 -17.5524 2.3608 37.8953 1.5834
# 6 0.8535 -10.8525 9.1876 -2.8820 1.5834 23.5963
#
#
#
# Elastic Compliance Matrix: (Units=1/GPa)
#
#
# Indices 1 2 3 4 5 6 
#
# 1 0.008001 -0.009183 0.001095 -0.001795 0.002295 -0.005313
# 2 -0.009183 0.064112 -0.010146 -0.008461 -0.004222 0.033019
# 3 0.001095 -0.010146 0.011898 -0.010119 0.006302 -0.010998
# 4 -0.001795 -0.008461 -0.010119 0.046456 -0.008762 0.006376
# 5 0.002295 -0.004222 0.006302 -0.008762 0.030499 -0.007595
# 6 -0.005313 0.033019 -0.010998 0.006376 -0.007595 0.063329
#
#
# Mechanical properties :
#
#
# Convention : Reuss Voigt Hill
#
# Bulk Modulus (GPa) = 21.03315 56.77710 38.90513
# Shear Modulus (GPa) = 18.07596 36.14687 27.11142
#
# Velocity S-wave (km/s) = 2.89791 4.09798 3.54903
# Velocity P-wave (km/s) = 4.57918 6.98349 5.90500
#
# Compressibility (1/GPa) = 0.04754399
#
# Stress axis : x y z
#
# Youngs Moduli (GPa) = 124.97840 15.59773 84.04527
#
# Poissons Ratio (x) = 0.14324 -0.09206
# Poissons Ratio (y) = 1.14773 0.85270
# Poissons Ratio (z) = -0.13690 0.15825
#
# Static dielectric constant tensor:
#      x y z
#    x 1.809320 -0.026670 0.033290 
#    y -0.026670 1.858740 -0.067850 
#    z 0.033290 -0.067850 1.848730 
# 
# From -- ./inp_files/474122.got.cif
#   From: 2010.05.17/outbox.cif.g08.bks.cpg/sg2_238_cif.got.tgz:474122.got - 2010.06.03 11:33:40.
