data_PCOD9008535
_publ_section_title
;
Structure prediction by ZEFSAII (Michael W. Deem and Ramdas Pophale) SiO2 
 PCOD9008535
Probable space group: P -1
;
_chemical_formula_sum "Si O2"
_cell_formula_units_Z 12
_cell_length_a 12.239356
_cell_length_b 9.338590
_cell_length_c 8.983287
_cell_angle_alpha 48.889024
_cell_angle_beta 73.302139
_cell_angle_gamma 46.222741
_cell_volume 531.409473
_symmetry_space_group_name_H-M "P -1"
_symmetry_group_IT_number 2
_symmetry_cell_setting 'triclinic'
loop_
_space_group_symop_operation_xyz
x,y,z
-x,-y,-z
loop_
_atom_site_type_symbol
_atom_site_label
_atom_site_fract_x
_atom_site_fract_y
_atom_site_fract_z
Si Si1 0.955467 0.237525 0.257787
Si Si2 0.626396 0.776723 0.725038
Si Si3 0.146319 0.476588 0.461225
Si Si4 0.359448 0.925823 0.891911
Si Si5 0.244401 0.158048 0.088198
Si Si6 0.906960 0.046498 0.150358
O O1 0.114864 0.152670 0.191458
O O2 0.862169 0.259536 0.137773
O O3 0.849886 0.543545 0.139275
O O4 0.000000 0.000000 0.500000
O O5 0.779710 0.569767 0.699566
O O6 0.667234 0.877400 0.772001
O O7 0.500000 0.000000 0.500000
O O8 0.529089 0.723002 0.883883
O O9 0.283829 0.217471 0.676728
O O10 0.000000 0.500000 0.500000
O O11 0.052727 0.763331 0.366278
O O12 0.239188 0.912363 0.876288
O O13 0.351949 0.942583 0.062371
O O14 0.000000 0.000000 0.000000
#
# Coordination Sequence:
#
# PCOD9008535 Si02
#       6
#     2   2   2   2   2   2
#     4  11  25  38  67  99 131 162 220 274 317 375
#     4  10  22  39  66  94 127 176 212 259 328 390
#     4   9  20  35  63  90 120 163 212 259 314 379
#     4  10  21  39  65  88 129 169 210 263 323 384
#     4  11  23  42  65  96 129 172 215 267 323 379
#     4  11  20  38  60  94 124 162 214 267 316 373
#
# _framework density 22.581454999999998
#
# number of rings (size 3 to 8) (size 9 to 14) (size 15 to 20)
#    0.000    1.667    1.667    2.500   14.000    0.000 
#    0.000    3.333    0.000    4.000    0.000    0.000 
#    0.000    0.000    0.000    0.000    0.000    0.000 
#
# Total GULP energy -66855.189363 kJ/mol
# GULP energy per Si atom -5571.265780 kJ/mol
# Density = 2.253006 g / cm^3
# Si number density = 22.581455 Si / 1000 Ang^3
#
#
#
# Elastic Constant Matrix: (Units=GPa)
#
#
# Indices 1 2 3 4 5 6 
#
# 1 150.9790 72.7216 44.1622 29.6379 -9.2774 -6.3984
# 2 72.7216 124.1822 38.5762 34.1998 -16.0523 -10.5186
# 3 44.1622 38.5762 101.0377 6.9824 -4.2408 -0.1062
# 4 29.6379 34.1998 6.9824 44.4844 -1.9819 1.2842
# 5 -9.2774 -16.0523 -4.2408 -1.9819 38.3882 5.4581
# 6 -6.3984 -10.5186 -0.1062 1.2842 5.4581 42.3959
#
#
#
# Elastic Compliance Matrix: (Units=1/GPa)
#
#
# Indices 1 2 3 4 5 6 
#
# 1 0.010012 -0.004146 -0.002572 -0.003088 0.000164 0.000548
# 2 -0.004146 0.014201 -0.002920 -0.007601 0.003848 0.002625
# 3 -0.002572 -0.002920 0.011980 0.002099 -0.000253 -0.001114
# 4 -0.003088 -0.007601 0.002099 0.030063 -0.001709 -0.003037
# 5 0.000164 0.003848 -0.000253 -0.001709 0.027947 -0.002567
# 6 0.000548 0.002625 -0.001114 -0.003037 -0.002567 0.024741
#
#
# Mechanical properties :
#
#
# Convention : Reuss Voigt Hill
#
# Bulk Modulus (GPa) = 59.11636 76.34654 67.73145
# Shear Modulus (GPa) = 34.75585 39.76963 37.26274
#
# Velocity S-wave (km/s) = 3.92743 4.20117 4.06661
# Velocity P-wave (km/s) = 6.84122 7.57733 7.21867
#
# Compressibility (1/GPa) = 0.01691579
#
# Stress axis : x y z
#
# Youngs Moduli (GPa) = 99.87553 70.41782 83.47427
#
# Poissons Ratio (x) = 0.29196 0.21473
# Poissons Ratio (y) = 0.41409 0.24376
# Poissons Ratio (z) = 0.25693 0.20563
#
# Static dielectric constant tensor:
#      x y z
#    x 1.811490 -0.045160 0.061810 
#    y -0.045160 1.953320 -0.137350 
#    z 0.061810 -0.137350 2.045200 
# 
# From -- ./inp_files/147572.got.cif
#   From: 2010.05.17/outbox.cif.g08.bks.cpg/sg2_74_cif.got.tgz:147572.got - 2010.06.03 11:33:40.
