data_PCOD9008820
_publ_section_title
;
Structure prediction by ZEFSAII (Michael W. Deem and Ramdas Pophale) SiO2 
 PCOD9008820
Probable space group: P -1
;
_chemical_formula_sum "Si O2"
_cell_formula_units_Z 16
_cell_length_a 20.829461
_cell_length_b 8.139151
_cell_length_c 5.619522
_cell_angle_alpha 126.792174
_cell_angle_beta 115.160479
_cell_angle_gamma 63.404832
_cell_volume 665.605128
_symmetry_space_group_name_H-M "P -1"
_symmetry_group_IT_number 2
_symmetry_cell_setting 'triclinic'
loop_
_space_group_symop_operation_xyz
x,y,z
-x,-y,-z
loop_
_atom_site_type_symbol
_atom_site_label
_atom_site_fract_x
_atom_site_fract_y
_atom_site_fract_z
Si Si1 0.961411 0.708725 0.271375
Si Si2 0.229160 0.722196 0.624152
Si Si3 0.330641 0.324341 0.255678
Si Si4 0.456217 0.545036 0.725125
Si Si5 0.306780 0.969917 0.263794
Si Si6 0.913738 0.121333 0.205936
Si Si7 0.832073 0.917986 0.524719
Si Si8 0.418182 0.971803 0.814113
O O1 0.888634 0.713853 0.317238
O O2 0.020289 0.768638 0.593828
O O3 0.937737 0.907232 0.220692
O O4 0.000000 0.500000 0.000000
O O5 0.262571 0.528815 0.334603
O O6 0.154835 0.715351 0.631558
O O7 0.209136 0.937247 0.628105
O O8 0.286107 0.763319 0.945045
O O9 0.399682 0.402693 0.520002
O O10 0.314122 0.147965 0.245650
O O11 0.360605 0.201051 0.956410
O O12 0.500000 0.500000 0.500000
O O13 0.415095 0.794528 0.850600
O O14 0.500000 0.500000 0.000000
O O15 0.233768 0.086055 0.404507
O O16 0.384564 0.896158 0.460288
O O17 0.882978 0.048083 0.851655
O O18 0.500000 0.000000 0.000000
#
# Coordination Sequence:
#
# PCOD9008820 Si02
#       8
#     2   2   2   2   2   2   2   2
#     4  10  21  39  66 100 138 179 228 288 349 419
#     4  10  24  45  67  97 136 187 235 295 358 431
#     4  12  26  43  72  98 138 182 235 299 361 434
#     4  12  28  48  75 104 144 188 239 298 377 446
#     4  11  25  44  70  98 140 181 238 297 363 428
#     4   9  21  40  64  96 136 178 230 286 351 422
#     4  10  21  44  68  95 140 182 232 291 354 428
#     4  12  27  47  70 104 138 182 239 300 365 441
#
# _framework density 24.038277000000001
#
# number of rings (size 3 to 8) (size 9 to 14) (size 15 to 20)
#    0.000    1.250    1.250    3.375    3.500    7.500 
#    0.000    6.250    0.000    0.000    0.000    0.000 
#    0.000    0.000    0.000    0.000    0.000    0.000 
#
# Total GULP energy -89425.088537 kJ/mol
# GULP energy per Si atom -5589.068034 kJ/mol
# Density = 2.398356 g / cm^3
# Si number density = 24.038277 Si / 1000 Ang^3
#
#
#
# Elastic Constant Matrix: (Units=GPa)
#
#
# Indices 1 2 3 4 5 6 
#
# 1 128.5571 17.2760 33.3772 18.5051 -11.1368 -22.2805
# 2 17.2760 52.2003 30.4801 9.2776 2.0557 -23.1202
# 3 33.3772 30.4801 101.2006 -6.5789 9.3906 -25.7734
# 4 18.5051 9.2776 -6.5789 42.5526 -15.8844 -9.3532
# 5 -11.1368 2.0557 9.3906 -15.8844 45.6619 11.6575
# 6 -22.2805 -23.1202 -25.7734 -9.3532 11.6575 34.6970
#
#
#
# Elastic Compliance Matrix: (Units=1/GPa)
#
#
# Indices 1 2 3 4 5 6 
#
# 1 0.009595 0.000486 -0.002841 -0.003734 0.000814 0.003095
# 2 0.000486 0.031294 -0.004631 -0.006413 -0.007277 0.018441
# 3 -0.002841 -0.004631 0.015283 0.005059 -0.004223 0.009225
# 4 -0.003734 -0.006413 0.005059 0.031039 0.008469 0.002609
# 5 0.000814 -0.007277 -0.004223 0.008469 0.030149 -0.015310
# 6 0.003095 0.018441 0.009225 0.002609 -0.015310 0.055796
#
#
# Mechanical properties :
#
#
# Convention : Reuss Voigt Hill
#
# Bulk Modulus (GPa) = 23.69619 49.35829 36.52724
# Shear Modulus (GPa) = 24.85129 37.97061 31.41095
#
# Velocity S-wave (km/s) = 3.21880 3.97872 3.61876
# Velocity P-wave (km/s) = 4.86758 6.45637 5.71743
#
# Compressibility (1/GPa) = 0.04220088
#
# Stress axis : x y z
#
# Youngs Moduli (GPa) = 104.21739 31.95465 65.43125
#
# Poissons Ratio (x) = -0.01552 0.18589
# Poissons Ratio (y) = -0.05061 0.30299
# Poissons Ratio (z) = 0.29607 0.14797
#
# Static dielectric constant tensor:
#      x y z
#    x 1.976040 -0.054950 -0.074820 
#    y -0.054950 1.904480 0.030160 
#    z -0.074820 0.030160 1.993250 
# 
# From -- ./inp_files/117548.got.cif
#   From: 2010.05.17/outbox.cif.g08.bks.cpg/sg2_59_cif.got.tgz:117548.got - 2010.06.03 11:33:40.
