data_PCOD9008207
_publ_section_title
;
Structure prediction by ZEFSAII (Michael W. Deem and Ramdas Pophale) SiO2 
 PCOD9008207
Probable space group: P -1
;
_chemical_formula_sum "Si O2"
_cell_formula_units_Z 14
_cell_length_a 9.104976
_cell_length_b 10.700370
_cell_length_c 6.968994
_cell_angle_alpha 100.085747
_cell_angle_beta 105.529574
_cell_angle_gamma 105.601413
_cell_volume 607.323026
_symmetry_space_group_name_H-M "P -1"
_symmetry_group_IT_number 2
_symmetry_cell_setting 'triclinic'
loop_
_space_group_symop_operation_xyz
x,y,z
-x,-y,-z
loop_
_atom_site_type_symbol
_atom_site_label
_atom_site_fract_x
_atom_site_fract_y
_atom_site_fract_z
Si Si1 0.096749 0.222294 0.621211
Si Si2 0.712386 0.321946 0.122399
Si Si3 0.608047 0.405844 0.482936
Si Si4 0.027410 0.533173 0.293764
Si Si5 0.441573 0.201747 0.673920
Si Si6 0.352084 0.953514 0.791830
Si Si7 0.970569 0.022379 0.212290
O O1 0.288659 0.246552 0.697757
O O2 0.032401 0.337979 0.706781
O O3 0.054549 0.169299 0.373174
O O4 0.997576 0.090720 0.674805
O O5 0.643795 0.407787 0.268484
O O6 0.719001 0.206435 0.246470
O O7 0.887723 0.405780 0.119754
O O8 0.586217 0.261803 0.893131
O O9 0.500000 0.500000 0.500000
O O10 0.784272 0.449547 0.661476
O O11 0.504058 0.262883 0.504275
O O12 0.000000 0.500000 0.500000
O O13 0.392620 0.039300 0.633271
O O14 0.218148 0.006514 0.847643
O O15 0.500000 0.000000 0.000000
O O16 0.000000 0.000000 0.000000
#
# Coordination Sequence:
#
# PCOD9008207 Si02
#       7
#     2   2   2   2   2   2   2
#     4  10  22  39  60  92 125 158 203 249 301 360
#     4  10  22  42  63  86 126 166 198 249 307 357
#     4  11  24  39  61  91 117 158 210 251 302 363
#     4  10  21  40  63  87 124 164 200 252 303 357
#     4  10  22  40  62  91 125 158 202 254 299 358
#     4   9  20  39  61  89 121 157 201 248 302 356
#     4  10  21  39  64  90 122 162 201 247 300 360
#
# _framework density 23.051981999999999
#
# number of rings (size 3 to 8) (size 9 to 14) (size 15 to 20)
#    0.000    2.000    0.000    3.429    0.000    9.143 
#    0.000    2.857    0.000    0.000    0.000    0.000 
#    0.000    0.000    0.000    0.000    0.000    0.000 
#
# Total GULP energy -78044.423725 kJ/mol
# GULP energy per Si atom -5574.601695 kJ/mol
# Density = 2.299951 g / cm^3
# Si number density = 23.051982 Si / 1000 Ang^3
#
#
#
# Elastic Constant Matrix: (Units=GPa)
#
#
# Indices 1 2 3 4 5 6 
#
# 1 138.5226 50.6581 11.2773 1.7521 9.3171 2.2814
# 2 50.6581 113.6892 0.9536 -10.0059 2.8958 -5.4287
# 3 11.2773 0.9536 57.8969 1.6297 -2.4650 3.2407
# 4 1.7521 -10.0059 1.6297 23.6944 5.4948 2.3663
# 5 9.3171 2.8958 -2.4650 5.4948 36.9071 1.5027
# 6 2.2814 -5.4287 3.2407 2.3663 1.5027 34.0481
#
#
#
# Elastic Compliance Matrix: (Units=1/GPa)
#
#
# Indices 1 2 3 4 5 6 
#
# 1 0.009036 -0.004171 -0.001664 -0.001817 -0.001758 -0.000908
# 2 -0.004171 0.011187 0.000366 0.004978 -0.000611 0.001709
# 3 -0.001664 0.000366 0.017787 -0.001217 0.001822 -0.001519
# 4 -0.001817 0.004978 -0.001217 0.046296 -0.006829 -0.001885
# 5 -0.001758 -0.000611 0.001822 -0.006829 0.028764 -0.000948
# 6 -0.000908 0.001709 -0.001519 -0.001885 -0.000948 0.030021
#
#
# Mechanical properties :
#
#
# Convention : Reuss Voigt Hill
#
# Bulk Modulus (GPa) = 36.93821 48.43187 42.68504
# Shear Modulus (GPa) = 30.66504 35.41123 33.03813
#
# Velocity S-wave (km/s) = 3.65122 3.92362 3.78987
# Velocity P-wave (km/s) = 5.81669 6.44840 6.14068
#
# Compressibility (1/GPa) = 0.02707224
#
# Stress axis : x y z
#
# Youngs Moduli (GPa) = 110.66911 89.39268 56.22069
#
# Poissons Ratio (x) = 0.37284 0.09356
# Poissons Ratio (y) = 0.46158 -0.02060
# Poissons Ratio (z) = 0.18418 -0.03275
#
# Static dielectric constant tensor:
#      x y z
#    x 1.864680 0.020840 0.042110 
#    y 0.020840 2.060380 -0.031850 
#    z 0.042110 -0.031850 1.952620 
# 
# From -- ./inp_files/27720.got.cif
#   From: 2010.05.17/outbox.cif.g08.bks.cpg/sg2_14_cif.got.tgz:27720.got - 2010.06.03 11:33:40.
