data_PCOD9008658
_publ_section_title
;
Structure prediction by ZEFSAII (Michael W. Deem and Ramdas Pophale) SiO2 
 PCOD9008658
Probable space group: P -1
;
_chemical_formula_sum "Si O2"
_cell_formula_units_Z 12
_cell_length_a 26.073399
_cell_length_b 5.248846
_cell_length_c 5.397118
_cell_angle_alpha 118.612593
_cell_angle_beta 122.985056
_cell_angle_gamma 47.759004
_cell_volume 451.036374
_symmetry_space_group_name_H-M "P -1"
_symmetry_group_IT_number 2
_symmetry_cell_setting 'triclinic'
loop_
_space_group_symop_operation_xyz
x,y,z
-x,-y,-z
loop_
_atom_site_type_symbol
_atom_site_label
_atom_site_fract_x
_atom_site_fract_y
_atom_site_fract_z
Si Si1 0.526412 0.593649 0.365319
Si Si2 0.837331 0.333568 0.162270
Si Si3 0.188458 0.191888 0.290991
Si Si4 0.665804 0.352746 0.347838
Si Si5 0.025654 0.766348 0.709863
Si Si6 0.307247 0.120552 0.204153
O O1 0.500000 0.500000 0.500000
O O2 0.615122 0.381459 0.454480
O O3 0.500000 0.000000 0.500000
O O4 0.500000 0.500000 0.000000
O O5 0.847039 0.426761 0.508494
O O6 0.885711 0.424102 0.166966
O O7 0.749047 0.561599 0.987932
O O8 0.862066 0.943599 0.977261
O O9 0.247501 0.115591 0.206211
O O10 0.245516 0.925294 0.530809
O O11 0.653362 0.727784 0.473875
O O12 0.645127 0.219055 0.994008
O O13 0.000000 0.500000 0.500000
O O14 0.000000 0.000000 0.500000
O O15 0.000000 0.000000 0.000000
#
# Coordination Sequence:
#
# PCOD9008658 Si02
#       6
#     2   2   2   2   2   2
#     4  12  28  49  73 105 142 192 235 289 349 424
#     4  10  23  39  63  96 129 174 230 279 346 408
#     4  10  21  39  65  93 127 170 221 290 343 402
#     4  10  23  39  63  96 127 172 228 279 346 408
#     4  12  28  47  73 105 144 194 237 291 349 422
#     4  10  21  39  65  93 127 170 221 290 343 402
#
# _framework density 26.605394
#
# number of rings (size 3 to 8) (size 9 to 14) (size 15 to 20)
#    0.000    1.333    0.000    4.000    9.333    0.000 
#    0.000    0.000    0.000    0.000    0.000    0.000 
#    0.000    0.000    0.000    0.000    0.000    0.000 
#
# Total GULP energy -67104.970044 kJ/mol
# GULP energy per Si atom -5592.080837 kJ/mol
# Density = 2.654484 g / cm^3
# Si number density = 26.605394 Si / 1000 Ang^3
#
#
#
# Elastic Constant Matrix: (Units=GPa)
#
#
# Indices 1 2 3 4 5 6 
#
# 1 153.7001 39.6246 43.1473 8.5373 -13.4922 4.4065
# 2 39.6246 70.8297 65.2542 8.9601 14.3290 6.7938
# 3 43.1473 65.2542 191.1787 41.9443 -14.8053 9.6691
# 4 8.5373 8.9601 41.9443 42.2613 -2.9992 12.6547
# 5 -13.4922 14.3290 -14.8053 -2.9992 53.6381 5.3827
# 6 4.4065 6.7938 9.6691 12.6547 5.3827 60.7042
#
#
#
# Elastic Compliance Matrix: (Units=1/GPa)
#
#
# Indices 1 2 3 4 5 6 
#
# 1 0.008205 -0.005757 0.000559 -0.000655 0.003743 -0.000236
# 2 -0.005757 0.028825 -0.010472 0.004960 -0.011647 -0.001141
# 3 0.000559 -0.010472 0.010945 -0.008581 0.005409 0.000697
# 4 -0.000655 0.004960 -0.008581 0.032918 -0.001428 -0.005876
# 5 0.003743 -0.011647 0.005409 -0.001428 0.024279 -0.001685
# 6 -0.000236 -0.001141 0.000697 -0.005876 -0.001685 0.017882
#
#
# Mechanical properties :
#
#
# Convention : Reuss Voigt Hill
#
# Bulk Modulus (GPa) = 60.11351 79.08454 69.59902
# Shear Modulus (GPa) = 31.26224 49.16619 40.21421
#
# Velocity S-wave (km/s) = 3.43160 4.30348 3.89203
# Velocity P-wave (km/s) = 6.19231 7.38124 6.81276
#
# Compressibility (1/GPa) = 0.01663520
#
# Stress axis : x y z
#
# Youngs Moduli (GPa) = 121.87448 34.69268 91.36454
#
# Poissons Ratio (x) = 0.19971 -0.05103
# Poissons Ratio (y) = 0.70158 0.95675
# Poissons Ratio (z) = -0.06808 0.36330
#
# Static dielectric constant tensor:
#      x y z
#    x 1.984670 0.003670 0.021230 
#    y 0.003670 2.331160 -0.142270 
#    z 0.021230 -0.142270 2.169500 
# 
# From -- ./inp_files/8438.got.cif
#   From: 2010.05.17/outbox.cif.g08.bks.cpg/sg2_5_cif.got.tgz:8438.got - 2010.06.03 11:33:40.
