data_PCOD9008566
_publ_section_title
;
Structure prediction by ZEFSAII (Michael W. Deem and Ramdas Pophale) SiO2 
 PCOD9008566
Probable space group: P -1
;
_chemical_formula_sum "Si O2"
_cell_formula_units_Z 14
_cell_length_a 7.682991
_cell_length_b 21.840953
_cell_length_c 8.747311
_cell_angle_alpha 27.967764
_cell_angle_beta 55.321609
_cell_angle_gamma 54.016751
_cell_volume 552.162605
_symmetry_space_group_name_H-M "P -1"
_symmetry_group_IT_number 2
_symmetry_cell_setting 'triclinic'
loop_
_space_group_symop_operation_xyz
x,y,z
-x,-y,-z
loop_
_atom_site_type_symbol
_atom_site_label
_atom_site_fract_x
_atom_site_fract_y
_atom_site_fract_z
Si Si1 0.526422 0.059769 0.657380
Si Si2 0.184672 0.456043 0.708561
Si Si3 0.612332 0.778526 0.383318
Si Si4 0.892194 0.814031 0.558371
Si Si5 0.879391 0.032576 0.326769
Si Si6 0.920120 0.307387 0.547538
Si Si7 0.332023 0.460864 0.295479
O O1 0.558242 0.183343 0.476770
O O2 0.269559 0.086955 0.694139
O O3 0.632136 0.047283 0.467906
O O4 0.624288 0.924611 0.996664
O O5 0.206241 0.554248 0.622009
O O6 0.319508 0.488050 0.423519
O O7 0.924215 0.488123 0.729860
O O8 0.230839 0.298450 0.070653
O O9 0.597550 0.698399 0.414344
O O10 0.826476 0.694175 0.543954
O O11 0.951222 0.909750 0.446349
O O12 0.088089 0.728971 0.546147
O O13 0.000000 0.000000 0.500000
O O14 0.889055 0.177209 0.940095
O O15 0.500000 0.500000 0.000000
#
# Coordination Sequence:
#
# PCOD9008566 Si02
#       7
#     2   2   2   2   2   2   2
#     4  10  21  39  65  90 133 171 213 269 331 393
#     4  10  23  43  68  93 135 178 218 276 335 391
#     4   9  19  39  63  92 127 173 215 264 327 392
#     4  11  24  44  65  94 137 176 213 272 341 392
#     4  12  24  38  66 100 128 168 227 274 325 397
#     4  10  22  43  66  93 131 174 220 271 330 387
#     4  10  22  39  66  98 131 171 229 269 327 399
#
# _framework density 25.354849999999999
#
# number of rings (size 3 to 8) (size 9 to 14) (size 15 to 20)
#    0.000    1.714    1.429    2.143    6.000    0.000 
#    5.143    0.714    0.000    0.000    0.000    0.000 
#    0.000    0.000    0.000    0.000    0.000    0.000 
#
# Total GULP energy -78079.188661 kJ/mol
# GULP energy per Si atom -5577.084904 kJ/mol
# Density = 2.529714 g / cm^3
# Si number density = 25.354850 Si / 1000 Ang^3
#
#
#
# Elastic Constant Matrix: (Units=GPa)
#
#
# Indices 1 2 3 4 5 6 
#
# 1 80.4640 49.0062 4.7015 -1.8784 11.7354 -7.2865
# 2 49.0062 167.4359 44.7577 -2.0814 -9.3288 31.3447
# 3 4.7015 44.7577 108.5520 0.3130 6.7471 9.0445
# 4 -1.8784 -2.0814 0.3130 49.9748 -1.4902 -5.4072
# 5 11.7354 -9.3288 6.7471 -1.4902 18.1569 1.4601
# 6 -7.2865 31.3447 9.0445 -5.4072 1.4601 36.7431
#
#
#
# Elastic Compliance Matrix: (Units=1/GPa)
#
#
# Indices 1 2 3 4 5 6 
#
# 1 0.025594 -0.013261 0.004614 0.001382 -0.026284 0.016500
# 2 -0.013261 0.015307 -0.005693 -0.000882 0.019701 -0.015200
# 3 0.004614 -0.005693 0.011741 -0.000096 -0.010542 0.003286
# 4 0.001382 -0.000882 -0.000096 0.020466 0.000042 0.004061
# 5 -0.026284 0.019701 -0.010542 0.000042 0.087949 -0.022912
# 6 0.016500 -0.015200 0.003286 0.004061 -0.022912 0.044154
#
#
# Mechanical properties :
#
#
# Convention : Reuss Voigt Hill
#
# Bulk Modulus (GPa) = 41.72859 61.48699 51.60779
# Shear Modulus (GPa) = 20.67147 38.17406 29.42277
#
# Velocity S-wave (km/s) = 2.85842 3.88441 3.41022
# Velocity P-wave (km/s) = 5.23332 6.66494 5.99204
#
# Compressibility (1/GPa) = 0.02396439
#
# Stress axis : x y z
#
# Youngs Moduli (GPa) = 39.07102 65.32764 85.16957
#
# Poissons Ratio (x) = 0.86628 -0.39297
# Poissons Ratio (y) = 0.51810 0.48485
# Poissons Ratio (z) = -0.18027 0.37189
#
# Static dielectric constant tensor:
#      x y z
#    x 2.104290 -0.017280 -0.095710 
#    y -0.017280 2.121590 0.033000 
#    z -0.095710 0.033000 2.063080 
# 
# From -- ./inp_files/175520.got.cif
#   From: 2010.05.17/outbox.cif.g08.bks.cpg/sg2_88_cif.got.tgz:175520.got - 2010.06.03 11:33:40.
