data_PCOD9008712
_publ_section_title
;
Structure prediction by ZEFSAII (Michael W. Deem and Ramdas Pophale) SiO2 
 PCOD9008712
Probable space group: P -1
;
_chemical_formula_sum "Si O2"
_cell_formula_units_Z 14
_cell_length_a 9.083060
_cell_length_b 14.292380
_cell_length_c 7.137147
_cell_angle_alpha 61.428832
_cell_angle_beta 70.701573
_cell_angle_gamma 43.039675
_cell_volume 555.076164
_symmetry_space_group_name_H-M "P -1"
_symmetry_group_IT_number 2
_symmetry_cell_setting 'triclinic'
loop_
_space_group_symop_operation_xyz
x,y,z
-x,-y,-z
loop_
_atom_site_type_symbol
_atom_site_label
_atom_site_fract_x
_atom_site_fract_y
_atom_site_fract_z
Si Si1 0.424483 0.853604 0.689329
Si Si2 0.315845 0.537671 0.779795
Si Si3 0.629080 0.567953 0.750310
Si Si4 0.699623 0.214711 0.844906
Si Si5 0.925941 0.654760 0.335388
Si Si6 0.070144 0.177455 0.543225
Si Si7 0.555879 0.861220 0.019740
O O1 0.562091 0.722480 0.606312
O O2 0.251578 0.017981 0.526858
O O3 0.303276 0.818251 0.901768
O O4 0.556704 0.850345 0.803334
O O5 0.425679 0.591764 0.765098
O O6 0.497409 0.390464 0.723037
O O7 0.091708 0.676651 0.652978
O O8 0.292088 0.471641 0.029842
O O9 0.829615 0.415432 0.715961
O O10 0.631311 0.136047 0.853515
O O11 0.916326 0.166002 0.729699
O O12 0.823280 0.787855 0.393604
O O13 0.782995 0.719698 0.148072
O O14 0.000000 0.500000 0.500000
O O15 0.500000 0.000000 0.000000
#
# Coordination Sequence:
#
# PCOD9008712 Si02
#       7
#     2   2   2   2   2   2   2
#     4   9  22  39  62  92 129 167 201 259 319 368
#     4  10  21  39  65  95 126 163 208 268 309 366
#     4  10  23  43  62  89 135 163 206 257 327 371
#     4   9  19  37  64  92 124 164 208 263 297 370
#     4  12  25  40  68  96 120 171 214 259 309 376
#     4  12  21  39  68  95 123 162 224 257 303 370
#     4  10  21  41  60  92 133 162 212 250 321 365
#
# _framework density 25.221761999999998
#
# number of rings (size 3 to 8) (size 9 to 14) (size 15 to 20)
#    0.857    0.857    2.857    1.714    2.000    1.143 
#    0.000    2.143    0.000    0.000    0.000    0.000 
#    0.000    0.000    0.000    0.000    0.000    0.000 
#
# Total GULP energy -78173.131971 kJ/mol
# GULP energy per Si atom -5583.795141 kJ/mol
# Density = 2.516436 g / cm^3
# Si number density = 25.221762 Si / 1000 Ang^3
#
#
#
# Elastic Constant Matrix: (Units=GPa)
#
#
# Indices 1 2 3 4 5 6 
#
# 1 105.3210 18.8329 -0.8754 -8.9450 -7.2744 22.3771
# 2 18.8329 137.2103 12.6164 -29.1218 -0.6493 29.1261
# 3 -0.8754 12.6164 51.8802 -16.3792 7.0770 -5.7382
# 4 -8.9450 -29.1218 -16.3792 36.2041 -1.4966 6.0612
# 5 -7.2744 -0.6493 7.0770 -1.4966 34.1889 -10.5130
# 6 22.3771 29.1261 -5.7382 6.0612 -10.5130 40.3431
#
#
#
# Elastic Compliance Matrix: (Units=1/GPa)
#
#
# Indices 1 2 3 4 5 6 
#
# 1 0.011433 0.001192 0.000732 0.005440 0.000117 -0.007885
# 2 0.001192 0.012200 -0.000141 0.011940 -0.002644 -0.011973
# 3 0.000732 -0.000141 0.023179 0.010322 -0.004076 0.000379
# 4 0.005440 0.011940 0.010322 0.046112 -0.004339 -0.018228
# 5 0.000117 -0.002644 -0.004076 -0.004339 0.033121 0.010547
# 6 -0.007885 -0.011973 0.000379 -0.018228 0.010547 0.043346
#
#
# Mechanical properties :
#
#
# Convention : Reuss Voigt Hill
#
# Bulk Modulus (GPa) = 19.84915 39.50658 29.67786
# Shear Modulus (GPa) = 27.37988 39.73639 33.55814
#
# Velocity S-wave (km/s) = 3.29837 3.97354 3.65159
# Velocity P-wave (km/s) = 4.73208 6.06215 5.43793
#
# Compressibility (1/GPa) = 0.05038000
#
# Stress axis : x y z
#
# Youngs Moduli (GPa) = 87.46538 81.96433 43.14331
#
# Poissons Ratio (x) = -0.09773 -0.03160
# Poissons Ratio (y) = -0.10429 0.00607
# Poissons Ratio (z) = -0.06406 0.01154
#
# Static dielectric constant tensor:
#      x y z
#    x 2.052710 -0.086650 -0.104170 
#    y -0.086650 2.069080 0.105940 
#    z -0.104170 0.105940 2.137680 
# 
# From -- ./inp_files/206300.got.cif
#   From: 2010.05.17/outbox.cif.g08.bks.cpg/sg2_104_cif.got.tgz:206300.got - 2010.06.03 11:33:40.
