data_PCOD9008442
_publ_section_title
;
Structure prediction by ZEFSAII (Michael W. Deem and Ramdas Pophale) SiO2 
 PCOD9008442
Probable space group: P -1
;
_chemical_formula_sum "Si O2"
_cell_formula_units_Z 15
_cell_length_a 6.665988
_cell_length_b 8.518962
_cell_length_c 18.371380
_cell_angle_alpha 39.952789
_cell_angle_beta 67.339504
_cell_angle_gamma 80.077060
_cell_volume 604.752769
_symmetry_space_group_name_H-M "P -1"
_symmetry_group_IT_number 2
_symmetry_cell_setting 'triclinic'
loop_
_space_group_symop_operation_xyz
x,y,z
-x,-y,-z
loop_
_atom_site_type_symbol
_atom_site_label
_atom_site_fract_x
_atom_site_fract_y
_atom_site_fract_z
Si Si1 0.230777 0.688380 0.010830
Si Si2 0.749968 0.503624 0.488292
Si Si3 0.462010 0.279446 0.177668
Si Si4 0.629445 0.648647 0.605006
Si Si5 0.000000 0.500000 0.000000
Si Si6 0.674889 0.067776 0.550954
Si Si7 0.482222 0.850312 0.130078
Si Si8 0.897431 0.021574 0.775192
O O1 0.312740 0.632314 0.934247
O O2 0.325437 0.974252 0.911084
O O3 0.348351 0.521418 0.106986
O O4 0.979035 0.584944 0.064656
O O5 0.500000 0.500000 0.500000
O O6 0.739114 0.504835 0.577388
O O7 0.809079 0.277191 0.512900
O O8 0.098064 0.231985 0.645681
O O9 0.290927 0.086937 0.219832
O O10 0.477802 0.127664 0.302218
O O11 0.457569 0.778317 0.537993
O O12 0.512895 0.434707 0.753257
O O13 0.768530 0.877076 0.552270
O O14 0.019963 0.215718 0.123569
O O15 0.236853 0.870261 0.182757
O O16 0.500000 0.000000 0.000000
#
# Coordination Sequence:
#
# PCOD9008442 Si02
#       8
#     2   2   2   2   1   2   2   2
#     4   9  19  35  61  94 126 175 227 273 340 403
#     4  10  22  41  69  97 138 182 221 288 343 404
#     4   9  18  36  62  91 131 170 219 285 331 392
#     4  10  23  39  64 104 131 181 236 273 343 418
#     4  10  22  36  66  98 132 170 234 290 326 418
#     4  10  21  39  64  97 131 182 224 281 337 407
#     4  11  23  43  67  94 142 185 224 290 353 409
#     4  10  23  42  66 106 132 178 242 277 342 423
#
# _framework density 24.803521
#
# number of rings (size 3 to 8) (size 9 to 14) (size 15 to 20)
#    0.000    2.133    0.000    3.200    7.467    2.133 
#    2.400    6.000    2.933    0.000    0.000    0.000 
#    0.000    0.000    0.000    0.000    0.000    0.000 
#
# Total GULP energy -83521.158147 kJ/mol
# GULP energy per Si atom -5568.077210 kJ/mol
# Density = 2.474707 g / cm^3
# Si number density = 24.803521 Si / 1000 Ang^3
#
#
#
# Elastic Constant Matrix: (Units=GPa)
#
#
# Indices 1 2 3 4 5 6 
#
# 1 82.1053 26.3311 51.6923 -3.7860 -4.9301 18.2245
# 2 26.3311 156.3463 54.8362 -25.6870 -5.5941 21.3535
# 3 51.6923 54.8362 217.7024 -14.0417 8.6545 1.7327
# 4 -3.7860 -25.6870 -14.0417 43.6956 6.2561 -8.9004
# 5 -4.9301 -5.5941 8.6545 6.2561 38.8803 -3.6539
# 6 18.2245 21.3535 1.7327 -8.9004 -3.6539 28.2536
#
#
#
# Elastic Compliance Matrix: (Units=1/GPa)
#
#
# Indices 1 2 3 4 5 6 
#
# 1 0.017497 -0.000247 -0.004274 -0.002673 0.002497 -0.011357
# 2 -0.000247 0.008287 -0.001808 0.003184 0.000589 -0.004914
# 3 -0.004274 -0.001808 0.006223 0.001680 -0.002081 0.004001
# 4 -0.002673 0.003184 0.001680 0.027105 -0.003935 0.007244
# 5 0.002497 0.000589 -0.002081 -0.003935 0.027251 0.000356
# 6 -0.011357 -0.004914 0.004001 0.007244 0.000356 0.048516
#
#
# Mechanical properties :
#
#
# Convention : Reuss Voigt Hill
#
# Bulk Modulus (GPa) = 51.67849 80.20815 65.94332
# Shear Modulus (GPa) = 32.47083 43.71887 38.09485
#
# Velocity S-wave (km/s) = 3.62210 4.20290 3.92326
# Velocity P-wave (km/s) = 6.19461 7.48065 6.86780
#
# Compressibility (1/GPa) = 0.01935041
#
# Stress axis : x y z
#
# Youngs Moduli (GPa) = 57.15377 120.67120 160.69967
#
# Poissons Ratio (x) = 0.02975 0.68678
# Poissons Ratio (y) = 0.01409 0.29051
# Poissons Ratio (z) = 0.24426 0.21815
#
# Static dielectric constant tensor:
#      x y z
#    x 2.310430 0.059540 -0.002760 
#    y 0.059540 2.255800 -0.080090 
#    z -0.002760 -0.080090 2.103320 
# 
# From -- ./inp_files/196964.got.cif
#   From: 2010.05.17/outbox.cif.g08.bks.cpg/sg2_99_cif.got.tgz:196964.got - 2010.06.03 11:33:40.
