data_PCOD9008730
_publ_section_title
;
Structure prediction by ZEFSAII (Michael W. Deem and Ramdas Pophale) SiO2 
 PCOD9008730
Probable space group: P -1
;
_chemical_formula_sum "Si O2"
_cell_formula_units_Z 12
_cell_length_a 8.625115
_cell_length_b 11.956867
_cell_length_c 8.963681
_cell_angle_alpha 43.898499
_cell_angle_beta 53.011396
_cell_angle_gamma 62.383354
_cell_volume 511.230423
_symmetry_space_group_name_H-M "P -1"
_symmetry_group_IT_number 2
_symmetry_cell_setting 'triclinic'
loop_
_space_group_symop_operation_xyz
x,y,z
-x,-y,-z
loop_
_atom_site_type_symbol
_atom_site_label
_atom_site_fract_x
_atom_site_fract_y
_atom_site_fract_z
Si Si1 0.573907 0.828257 0.683671
Si Si2 0.002104 0.739255 0.393664
Si Si3 0.762196 0.677552 0.975302
Si Si4 0.121103 0.847438 0.505383
Si Si5 0.844410 0.630206 0.313489
Si Si6 0.427401 0.648678 0.691156
O O1 0.788483 0.793695 0.524244
O O2 0.608959 0.805056 0.861325
O O3 0.441489 0.696839 0.809946
O O4 0.500000 0.000000 0.500000
O O5 0.982637 0.743205 0.221372
O O6 0.138985 0.843597 0.318881
O O7 0.057087 0.550351 0.575462
O O8 0.975327 0.706130 0.762206
O O9 0.784854 0.688825 0.127733
O O10 0.687554 0.508144 0.127178
O O11 0.318567 0.797694 0.523120
O O12 0.000000 0.000000 0.500000
O O13 0.643220 0.618957 0.530408
#
# Coordination Sequence:
#
# PCOD9008730 Si02
#       6
#     2   2   2   2   2   2
#     4  10  22  40  61  90 127 165 204 253 308 364
#     4   9  20  39  64  83 131 156 198 251 315 351
#     4  11  22  39  64  94 118 161 216 253 301 360
#     4  11  23  40  62  89 128 167 200 255 312 362
#     4  10  21  39  65  96 121 158 202 261 305 358
#     4  11  21  38  64  94 124 159 211 252 304 364
#
# _framework density 23.47278
#
# number of rings (size 3 to 8) (size 9 to 14) (size 15 to 20)
#    0.000    1.667    1.667    3.500    2.333    0.000 
#    3.000    8.333    0.000    0.000    0.000    0.000 
#    0.000    0.000    0.000    0.000    0.000    0.000 
#
# Total GULP energy -67001.372190 kJ/mol
# GULP energy per Si atom -5583.447683 kJ/mol
# Density = 2.341936 g / cm^3
# Si number density = 23.472780 Si / 1000 Ang^3
#
#
#
# Elastic Constant Matrix: (Units=GPa)
#
#
# Indices 1 2 3 4 5 6 
#
# 1 130.0473 45.6031 37.6068 -0.8283 54.9048 15.5586
# 2 45.6031 104.8459 27.1536 -12.2741 27.3876 -11.3754
# 3 37.6068 27.1536 54.7385 -3.5922 31.7432 7.0698
# 4 -0.8283 -12.2741 -3.5922 26.0972 -5.5859 13.7759
# 5 54.9048 27.3876 31.7432 -5.5859 51.7309 10.5795
# 6 15.5586 -11.3754 7.0698 13.7759 10.5795 60.1221
#
#
#
# Elastic Compliance Matrix: (Units=1/GPa)
#
#
# Indices 1 2 3 4 5 6 
#
# 1 0.015041 -0.003253 -0.000713 -0.003522 -0.013947 -0.001163
# 2 -0.003253 0.013027 -0.003497 0.003524 -0.001569 0.003186
# 3 -0.000713 -0.003497 0.029485 -0.000241 -0.015264 -0.001203
# 4 -0.003522 0.003524 -0.000241 0.047630 0.009405 -0.010962
# 5 -0.013947 -0.001569 -0.015264 0.009405 0.046412 -0.005215
# 6 -0.001163 0.003186 -0.001203 -0.010962 -0.005215 0.021108
#
#
# Mechanical properties :
#
#
# Convention : Reuss Voigt Hill
#
# Bulk Modulus (GPa) = 23.46011 56.70650 40.08330
# Shear Modulus (GPa) = 24.77221 39.54125 32.15673
#
# Velocity S-wave (km/s) = 3.25215 4.10879 3.70531
# Velocity P-wave (km/s) = 4.91104 6.83523 5.95142
#
# Compressibility (1/GPa) = 0.04262555
#
# Stress axis : x y z
#
# Youngs Moduli (GPa) = 66.48319 76.76584 33.91578
#
# Poissons Ratio (x) = 0.24971 0.02419
# Poissons Ratio (y) = 0.21626 0.11862
# Poissons Ratio (z) = 0.04742 0.26849
#
# Static dielectric constant tensor:
#      x y z
#    x 1.975860 0.084700 0.052890 
#    y 0.084700 1.902970 0.003650 
#    z 0.052890 0.003650 1.949020 
# 
# From -- ./inp_files/144913.got.cif
#   From: 2010.05.17/outbox.cif.g08.bks.cpg/sg2_73_cif.got.tgz:144913.got - 2010.06.03 11:33:40.
