data_PCOD9008044
_publ_section_title
;
Structure prediction by ZEFSAII (Michael W. Deem and Ramdas Pophale) SiO2 
 PCOD9008044
Probable space group: P -1
;
_chemical_formula_sum "Si O2"
_cell_formula_units_Z 14
_cell_length_a 12.480991
_cell_length_b 9.575008
_cell_length_c 14.557951
_cell_angle_alpha 109.757375
_cell_angle_beta 42.145053
_cell_angle_gamma 142.853219
_cell_volume 550.688330
_symmetry_space_group_name_H-M "P -1"
_symmetry_group_IT_number 2
_symmetry_cell_setting 'triclinic'
loop_
_space_group_symop_operation_xyz
x,y,z
-x,-y,-z
loop_
_atom_site_type_symbol
_atom_site_label
_atom_site_fract_x
_atom_site_fract_y
_atom_site_fract_z
Si Si1 0.478799 0.584056 0.940899
Si Si2 0.491325 0.115090 0.276519
Si Si3 0.267621 0.665122 0.638618
Si Si4 0.792058 0.942305 0.244993
Si Si5 0.646375 0.248970 0.835135
Si Si6 0.241452 0.442187 0.338836
Si Si7 0.741296 0.608639 0.302663
O O1 0.729352 0.706374 0.743274
O O2 0.500000 0.500000 0.000000
O O3 0.516178 0.782771 0.990249
O O4 0.111677 0.268448 0.073222
O O5 0.549660 0.052948 0.140486
O O6 0.110708 0.808560 0.459079
O O7 0.642168 0.174122 0.289527
O O8 0.599155 0.374061 0.267541
O O9 0.118915 0.394799 0.714299
O O10 0.002986 0.507332 0.702404
O O11 0.393470 0.103863 0.572929
O O12 0.516087 0.687175 0.292131
O O13 0.894199 0.867089 0.208629
O O14 0.684429 0.386238 0.753280
O O15 0.500000 0.500000 0.500000
#
# Coordination Sequence:
#
# PCOD9008044 Si02
#       7
#     2   2   2   2   2   2   2
#     4  10  24  39  59  86 127 166 195 244 304 366
#     4  10  21  39  63  95 117 155 203 250 305 344
#     4   9  20  37  62  90 120 156 193 261 298 335
#     4  11  20  39  62  90 122 159 204 251 295 358
#     4  11  22  39  60  93 125 155 202 250 303 360
#     4  11  23  37  61  96 120 165 196 242 313 361
#     4   8  20  38  60  93 119 157 199 256 295 347
#
# _framework density 25.422729
#
# number of rings (size 3 to 8) (size 9 to 14) (size 15 to 20)
#    0.857    1.143    1.429    2.571    2.000    1.714 
#    0.000    0.000    0.000   12.000    0.000    0.000 
#    0.000    0.000    0.000    0.000    0.000    0.000 
#
# Total GULP energy -78216.310802 kJ/mol
# GULP energy per Si atom -5586.879343 kJ/mol
# Density = 2.536487 g / cm^3
# Si number density = 25.422729 Si / 1000 Ang^3
#
#
#
# Elastic Constant Matrix: (Units=GPa)
#
#
# Indices 1 2 3 4 5 6 
#
# 1 86.6724 29.7987 16.6272 1.1977 -12.9041 8.3935
# 2 29.7987 173.8670 41.7423 31.5204 2.6904 8.2132
# 3 16.6272 41.7423 63.9272 1.6360 -10.4975 -1.6368
# 4 1.1977 31.5204 1.6360 43.3118 -2.7121 3.5192
# 5 -12.9041 2.6904 -10.4975 -2.7121 13.9833 -1.6026
# 6 8.3935 8.2132 -1.6368 3.5192 -1.6026 29.0857
#
#
#
# Elastic Compliance Matrix: (Units=1/GPa)
#
#
# Indices 1 2 3 4 5 6 
#
# 1 0.015128 -0.003458 0.000703 0.003274 0.015457 -0.002894
# 2 -0.003458 0.009697 -0.007293 -0.007290 -0.012168 -0.001939
# 3 0.000703 -0.007293 0.023677 0.005427 0.021304 0.003706
# 4 0.003274 -0.007290 0.005427 0.029082 0.013987 -0.001329
# 5 0.015457 -0.012168 0.021304 0.013987 0.107329 0.004396
# 6 -0.002894 -0.001939 0.003706 -0.001329 0.004396 0.036376
#
#
# Mechanical properties :
#
#
# Convention : Reuss Voigt Hill
#
# Bulk Modulus (GPa) = 35.20426 55.64474 45.42450
# Shear Modulus (GPa) = 19.93205 33.02937 26.48071
#
# Velocity S-wave (km/s) = 2.80308 3.60836 3.23091
# Velocity P-wave (km/s) = 4.93497 6.26863 5.64135
#
# Compressibility (1/GPa) = 0.02840565
#
# Stress axis : x y z
#
# Youngs Moduli (GPa) = 66.10308 103.12837 42.23573
#
# Poissons Ratio (x) = 0.35659 -0.02971
# Poissons Ratio (y) = 0.22856 0.30804
# Poissons Ratio (z) = -0.04650 0.75216
#
# Static dielectric constant tensor:
#      x y z
#    x 2.009870 0.004240 -0.028380 
#    y 0.004240 2.127700 0.003170 
#    z -0.028380 0.003170 2.075320 
# 
# From -- ./inp_files/566759.got.cif
#   From: 2010.05.17/outbox.cif.g08.bks.cpg/sg2_284_cif.got.tgz:566759.got - 2010.06.03 11:33:40.
