data_PCOD9008278
_publ_section_title
;
Structure prediction by ZEFSAII (Michael W. Deem and Ramdas Pophale) SiO2 
 PCOD9008278
Probable space group: P -1
;
_chemical_formula_sum "Si O2"
_cell_formula_units_Z 16
_cell_length_a 6.560960
_cell_length_b 8.467263
_cell_length_c 16.486538
_cell_angle_alpha 86.646206
_cell_angle_beta 117.323135
_cell_angle_gamma 116.124844
_cell_volume 718.631134
_symmetry_space_group_name_H-M "P -1"
_symmetry_group_IT_number 2
_symmetry_cell_setting 'triclinic'
loop_
_space_group_symop_operation_xyz
x,y,z
-x,-y,-z
loop_
_atom_site_type_symbol
_atom_site_label
_atom_site_fract_x
_atom_site_fract_y
_atom_site_fract_z
Si Si1 0.102362 0.585853 0.266693
Si Si2 0.125127 0.322843 0.632819
Si Si3 0.355798 0.063386 0.678783
Si Si4 0.597195 0.585775 0.603512
Si Si5 0.383647 0.841114 0.547703
Si Si6 0.834437 0.508182 0.894353
Si Si7 0.912044 0.092985 0.049202
Si Si8 0.555376 0.872614 0.127265
O O1 0.372396 0.771226 0.306768
O O2 0.154789 0.436556 0.326223
O O3 0.045528 0.524901 0.165284
O O4 0.911229 0.627557 0.284325
O O5 0.149463 0.140579 0.635729
O O6 0.382812 0.471427 0.634688
O O7 0.877865 0.305121 0.537904
O O8 0.390249 0.027523 0.779727
O O9 0.304970 0.904357 0.613602
O O10 0.500000 0.500000 0.500000
O O11 0.596629 0.773742 0.599984
O O12 0.500000 0.000000 0.500000
O O13 0.555324 0.336222 0.862196
O O14 0.867932 0.707870 0.893217
O O15 0.000000 0.500000 0.000000
O O16 0.801921 0.965030 0.111037
O O17 0.675613 0.115309 0.964333
O O18 0.000000 0.000000 0.000000
#
# Coordination Sequence:
#
# PCOD9008278 Si02
#       8
#     2   2   2   2   2   2   2   2
#     4  10  21  41  62  87 124 158 206 250 300 378
#     4  11  22  41  62  84 120 165 203 248 309 364
#     4  10  22  38  60  90 122 158 203 253 304 364
#     4  11  23  40  60  85 122 161 204 253 304 364
#     4  12  22  40  60  88 121 159 204 255 307 358
#     4   9  20  40  64  90 122 164 200 250 313 368
#     4  10  21  39  64  92 123 159 207 252 311 374
#     4   9  21  41  59  88 130 157 199 262 303 366
#
# _framework density 22.26455
#
# number of rings (size 3 to 8) (size 9 to 14) (size 15 to 20)
#    0.000    1.750    2.500    1.500    0.000    5.500 
#    2.250    8.750    0.000    0.000    0.000    0.000 
#    0.000    0.000    0.000    0.000    0.000    0.000 
#
# Total GULP energy -89417.440099 kJ/mol
# GULP energy per Si atom -5588.590006 kJ/mol
# Density = 2.221388 g / cm^3
# Si number density = 22.264550 Si / 1000 Ang^3
#
#
#
# Elastic Constant Matrix: (Units=GPa)
#
#
# Indices 1 2 3 4 5 6 
#
# 1 96.5520 50.1180 37.4973 -2.6125 -36.2213 -7.9418
# 2 50.1180 104.0789 36.1330 2.2921 -36.8020 2.3365
# 3 37.4973 36.1330 134.9200 0.8991 -40.0085 -8.3189
# 4 -2.6125 2.2921 0.8991 30.8279 -3.4942 -6.9202
# 5 -36.2213 -36.8020 -40.0085 -3.4942 47.9112 -1.1359
# 6 -7.9418 2.3365 -8.3189 -6.9202 -1.1359 32.7329
#
#
#
# Elastic Compliance Matrix: (Units=1/GPa)
#
#
# Indices 1 2 3 4 5 6 
#
# 1 0.017176 -0.005113 -0.000357 0.004154 0.009196 0.005639
# 2 -0.005113 0.014785 -0.000677 -0.001309 0.006771 -0.002510
# 3 -0.000357 -0.000677 0.010223 0.001318 0.007917 0.003113
# 4 0.004154 -0.001309 0.001318 0.035594 0.006049 0.009171
# 5 0.009196 0.006771 0.007917 0.006049 0.040230 0.006435
# 6 0.005639 -0.002510 0.003113 0.009171 0.006435 0.035051
#
#
# Mechanical properties :
#
#
# Convention : Reuss Voigt Hill
#
# Bulk Modulus (GPa) = 33.45682 64.78307 49.11994
# Shear Modulus (GPa) = 28.51995 36.41457 32.46726
#
# Velocity S-wave (km/s) = 3.58293 4.04857 3.82285
# Velocity P-wave (km/s) = 5.67240 7.14246 6.44945
#
# Compressibility (1/GPa) = 0.02988927
#
# Stress axis : x y z
#
# Youngs Moduli (GPa) = 58.22008 67.63817 97.81738
#
# Poissons Ratio (x) = 0.34586 0.03495
# Poissons Ratio (y) = 0.29770 0.06618
# Poissons Ratio (z) = 0.02080 0.04576
#
# Static dielectric constant tensor:
#      x y z
#    x 1.833240 0.003410 0.046790 
#    y 0.003410 1.877160 0.008120 
#    z 0.046790 0.008120 1.844940 
# 
# From -- ./inp_files/39183.got.cif
#   From: 2010.05.17/outbox.cif.g08.bks.cpg/sg2_20_cif.got.tgz:39183.got - 2010.06.03 11:33:40.
