data_PCOD9008949
_publ_section_title
;
Structure prediction by ZEFSAII (Michael W. Deem and Ramdas Pophale) SiO2 
 PCOD9008949
Probable space group: P -1
;
_chemical_formula_sum "Si O2"
_cell_formula_units_Z 16
_cell_length_a 6.556638
_cell_length_b 7.232493
_cell_length_c 13.600807
_cell_angle_alpha 95.001041
_cell_angle_beta 88.401874
_cell_angle_gamma 105.931279
_cell_volume 617.823456
_symmetry_space_group_name_H-M "P -1"
_symmetry_group_IT_number 2
_symmetry_cell_setting 'triclinic'
loop_
_space_group_symop_operation_xyz
x,y,z
-x,-y,-z
loop_
_atom_site_type_symbol
_atom_site_label
_atom_site_fract_x
_atom_site_fract_y
_atom_site_fract_z
Si Si1 0.830790 0.078338 0.948962
Si Si2 0.162219 0.448144 0.283378
Si Si3 0.070719 0.463315 0.889341
Si Si4 0.582306 0.092978 0.142952
Si Si5 0.755949 0.246242 0.359506
Si Si6 0.906510 0.863553 0.383555
Si Si7 0.398860 0.314191 0.791496
Si Si8 0.293603 0.167315 0.411480
O O1 0.655813 0.919317 0.885430
O O2 0.944877 0.235221 0.875487
O O3 0.714117 0.156477 0.044124
O O4 0.000000 0.000000 0.000000
O O5 0.378041 0.610628 0.264247
O O6 0.246965 0.281062 0.322729
O O7 0.040785 0.425746 0.180125
O O8 0.959331 0.434207 0.359043
O O9 0.314691 0.463970 0.866666
O O10 0.000000 0.500000 0.000000
O O11 0.592040 0.872804 0.154777
O O12 0.662323 0.200245 0.247912
O O13 0.546454 0.230071 0.424959
O O14 0.838393 0.063529 0.380100
O O15 0.782420 0.737100 0.291741
O O16 0.811284 0.780745 0.485267
O O17 0.163120 0.941838 0.384668
#
# Coordination Sequence:
#
# PCOD9008949 Si02
#       8
#     2   2   2   2   2   2   2   2
#     4  11  22  40  65  92 125 165 226 274 321 383
#     4  11  24  42  60  95 135 172 218 262 337 396
#     4  12  26  42  63  94 132 176 222 274 339 392
#     4  10  22  39  62  95 119 165 223 268 321 383
#     4  10  21  39  66  94 129 170 215 265 323 390
#     4   9  22  40  69  99 127 169 223 269 327 390
#     4  11  23  43  65  93 134 172 216 277 326 396
#     4  10  21  42  66  98 133 170 215 274 327 390
#
# _framework density 25.897365000000001
#
# number of rings (size 3 to 8) (size 9 to 14) (size 15 to 20)
#    0.000    1.500    2.500    1.875    1.750    3.000 
#    0.000    1.250    0.000    0.000    0.000    0.000 
#    0.000    0.000    0.000    0.000    0.000    0.000 
#
# Total GULP energy -89372.690652 kJ/mol
# GULP energy per Si atom -5585.793166 kJ/mol
# Density = 2.583842 g / cm^3
# Si number density = 25.897365 Si / 1000 Ang^3
#
#
#
# Elastic Constant Matrix: (Units=GPa)
#
#
# Indices 1 2 3 4 5 6 
#
# 1 140.5455 40.5930 36.2273 -9.5819 -17.2605 19.7980
# 2 40.5930 53.4668 32.9703 -24.9934 -23.4398 15.0509
# 3 36.2273 32.9703 125.5269 -16.5561 -5.2999 10.0384
# 4 -9.5819 -24.9934 -16.5561 39.7422 5.9048 -1.3725
# 5 -17.2605 -23.4398 -5.2999 5.9048 48.2006 -14.2001
# 6 19.7980 15.0509 10.0384 -1.3725 -14.2001 44.1174
#
#
#
# Elastic Compliance Matrix: (Units=1/GPa)
#
#
# Indices 1 2 3 4 5 6 
#
# 1 0.009606 -0.007905 -0.000987 -0.003030 -0.000640 -0.001689
# 2 -0.007905 0.047333 -0.006040 0.022914 0.015045 -0.005671
# 3 -0.000987 -0.006040 0.009828 0.000398 -0.002404 -0.000494
# 4 -0.003030 0.022914 0.000398 0.038240 0.004241 -0.003993
# 5 -0.000640 0.015045 -0.002404 0.004241 0.028528 0.005016
# 6 -0.001689 -0.005671 -0.000494 -0.003993 0.005016 0.026962
#
#
# Mechanical properties :
#
#
# Convention : Reuss Voigt Hill
#
# Bulk Modulus (GPa) = 27.09917 59.90226 43.50072
# Shear Modulus (GPa) = 24.67164 40.39528 32.53346
#
# Velocity S-wave (km/s) = 3.08988 3.95374 3.54820
# Velocity P-wave (km/s) = 4.81836 6.63503 5.79829
#
# Compressibility (1/GPa) = 0.03690150
#
# Stress axis : x y z
#
# Youngs Moduli (GPa) = 104.10454 21.12702 101.74707
#
# Poissons Ratio (x) = 0.16702 0.10047
# Poissons Ratio (y) = 0.82298 0.61454
# Poissons Ratio (z) = 0.10280 0.12760
#
# Static dielectric constant tensor:
#      x y z
#    x 2.070710 0.029910 -0.073290 
#    y 0.029910 2.259970 0.090850 
#    z -0.073290 0.090850 2.037850 
# 
# From -- ./inp_files/328327.got.cif
#   From: 2010.05.17/outbox.cif.g08.bks.cpg/sg2_165_cif.got.tgz:328327.got - 2010.06.03 11:33:40.
