data_PCOD9008740
_publ_section_title
;
Structure prediction by ZEFSAII (Michael W. Deem and Ramdas Pophale) SiO2 
 PCOD9008740
Probable space group: P -1
;
_chemical_formula_sum "Si O2"
_cell_formula_units_Z 16
_cell_length_a 23.572835
_cell_length_b 20.461549
_cell_length_c 8.843874
_cell_angle_alpha 144.570784
_cell_angle_beta 135.255029
_cell_angle_gamma 18.930609
_cell_volume 759.578899
_symmetry_space_group_name_H-M "P -1"
_symmetry_group_IT_number 2
_symmetry_cell_setting 'triclinic'
loop_
_space_group_symop_operation_xyz
x,y,z
-x,-y,-z
loop_
_atom_site_type_symbol
_atom_site_label
_atom_site_fract_x
_atom_site_fract_y
_atom_site_fract_z
Si Si1 0.076757 0.036426 0.379538
Si Si2 0.132359 0.400384 0.173819
Si Si3 0.431528 0.901110 0.987456
Si Si4 0.965471 0.719432 0.735509
Si Si5 0.273292 0.201664 0.518005
Si Si6 0.545103 0.389308 0.538122
Si Si7 0.248541 0.381962 0.096562
Si Si8 0.848199 0.093717 0.081807
O O1 0.270139 0.796740 0.383203
O O2 0.117937 0.982644 0.174773
O O3 0.949614 0.304914 0.688677
O O4 0.961047 0.069046 0.264302
O O5 0.268998 0.305382 0.156923
O O6 0.011117 0.631258 0.483924
O O7 0.000000 0.500000 0.000000
O O8 0.245130 0.176652 0.073543
O O9 0.423417 0.779984 0.761613
O O10 0.600012 0.718931 0.854380
O O11 0.445206 0.956429 0.272120
O O12 0.820747 0.804745 0.670890
O O13 0.143947 0.459378 0.680412
O O14 0.913389 0.915839 0.991798
O O15 0.280960 0.237719 0.770056
O O16 0.500000 0.500000 0.500000
O O17 0.368681 0.620054 0.750869
#
# Coordination Sequence:
#
# PCOD9008740 Si02
#       8
#     2   2   2   2   2   2   2   2
#     4  11  26  45  71  99 136 181 230 285 334 399
#     4  11  21  40  66  98 127 170 218 274 336 393
#     4  11  25  43  62 101 139 169 224 276 332 410
#     4  10  21  39  65  96 127 171 220 274 331 399
#     4  10  23  38  66  96 134 171 215 273 340 397
#     4  12  27  45  70 100 138 184 229 278 340 405
#     4  12  22  43  68 101 133 174 221 277 341 396
#     4  11  24  48  68  98 137 176 238 274 339 397
#
# _framework density 21.064302000000001
#
# number of rings (size 3 to 8) (size 9 to 14) (size 15 to 20)
#    0.000    1.000    3.750    2.625    5.250    1.500 
#    0.000    2.500    0.000    0.000    0.000    0.000 
#    0.000    0.000    0.000    0.000    0.000    0.000 
#
# Total GULP energy -89309.420022 kJ/mol
# GULP energy per Si atom -5581.838751 kJ/mol
# Density = 2.101636 g / cm^3
# Si number density = 21.064302 Si / 1000 Ang^3
#
#
#
# Elastic Constant Matrix: (Units=GPa)
#
#
# Indices 1 2 3 4 5 6 
#
# 1 117.5429 34.8415 48.0622 4.6877 16.1873 5.4154
# 2 34.8415 61.1558 24.5956 6.9660 14.2561 -15.1636
# 3 48.0622 24.5956 85.0871 15.7393 2.6599 -5.4115
# 4 4.6877 6.9660 15.7393 29.1630 3.0977 1.7413
# 5 16.1873 14.2561 2.6599 3.0977 45.0007 9.0428
# 6 5.4154 -15.1636 -5.4115 1.7413 9.0428 28.3543
#
#
#
# Elastic Compliance Matrix: (Units=1/GPa)
#
#
# Indices 1 2 3 4 5 6 
#
# 1 0.013793 -0.007214 -0.006865 0.003776 -0.000979 -0.007722
# 2 -0.007214 0.029159 -0.001837 -0.004931 -0.010252 0.020194
# 3 -0.006865 -0.001837 0.017919 -0.008544 0.001840 0.003686
# 4 0.003776 -0.004931 -0.008544 0.039967 -0.000584 -0.007257
# 5 -0.000979 -0.010252 0.001840 -0.000584 0.028571 -0.014021
# 6 -0.007722 0.020194 0.003686 -0.007257 -0.014021 0.053163
#
#
# Mechanical properties :
#
#
# Convention : Reuss Voigt Hill
#
# Bulk Modulus (GPa) = 34.43630 53.19827 43.81728
# Shear Modulus (GPa) = 22.31324 30.92270 26.61797
#
# Velocity S-wave (km/s) = 3.25821 3.83562 3.55865
# Velocity P-wave (km/s) = 5.52614 6.70269 6.14265
#
# Compressibility (1/GPa) = 0.02903913
#
# Stress axis : x y z
#
# Youngs Moduli (GPa) = 72.50244 34.29479 55.80757
#
# Poissons Ratio (x) = 0.24739 0.38310
# Poissons Ratio (y) = 0.52302 0.10253
# Poissons Ratio (z) = 0.49771 0.06300
#
# Static dielectric constant tensor:
#      x y z
#    x 1.801120 -0.031080 0.002620 
#    y -0.031080 1.771290 0.007980 
#    z 0.002620 0.007980 1.803860 
# 
# From -- ./inp_files/177878.got.cif
#   From: 2010.05.17/outbox.cif.g08.bks.cpg/sg2_89_cif.got.tgz:177878.got - 2010.06.03 11:33:40.
