data_PCOD9008515
_publ_section_title
;
Structure prediction by ZEFSAII (Michael W. Deem and Ramdas Pophale) SiO2 
 PCOD9008515
Probable space group: P -1
;
_chemical_formula_sum "Si O2"
_cell_formula_units_Z 16
_cell_length_a 11.045024
_cell_length_b 10.360745
_cell_length_c 12.466287
_cell_angle_alpha 46.455370
_cell_angle_beta 113.456573
_cell_angle_gamma 138.684545
_cell_volume 661.089790
_symmetry_space_group_name_H-M "P -1"
_symmetry_group_IT_number 2
_symmetry_cell_setting 'triclinic'
loop_
_space_group_symop_operation_xyz
x,y,z
-x,-y,-z
loop_
_atom_site_type_symbol
_atom_site_label
_atom_site_fract_x
_atom_site_fract_y
_atom_site_fract_z
Si Si1 0.806993 0.380904 0.642487
Si Si2 0.354689 0.403182 0.597851
Si Si3 0.435523 0.468306 0.179953
Si Si4 0.800970 0.230634 0.501508
Si Si5 0.707060 0.303042 0.090393
Si Si6 0.416055 0.727745 0.714842
Si Si7 0.869402 0.370319 0.903388
Si Si8 0.968494 0.887645 0.670790
O O1 0.681215 0.421206 0.534295
O O2 0.825975 0.259485 0.621685
O O3 0.771300 0.265913 0.812555
O O4 0.020673 0.667756 0.556647
O O5 0.500000 0.500000 0.500000
O O6 0.446730 0.434967 0.723986
O O7 0.156934 0.111149 0.675758
O O8 0.548240 0.444742 0.153842
O O9 0.216640 0.211935 0.279141
O O10 0.405729 0.635913 0.027964
O O11 0.765590 0.395125 0.348231
O O12 0.598532 0.944721 0.581221
O O13 0.602267 0.170644 0.242504
O O14 0.930274 0.540508 0.069029
O O15 0.733894 0.201540 0.054509
O O16 0.925091 0.634389 0.785756
O O17 0.000000 0.000000 0.500000
#
# Coordination Sequence:
#
# PCOD9008515 Si02
#       8
#     2   2   2   2   2   2   2   2
#     4  11  20  40  60  93 125 152 199 262 312 362
#     4  12  22  35  61  95 126 157 201 255 313 361
#     4  11  23  40  60  90 125 167 203 247 309 365
#     4  10  23  35  64  94 118 154 202 263 314 353
#     4  10  22  41  60  85 122 173 204 239 300 377
#     4  11  21  40  61  89 123 158 209 252 304 371
#     4  10  21  39  65  85 121 169 203 245 310 365
#     4  11  21  37  62  94 126 156 201 260 308 360
#
# _framework density 24.202459999999999
#
# number of rings (size 3 to 8) (size 9 to 14) (size 15 to 20)
#    0.000    1.250    5.000    1.875    0.000    1.000 
#    0.000    5.000    0.000    5.250    0.000    0.000 
#    0.000    0.000    0.000    0.000    0.000    0.000 
#
# Total GULP energy -89289.857244 kJ/mol
# GULP energy per Si atom -5580.616078 kJ/mol
# Density = 2.414737 g / cm^3
# Si number density = 24.202460 Si / 1000 Ang^3
#
#
#
# Elastic Constant Matrix: (Units=GPa)
#
#
# Indices 1 2 3 4 5 6 
#
# 1 132.7811 25.7446 42.2607 16.3425 -0.9023 18.4601
# 2 25.7446 84.7818 25.4671 15.2862 1.7469 15.0694
# 3 42.2607 25.4671 109.2035 40.6299 -6.4348 5.7896
# 4 16.3425 15.2862 40.6299 38.0457 5.1231 -2.1990
# 5 -0.9023 1.7469 -6.4348 5.1231 54.5707 8.7306
# 6 18.4601 15.0694 5.7896 -2.1990 8.7306 33.7792
#
#
#
# Elastic Compliance Matrix: (Units=1/GPa)
#
#
# Indices 1 2 3 4 5 6 
#
# 1 0.009345 -0.001067 -0.002708 -0.001039 0.000672 -0.004408
# 2 -0.001067 0.014327 -0.000645 -0.005097 0.000929 -0.006270
# 3 -0.002708 -0.000645 0.017518 -0.018069 0.004302 -0.003523
# 4 -0.001039 -0.005097 -0.018069 0.049876 -0.008488 0.011379
# 5 0.000672 0.000929 0.004302 -0.008488 0.020802 -0.007448
# 6 -0.004408 -0.006270 -0.003523 0.011379 -0.007448 0.038080
#
#
# Mechanical properties :
#
#
# Convention : Reuss Voigt Hill
#
# Bulk Modulus (GPa) = 30.91051 57.07903 43.99477
# Shear Modulus (GPa) = 29.48619 40.83206 35.15912
#
# Velocity S-wave (km/s) = 3.49422 4.11189 3.81558
# Velocity P-wave (km/s) = 5.39248 6.79549 6.13423
#
# Compressibility (1/GPa) = 0.03235145
#
# Stress axis : x y z
#
# Youngs Moduli (GPa) = 107.00630 69.79847 57.08287
#
# Poissons Ratio (x) = 0.07450 0.15456
# Poissons Ratio (y) = 0.11422 0.03679
# Poissons Ratio (z) = 0.28974 0.04499
#
# Static dielectric constant tensor:
#      x y z
#    x 1.979540 -0.054580 0.049840 
#    y -0.054580 2.038040 -0.053170 
#    z 0.049840 -0.053170 2.014130 
# 
# From -- ./inp_files/426562.got.cif
#   From: 2010.05.17/outbox.cif.g08.bks.cpg/sg2_214_cif.got.tgz:426562.got - 2010.06.03 11:33:40.
