data_PCOD9008116
_publ_section_title
;
Structure prediction by ZEFSAII (Michael W. Deem and Ramdas Pophale) SiO2 
 PCOD9008116
Probable space group: P -1
;
_chemical_formula_sum "Si O2"
_cell_formula_units_Z 14
_cell_length_a 5.248879
_cell_length_b 14.154730
_cell_length_c 15.999216
_cell_angle_alpha 149.789012
_cell_angle_beta 121.191246
_cell_angle_gamma 61.628221
_cell_volume 510.610174
_symmetry_space_group_name_H-M "P -1"
_symmetry_group_IT_number 2
_symmetry_cell_setting 'triclinic'
loop_
_space_group_symop_operation_xyz
x,y,z
-x,-y,-z
loop_
_atom_site_type_symbol
_atom_site_label
_atom_site_fract_x
_atom_site_fract_y
_atom_site_fract_z
Si Si1 0.160757 0.744617 0.654501
Si Si2 0.870833 0.147031 0.657150
Si Si3 0.493137 0.740903 0.064410
Si Si4 0.982714 0.508425 0.868898
Si Si5 0.077781 0.110184 0.016377
Si Si6 0.587265 0.513805 0.643672
Si Si7 0.347543 0.084989 0.411696
O O1 0.247758 0.605030 0.641337
O O2 0.353923 0.651175 0.539902
O O3 0.834558 0.777275 0.578714
O O4 0.218696 0.956463 0.856636
O O5 0.024557 0.338321 0.810934
O O6 0.531357 0.186867 0.592539
O O7 0.851454 0.046815 0.666026
O O8 0.000000 0.000000 0.500000
O O9 0.238260 0.815518 0.014938
O O10 0.534591 0.927138 0.268703
O O11 0.766659 0.663993 0.996214
O O12 0.302590 0.584046 0.958498
O O13 0.777292 0.450973 0.710916
O O14 0.253860 0.293196 0.202174
O O15 0.000000 0.000000 0.000000
#
# Coordination Sequence:
#
# PCOD9008116 Si02
#       7
#     2   2   2   2   2   2   2
#     4  10  21  42  66 101 139 189 231 292 343 435
#     4  11  26  45  72  96 141 187 234 306 357 424
#     4  10  25  45  71 107 138 190 233 299 352 433
#     4  11  25  46  74 102 148 183 237 292 362 420
#     4  10  21  39  64 100 149 184 233 285 353 419
#     4  10  22  41  68 102 145 184 236 282 360 421
#     4  10  25  46  69 103 138 182 246 289 363 421
#
# _framework density 27.418174
#
# number of rings (size 3 to 8) (size 9 to 14) (size 15 to 20)
#    0.000    1.714    0.000    2.143   10.000    4.000 
#   15.429    0.000    0.000    0.000    0.000    0.000 
#    0.000    0.000    0.000    0.000    0.000    0.000 
#
# Total GULP energy -78312.190071 kJ/mol
# GULP energy per Si atom -5593.727862 kJ/mol
# Density = 2.735577 g / cm^3
# Si number density = 27.418174 Si / 1000 Ang^3
#
#
#
# Elastic Constant Matrix: (Units=GPa)
#
#
# Indices 1 2 3 4 5 6 
#
# 1 63.8363 -14.0295 29.6589 -0.4143 -1.1148 4.1187
# 2 -14.0295 142.5602 16.1494 -3.2000 1.6220 1.5093
# 3 29.6589 16.1494 117.3691 -14.5829 -9.4022 3.3354
# 4 -0.4143 -3.2000 -14.5829 56.9080 -8.2286 1.6399
# 5 -1.1148 1.6220 -9.4022 -8.2286 55.3748 4.9592
# 6 4.1187 1.5093 3.3354 1.6399 4.9592 43.2302
#
#
#
# Elastic Compliance Matrix: (Units=1/GPa)
#
#
# Indices 1 2 3 4 5 6 
#
# 1 0.018685 0.002425 -0.005205 -0.001113 -0.000623 -0.001350
# 2 0.002425 0.007449 -0.001669 -0.000045 -0.000432 -0.000311
# 3 -0.005205 -0.001669 0.010627 0.002934 0.002241 -0.000634
# 4 -0.001113 -0.000045 0.002934 0.018838 0.003386 -0.001222
# 5 -0.000623 -0.000432 0.002241 0.003386 0.019160 -0.002425
# 6 -0.001350 -0.000311 -0.000634 -0.001222 -0.002425 0.023645
#
#
# Mechanical properties :
#
#
# Convention : Reuss Voigt Hill
#
# Bulk Modulus (GPa) = 35.88942 43.03589 39.46266
# Shear Modulus (GPa) = 42.88481 50.56837 46.72659
#
# Velocity S-wave (km/s) = 3.95916 4.29923 4.13270
# Velocity P-wave (km/s) = 5.83250 6.35411 6.09888
#
# Compressibility (1/GPa) = 0.02786337
#
# Stress axis : x y z
#
# Youngs Moduli (GPa) = 53.51782 134.23731 94.09793
#
# Poissons Ratio (x) = -0.32551 0.48980
# Poissons Ratio (y) = -0.12978 0.15705
# Poissons Ratio (z) = 0.27857 0.22405
#
# Static dielectric constant tensor:
#      x y z
#    x 2.125460 -0.146400 0.121700 
#    y -0.146400 2.218910 -0.116170 
#    z 0.121700 -0.116170 2.182990 
# 
# From -- ./inp_files/106768.got.cif
#   From: 2010.05.17/outbox.cif.g08.bks.cpg/sg2_54_cif.got.tgz:106768.got - 2010.06.03 11:33:40.
