data_PCOD9008386
_publ_section_title
;
Structure prediction by ZEFSAII (Michael W. Deem and Ramdas Pophale) SiO2 
 PCOD9008386
Probable space group: P -1
;
_chemical_formula_sum "Si O2"
_cell_formula_units_Z 16
_cell_length_a 20.108006
_cell_length_b 8.909187
_cell_length_c 7.038748
_cell_angle_alpha 109.302012
_cell_angle_beta 50.561859
_cell_angle_gamma 134.836273
_cell_volume 674.544451
_symmetry_space_group_name_H-M "P -1"
_symmetry_group_IT_number 2
_symmetry_cell_setting 'triclinic'
loop_
_space_group_symop_operation_xyz
x,y,z
-x,-y,-z
loop_
_atom_site_type_symbol
_atom_site_label
_atom_site_fract_x
_atom_site_fract_y
_atom_site_fract_z
Si Si1 0.149970 0.218796 0.630220
Si Si2 0.630278 0.617758 0.896753
Si Si3 0.918551 0.577170 0.409787
Si Si4 0.519694 0.711518 0.358713
Si Si5 0.062815 0.285704 0.150788
Si Si6 0.358894 0.195829 0.472266
Si Si7 0.113095 0.786819 0.858274
Si Si8 0.495200 0.157656 0.959656
O O1 0.260327 0.252221 0.384406
O O2 0.134670 0.331307 0.544016
O O3 0.030776 0.968322 0.732548
O O4 0.159843 0.319251 0.858516
O O5 0.503848 0.188834 0.723499
O O6 0.635625 0.755776 0.103860
O O7 0.604103 0.407687 0.928745
O O8 0.855913 0.352092 0.322579
O O9 0.907900 0.578929 0.656916
O O10 0.053427 0.732700 0.150129
O O11 0.420480 0.448671 0.462033
O O12 0.562454 0.814591 0.529826
O O13 0.500000 0.500000 0.000000
O O14 0.991127 0.299260 0.134264
O O15 0.378778 0.111559 0.213138
O O16 0.225285 0.032611 0.711874
O O17 0.500000 0.000000 0.000000
#
# Coordination Sequence:
#
# PCOD9008386 Si02
#       8
#     2   2   2   2   2   2   2   2
#     4  10  22  39  63  95 127 165 211 265 326 383
#     4   9  20  39  64  89 127 165 210 267 315 388
#     4  10  22  43  59  95 132 163 218 269 322 381
#     4   9  21  41  62  95 127 165 225 264 318 399
#     4  10  22  40  65  94 127 171 212 266 324 384
#     4  10  21  39  64  95 125 173 218 264 324 394
#     4  10  23  37  67  92 127 171 216 264 323 393
#     4  10  22  38  62  90 129 164 206 271 329 388
#
# _framework density 23.719709999999999
#
# number of rings (size 3 to 8) (size 9 to 14) (size 15 to 20)
#    0.000    2.250    0.000    1.875   10.500    0.500 
#    0.000    2.500    0.000    0.000    0.000    0.000 
#    0.000    0.000    0.000    0.000    0.000    0.000 
#
# Total GULP energy -89069.535025 kJ/mol
# GULP energy per Si atom -5566.845939 kJ/mol
# Density = 2.366572 g / cm^3
# Si number density = 23.719710 Si / 1000 Ang^3
#
#
#
# Elastic Constant Matrix: (Units=GPa)
#
#
# Indices 1 2 3 4 5 6 
#
# 1 90.2607 18.9978 14.2294 -8.1968 12.3722 -19.2589
# 2 18.9978 35.3762 37.0128 -8.3796 1.5936 -6.3750
# 3 14.2294 37.0128 132.7121 -9.4934 -3.9441 18.3686
# 4 -8.1968 -8.3796 -9.4934 38.8202 2.5187 6.7144
# 5 12.3722 1.5936 -3.9441 2.5187 43.2238 -5.9115
# 6 -19.2589 -6.3750 18.3686 6.7144 -5.9115 29.1555
#
#
#
# Elastic Compliance Matrix: (Units=1/GPa)
#
#
# Indices 1 2 3 4 5 6 
#
# 1 0.014622 -0.004167 -0.001734 0.000373 -0.002960 0.009154
# 2 -0.004167 0.051355 -0.016129 0.003153 0.000096 0.017932
# 3 -0.001734 -0.016129 0.014331 0.002074 0.000348 -0.014108
# 4 0.000373 0.003153 0.002074 0.028497 -0.002718 -0.007485
# 5 -0.002960 0.000096 0.000348 -0.002718 0.024644 0.003469
# 6 0.009154 0.017932 -0.014108 -0.007485 0.003469 0.055582
#
#
# Mechanical properties :
#
#
# Convention : Reuss Voigt Hill
#
# Bulk Modulus (GPa) = 27.58835 44.31435 35.95135
# Shear Modulus (GPa) = 20.39370 34.78051 27.58711
#
# Velocity S-wave (km/s) = 2.93538 3.83340 3.41405
# Velocity P-wave (km/s) = 4.81091 6.19002 5.54352
#
# Compressibility (1/GPa) = 0.03624718
#
# Stress axis : x y z
#
# Youngs Moduli (GPa) = 68.38920 19.47240 69.77966
#
# Poissons Ratio (x) = 0.08114 0.12099
# Poissons Ratio (y) = 0.28498 1.12550
# Poissons Ratio (z) = 0.11858 0.31408
#
# Static dielectric constant tensor:
#      x y z
#    x 2.073700 -0.012640 0.100320 
#    y -0.012640 1.998560 0.081190 
#    z 0.100320 0.081190 2.094420 
# 
# From -- ./inp_files/123727.got.cif
#   From: 2010.05.17/outbox.cif.g08.bks.cpg/sg2_62_cif.got.tgz:123727.got - 2010.06.03 11:33:40.
