data_PCOD9008518
_publ_section_title
;
Structure prediction by ZEFSAII (Michael W. Deem and Ramdas Pophale) SiO2 
 PCOD9008518
Probable space group: P -1
;
_chemical_formula_sum "Si O2"
_cell_formula_units_Z 14
_cell_length_a 23.124881
_cell_length_b 7.279825
_cell_length_c 5.150981
_cell_angle_alpha 110.584305
_cell_angle_beta 62.260731
_cell_angle_gamma 133.339239
_cell_volume 557.498505
_symmetry_space_group_name_H-M "P -1"
_symmetry_group_IT_number 2
_symmetry_cell_setting 'triclinic'
loop_
_space_group_symop_operation_xyz
x,y,z
-x,-y,-z
loop_
_atom_site_type_symbol
_atom_site_label
_atom_site_fract_x
_atom_site_fract_y
_atom_site_fract_z
Si Si1 0.696500 0.009107 0.791912
Si Si2 0.265078 0.520758 0.765435
Si Si3 0.516331 0.664517 0.797376
Si Si4 0.913547 0.832853 0.824278
Si Si5 0.995942 0.314546 0.155798
Si Si6 0.659537 0.526138 0.911377
Si Si7 0.870453 0.396565 0.370851
O O1 0.777456 0.147287 0.504014
O O2 0.613499 0.902951 0.745075
O O3 0.682394 0.784930 0.877731
O O4 0.712968 0.219703 0.057008
O O5 0.301942 0.543807 0.419796
O O6 0.165000 0.305616 0.884043
O O7 0.303674 0.449202 0.869589
O O8 0.500000 0.500000 0.500000
O O9 0.500000 0.500000 0.000000
O O10 0.441778 0.681729 0.964852
O O11 0.875967 0.633951 0.568328
O O12 0.989877 0.835260 0.751831
O O13 0.951051 0.120766 0.904671
O O14 0.934553 0.374868 0.385050
O O15 0.088793 0.542861 0.968371
#
# Coordination Sequence:
#
# PCOD9008518 Si02
#       7
#     2   2   2   2   2   2   2
#     4  10  24  45  69  99 138 179 222 291 333 402
#     4  11  26  42  71 104 135 181 230 275 340 407
#     4  10  22  43  71 100 136 180 223 274 343 401
#     4  10  22  40  60  93 130 170 216 278 327 394
#     4  10  21  39  65  86 130 170 218 274 333 394
#     4  11  24  46  68 102 140 177 228 279 339 407
#     4  10  21  41  60  97 121 171 223 267 336 399
#
# _framework density 25.112179000000001
#
# number of rings (size 3 to 8) (size 9 to 14) (size 15 to 20)
#    0.000    1.714    0.000    3.429    4.000    4.571 
#   20.571    0.000    0.000    0.000    0.000    0.000 
#    0.000    0.000    0.000    0.000    0.000    0.000 
#
# Total GULP energy -78311.458468 kJ/mol
# GULP energy per Si atom -5593.675605 kJ/mol
# Density = 2.505502 g / cm^3
# Si number density = 25.112179 Si / 1000 Ang^3
#
#
#
# Elastic Constant Matrix: (Units=GPa)
#
#
# Indices 1 2 3 4 5 6 
#
# 1 118.3968 28.1386 16.8986 -14.5888 -11.7698 16.7729
# 2 28.1386 104.1680 15.4035 -20.7276 -16.1421 2.0640
# 3 16.8986 15.4035 123.1266 -18.6052 -12.3790 14.8331
# 4 -14.5888 -20.7276 -18.6052 35.9424 7.8845 -20.9925
# 5 -11.7698 -16.1421 -12.3790 7.8845 46.8416 -6.2946
# 6 16.7729 2.0640 14.8331 -20.9925 -6.2946 41.1330
#
#
#
# Elastic Compliance Matrix: (Units=1/GPa)
#
#
# Indices 1 2 3 4 5 6 
#
# 1 0.009663 -0.002286 -0.000507 0.000115 0.001027 -0.003427
# 2 -0.002286 0.012265 -0.000287 0.008364 0.002858 0.005126
# 3 -0.000507 -0.000287 0.009009 0.003328 0.001445 -0.001108
# 4 0.000115 0.008364 0.003328 0.047871 -0.001233 0.022576
# 5 0.001027 0.002858 0.001445 -0.001233 0.023433 0.001873
# 6 -0.003427 0.005126 -0.001108 0.022576 0.001873 0.037660
#
#
# Mechanical properties :
#
#
# Convention : Reuss Voigt Hill
#
# Bulk Modulus (GPa) = 40.35754 51.84143 46.09949
# Shear Modulus (GPa) = 32.40028 43.80012 38.10020
#
# Velocity S-wave (km/s) = 3.59586 4.18087 3.89935
# Velocity P-wave (km/s) = 5.77461 6.63287 6.21856
#
# Compressibility (1/GPa) = 0.02477851
#
# Stress axis : x y z
#
# Youngs Moduli (GPa) = 103.48257 81.53129 111.00175
#
# Poissons Ratio (x) = 0.18634 0.05626
# Poissons Ratio (y) = 0.23651 0.03187
# Poissons Ratio (z) = 0.05245 0.02341
#
# Static dielectric constant tensor:
#      x y z
#    x 2.038490 0.021130 0.056690 
#    y 0.021130 1.989070 0.019230 
#    z 0.056690 0.019230 2.016040 
# 
# From -- ./inp_files/126319.got.cif
#   From: 2010.05.17/outbox.cif.g08.bks.cpg/sg2_64_cif.got.tgz:126319.got - 2010.06.03 11:33:40.
