data_PCOD9008083
_publ_section_title
;
Structure prediction by ZEFSAII (Michael W. Deem and Ramdas Pophale) SiO2 
 PCOD9008083
Probable space group: P -1
;
_chemical_formula_sum "Si O2"
_cell_formula_units_Z 16
_cell_length_a 17.263321
_cell_length_b 11.327318
_cell_length_c 11.097145
_cell_angle_alpha 61.411852
_cell_angle_beta 21.356352
_cell_angle_gamma 64.313973
_cell_volume 693.396785
_symmetry_space_group_name_H-M "P -1"
_symmetry_group_IT_number 2
_symmetry_cell_setting 'triclinic'
loop_
_space_group_symop_operation_xyz
x,y,z
-x,-y,-z
loop_
_atom_site_type_symbol
_atom_site_label
_atom_site_fract_x
_atom_site_fract_y
_atom_site_fract_z
Si Si1 0.685780 0.423134 0.699230
Si Si2 0.852011 0.951528 0.630177
Si Si3 0.013735 0.882491 0.203107
Si Si4 0.436673 0.972383 0.469249
Si Si5 0.621632 0.713932 0.192865
Si Si6 0.615321 0.512887 0.510910
Si Si7 0.486212 0.142763 0.105907
Si Si8 0.176911 0.613270 0.218409
O O1 0.757556 0.497061 0.434612
O O2 0.821977 0.383977 0.637893
O O3 0.500000 0.500000 0.000000
O O4 0.583261 0.285887 0.862677
O O5 0.997806 0.982199 0.289484
O O6 0.784360 0.794943 0.828064
O O7 0.000000 0.000000 0.500000
O O8 0.635578 0.030588 0.889547
O O9 0.765920 0.858085 0.545997
O O10 0.114049 0.748704 0.176213
O O11 0.183522 0.945414 0.834988
O O12 0.530145 0.840840 0.336382
O O13 0.500000 0.000000 0.500000
O O14 0.511739 0.107615 0.226372
O O15 0.700281 0.615037 0.233070
O O16 0.458478 0.622574 0.391362
O O17 0.398728 0.569930 0.856371
O O18 0.000000 0.500000 0.500000
#
# Coordination Sequence:
#
# PCOD9008083 Si02
#       8
#     2   2   2   2   2   2   2   2
#     4  10  21  39  63  97 125 171 223 274 329 396
#     4  11  23  41  66  94 128 175 221 276 339 408
#     4  12  22  40  62  94 130 170 227 274 330 404
#     4  11  23  41  66  97 133 175 224 281 335 400
#     4  10  21  41  66 101 134 178 220 274 350 398
#     4  10  21  39  68  95 136 179 220 276 338 404
#     4  11  24  40  64  94 128 170 216 281 338 400
#     4  11  21  37  64  97 131 174 224 275 333 400
#
# _framework density 23.074809999999999
#
# number of rings (size 3 to 8) (size 9 to 14) (size 15 to 20)
#    0.000    1.250    1.250    6.750    1.750    1.000 
#    0.000    0.000    0.000    9.000    0.000    0.000 
#    0.000    0.000    0.000    0.000    0.000    0.000 
#
# Total GULP energy -89222.224020 kJ/mol
# GULP energy per Si atom -5576.389001 kJ/mol
# Density = 2.302229 g / cm^3
# Si number density = 23.074810 Si / 1000 Ang^3
#
#
#
# Elastic Constant Matrix: (Units=GPa)
#
#
# Indices 1 2 3 4 5 6 
#
# 1 106.8537 22.1001 -4.2258 8.1730 4.3094 -5.7782
# 2 22.1001 82.2545 18.2301 3.0376 -1.3705 -11.5665
# 3 -4.2258 18.2301 59.1577 4.2198 -0.9926 -9.5998
# 4 8.1730 3.0376 4.2198 34.3314 -5.8511 2.9672
# 5 4.3094 -1.3705 -0.9926 -5.8511 40.2128 -4.7321
# 6 -5.7782 -11.5665 -9.5998 2.9672 -4.7321 27.4470
#
#
#
# Elastic Compliance Matrix: (Units=1/GPa)
#
#
# Indices 1 2 3 4 5 6 
#
# 1 0.010420 -0.002937 0.002118 -0.002868 -0.001374 0.001770
# 2 -0.002937 0.014455 -0.003922 -0.000271 0.001181 0.004334
# 3 0.002118 -0.003922 0.019456 -0.003000 0.000388 0.005989
# 4 -0.002868 -0.000271 -0.003000 0.031311 0.004260 -0.004418
# 5 -0.001374 0.001181 0.000388 0.004260 0.026203 0.004401
# 6 0.001770 0.004334 0.005989 -0.004418 0.004401 0.041964
#
#
# Mechanical properties :
#
#
# Convention : Reuss Voigt Hill
#
# Bulk Modulus (GPa) = 28.69432 35.60829 32.15131
# Shear Modulus (GPa) = 30.31996 34.54234 32.43115
#
# Velocity S-wave (km/s) = 3.62883 3.87327 3.75304
# Velocity P-wave (km/s) = 5.47907 5.95551 5.72225
#
# Compressibility (1/GPa) = 0.03485010
#
# Stress axis : x y z
#
# Youngs Moduli (GPa) = 95.96591 69.18045 51.39735
#
# Poissons Ratio (x) = 0.20320 -0.10887
# Poissons Ratio (y) = 0.28188 0.20157
# Poissons Ratio (z) = -0.20328 0.27131
#
# Static dielectric constant tensor:
#      x y z
#    x 1.932540 -0.014610 -0.005040 
#    y -0.014610 1.856740 0.049030 
#    z -0.005040 0.049030 1.884130 
# 
# From -- ./inp_files/461164.got.cif
#   From: 2010.05.17/outbox.cif.g08.bks.cpg/sg2_231_cif.got.tgz:461164.got - 2010.06.03 11:33:40.
