data_PCOD9008884
_publ_section_title
;
Structure prediction by ZEFSAII (Michael W. Deem and Ramdas Pophale) SiO2 
 PCOD9008884
Probable space group: P -1
;
_chemical_formula_sum "Si O2"
_cell_formula_units_Z 16
_cell_length_a 9.120134
_cell_length_b 7.676061
_cell_length_c 13.706152
_cell_angle_alpha 105.559524
_cell_angle_beta 126.062488
_cell_angle_gamma 97.468328
_cell_volume 694.296731
_symmetry_space_group_name_H-M "P -1"
_symmetry_group_IT_number 2
_symmetry_cell_setting 'triclinic'
loop_
_space_group_symop_operation_xyz
x,y,z
-x,-y,-z
loop_
_atom_site_type_symbol
_atom_site_label
_atom_site_fract_x
_atom_site_fract_y
_atom_site_fract_z
Si Si1 0.617336 0.672525 0.983963
Si Si2 0.279432 0.321872 0.709467
Si Si3 0.189785 0.009487 0.019650
Si Si4 0.405298 0.766469 0.449390
Si Si5 0.963193 0.636953 0.229419
Si Si6 0.438869 0.063674 0.823373
Si Si7 0.102136 0.763340 0.757248
Si Si8 0.686408 0.540807 0.467405
O O1 0.819164 0.651840 0.091835
O O2 0.558568 0.809691 0.057617
O O3 0.667724 0.772027 0.913328
O O4 0.439584 0.473668 0.866149
O O5 0.076725 0.242431 0.677294
O O6 0.357417 0.146429 0.712281
O O7 0.269840 0.435306 0.626442
O O8 0.119459 0.917855 0.872026
O O9 0.341578 0.919914 0.107757
O O10 0.000000 0.000000 0.000000
O O11 0.527418 0.641898 0.435699
O O12 0.371469 0.670276 0.533039
O O13 0.190055 0.700592 0.307795
O O14 0.500000 0.000000 0.500000
O O15 0.886088 0.420251 0.208963
O O16 0.275114 0.858988 0.762034
O O17 0.888001 0.682979 0.615835
#
# Coordination Sequence:
#
# PCOD9008884 Si02
#       8
#     2   2   2   2   2   2   2   2
#     4  10  21  39  66  90 130 165 208 269 325 384
#     4  11  22  41  65 100 127 158 225 271 315 380
#     4  11  23  38  62  96 122 168 217 266 316 383
#     4  10  24  45  67  88 134 183 215 257 330 401
#     4  10  21  41  68  95 122 174 213 266 331 378
#     4  10  21  40  64  92 126 168 210 266 328 377
#     4  10  21  42  65  88 130 168 214 264 325 388
#     4  10  25  45  64  97 134 174 216 271 322 385
#
# _framework density 23.044903000000001
#
# number of rings (size 3 to 8) (size 9 to 14) (size 15 to 20)
#    0.000    1.750    0.000    5.250    5.250    6.500 
#    4.500    1.875    0.000    0.000    0.000    0.000 
#    0.000    0.000    0.000    0.000    0.000    0.000 
#
# Total GULP energy -89253.130663 kJ/mol
# GULP energy per Si atom -5578.320666 kJ/mol
# Density = 2.299245 g / cm^3
# Si number density = 23.044903 Si / 1000 Ang^3
#
#
#
# Elastic Constant Matrix: (Units=GPa)
#
#
# Indices 1 2 3 4 5 6 
#
# 1 91.4920 13.6899 26.5732 -5.8630 37.5979 -10.1209
# 2 13.6899 103.6806 21.7852 4.3373 17.1923 0.7609
# 3 26.5732 21.7852 77.2333 -10.6980 29.0557 -9.8357
# 4 -5.8630 4.3373 -10.6980 25.7191 3.9314 9.9461
# 5 37.5979 17.1923 29.0557 3.9314 41.1089 -10.9724
# 6 -10.1209 0.7609 -9.8357 9.9461 -10.9724 27.1785
#
#
#
# Elastic Compliance Matrix: (Units=1/GPa)
#
#
# Indices 1 2 3 4 5 6 
#
# 1 0.019212 0.000138 0.002257 0.010278 -0.021390 -0.004429
# 2 0.000138 0.010736 -0.002240 -0.001456 -0.003401 -0.001900
# 3 0.002257 -0.002240 0.021230 0.014145 -0.018577 -0.004090
# 4 0.010278 -0.001456 0.014145 0.062605 -0.031933 -0.026815
# 5 -0.021390 -0.003401 -0.018577 -0.031933 0.068052 0.024567
# 6 -0.004429 -0.001900 -0.004090 -0.026815 0.024567 0.053449
#
#
# Mechanical properties :
#
#
# Convention : Reuss Voigt Hill
#
# Bulk Modulus (GPa) = 19.42137 44.05584 31.73861
# Shear Modulus (GPa) = 19.83051 32.82514 26.32783
#
# Velocity S-wave (km/s) = 2.93664 3.77822 3.38369
# Velocity P-wave (km/s) = 4.46591 6.17998 5.39150
#
# Compressibility (1/GPa) = 0.05148966
#
# Stress axis : x y z
#
# Youngs Moduli (GPa) = 52.05045 93.14222 47.10231
#
# Poissons Ratio (x) = -0.01289 -0.10632
# Poissons Ratio (y) = -0.00720 0.10551
# Poissons Ratio (z) = -0.11749 0.20865
#
# Static dielectric constant tensor:
#      x y z
#    x 1.929090 -0.062380 -0.050740 
#    y -0.062380 1.997790 0.006810 
#    z -0.050740 0.006810 1.866120 
# 
# From -- ./inp_files/493240.got.cif
#   From: 2010.05.17/outbox.cif.g08.bks.cpg/sg2_247_cif.got.tgz:493240.got - 2010.06.03 11:33:40.
