data_PCOD9008773
_publ_section_title
;
Structure prediction by ZEFSAII (Michael W. Deem and Ramdas Pophale) SiO2 
 PCOD9008773
Probable space group: P -1
;
_chemical_formula_sum "Si O2"
_cell_formula_units_Z 15
_cell_length_a 5.187067
_cell_length_b 15.801377
_cell_length_c 9.835978
_cell_angle_alpha 61.019140
_cell_angle_beta 50.228728
_cell_angle_gamma 65.879714
_cell_volume 536.175225
_symmetry_space_group_name_H-M "P -1"
_symmetry_group_IT_number 2
_symmetry_cell_setting 'triclinic'
loop_
_space_group_symop_operation_xyz
x,y,z
-x,-y,-z
loop_
_atom_site_type_symbol
_atom_site_label
_atom_site_fract_x
_atom_site_fract_y
_atom_site_fract_z
Si Si1 0.308595 0.787357 0.580627
Si Si2 0.591820 0.444454 0.658703
Si Si3 0.215926 0.379026 0.382360
Si Si4 0.869213 0.901298 0.431852
Si Si5 0.332793 0.950707 0.799802
Si Si6 0.037036 0.212086 0.017640
Si Si7 0.480107 0.605051 0.002976
Si Si8 0.500000 0.000000 0.000000
O O1 0.469599 0.676379 0.599771
O O2 0.618109 0.843040 0.479739
O O3 0.049121 0.794372 0.787735
O O4 0.155039 0.831198 0.462141
O O5 0.500000 0.500000 0.500000
O O6 0.766790 0.510344 0.659601
O O7 0.371667 0.403701 0.885880
O O8 0.867449 0.357228 0.579723
O O9 0.280075 0.351624 0.224624
O O10 0.652963 0.952055 0.592306
O O11 0.982376 0.984753 0.230537
O O12 0.243254 0.843872 0.918926
O O13 0.393241 0.000868 0.877086
O O14 0.887666 0.324342 0.933739
O O15 0.372046 0.133001 0.947332
O O16 0.500000 0.500000 0.000000
#
# Coordination Sequence:
#
# PCOD9008773 Si02
#       8
#     2   2   2   2   2   2   2   1
#     4  10  21  40  67  97 131 181 239 284 345 421
#     4  10  21  39  65  97 133 171 229 296 354 423
#     4   9  21  40  63  93 135 178 224 292 353 424
#     4  10  22  39  66  94 127 179 235 286 335 414
#     4  10  23  39  62  90 135 178 231 284 345 415
#     4  10  22  41  63  95 135 183 233 285 354 422
#     4   9  20  44  69  95 134 180 235 289 357 424
#     4  12  22  40  60  90 136 182 218 286 350 416
#
# _framework density 27.975930000000002
#
# number of rings (size 3 to 8) (size 9 to 14) (size 15 to 20)
#    0.000    2.133    1.333    0.400    3.733    3.200 
#    0.000    4.000    0.000    0.000    0.000    0.000 
#    0.000    0.000    0.000    0.000    0.000    0.000 
#
# Total GULP energy -83523.094801 kJ/mol
# GULP energy per Si atom -5568.206320 kJ/mol
# Density = 2.791226 g / cm^3
# Si number density = 27.975930 Si / 1000 Ang^3
#
#
#
# Elastic Constant Matrix: (Units=GPa)
#
#
# Indices 1 2 3 4 5 6 
#
# 1 121.3227 41.8008 49.9970 -2.3170 46.7639 -10.2462
# 2 41.8008 146.2198 41.4702 12.2741 11.3046 -28.6369
# 3 49.9970 41.4702 177.2105 16.4105 47.2836 -22.4412
# 4 -2.3170 12.2741 16.4105 47.2093 -3.2552 0.5107
# 5 46.7639 11.3046 47.2836 -3.2552 40.8712 -2.4894
# 6 -10.2462 -28.6369 -22.4412 0.5107 -2.4894 39.8221
#
#
#
# Elastic Compliance Matrix: (Units=1/GPa)
#
#
# Indices 1 2 3 4 5 6 
#
# 1 0.016423 -0.003309 0.001604 -0.000263 -0.019659 0.001524
# 2 -0.003309 0.009082 -0.001036 -0.002039 0.002632 0.005287
# 3 0.001604 -0.001036 0.009827 -0.004010 -0.012966 0.004447
# 4 -0.000263 -0.002039 -0.004010 0.023627 0.007164 -0.003649
# 5 -0.019659 0.002632 -0.012966 0.007164 0.061393 -0.006726
# 6 0.001524 0.005287 0.004447 -0.003649 -0.006726 0.031438
#
#
# Mechanical properties :
#
#
# Convention : Reuss Voigt Hill
#
# Bulk Modulus (GPa) = 33.50168 79.03211 56.26690
# Shear Modulus (GPa) = 29.90040 46.34620 38.12330
#
# Velocity S-wave (km/s) = 3.27278 4.07461 3.69551
# Velocity P-wave (km/s) = 5.12666 7.10267 6.19397
#
# Compressibility (1/GPa) = 0.02984925
#
# Stress axis : x y z
#
# Youngs Moduli (GPa) = 60.88998 110.10964 101.76182
#
# Poissons Ratio (x) = 0.36440 -0.16320
# Poissons Ratio (y) = 0.20151 0.10539
# Poissons Ratio (z) = -0.09765 0.11404
#
# Static dielectric constant tensor:
#      x y z
#    x 1.939780 0.063680 0.001220 
#    y 0.063680 2.343050 -0.276820 
#    z 0.001220 -0.276820 2.290320 
# 
# From -- ./inp_files/138852.got.cif
#   From: 2010.05.17/outbox.cif.g08.bks.cpg/sg2_70_cif.got.tgz:138852.got - 2010.06.03 11:33:40.
