data_PCOD9008072
_publ_section_title
;
Structure prediction by ZEFSAII (Michael W. Deem and Ramdas Pophale) SiO2 
 PCOD9008072
Probable space group: P -1
;
_chemical_formula_sum "Si O2"
_cell_formula_units_Z 16
_cell_length_a 14.792312
_cell_length_b 5.503358
_cell_length_c 13.022729
_cell_angle_alpha 96.776456
_cell_angle_beta 54.710365
_cell_angle_gamma 125.548291
_cell_volume 665.091796
_symmetry_space_group_name_H-M "P -1"
_symmetry_group_IT_number 2
_symmetry_cell_setting 'triclinic'
loop_
_space_group_symop_operation_xyz
x,y,z
-x,-y,-z
loop_
_atom_site_type_symbol
_atom_site_label
_atom_site_fract_x
_atom_site_fract_y
_atom_site_fract_z
Si Si1 0.914230 0.057454 0.481945
Si Si2 0.676001 0.873345 0.991767
Si Si3 0.390898 0.650756 0.099849
Si Si4 0.105634 0.112450 0.737170
Si Si5 0.579639 0.474401 0.352236
Si Si6 0.813566 0.263129 0.711602
Si Si7 0.939635 0.432914 0.150312
Si Si8 0.364459 0.979381 0.763267
O O1 0.798324 0.033698 0.625336
O O2 0.024008 0.417688 0.384446
O O3 0.861097 0.855849 0.403760
O O4 0.000000 0.000000 0.500000
O O5 0.693740 0.607744 0.947919
O O6 0.758008 0.094704 0.849688
O O7 0.501791 0.641013 0.088480
O O8 0.705765 0.080150 0.081279
O O9 0.281149 0.632489 0.243932
O O10 0.500000 0.000000 0.000000
O O11 0.253884 0.320242 0.713658
O O12 0.019488 0.243421 0.817476
O O13 0.027092 0.760946 0.814955
O O14 0.500000 0.500000 0.500000
O O15 0.547226 0.148359 0.320748
O O16 0.561915 0.654382 0.285148
O O17 0.766836 0.203620 0.240563
O O18 0.000000 0.500000 0.000000
#
# Coordination Sequence:
#
# PCOD9008072 Si02
#       8
#     2   2   2   2   2   2   2   2
#     4  11  25  42  61  93 128 176 229 266 330 398
#     4  10  21  39  63  96 130 166 214 277 328 394
#     4   9  20  39  60  89 132 160 211 263 329 390
#     4  10  24  42  65  92 132 164 216 272 319 388
#     4  10  22  45  64  97 130 169 217 267 325 395
#     4  10  23  40  62  88 129 169 220 271 322 398
#     4  10  22  41  64  95 125 166 210 267 329 387
#     4  10  23  38  67  97 127 164 220 260 326 396
#
# _framework density 24.056829
#
# number of rings (size 3 to 8) (size 9 to 14) (size 15 to 20)
#    0.000    2.000    0.000    1.500    8.750    2.000 
#    6.750    0.000    0.000    0.000    0.000    0.000 
#    0.000    0.000    0.000    0.000    0.000    0.000 
#
# Total GULP energy -89200.264646 kJ/mol
# GULP energy per Si atom -5575.016540 kJ/mol
# Density = 2.400207 g / cm^3
# Si number density = 24.056829 Si / 1000 Ang^3
#
#
#
# Elastic Constant Matrix: (Units=GPa)
#
#
# Indices 1 2 3 4 5 6 
#
# 1 47.5520 44.4531 27.3203 15.1618 2.9598 -23.0726
# 2 44.4531 117.3079 35.7570 26.9142 2.5344 -35.6596
# 3 27.3203 35.7570 131.4214 29.1076 8.6523 -28.8543
# 4 15.1618 26.9142 29.1076 48.7801 -4.3702 -10.1783
# 5 2.9598 2.5344 8.6523 -4.3702 37.8422 1.4664
# 6 -23.0726 -35.6596 -28.8543 -10.1783 1.4664 43.0416
#
#
#
# Elastic Compliance Matrix: (Units=1/GPa)
#
#
# Indices 1 2 3 4 5 6 
#
# 1 0.037245 -0.009701 -0.002067 -0.003156 -0.002538 0.009883
# 2 -0.009701 0.015087 0.000369 -0.004254 -0.001082 0.006578
# 3 -0.002067 0.000369 0.010343 -0.004944 -0.002995 0.005064
# 4 -0.003156 -0.004254 -0.004944 0.026716 0.004840 -0.002378
# 5 -0.002538 -0.001082 -0.002995 0.004840 0.028098 -0.004078
# 6 0.009883 0.006578 0.005064 -0.002378 -0.004078 0.036952
#
#
# Mechanical properties :
#
#
# Convention : Reuss Voigt Hill
#
# Bulk Modulus (GPa) = 25.07681 56.81578 40.94629
# Shear Modulus (GPa) = 26.24251 38.51618 32.37934
#
# Velocity S-wave (km/s) = 3.30639 4.00565 3.67270
# Velocity P-wave (km/s) = 5.00229 6.71284 5.91968
#
# Compressibility (1/GPa) = 0.03987748
#
# Stress axis : x y z
#
# Youngs Moduli (GPa) = 26.84910 66.28286 96.68842
#
# Poissons Ratio (x) = 0.64298 0.19989
# Poissons Ratio (y) = 0.26045 -0.03572
# Poissons Ratio (z) = 0.05551 -0.02448
#
# Static dielectric constant tensor:
#      x y z
#    x 2.001380 -0.013560 -0.008130 
#    y -0.013560 2.090070 0.043110 
#    z -0.008130 0.043110 1.952770 
# 
# From -- ./inp_files/409459.got.cif
#   From: 2010.05.17/outbox.cif.g08.bks.cpg/sg2_205_cif.got.tgz:409459.got - 2010.06.03 11:33:40.
