data_PCOD9008886
_publ_section_title
;
Structure prediction by ZEFSAII (Michael W. Deem and Ramdas Pophale) SiO2 
 PCOD9008886
Probable space group: P -1
;
_chemical_formula_sum "Si O2"
_cell_formula_units_Z 12
_cell_length_a 11.073660
_cell_length_b 9.033616
_cell_length_c 7.733411
_cell_angle_alpha 59.587364
_cell_angle_beta 127.244969
_cell_angle_gamma 91.440729
_cell_volume 484.491561
_symmetry_space_group_name_H-M "P -1"
_symmetry_group_IT_number 2
_symmetry_cell_setting 'triclinic'
loop_
_space_group_symop_operation_xyz
x,y,z
-x,-y,-z
loop_
_atom_site_type_symbol
_atom_site_label
_atom_site_fract_x
_atom_site_fract_y
_atom_site_fract_z
Si Si1 0.381481 0.625324 0.667263
Si Si2 0.931228 0.049030 0.109239
Si Si3 0.342022 0.656691 0.106332
Si Si4 0.173054 0.369454 0.136254
Si Si5 0.001137 0.315594 0.685877
Si Si6 0.281257 0.979325 0.577474
O O1 0.469326 0.493824 0.657813
O O2 0.192329 0.648070 0.497370
O O3 0.365062 0.837737 0.569748
O O4 0.500000 0.500000 0.000000
O O5 0.765648 0.228691 0.892177
O O6 0.907146 0.863278 0.249341
O O7 0.081638 0.050648 0.349964
O O8 0.000000 0.000000 0.000000
O O9 0.253786 0.513802 0.066223
O O10 0.329058 0.830548 0.865333
O O11 0.295422 0.180605 0.458600
O O12 0.000000 0.500000 0.000000
O O13 0.109231 0.286801 0.968778
O O14 0.000000 0.500000 0.500000
#
# Coordination Sequence:
#
# PCOD9008886 Si02
#       6
#     2   2   2   2   2   2
#     4   9  21  42  65  95 134 173 214 268 338 387
#     4  11  20  39  62  94 129 165 216 271 322 386
#     4  11  23  42  69  92 131 176 213 272 337 382
#     4  12  23  39  67 100 124 167 232 270 313 397
#     4  11  23  40  69  94 129 171 222 270 323 392
#     4  10  21  39  66  90 131 168 219 264 328 386
#
# _framework density 24.768232000000001
#
# number of rings (size 3 to 8) (size 9 to 14) (size 15 to 20)
#    0.000    1.333    3.333    3.500    2.333    0.667 
#    0.000    8.333    3.667    0.000    0.000    0.000 
#    0.000    0.000    0.000    0.000    0.000    0.000 
#
# Total GULP energy -66862.256901 kJ/mol
# GULP energy per Si atom -5571.854742 kJ/mol
# Density = 2.471186 g / cm^3
# Si number density = 24.768232 Si / 1000 Ang^3
#
#
#
# Elastic Constant Matrix: (Units=GPa)
#
#
# Indices 1 2 3 4 5 6 
#
# 1 63.1738 42.3790 38.7047 -26.7976 4.6679 -18.6687
# 2 42.3790 126.2211 36.5660 -51.2863 3.1772 -7.2735
# 3 38.7047 36.5660 150.4261 -53.0804 17.6929 -8.5590
# 4 -26.7976 -51.2863 -53.0804 50.2976 -4.3524 9.7693
# 5 4.6679 3.1772 17.6929 -4.3524 36.6147 -14.2117
# 6 -18.6687 -7.2735 -8.5590 9.7693 -14.2117 43.8430
#
#
#
# Elastic Compliance Matrix: (Units=1/GPa)
#
#
# Indices 1 2 3 4 5 6 
#
# 1 0.026211 -0.006797 -0.004843 0.000253 0.003574 0.010190
# 2 -0.006797 0.015990 0.004069 0.017584 -0.001948 -0.003997
# 3 -0.004843 0.004069 0.012750 0.015340 -0.005688 -0.004160
# 4 0.000253 0.017584 0.015340 0.055224 -0.005543 -0.008083
# 5 0.003574 -0.001948 -0.005688 -0.005543 0.033892 0.012309
# 6 0.010190 -0.003997 -0.004160 -0.008083 0.012309 0.031464
#
#
# Mechanical properties :
#
#
# Convention : Reuss Voigt Hill
#
# Bulk Modulus (GPa) = 25.12143 63.90225 44.51184
# Shear Modulus (GPa) = 24.51661 40.96248 32.73954
#
# Velocity S-wave (km/s) = 3.14959 4.07114 3.63965
# Velocity P-wave (km/s) = 4.83644 6.92496 5.97270
#
# Compressibility (1/GPa) = 0.03980665
#
# Stress axis : x y z
#
# Youngs Moduli (GPa) = 38.15217 62.54054 78.43114
#
# Poissons Ratio (x) = 0.42512 0.37985
# Poissons Ratio (y) = 0.25934 -0.31911
# Poissons Ratio (z) = 0.18478 -0.25446
#
# Static dielectric constant tensor:
#      x y z
#    x 2.297880 -0.141260 -0.159360 
#    y -0.141260 2.138110 -0.043050 
#    z -0.159360 -0.043050 2.098550 
# 
# From -- ./inp_files/237323.got.cif
#   From: 2010.05.17/outbox.cif.g08.bks.cpg/sg2_119_cif.got.tgz:237323.got - 2010.06.03 11:33:40.
