data_PCOD9008950
_publ_section_title
;
Structure prediction by ZEFSAII (Michael W. Deem and Ramdas Pophale) SiO2 
 PCOD9008950
Probable space group: P -1
;
_chemical_formula_sum "Si O2"
_cell_formula_units_Z 14
_cell_length_a 6.923983
_cell_length_b 14.686924
_cell_length_c 21.971987
_cell_angle_alpha 21.577490
_cell_angle_beta 104.142590
_cell_angle_gamma 116.620700
_cell_volume 625.583235
_symmetry_space_group_name_H-M "P -1"
_symmetry_group_IT_number 2
_symmetry_cell_setting 'triclinic'
loop_
_space_group_symop_operation_xyz
x,y,z
-x,-y,-z
loop_
_atom_site_type_symbol
_atom_site_label
_atom_site_fract_x
_atom_site_fract_y
_atom_site_fract_z
Si Si1 0.607784 0.922944 0.774376
Si Si2 0.894025 0.764179 0.825810
Si Si3 0.296243 0.144752 0.040423
Si Si4 0.099913 0.739384 0.084300
Si Si5 0.311070 0.678669 0.253667
Si Si6 0.116244 0.299963 0.278351
Si Si7 0.404435 0.263357 0.583659
O O1 0.777224 0.944158 0.720718
O O2 0.704866 0.876463 0.873687
O O3 0.596072 0.207973 0.606775
O O4 0.325124 0.596573 0.947586
O O5 0.944027 0.773686 0.751899
O O6 0.142826 0.918456 0.790544
O O7 0.257891 0.837266 0.203727
O O8 0.574763 0.451537 0.849737
O O9 0.085350 0.170879 0.984410
O O10 0.118978 0.596451 0.236331
O O11 0.028336 0.496493 0.176045
O O12 0.391127 0.049703 0.907035
O O13 0.310914 0.393645 0.447740
O O14 0.000000 0.000000 0.500000
O O15 0.500000 0.500000 0.500000
#
# Coordination Sequence:
#
# PCOD9008950 Si02
#       7
#     2   2   2   2   2   2   2
#     4  10  23  43  65  99 133 175 221 266 331 400
#     4  10  24  42  66  95 135 177 219 270 331 394
#     4  10  21  39  66  94 129 172 218 269 334 394
#     4  10  22  40  67  89 131 174 220 269 326 397
#     4  10  22  41  60  98 131 172 213 269 335 388
#     4  10  22  42  64  94 127 170 228 276 323 387
#     4  12  24  40  68  98 137 172 215 277 330 390
#
# _framework density 22.379116
#
# number of rings (size 3 to 8) (size 9 to 14) (size 15 to 20)
#    0.000    1.714    1.429    1.714    2.000    5.714 
#    0.000    5.714    0.000    0.000    0.000    0.000 
#    0.000    0.000    0.000    0.000    0.000    0.000 
#
# Total GULP energy -78247.210427 kJ/mol
# GULP energy per Si atom -5589.086459 kJ/mol
# Density = 2.232818 g / cm^3
# Si number density = 22.379116 Si / 1000 Ang^3
#
#
#
# Elastic Constant Matrix: (Units=GPa)
#
#
# Indices 1 2 3 4 5 6 
#
# 1 101.7480 25.1950 27.8607 -9.2378 35.5968 -1.0471
# 2 25.1950 90.1661 23.5170 -14.3006 2.9412 -8.6109
# 3 27.8607 23.5170 55.7282 5.3708 20.6089 -6.1917
# 4 -9.2378 -14.3006 5.3708 33.6636 0.8825 6.6130
# 5 35.5968 2.9412 20.6089 0.8825 36.9947 2.5784
# 6 -1.0471 -8.6109 -6.1917 6.6130 2.5784 36.8364
#
#
#
# Elastic Compliance Matrix: (Units=1/GPa)
#
#
# Indices 1 2 3 4 5 6 
#
# 1 0.016650 -0.003031 -0.002015 0.004042 -0.014735 -0.000268
# 2 -0.003031 0.014725 -0.007326 0.006328 0.005634 0.000594
# 3 -0.002015 -0.007326 0.028539 -0.008960 -0.013553 0.005584
# 4 0.004042 0.006328 -0.008960 0.036189 0.000184 -0.006422
# 5 -0.014735 0.005634 -0.013553 0.000184 0.048642 -0.004817
# 6 -0.000268 0.000594 0.005584 -0.006422 -0.004817 0.029707
#
#
# Mechanical properties :
#
#
# Convention : Reuss Voigt Hill
#
# Bulk Modulus (GPa) = 28.43360 44.53197 36.48278
# Shear Modulus (GPa) = 23.70573 32.90358 28.30466
#
# Velocity S-wave (km/s) = 3.25819 3.83858 3.56023
# Velocity P-wave (km/s) = 5.18530 6.29193 5.76523
#
# Compressibility (1/GPa) = 0.03516966
#
# Stress axis : x y z
#
# Youngs Moduli (GPa) = 60.06131 67.91219 35.03952
#
# Poissons Ratio (x) = 0.20582 0.07061
# Poissons Ratio (y) = 0.18203 0.25671
# Poissons Ratio (z) = 0.12103 0.49754
#
# Static dielectric constant tensor:
#      x y z
#    x 1.829160 0.006800 -0.030800 
#    y 0.006800 1.858600 -0.015430 
#    z -0.030800 -0.015430 1.922770 
# 
# From -- ./inp_files/68653.got.cif
#   From: 2010.05.17/outbox.cif.g08.bks.cpg/sg2_35_cif.got.tgz:68653.got - 2010.06.03 11:33:40.
