data_PCOD9008784
_publ_section_title
;
Structure prediction by ZEFSAII (Michael W. Deem and Ramdas Pophale) SiO2 
 PCOD9008784
Probable space group: P -1
;
_chemical_formula_sum "Si O2"
_cell_formula_units_Z 16
_cell_length_a 7.679244
_cell_length_b 13.670185
_cell_length_c 15.466367
_cell_angle_alpha 40.623641
_cell_angle_beta 77.196047
_cell_angle_gamma 107.808227
_cell_volume 685.735450
_symmetry_space_group_name_H-M "P -1"
_symmetry_group_IT_number 2
_symmetry_cell_setting 'triclinic'
loop_
_space_group_symop_operation_xyz
x,y,z
-x,-y,-z
loop_
_atom_site_type_symbol
_atom_site_label
_atom_site_fract_x
_atom_site_fract_y
_atom_site_fract_z
Si Si1 0.023592 0.064419 0.142590
Si Si2 0.304104 0.016328 0.486389
Si Si3 0.761673 0.470090 0.215420
Si Si4 0.115419 0.893007 0.113162
Si Si5 0.607947 0.398000 0.477721
Si Si6 0.556546 0.091001 0.794100
Si Si7 0.911571 0.558543 0.893476
Si Si8 0.650903 0.900920 0.770610
O O1 0.150374 0.057687 0.214593
O O2 0.148522 0.076033 0.031584
O O3 0.097332 0.286057 0.990673
O O4 0.712503 0.822240 0.339092
O O5 0.043117 0.805533 0.711327
O O6 0.500000 0.000000 0.500000
O O7 0.484328 0.269185 0.327559
O O8 0.243226 0.984402 0.412511
O O9 0.686803 0.416441 0.358848
O O10 0.960812 0.455500 0.189534
O O11 0.258577 0.873409 0.179654
O O12 0.797614 0.658694 0.302201
O O13 0.278922 0.961701 0.960756
O O14 0.693355 0.326041 0.585296
O O15 0.535838 0.968871 0.794597
O O16 0.597651 0.362017 0.048862
O O17 0.000000 0.500000 0.000000
#
# Coordination Sequence:
#
# PCOD9008784 Si02
#       8
#     2   2   2   2   2   2   2   2
#     4  11  27  42  62  92 139 176 211 259 329 390
#     4  10  21  39  65  98 125 161 216 264 320 379
#     4  11  25  41  65  98 128 172 217 261 322 392
#     4  10  23  44  65  99 125 168 218 274 324 378
#     4  12  23  40  66  93 131 173 217 263 321 386
#     4  10  22  41  72  95 127 162 221 277 321 371
#     4  11  21  39  71  92 123 164 214 272 316 366
#     4  11  22  42  65  97 130 171 214 268 322 382
#
# _framework density 23.332612000000001
#
# number of rings (size 3 to 8) (size 9 to 14) (size 15 to 20)
#    0.000    1.250    2.500    4.500    1.750    4.500 
#    0.000    6.250    0.000    0.000    0.000    0.000 
#    0.000    0.000    0.000    0.000    0.000    0.000 
#
# Total GULP energy -89362.921693 kJ/mol
# GULP energy per Si atom -5585.182606 kJ/mol
# Density = 2.327951 g / cm^3
# Si number density = 23.332612 Si / 1000 Ang^3
#
#
#
# Elastic Constant Matrix: (Units=GPa)
#
#
# Indices 1 2 3 4 5 6 
#
# 1 63.2228 13.0600 34.2850 -9.4666 6.5843 11.1045
# 2 13.0600 95.9776 54.1933 1.9428 7.5112 5.4597
# 3 34.2850 54.1933 143.6445 -4.0438 1.5265 9.9812
# 4 -9.4666 1.9428 -4.0438 43.1336 8.5888 -1.9769
# 5 6.5843 7.5112 1.5265 8.5888 26.7063 -1.4614
# 6 11.1045 5.4597 9.9812 -1.9769 -1.4614 31.9567
#
#
#
# Elastic Compliance Matrix: (Units=1/GPa)
#
#
# Indices 1 2 3 4 5 6 
#
# 1 0.020693 0.000499 -0.004498 0.005219 -0.006984 -0.005867
# 2 0.000499 0.013609 -0.005149 -0.000316 -0.003613 -0.001075
# 3 -0.004498 -0.005149 0.009991 -0.000251 0.002034 -0.000600
# 4 0.005219 -0.000316 -0.000251 0.026217 -0.009642 -0.000500
# 5 -0.006984 -0.003613 0.002034 -0.009642 0.043375 0.003796
# 6 -0.005867 -0.001075 -0.000600 -0.000500 0.003796 0.033845
#
#
# Mechanical properties :
#
#
# Convention : Reuss Voigt Hill
#
# Bulk Modulus (GPa) = 38.46806 56.21350 47.34078
# Shear Modulus (GPa) = 28.62177 33.77976 31.20077
#
# Velocity S-wave (km/s) = 3.50621 3.80906 3.66077
# Velocity P-wave (km/s) = 5.73707 6.59468 6.18076
#
# Compressibility (1/GPa) = 0.02599559
#
# Stress axis : x y z
#
# Youngs Moduli (GPa) = 48.32589 73.48068 100.09025
#
# Poissons Ratio (x) = -0.03666 0.45024
# Poissons Ratio (y) = -0.02411 0.51539
# Poissons Ratio (z) = 0.21739 0.37837
#
# Static dielectric constant tensor:
#      x y z
#    x 1.899740 -0.031050 -0.028670 
#    y -0.031050 1.916250 -0.015360 
#    z -0.028670 -0.015360 1.924300 
# 
# From -- ./inp_files/503856.got.cif
#   From: 2010.05.17/outbox.cif.g08.bks.cpg/sg2_252_cif.got.tgz:503856.got - 2010.06.03 11:33:40.
