data_PCOD9008679
_publ_section_title
;
Structure prediction by ZEFSAII (Michael W. Deem and Ramdas Pophale) SiO2 
 PCOD9008679
Probable space group: P -1
;
_chemical_formula_sum "Si O2"
_cell_formula_units_Z 16
_cell_length_a 10.724850
_cell_length_b 10.467582
_cell_length_c 11.678699
_cell_angle_alpha 74.005274
_cell_angle_beta 116.375317
_cell_angle_gamma 143.037730
_cell_volume 698.561261
_symmetry_space_group_name_H-M "P -1"
_symmetry_group_IT_number 2
_symmetry_cell_setting 'triclinic'
loop_
_space_group_symop_operation_xyz
x,y,z
-x,-y,-z
loop_
_atom_site_type_symbol
_atom_site_label
_atom_site_fract_x
_atom_site_fract_y
_atom_site_fract_z
Si Si1 0.500072 0.478811 0.206988
Si Si2 0.647437 0.981729 0.596721
Si Si3 0.966572 0.422120 0.680202
Si Si4 0.509931 0.223899 0.165795
Si Si5 0.308889 0.524842 0.505899
Si Si6 0.793227 0.358611 0.864574
Si Si7 0.375317 0.122588 0.885017
Si Si8 0.860303 0.709302 0.728309
O O1 0.503648 0.379538 0.128990
O O2 0.670800 0.543612 0.353176
O O3 0.553109 0.669441 0.149887
O O4 0.262489 0.296483 0.223788
O O5 0.595264 0.897657 0.725986
O O6 0.546585 0.785875 0.527299
O O7 0.500000 0.000000 0.500000
O O8 0.893299 0.232472 0.631288
O O9 0.870564 0.486528 0.568323
O O10 0.843033 0.317455 0.779095
O O11 0.231046 0.628748 0.760451
O O12 0.388828 0.092555 0.031635
O O13 0.249580 0.374279 0.421003
O O14 0.553664 0.168075 0.875685
O O15 0.806614 0.519543 0.789470
O O16 0.000000 0.500000 0.000000
O O17 0.125631 0.924987 0.783704
#
# Coordination Sequence:
#
# PCOD9008679 Si02
#       8
#     2   2   2   2   2   2   2   2
#     4  10  23  41  60  87 127 167 214 262 300 366
#     4   9  21  38  61  89 121 163 207 250 310 368
#     4  10  21  39  65  94 125 163 203 265 319 366
#     4  11  23  39  63  95 129 162 208 260 312 380
#     4   9  20  42  62  88 123 161 212 263 306 359
#     4  10  21  40  61  91 130 159 200 259 307 373
#     4  11  24  40  64  95 124 170 210 247 322 376
#     4  10  23  40  62  90 125 166 211 261 307 368
#
# _framework density 22.904218
#
# number of rings (size 3 to 8) (size 9 to 14) (size 15 to 20)
#    0.000    2.000    1.250    0.750    1.750   10.000 
#    0.000    8.750    0.000    0.000    0.000    0.000 
#    0.000    0.000    0.000    0.000    0.000    0.000 
#
# Total GULP energy -89308.983874 kJ/mol
# GULP energy per Si atom -5581.811492 kJ/mol
# Density = 2.285209 g / cm^3
# Si number density = 22.904218 Si / 1000 Ang^3
#
#
#
# Elastic Constant Matrix: (Units=GPa)
#
#
# Indices 1 2 3 4 5 6 
#
# 1 84.5828 28.7024 22.3502 11.5008 2.3017 9.6509
# 2 28.7024 55.7062 41.0357 12.1572 -4.8978 6.6415
# 3 22.3502 41.0357 93.9926 5.5895 -5.6752 8.5916
# 4 11.5008 12.1572 5.5895 33.4733 1.0339 6.9467
# 5 2.3017 -4.8978 -5.6752 1.0339 23.1346 -1.9226
# 6 9.6509 6.6415 8.5916 6.9467 -1.9226 36.1164
#
#
#
# Elastic Compliance Matrix: (Units=1/GPa)
#
#
# Indices 1 2 3 4 5 6 
#
# 1 0.014913 -0.006999 -0.000346 -0.001925 -0.003165 -0.002414
# 2 -0.006999 0.032209 -0.011684 -0.007592 0.005026 0.000455
# 3 -0.000346 -0.011684 0.015947 0.002053 0.001225 -0.001882
# 4 -0.001925 -0.007592 0.002053 0.034139 -0.002878 -0.005297
# 5 -0.003165 0.005026 0.001225 -0.002878 0.045249 0.002592
# 6 -0.002414 0.000455 -0.001882 -0.005297 0.002592 0.029854
#
#
# Mechanical properties :
#
#
# Convention : Reuss Voigt Hill
#
# Bulk Modulus (GPa) = 39.98537 46.49535 43.24036
# Shear Modulus (GPa) = 22.86173 28.02441 25.44307
#
# Velocity S-wave (km/s) = 3.16277 3.50172 3.33655
# Velocity P-wave (km/s) = 5.55275 6.05750 5.81061
#
# Compressibility (1/GPa) = 0.02500915
#
# Stress axis : x y z
#
# Youngs Moduli (GPa) = 67.05758 31.04697 62.70914
#
# Poissons Ratio (x) = 0.21729 0.02172
# Poissons Ratio (y) = 0.46932 0.73272
# Poissons Ratio (z) = 0.02323 0.36277
#
# Static dielectric constant tensor:
#      x y z
#    x 1.905700 -0.009600 -0.011870 
#    y -0.009600 1.869720 -0.007360 
#    z -0.011870 -0.007360 1.779370 
# 
# From -- ./inp_files/84236.got.cif
#   From: 2010.05.17/outbox.cif.g08.bks.cpg/sg2_43_cif.got.tgz:84236.got - 2010.06.03 11:33:40.
