data_PCOD9008269
_publ_section_title
;
Structure prediction by ZEFSAII (Michael W. Deem and Ramdas Pophale) SiO2 
 PCOD9008269
Probable space group: P -1
;
_chemical_formula_sum "Si O2"
_cell_formula_units_Z 14
_cell_length_a 14.119668
_cell_length_b 8.256030
_cell_length_c 8.924307
_cell_angle_alpha 83.258052
_cell_angle_beta 107.291762
_cell_angle_gamma 138.096278
_cell_volume 654.559748
_symmetry_space_group_name_H-M "P -1"
_symmetry_group_IT_number 2
_symmetry_cell_setting 'triclinic'
loop_
_space_group_symop_operation_xyz
x,y,z
-x,-y,-z
loop_
_atom_site_type_symbol
_atom_site_label
_atom_site_fract_x
_atom_site_fract_y
_atom_site_fract_z
Si Si1 0.670338 0.718808 0.606423
Si Si2 0.869934 0.569595 0.164914
Si Si3 0.024026 0.662095 0.808923
Si Si4 0.421788 0.658900 0.985113
Si Si5 0.698562 0.854644 0.942626
Si Si6 0.756991 0.498198 0.824421
Si Si7 0.936017 0.097519 0.500863
O O1 0.500000 0.500000 0.500000
O O2 0.690885 0.843184 0.758874
O O3 0.735221 0.619827 0.689304
O O4 0.763331 0.890924 0.488220
O O5 0.914845 0.444991 0.149916
O O6 0.699867 0.388319 0.161598
O O7 0.981498 0.757215 0.323427
O O8 0.863789 0.669152 0.999614
O O9 0.034516 0.745575 0.638007
O O10 0.850485 0.469049 0.795935
O O11 0.139089 0.906450 0.939825
O O12 0.581771 0.837889 0.965249
O O13 0.360690 0.397647 0.006772
O O14 0.399164 0.712854 0.134222
O O15 0.000000 0.000000 0.500000
#
# Coordination Sequence:
#
# PCOD9008269 Si02
#       7
#     2   2   2   2   2   2   2
#     4  11  25  40  64  96 124 159 214 268 310 362
#     4  10  23  41  64  94 130 163 209 254 311 379
#     4  12  23  38  67  94 131 165 205 254 317 376
#     4   8  20  36  64  85 125 157 213 257 296 358
#     4  10  21  39  64  92 121 167 211 256 308 362
#     4   9  21  40  64  89 122 163 210 255 307 368
#     4  12  25  39  65  94 128 165 208 261 313 360
#
# _framework density 21.388421999999998
#
# number of rings (size 3 to 8) (size 9 to 14) (size 15 to 20)
#    0.857    0.857    1.429    2.571    8.000    2.286 
#    0.000    0.000    0.000    2.571    0.000    0.000 
#    0.000    0.000    0.000    0.000    0.000    0.000 
#
# Total GULP energy -78005.265897 kJ/mol
# GULP energy per Si atom -5571.804707 kJ/mol
# Density = 2.133974 g / cm^3
# Si number density = 21.388422 Si / 1000 Ang^3
#
#
#
# Elastic Constant Matrix: (Units=GPa)
#
#
# Indices 1 2 3 4 5 6 
#
# 1 169.3303 24.0684 12.2843 -14.8124 0.6819 21.9987
# 2 24.0684 16.6612 9.3860 -2.9967 -2.6060 -2.2700
# 3 12.2843 9.3860 74.7225 0.8453 4.1190 -6.7871
# 4 -14.8124 -2.9967 0.8453 20.4139 -1.8122 -2.2387
# 5 0.6819 -2.6060 4.1190 -1.8122 31.5844 -7.2740
# 6 21.9987 -2.2700 -6.7871 -2.2387 -7.2740 31.1439
#
#
#
# Elastic Compliance Matrix: (Units=1/GPa)
#
#
# Indices 1 2 3 4 5 6 
#
# 1 0.009335 -0.014226 -0.000363 0.003539 -0.003003 -0.008157
# 2 -0.014226 0.091041 -0.008235 0.006617 0.013539 0.018527
# 3 -0.000363 -0.008235 0.014824 -0.002039 -0.002210 0.002224
# 4 0.003539 0.006617 -0.002039 0.053256 0.004339 0.002380
# 5 -0.003003 0.013539 -0.002210 0.004339 0.035993 0.011345
# 6 -0.008157 0.018527 0.002224 0.002380 0.011345 0.042527
#
#
# Mechanical properties :
#
#
# Convention : Reuss Voigt Hill
#
# Bulk Modulus (GPa) = 14.37776 39.13237 26.75506
# Shear Modulus (GPa) = 15.83231 30.96013 23.39622
#
# Velocity S-wave (km/s) = 2.72366 3.80875 3.31096
# Velocity P-wave (km/s) = 4.07774 6.13823 5.21085
#
# Compressibility (1/GPa) = 0.06955185
#
# Stress axis : x y z
#
# Youngs Moduli (GPa) = 107.11848 10.98403 67.45852
#
# Poissons Ratio (x) = 0.15626 0.02450
# Poissons Ratio (y) = 1.52384 0.55555
# Poissons Ratio (z) = 0.03891 0.09046
#
# Static dielectric constant tensor:
#      x y z
#    x 1.875680 0.051050 -0.029100 
#    y 0.051050 1.857450 0.013260 
#    z -0.029100 0.013260 1.776420 
# 
# From -- ./inp_files/292606.got.cif
#   From: 2010.05.17/outbox.cif.g08.bks.cpg/sg2_147_cif.got.tgz:292606.got - 2010.06.03 11:33:40.
