data_PCOD9008536
_publ_section_title
;
Structure prediction by ZEFSAII (Michael W. Deem and Ramdas Pophale) SiO2 
 PCOD9008536
Probable space group: P -1
;
_chemical_formula_sum "Si O2"
_cell_formula_units_Z 16
_cell_length_a 17.378141
_cell_length_b 9.269460
_cell_length_c 12.254377
_cell_angle_alpha 24.826394
_cell_angle_beta 50.519374
_cell_angle_gamma 53.422225
_cell_volume 638.638008
_symmetry_space_group_name_H-M "P -1"
_symmetry_group_IT_number 2
_symmetry_cell_setting 'triclinic'
loop_
_space_group_symop_operation_xyz
x,y,z
-x,-y,-z
loop_
_atom_site_type_symbol
_atom_site_label
_atom_site_fract_x
_atom_site_fract_y
_atom_site_fract_z
Si Si1 0.235777 0.190485 0.689340
Si Si2 0.092616 0.043546 0.481023
Si Si3 0.061854 0.410249 0.846028
Si Si4 0.575674 0.535410 0.770054
Si Si5 0.445797 0.175773 0.820277
Si Si6 0.361407 0.501129 0.024428
Si Si7 0.263432 0.331196 0.022544
Si Si8 0.129682 0.029605 0.685389
O O1 0.167037 0.277813 0.794138
O O2 0.336505 0.389864 0.444205
O O3 0.277975 0.798122 0.921672
O O4 0.162013 0.237606 0.618319
O O5 0.081975 0.634580 0.782560
O O6 0.132399 0.206352 0.444415
O O7 0.172034 0.090064 0.281541
O O8 0.992573 0.273678 0.389774
O O9 0.981081 0.119764 0.109638
O O10 0.460256 0.667043 0.772089
O O11 0.609773 0.652516 0.778575
O O12 0.564369 0.122974 0.055095
O O13 0.500000 0.500000 0.500000
O O14 0.335541 0.293315 0.881779
O O15 0.500000 0.000000 0.000000
O O16 0.327614 0.260856 0.123420
O O17 0.211541 0.711233 0.819981
#
# Coordination Sequence:
#
# PCOD9008536 Si02
#       8
#     2   2   2   2   2   2   2   2
#     4  11  23  39  64  93 133 170 228 282 337 409
#     4  10  21  39  65  88 130 170 225 273 341 412
#     4  10  22  39  59  93 127 169 219 284 339 412
#     4  11  24  42  66  94 131 182 227 279 347 404
#     4  12  28  45  70 102 140 182 233 287 343 406
#     4  10  23  41  63  94 132 174 229 282 342 403
#     4  10  22  42  64  96 131 175 227 275 344 403
#     4  10  22  38  64  93 126 175 217 279 342 406
#
# _framework density 25.053317
#
# number of rings (size 3 to 8) (size 9 to 14) (size 15 to 20)
#    0.000    1.500    1.250    2.625    3.500    6.500 
#    0.000    0.000    0.000    0.000    0.000    0.000 
#    0.000    0.000    0.000    0.000    0.000    0.000 
#
# Total GULP energy -89411.647287 kJ/mol
# GULP energy per Si atom -5588.227955 kJ/mol
# Density = 2.499629 g / cm^3
# Si number density = 25.053317 Si / 1000 Ang^3
#
#
#
# Elastic Constant Matrix: (Units=GPa)
#
#
# Indices 1 2 3 4 5 6 
#
# 1 88.5971 11.8341 13.7747 11.0879 -5.9969 -4.9411
# 2 11.8341 124.5595 29.3925 18.6001 -15.7000 -30.1377
# 3 13.7747 29.3925 94.2796 19.2378 -27.2600 -16.8084
# 4 11.0879 18.6001 19.2378 28.8104 -4.6471 -13.6623
# 5 -5.9969 -15.7000 -27.2600 -4.6471 34.4923 10.0228
# 6 -4.9411 -30.1377 -16.8084 -13.6623 10.0228 39.7937
#
#
#
# Elastic Compliance Matrix: (Units=1/GPa)
#
#
# Indices 1 2 3 4 5 6 
#
# 1 0.011985 -0.000434 -0.000600 -0.004129 0.001084 -0.000784
# 2 -0.000434 0.010393 -0.001059 -0.002711 0.001707 0.006010
# 3 -0.000600 -0.001059 0.015767 -0.007672 0.010710 0.000452
# 4 -0.004129 -0.002711 -0.007672 0.048028 -0.005016 0.011946
# 5 0.001084 0.001707 0.010710 -0.005016 0.039401 -0.005695
# 6 -0.000784 0.006010 0.000452 0.011946 -0.005695 0.035310
#
#
# Mechanical properties :
#
#
# Convention : Reuss Voigt Hill
#
# Bulk Modulus (GPa) = 29.44547 46.38208 37.91377
# Shear Modulus (GPa) = 28.34651 37.44828 32.89740
#
# Velocity S-wave (km/s) = 3.36735 3.87039 3.62760
# Velocity P-wave (km/s) = 5.18627 6.20699 5.71944
#
# Compressibility (1/GPa) = 0.03396109
#
# Stress axis : x y z
#
# Youngs Moduli (GPa) = 83.44052 96.21530 63.42280
#
# Poissons Ratio (x) = 0.04173 0.03803
# Poissons Ratio (y) = 0.03619 0.06714
# Poissons Ratio (z) = 0.05004 0.10186
#
# Static dielectric constant tensor:
#      x y z
#    x 2.134550 0.036760 -0.033910 
#    y 0.036760 1.938800 0.007160 
#    z -0.033910 0.007160 2.046470 
# 
# From -- ./inp_files/99825.got.cif
#   From: 2010.05.17/outbox.cif.g08.bks.cpg/sg2_50_cif.got.tgz:99825.got - 2010.06.03 11:33:40.
