data_PCOD9008247
_publ_section_title
;
Structure prediction by ZEFSAII (Michael W. Deem and Ramdas Pophale) SiO2 
 PCOD9008247
Probable space group: P -1
;
_chemical_formula_sum "Si O2"
_cell_formula_units_Z 14
_cell_length_a 11.594780
_cell_length_b 8.900668
_cell_length_c 9.682106
_cell_angle_alpha 59.341855
_cell_angle_beta 125.583704
_cell_angle_gamma 95.015452
_cell_volume 667.022352
_symmetry_space_group_name_H-M "P -1"
_symmetry_group_IT_number 2
_symmetry_cell_setting 'triclinic'
loop_
_space_group_symop_operation_xyz
x,y,z
-x,-y,-z
loop_
_atom_site_type_symbol
_atom_site_label
_atom_site_fract_x
_atom_site_fract_y
_atom_site_fract_z
Si Si1 0.101660 0.602433 0.444591
Si Si2 0.588400 0.096967 0.361348
Si Si3 0.560016 0.486363 0.205032
Si Si4 0.616680 0.114307 0.057162
Si Si5 0.099571 0.981011 0.896189
Si Si6 0.997816 0.368783 0.935135
Si Si7 0.270731 0.097363 0.191117
O O1 0.266286 0.533981 0.653426
O O2 0.106749 0.560651 0.302984
O O3 0.000000 0.500000 0.500000
O O4 0.023776 0.822128 0.302744
O O5 0.551823 0.286492 0.333940
O O6 0.429384 0.064528 0.247386
O O7 0.695763 0.951591 0.603395
O O8 0.651656 0.102744 0.251027
O O9 0.465465 0.669898 0.129272
O O10 0.500000 0.500000 0.000000
O O11 0.768502 0.044578 0.110647
O O12 0.500000 0.000000 0.000000
O O13 0.037368 0.808901 0.942170
O O14 0.179518 0.986289 0.096783
O O15 0.000000 0.500000 0.000000
O O16 0.162631 0.302610 0.013573
#
# Coordination Sequence:
#
# PCOD9008247 Si02
#       7
#     2   2   2   2   2   2   2
#     4  11  24  45  72  96 135 183 227 271 338 404
#     4  10  21  39  64  91 126 172 217 264 333 392
#     4  10  23  39  64  95 133 166 222 267 330 386
#     4  11  22  39  64  97 130 165 220 275 328 392
#     4  11  23  44  68  94 137 174 221 278 339 391
#     4  11  26  42  66  97 139 173 229 271 337 396
#     4  10  21  41  65  88 129 174 214 269 331 398
#
# _framework density 20.988803000000001
#
# number of rings (size 3 to 8) (size 9 to 14) (size 15 to 20)
#    0.000    1.429    1.429    4.286    8.000    3.429 
#    0.000    5.714    0.000    0.000    0.000    0.000 
#    0.000    0.000    0.000    0.000    0.000    0.000 
#
# Total GULP energy -78154.473127 kJ/mol
# GULP energy per Si atom -5582.462366 kJ/mol
# Density = 2.094103 g / cm^3
# Si number density = 20.988803 Si / 1000 Ang^3
#
#
#
# Elastic Constant Matrix: (Units=GPa)
#
#
# Indices 1 2 3 4 5 6 
#
# 1 89.4298 30.2801 40.9160 9.3096 0.4941 -10.6557
# 2 30.2801 117.5034 19.9556 12.6681 1.1879 -3.5793
# 3 40.9160 19.9556 97.0775 15.8870 16.7338 -9.0373
# 4 9.3096 12.6681 15.8870 19.1098 1.9388 -5.2965
# 5 0.4941 1.1879 16.7338 1.9388 39.0022 -0.3461
# 6 -10.6557 -3.5793 -9.0373 -5.2965 -0.3461 33.2304
#
#
#
# Elastic Compliance Matrix: (Units=1/GPa)
#
#
# Indices 1 2 3 4 5 6 
#
# 1 0.015222 -0.002842 -0.005986 0.000018 0.002488 0.002976
# 2 -0.002842 0.009794 -0.000015 -0.005291 0.000001 -0.000704
# 3 -0.005986 -0.000015 0.015433 -0.009074 -0.006087 0.000766
# 4 0.000018 -0.005291 -0.009074 0.065331 0.000872 0.007390
# 5 0.002488 0.000001 -0.006087 0.000872 0.028173 -0.000425
# 6 0.002976 -0.000704 0.000766 0.007390 -0.000425 0.032353
#
#
# Mechanical properties :
#
#
# Convention : Reuss Voigt Hill
#
# Bulk Modulus (GPa) = 43.93343 54.03490 48.98416
# Shear Modulus (GPa) = 26.09858 32.45907 29.27882
#
# Velocity S-wave (km/s) = 3.53009 3.93682 3.73899
# Velocity P-wave (km/s) = 6.13128 6.81654 6.48297
#
# Compressibility (1/GPa) = 0.02276171
#
# Stress axis : x y z
#
# Youngs Moduli (GPa) = 65.69359 102.09911 64.79702
#
# Poissons Ratio (x) = 0.29021 0.38789
# Poissons Ratio (y) = 0.18673 0.00098
# Poissons Ratio (z) = 0.39325 0.00155
#
# Static dielectric constant tensor:
#      x y z
#    x 1.772750 0.017360 0.019500 
#    y 0.017360 1.800150 -0.026230 
#    z 0.019500 -0.026230 1.874900 
# 
# From -- ./inp_files/237631.got.cif
#   From: 2010.05.17/outbox.cif.g08.bks.cpg/sg2_119_cif.got.tgz:237631.got - 2010.06.03 11:33:40.
