data_PCOD9008586
_publ_section_title
;
Structure prediction by ZEFSAII (Michael W. Deem and Ramdas Pophale) SiO2 
 PCOD9008586
Probable space group: P -1
;
_chemical_formula_sum "Si O2"
_cell_formula_units_Z 16
_cell_length_a 10.528766
_cell_length_b 13.809674
_cell_length_c 7.725037
_cell_angle_alpha 96.873287
_cell_angle_beta 121.179075
_cell_angle_gamma 45.242519
_cell_volume 624.500607
_symmetry_space_group_name_H-M "P -1"
_symmetry_group_IT_number 2
_symmetry_cell_setting 'triclinic'
loop_
_space_group_symop_operation_xyz
x,y,z
-x,-y,-z
loop_
_atom_site_type_symbol
_atom_site_label
_atom_site_fract_x
_atom_site_fract_y
_atom_site_fract_z
Si Si1 0.418427 0.918795 0.015093
Si Si2 0.991905 0.658570 0.638713
Si Si3 0.831607 0.132658 0.043787
Si Si4 0.194686 0.034377 0.500544
Si Si5 0.722174 0.465159 0.532400
Si Si6 0.644591 0.434138 0.912385
Si Si7 0.187556 0.224151 0.967909
Si Si8 0.642914 0.721137 0.610339
O O1 0.371968 0.839513 0.053890
O O2 0.278882 0.988660 0.748311
O O3 0.317620 0.060531 0.080928
O O4 0.674401 0.812833 0.115366
O O5 0.870090 0.824020 0.568695
O O6 0.796776 0.679387 0.549945
O O7 0.146789 0.569369 0.560367
O O8 0.165461 0.581679 0.908422
O O9 0.968832 0.086300 0.307299
O O10 0.755760 0.272591 0.942519
O O11 0.000000 0.000000 0.000000
O O12 0.396143 0.891803 0.493418
O O13 0.542274 0.472018 0.349979
O O14 0.626754 0.613085 0.573760
O O15 0.928235 0.327980 0.769122
O O16 0.500000 0.500000 0.000000
O O17 0.226545 0.294825 0.137938
#
# Coordination Sequence:
#
# PCOD9008586 Si02
#       8
#     2   2   2   2   2   2   2   2
#     4  10  22  42  63  92 126 165 214 253 316 372
#     4  10  21  39  65  91 127 169 209 257 316 370
#     4  11  23  38  68  95 124 160 211 267 306 368
#     4  10  21  41  61  91 125 167 208 254 315 377
#     4  11  21  42  62  89 130 166 211 256 318 378
#     4   9  22  41  60  90 128 162 204 254 313 375
#     4  10  23  40  64  91 127 171 206 262 312 373
#     4  11  23  37  63  96 128 159 216 264 309 372
#
# _framework density 25.620471999999999
#
# number of rings (size 3 to 8) (size 9 to 14) (size 15 to 20)
#    0.000    1.750    1.250    2.250    3.500    4.000 
#    0.000    0.625    0.000    0.000    0.000    0.000 
#    0.000    0.000    0.000    0.000    0.000    0.000 
#
# Total GULP energy -89614.488342 kJ/mol
# GULP energy per Si atom -5600.905521 kJ/mol
# Density = 2.556216 g / cm^3
# Si number density = 25.620472 Si / 1000 Ang^3
#
#
#
# Elastic Constant Matrix: (Units=GPa)
#
#
# Indices 1 2 3 4 5 6 
#
# 1 89.6832 8.4048 11.0157 4.0216 18.0355 11.5472
# 2 8.4048 112.8276 13.4634 7.2409 6.7663 -5.0577
# 3 11.0157 13.4634 147.0423 0.7939 18.8549 -4.2639
# 4 4.0216 7.2409 0.7939 27.1442 -12.0641 6.5565
# 5 18.0355 6.7663 18.8549 -12.0641 45.0442 8.5617
# 6 11.5472 -5.0577 -4.2639 6.5565 8.5617 19.2636
#
#
#
# Elastic Compliance Matrix: (Units=1/GPa)
#
#
# Indices 1 2 3 4 5 6 
#
# 1 0.012973 -0.000708 -0.000455 -0.002510 -0.004587 -0.005170
# 2 -0.000708 0.009860 -0.000100 -0.005972 -0.004053 0.006825
# 3 -0.000455 -0.000100 0.007666 -0.003676 -0.005028 0.005430
# 4 -0.002510 -0.005972 -0.003676 0.057570 0.024850 -0.031516
# 5 -0.004587 -0.004053 -0.005028 0.024850 0.038126 -0.024830
# 6 -0.005170 0.006825 0.005430 -0.031516 -0.024830 0.079767
#
#
# Mechanical properties :
#
#
# Convention : Reuss Voigt Hill
#
# Bulk Modulus (GPa) = 35.74818 46.14675 40.94747
# Shear Modulus (GPa) = 22.95561 39.40169 31.17865
#
# Velocity S-wave (km/s) = 2.99655 3.92586 3.49226
# Velocity P-wave (km/s) = 5.09467 6.21294 5.68139
#
# Compressibility (1/GPa) = 0.02797345
#
# Stress axis : x y z
#
# Youngs Moduli (GPa) = 77.08138 101.42039 130.44465
#
# Poissons Ratio (x) = 0.07177 0.05939
# Poissons Ratio (y) = 0.05455 0.01304
# Poissons Ratio (z) = 0.03509 0.01014
#
# Static dielectric constant tensor:
#      x y z
#    x 2.004720 -0.035940 -0.051230 
#    y -0.035940 1.951110 -0.001840 
#    z -0.051230 -0.001840 2.106470 
# 
# From -- ./inp_files/208459.got.cif
#   From: 2010.05.17/outbox.cif.g08.bks.cpg/sg2_105_cif.got.tgz:208459.got - 2010.06.03 11:33:40.
