data_PCOD9008669
_publ_section_title
;
Structure prediction by ZEFSAII (Michael W. Deem and Ramdas Pophale) SiO2 
 PCOD9008669
Probable space group: P -1
;
_chemical_formula_sum "Si O2"
_cell_formula_units_Z 15
_cell_length_a 9.043619
_cell_length_b 14.140873
_cell_length_c 14.639246
_cell_angle_alpha 26.670772
_cell_angle_beta 87.281644
_cell_angle_gamma 70.620388
_cell_volume 641.042951
_symmetry_space_group_name_H-M "P -1"
_symmetry_group_IT_number 2
_symmetry_cell_setting 'triclinic'
loop_
_space_group_symop_operation_xyz
x,y,z
-x,-y,-z
loop_
_atom_site_type_symbol
_atom_site_label
_atom_site_fract_x
_atom_site_fract_y
_atom_site_fract_z
Si Si1 0.000000 0.500000 0.000000
Si Si2 0.518943 0.529850 0.784943
Si Si3 0.887690 0.927941 0.297547
Si Si4 0.517388 0.136998 0.793870
Si Si5 0.408593 0.099423 0.641225
Si Si6 0.169907 0.788855 0.249581
Si Si7 0.913483 0.036331 0.571849
Si Si8 0.576038 0.729323 0.787275
O O1 0.875457 0.820787 0.763607
O O2 0.804474 0.542580 0.952379
O O3 0.562518 0.703683 0.577459
O O4 0.530132 0.583091 0.845823
O O5 0.297005 0.667745 0.659074
O O6 0.691401 0.219998 0.015773
O O7 0.817612 0.752734 0.464708
O O8 0.058730 0.809540 0.324646
O O9 0.946385 0.986514 0.339185
O O10 0.523713 0.999651 0.818651
O O11 0.327967 0.461756 0.505117
O O12 0.701560 0.120889 0.813834
O O13 0.500000 0.000000 0.000000
O O14 0.480875 0.853518 0.781068
O O15 0.000000 0.000000 0.000000
O O16 0.000000 0.000000 0.500000
O O17 0.500000 0.000000 0.500000
#
# Coordination Sequence:
#
# PCOD9008669 Si02
#       8
#     1   2   2   2   2   2   2   2
#     4  12  22  42  64  92 136 182 224 270 338 388
#     4  11  24  45  64  96 142 180 223 277 329 400
#     4  12  27  42  69 102 133 179 226 276 339 405
#     4  11  26  49  76 103 138 178 226 292 352 412
#     4  11  24  43  69  98 133 179 221 275 341 403
#     4  11  26  50  74 104 138 175 232 292 346 412
#     4  12  27  40  65  99 135 180 230 272 331 401
#     4  10  21  39  65  93 133 177 224 268 325 397
#
# _framework density 23.399370000000001
#
# number of rings (size 3 to 8) (size 9 to 14) (size 15 to 20)
#    0.000    0.800    4.000    3.200    3.733    7.467 
#    0.000    0.000    0.000    0.000    0.000    0.000 
#    0.000    0.000    0.000    0.000    0.000    0.000 
#
# Total GULP energy -83661.587929 kJ/mol
# GULP energy per Si atom -5577.439195 kJ/mol
# Density = 2.334611 g / cm^3
# Si number density = 23.399370 Si / 1000 Ang^3
#
#
#
# Elastic Constant Matrix: (Units=GPa)
#
#
# Indices 1 2 3 4 5 6 
#
# 1 136.6247 43.1115 44.1081 10.4072 14.8908 -3.0013
# 2 43.1115 110.8117 24.1470 22.4116 2.4468 -1.9748
# 3 44.1081 24.1470 88.0213 -1.5693 14.1258 -1.9345
# 4 10.4072 22.4116 -1.5693 40.6497 -6.0188 4.6063
# 5 14.8908 2.4468 14.1258 -6.0188 38.0994 -2.2457
# 6 -3.0013 -1.9748 -1.9345 4.6063 -2.2457 48.4947
#
#
#
# Elastic Compliance Matrix: (Units=1/GPa)
#
#
# Indices 1 2 3 4 5 6 
#
# 1 0.009765 -0.002576 -0.003810 -0.001637 -0.002474 0.000388
# 2 -0.002576 0.011678 -0.002019 -0.005931 0.000116 0.000804
# 3 -0.003810 -0.002019 0.014404 0.002155 -0.003387 -0.000105
# 4 -0.001637 -0.005931 0.002155 0.029389 0.004698 -0.002831
# 5 -0.002474 0.000116 -0.003387 0.004698 0.029242 0.000624
# 6 0.000388 0.000804 -0.000105 -0.002831 0.000624 0.020971
#
#
# Mechanical properties :
#
#
# Convention : Reuss Voigt Hill
#
# Bulk Modulus (GPa) = 52.53374 62.02122 57.27748
# Shear Modulus (GPa) = 36.07357 40.38816 38.23086
#
# Velocity S-wave (km/s) = 3.93064 4.15907 4.04647
# Velocity P-wave (km/s) = 6.56503 7.04463 6.80905
#
# Compressibility (1/GPa) = 0.01903538
#
# Stress axis : x y z
#
# Youngs Moduli (GPa) = 102.40364 85.63179 69.42553
#
# Poissons Ratio (x) = 0.22061 0.26453
# Poissons Ratio (y) = 0.26381 0.14019
# Poissons Ratio (z) = 0.39019 0.17292
#
# Static dielectric constant tensor:
#      x y z
#    x 1.854740 -0.012770 -0.055800 
#    y -0.012770 1.889400 -0.012250 
#    z -0.055800 -0.012250 2.000070 
# 
# From -- ./inp_files/505009.got.cif
#   From: 2010.05.17/outbox.cif.g08.bks.cpg/sg2_253_cif.got.tgz:505009.got - 2010.06.03 11:33:40.
