data_PCOD9008015
_publ_section_title
;
Structure prediction by ZEFSAII (Michael W. Deem and Ramdas Pophale) SiO2 
 PCOD9008015
Probable space group: P -1
;
_chemical_formula_sum "Si O2"
_cell_formula_units_Z 16
_cell_length_a 11.572728
_cell_length_b 21.018669
_cell_length_c 21.264185
_cell_angle_alpha 19.351106
_cell_angle_beta 137.649175
_cell_angle_gamma 145.464298
_cell_volume 951.339229
_symmetry_space_group_name_H-M "P -1"
_symmetry_group_IT_number 2
_symmetry_cell_setting 'triclinic'
loop_
_space_group_symop_operation_xyz
x,y,z
-x,-y,-z
loop_
_atom_site_type_symbol
_atom_site_label
_atom_site_fract_x
_atom_site_fract_y
_atom_site_fract_z
Si Si1 0.322010 0.637822 0.560499
Si Si2 0.921917 0.131921 0.905987
Si Si3 0.370978 0.167351 0.613780
Si Si4 0.457380 0.983815 0.071207
Si Si5 0.272982 0.520793 0.216707
Si Si6 0.220946 0.004312 0.162718
Si Si7 0.402609 0.485877 0.158442
Si Si8 0.012995 0.638591 0.938073
O O1 0.431354 0.696850 0.480778
O O2 0.246935 0.806915 0.382302
O O3 0.497198 0.661081 0.655701
O O4 0.121715 0.375015 0.733787
O O5 0.781617 0.008169 0.903126
O O6 0.785545 0.157981 0.876887
O O7 0.010080 0.990128 0.102641
O O8 0.264168 0.307338 0.443905
O O9 0.444872 0.130553 0.744061
O O10 0.205834 0.908742 0.760873
O O11 0.562349 0.242005 0.902067
O O12 0.500000 0.000000 0.000000
O O13 0.341750 0.513755 0.179144
O O14 0.068367 0.524017 0.122771
O O15 0.414680 0.253663 0.030601
O O16 0.202858 0.382461 0.130384
O O17 0.000000 0.500000 0.000000
#
# Coordination Sequence:
#
# PCOD9008015 Si02
#       8
#     2   2   2   2   2   2   2   2
#     4  10  18  28  48  74  98 129 163 198 243 305
#     4  10  20  30  48  72  95 137 164 199 253 291
#     4  10  20  32  49  75 102 134 170 202 248 300
#     4  11  22  36  50  68 101 138 175 209 240 289
#     4   9  18  32  47  68  99 133 167 202 243 295
#     4  10  17  29  47  70 102 130 160 200 242 300
#     4   9  17  28  46  74 106 131 156 194 251 309
#     4   9  17  29  46  72 108 137 156 195 253 309
#
# _framework density 16.818396
#
# number of rings (size 3 to 8) (size 9 to 14) (size 15 to 20)
#    0.000    2.250    2.500    1.875    1.750    6.000 
#    0.000    0.000    0.000    0.000    0.000   14.000 
#    0.000   41.000    0.000    0.000    0.000    0.000 
#
# Total GULP energy -89074.512480 kJ/mol
# GULP energy per Si atom -5567.157030 kJ/mol
# Density = 1.678012 g / cm^3
# Si number density = 16.818396 Si / 1000 Ang^3
#
#
#
# Elastic Constant Matrix: (Units=GPa)
#
#
# Indices 1 2 3 4 5 6 
#
# 1 44.3184 42.1446 30.8953 6.5738 -3.8756 8.8787
# 2 42.1446 91.0338 53.9422 15.5701 1.2732 21.1087
# 3 30.8953 53.9422 116.6413 28.9536 19.7151 11.6320
# 4 6.5738 15.5701 28.9536 21.6410 11.1139 6.4876
# 5 -3.8756 1.2732 19.7151 11.1139 21.5147 4.5473
# 6 8.8787 21.1087 11.6320 6.4876 4.5473 17.1250
#
#
#
# Elastic Compliance Matrix: (Units=1/GPa)
#
#
# Indices 1 2 3 4 5 6 
#
# 1 0.044625 -0.016304 -0.006611 -0.000290 0.015766 -0.002626
# 2 -0.016304 0.028580 -0.007194 -0.003577 0.008637 -0.022827
# 3 -0.006611 -0.007194 0.018223 -0.013344 -0.012313 0.008242
# 4 -0.000290 -0.003577 -0.013344 0.084970 -0.029222 -0.010807
# 5 0.015766 0.008637 -0.012313 -0.029222 0.079520 -0.020502
# 6 -0.002626 -0.022827 0.008242 -0.010807 -0.020502 0.091832
#
#
# Mechanical properties :
#
#
# Convention : Reuss Voigt Hill
#
# Bulk Modulus (GPa) = 32.04147 56.21752 44.12949
# Shear Modulus (GPa) = 11.95112 20.39024 16.17068
#
# Velocity S-wave (km/s) = 2.66860 3.48570 3.10415
# Velocity P-wave (km/s) = 5.34678 7.04974 6.25647
#
# Compressibility (1/GPa) = 0.03120956
#
# Stress axis : x y z
#
# Youngs Moduli (GPa) = 22.40908 34.98974 54.87627
#
# Poissons Ratio (x) = 0.57047 0.36279
# Poissons Ratio (y) = 0.36536 0.39478
# Poissons Ratio (z) = 0.14815 0.25172
#
# Static dielectric constant tensor:
#      x y z
#    x 1.566340 0.047560 0.025620 
#    y 0.047560 1.595940 0.016510 
#    z 0.025620 0.016510 1.600000 
# 
# From -- ./inp_files/453951.got.cif
#   From: 2010.05.17/outbox.cif.g08.bks.cpg/sg2_227_cif.got.tgz:453951.got - 2010.06.03 11:33:40.
