data_PCOD9008324
_publ_section_title
;
Structure prediction by ZEFSAII (Michael W. Deem and Ramdas Pophale) SiO2 
 PCOD9008324
Probable space group: P -1
;
_chemical_formula_sum "Si O2"
_cell_formula_units_Z 16
_cell_length_a 10.719735
_cell_length_b 13.019970
_cell_length_c 6.125379
_cell_angle_alpha 108.858796
_cell_angle_beta 67.989497
_cell_angle_gamma 92.092973
_cell_volume 746.566160
_symmetry_space_group_name_H-M "P -1"
_symmetry_group_IT_number 2
_symmetry_cell_setting 'triclinic'
loop_
_space_group_symop_operation_xyz
x,y,z
-x,-y,-z
loop_
_atom_site_type_symbol
_atom_site_label
_atom_site_fract_x
_atom_site_fract_y
_atom_site_fract_z
Si Si1 0.122763 0.117764 0.057506
Si Si2 0.399459 0.845659 0.387310
Si Si3 0.695812 0.529444 0.370943
Si Si4 0.113005 0.353374 0.380190
Si Si5 0.100474 0.537790 0.145642
Si Si6 0.112835 0.964372 0.583125
Si Si7 0.397335 0.012895 0.879834
Si Si8 0.450976 0.592906 0.274231
O O1 0.144685 0.241561 0.161892
O O2 0.974147 0.099130 0.228200
O O3 0.243431 0.051730 0.068212
O O4 0.143270 0.073332 0.768603
O O5 0.257737 0.895097 0.398803
O O6 0.533908 0.894462 0.239906
O O7 0.416855 0.714551 0.289343
O O8 0.390776 0.901934 0.671025
O O9 0.783960 0.618147 0.479877
O O10 0.566472 0.591676 0.383665
O O11 0.668541 0.451785 0.537661
O O12 0.766188 0.457127 0.078987
O O13 0.113959 0.444554 0.255654
O O14 0.969649 0.359951 0.606473
O O15 0.000000 0.500000 0.000000
O O16 0.000000 0.000000 0.500000
O O17 0.500000 0.000000 0.000000
O O18 0.500000 0.500000 0.000000
#
# Coordination Sequence:
#
# PCOD9008324 Si02
#       8
#     2   2   2   2   2   2   2   2
#     4  10  23  38  65  94 122 163 218 269 329 396
#     4  10  24  42  65  95 133 171 222 276 333 403
#     4  10  23  40  62  92 130 178 224 269 333 402
#     4  10  21  39  64  93 126 167 220 278 327 397
#     4   9  20  38  58  89 128 163 213 264 322 389
#     4  10  22  44  62  93 130 169 214 276 342 400
#     4  10  22  41  67  98 125 165 218 276 336 397
#     4  11  25  42  63  94 137 180 224 276 333 405
#
# _framework density 21.431457000000002
#
# number of rings (size 3 to 8) (size 9 to 14) (size 15 to 20)
#    0.000    2.000    0.000    1.500    5.250    7.000 
#    0.000    5.000    0.000    0.000    0.000    0.000 
#    0.000    0.000    0.000    0.000    0.000    0.000 
#
# Total GULP energy -89204.589899 kJ/mol
# GULP energy per Si atom -5575.286869 kJ/mol
# Density = 2.138268 g / cm^3
# Si number density = 21.431457 Si / 1000 Ang^3
#
#
#
# Elastic Constant Matrix: (Units=GPa)
#
#
# Indices 1 2 3 4 5 6 
#
# 1 105.0229 24.9820 25.0099 15.8297 11.1288 -5.8265
# 2 24.9820 91.9622 57.0369 34.8569 2.9025 -2.3180
# 3 25.0099 57.0369 87.7064 13.8311 -4.5716 -0.3438
# 4 15.8297 34.8569 13.8311 33.3233 4.8340 -1.6002
# 5 11.1288 2.9025 -4.5716 4.8340 42.4175 -11.8237
# 6 -5.8265 -2.3180 -0.3438 -1.6002 -11.8237 22.3689
#
#
#
# Elastic Compliance Matrix: (Units=1/GPa)
#
#
# Indices 1 2 3 4 5 6 
#
# 1 0.011057 0.000505 -0.002949 -0.004143 -0.002415 0.001314
# 2 0.000505 0.030015 -0.015771 -0.024932 -0.000828 0.000778
# 3 -0.002949 -0.015771 0.021314 0.008593 0.003241 0.000253
# 4 -0.004143 -0.024932 0.008593 0.054849 -0.002840 -0.001109
# 5 -0.002415 -0.000828 0.003241 -0.002840 0.028964 0.014442
# 6 0.001314 0.000778 0.000253 -0.001109 0.014442 0.052686
#
#
# Mechanical properties :
#
#
# Convention : Reuss Voigt Hill
#
# Bulk Modulus (GPa) = 38.52783 55.41658 46.97221
# Shear Modulus (GPa) = 20.49465 31.46611 25.98038
#
# Velocity S-wave (km/s) = 3.09575 3.83589 3.48552
# Velocity P-wave (km/s) = 5.54927 6.74778 6.17766
#
# Compressibility (1/GPa) = 0.02595526
#
# Stress axis : x y z
#
# Youngs Moduli (GPa) = 90.43940 33.31720 46.91840
#
# Poissons Ratio (x) = -0.01682 0.13835
# Poissons Ratio (y) = -0.04567 0.73996
# Poissons Ratio (z) = 0.26668 0.52545
#
# Static dielectric constant tensor:
#      x y z
#    x 1.859470 0.005260 -0.048000 
#    y 0.005260 1.757310 -0.030330 
#    z -0.048000 -0.030330 1.812930 
# 
# From -- ./inp_files/71653.got.cif
#   From: 2010.05.17/outbox.cif.g08.bks.cpg/sg2_36_cif.got.tgz:71653.got - 2010.06.03 11:33:40.
