data_PCOD9008666
_publ_section_title
;
Structure prediction by ZEFSAII (Michael W. Deem and Ramdas Pophale) SiO2 
 PCOD9008666
Probable space group: P -1
;
_chemical_formula_sum "Si O2"
_cell_formula_units_Z 10
_cell_length_a 6.601804
_cell_length_b 13.016097
_cell_length_c 10.320858
_cell_angle_alpha 37.593053
_cell_angle_beta 121.742712
_cell_angle_gamma 100.549523
_cell_volume 410.742549
_symmetry_space_group_name_H-M "P -1"
_symmetry_group_IT_number 2
_symmetry_cell_setting 'triclinic'
loop_
_space_group_symop_operation_xyz
x,y,z
-x,-y,-z
loop_
_atom_site_type_symbol
_atom_site_label
_atom_site_fract_x
_atom_site_fract_y
_atom_site_fract_z
Si Si1 0.753560 0.955648 0.807646
Si Si2 0.918430 0.406931 0.182934
Si Si3 0.718554 0.133735 0.337198
Si Si4 0.077667 0.543243 0.341346
Si Si5 0.545138 0.828650 0.279862
O O1 0.518959 0.889447 0.789751
O O2 0.731405 0.065281 0.558185
O O3 0.686737 0.095428 0.767063
O O4 0.023319 0.759866 0.101446
O O5 0.704028 0.340839 0.131132
O O6 0.883764 0.529752 0.176595
O O7 0.183901 0.222086 0.498018
O O8 0.000000 0.500000 0.000000
O O9 0.000000 0.000000 0.500000
O O10 0.000000 0.500000 0.500000
O O11 0.360583 0.369449 0.567496
O O12 0.500000 0.000000 0.000000
#
# Coordination Sequence:
#
# PCOD9008666 Si02
#       5
#     2   2   2   2   2
#     4  11  22  40  70  94 131 178 212 278 337 382
#     4  10  22  41  67  96 134 165 223 282 312 396
#     4  11  22  40  67 101 133 168 223 277 335 391
#     4  10  21  39  65  93 132 174 222 267 329 396
#     4  10  21  41  66  95 136 174 222 273 330 401
#
# _framework density 24.346149
#
# number of rings (size 3 to 8) (size 9 to 14) (size 15 to 20)
#    1.200    0.400    4.000    1.200    2.800    0.800 
#    0.000    4.000    0.000    6.000    0.000    0.000 
#    0.000    0.000    0.000    0.000    0.000    0.000 
#
# Total GULP energy -55838.206890 kJ/mol
# GULP energy per Si atom -5583.820689 kJ/mol
# Density = 2.429074 g / cm^3
# Si number density = 24.346149 Si / 1000 Ang^3
#
#
#
# Elastic Constant Matrix: (Units=GPa)
#
#
# Indices 1 2 3 4 5 6 
#
# 1 104.0498 67.1132 23.3518 -4.7322 13.0790 -6.3732
# 2 67.1132 178.0540 34.2117 -12.6362 -5.5969 -26.9661
# 3 23.3518 34.2117 100.1650 3.6110 2.2007 -6.4000
# 4 -4.7322 -12.6362 3.6110 45.9836 -17.2255 4.0374
# 5 13.0790 -5.5969 2.2007 -17.2255 40.4933 -13.0316
# 6 -6.3732 -26.9661 -6.4000 4.0374 -13.0316 58.1360
#
#
#
# Elastic Compliance Matrix: (Units=1/GPa)
#
#
# Indices 1 2 3 4 5 6 
#
# 1 0.014440 -0.006063 -0.001219 -0.002634 -0.007475 -0.002856
# 2 -0.006063 0.009478 -0.001820 0.004211 0.006683 0.004737
# 3 -0.001219 -0.001820 0.010993 -0.001970 -0.001266 0.000086
# 4 -0.002634 0.004211 -0.001970 0.027899 0.014280 0.002711
# 5 -0.007475 0.006683 -0.001266 0.014280 0.037233 0.009495
# 6 -0.002856 0.004737 0.000086 0.002711 0.009495 0.021035
#
#
# Mechanical properties :
#
#
# Convention : Reuss Voigt Hill
#
# Bulk Modulus (GPa) = 59.85174 70.18023 65.01598
# Shear Modulus (GPa) = 34.51845 46.09538 40.30691
#
# Velocity S-wave (km/s) = 3.76948 4.35597 4.07329
# Velocity P-wave (km/s) = 6.60169 7.36124 6.99179
#
# Compressibility (1/GPa) = 0.01670795
#
# Stress axis : x y z
#
# Youngs Moduli (GPa) = 69.25192 105.51300 90.96297
#
# Poissons Ratio (x) = 0.63974 0.11087
# Poissons Ratio (y) = 0.41988 0.16551
# Poissons Ratio (z) = 0.08441 0.19199
#
# Static dielectric constant tensor:
#      x y z
#    x 1.930800 -0.031620 0.070210 
#    y -0.031620 1.968050 -0.075910 
#    z 0.070210 -0.075910 1.892320 
# 
# From -- ./inp_files/30214.got.cif
#   From: 2010.05.17/outbox.cif.g08.bks.cpg/sg2_16_cif.got.tgz:30214.got - 2010.06.03 11:33:40.
