data_PCOD9008352
_publ_section_title
;
Structure prediction by ZEFSAII (Michael W. Deem and Ramdas Pophale) SiO2 
 PCOD9008352
Probable space group: P -1
;
_chemical_formula_sum "Si O2"
_cell_formula_units_Z 16
_cell_length_a 19.680080
_cell_length_b 28.980251
_cell_length_c 4.753420
_cell_angle_alpha 100.753707
_cell_angle_beta 103.064162
_cell_angle_gamma 15.018203
_cell_volume 678.887734
_symmetry_space_group_name_H-M "P -1"
_symmetry_group_IT_number 2
_symmetry_cell_setting 'triclinic'
loop_
_space_group_symop_operation_xyz
x,y,z
-x,-y,-z
loop_
_atom_site_type_symbol
_atom_site_label
_atom_site_fract_x
_atom_site_fract_y
_atom_site_fract_z
Si Si1 0.280573 0.990950 0.376139
Si Si2 0.014366 0.254633 0.231806
Si Si3 0.399896 0.412119 0.532309
Si Si4 0.259036 0.248402 0.160521
Si Si5 0.372728 0.868060 0.791113
Si Si6 0.851240 0.773798 0.201336
Si Si7 0.948935 0.485399 0.611217
Si Si8 0.719403 0.172016 0.074529
O O1 0.500784 0.879810 0.615384
O O2 0.189298 0.013423 0.554102
O O3 0.653802 0.678169 0.679276
O O4 0.074649 0.161902 0.248340
O O5 0.725098 0.459454 0.303439
O O6 0.214472 0.157638 0.492836
O O7 0.066791 0.238155 0.949345
O O8 0.137820 0.562158 0.299597
O O9 0.511626 0.309839 0.779483
O O10 0.623355 0.270189 0.340222
O O11 0.031875 0.392958 0.350983
O O12 0.325356 0.153265 0.002921
O O13 0.144943 0.351022 0.905560
O O14 0.394286 0.887195 0.105369
O O15 0.278129 0.879650 0.829171
O O16 0.000000 0.500000 0.500000
O O17 0.000000 0.000000 0.000000
#
# Coordination Sequence:
#
# PCOD9008352 Si02
#       8
#     2   2   2   2   2   2   2   2
#     4  12  26  43  64  96 139 185 229 274 322 395
#     4  10  22  42  66  94 130 190 225 272 326 384
#     4  10  21  44  67 103 129 170 218 271 343 397
#     4  12  25  38  60  95 135 176 238 283 316 377
#     4  12  27  43  66  98 136 181 217 277 350 402
#     4  10  21  39  64  94 125 182 225 278 319 377
#     4  12  25  41  57  92 135 186 226 270 331 393
#     4  12  25  45  76 105 133 158 213 289 349 412
#
# _framework density 23.567962999999999
#
# number of rings (size 3 to 8) (size 9 to 14) (size 15 to 20)
#    0.750    0.000    2.500    5.250    1.750    1.000 
#    0.000    0.000    0.000    4.500    0.000    0.000 
#    0.000    0.000    0.000    0.000    0.000    0.000 
#
# Total GULP energy -89538.500464 kJ/mol
# GULP energy per Si atom -5596.156279 kJ/mol
# Density = 2.351432 g / cm^3
# Si number density = 23.567963 Si / 1000 Ang^3
#
#
#
# Elastic Constant Matrix: (Units=GPa)
#
#
# Indices 1 2 3 4 5 6 
#
# 1 107.0546 69.7791 40.9703 -2.1080 -42.8232 7.2223
# 2 69.7791 104.2411 30.8759 17.2749 -18.9258 4.5046
# 3 40.9703 30.8759 137.6619 13.9529 -41.0155 4.1400
# 4 -2.1080 17.2749 13.9529 39.5686 7.3055 -6.4110
# 5 -42.8232 -18.9258 -41.0155 7.3055 46.4355 6.5036
# 6 7.2223 4.5046 4.1400 -6.4110 6.5036 36.8473
#
#
#
# Elastic Compliance Matrix: (Units=1/GPa)
#
#
# Indices 1 2 3 4 5 6 
#
# 1 0.027773 -0.015288 0.001437 0.002588 0.021229 -0.007033
# 2 -0.015288 0.020568 -0.000643 -0.008676 -0.004906 -0.000089
# 3 0.001437 -0.000643 0.011834 -0.007112 0.013353 -0.005127
# 4 0.002588 -0.008676 -0.007112 0.036039 -0.014528 0.010187
# 5 0.021229 -0.004906 0.013353 -0.014528 0.055632 -0.017408
# 6 -0.007033 -0.000089 -0.005127 0.010187 -0.017408 0.033950
#
#
# Mechanical properties :
#
#
# Convention : Reuss Voigt Hill
#
# Bulk Modulus (GPa) = 32.06263 70.24538 51.15401
# Shear Modulus (GPa) = 22.20466 38.39242 30.29854
#
# Velocity S-wave (km/s) = 3.07278 4.04048 3.58939
# Velocity P-wave (km/s) = 5.12086 7.18592 6.23942
#
# Compressibility (1/GPa) = 0.03118895
#
# Stress axis : x y z
#
# Youngs Moduli (GPa) = 36.00643 48.61890 84.50120
#
# Poissons Ratio (x) = 0.74327 -0.12147
# Poissons Ratio (y) = 0.55045 0.05433
# Poissons Ratio (z) = -0.05176 0.03126
#
# Static dielectric constant tensor:
#      x y z
#    x 1.933950 0.052380 0.023710 
#    y 0.052380 1.967080 -0.044520 
#    z 0.023710 -0.044520 1.922670 
# 
# From -- ./inp_files/113233.got.cif
#   From: 2010.05.17/outbox.cif.g08.bks.cpg/sg2_57_cif.got.tgz:113233.got - 2010.06.03 11:33:40.
