data_PCOD9008516
_publ_section_title
;
Structure prediction by ZEFSAII (Michael W. Deem and Ramdas Pophale) SiO2 
 PCOD9008516
Probable space group: P -1
;
_chemical_formula_sum "Si O2"
_cell_formula_units_Z 16
_cell_length_a 6.676719
_cell_length_b 15.569141
_cell_length_c 14.407753
_cell_angle_alpha 37.095300
_cell_angle_beta 127.927658
_cell_angle_gamma 132.009758
_cell_volume 660.186892
_symmetry_space_group_name_H-M "P -1"
_symmetry_group_IT_number 2
_symmetry_cell_setting 'triclinic'
loop_
_space_group_symop_operation_xyz
x,y,z
-x,-y,-z
loop_
_atom_site_type_symbol
_atom_site_label
_atom_site_fract_x
_atom_site_fract_y
_atom_site_fract_z
Si Si1 0.100934 0.775625 0.911631
Si Si2 0.819047 0.647738 0.394959
Si Si3 0.730246 0.315582 0.147341
Si Si4 0.283728 0.147274 0.948010
Si Si5 0.905871 0.712300 0.558848
Si Si6 0.360062 0.638984 0.547904
Si Si7 0.277542 0.399396 0.883879
Si Si8 0.283297 0.037297 0.342238
O O1 0.104900 0.679725 0.903287
O O2 0.425618 0.872324 0.938960
O O3 0.901087 0.868369 0.757467
O O4 0.972144 0.672059 0.054689
O O5 0.695092 0.767139 0.218697
O O6 0.716637 0.497177 0.431678
O O7 0.783558 0.601323 0.532737
O O8 0.146518 0.719237 0.405818
O O9 0.908449 0.332705 0.275807
O O10 0.485067 0.145354 0.230167
O O11 0.558120 0.422798 0.997492
O O12 0.262274 0.272645 0.909059
O O13 0.000000 0.000000 0.000000
O O14 0.063959 0.867751 0.413342
O O15 0.673684 0.737407 0.533417
O O16 0.311234 0.554586 0.706060
O O17 0.500000 0.000000 0.500000
#
# Coordination Sequence:
#
# PCOD9008516 Si02
#       8
#     2   2   2   2   2   2   2   2
#     4  10  21  39  65  85 130 167 201 259 325 355
#     4  10  24  41  59  88 129 158 211 263 305 370
#     4   9  21  40  61  95 126 158 209 262 311 378
#     4  10  23  38  64  93 122 161 213 263 308 374
#     4  11  23  37  64  90 121 168 205 255 320 367
#     4  10  23  42  62  88 123 169 212 256 305 374
#     4   9  21  42  61  89 124 162 211 258 310 370
#     4   9  21  38  60  93 128 160 204 254 314 378
#
# _framework density 24.23556
#
# number of rings (size 3 to 8) (size 9 to 14) (size 15 to 20)
#    0.000    2.250    0.000    0.375    7.000   12.000 
#    0.000    1.250    0.000    0.000    0.000    0.000 
#    0.000    0.000    0.000    0.000    0.000    0.000 
#
# Total GULP energy -89330.724492 kJ/mol
# GULP energy per Si atom -5583.170281 kJ/mol
# Density = 2.418040 g / cm^3
# Si number density = 24.235560 Si / 1000 Ang^3
#
#
#
# Elastic Constant Matrix: (Units=GPa)
#
#
# Indices 1 2 3 4 5 6 
#
# 1 143.4853 45.4384 40.6017 18.6705 -8.0884 18.8374
# 2 45.4384 65.0866 25.5137 9.6471 -1.3564 17.3333
# 3 40.6017 25.5137 107.0898 31.1078 2.9060 -0.4239
# 4 18.6705 9.6471 31.1078 31.0255 0.1284 -2.8718
# 5 -8.0884 -1.3564 2.9060 0.1284 44.7221 7.7242
# 6 18.8374 17.3333 -0.4239 -2.8718 7.7242 38.5797
#
#
#
# Elastic Compliance Matrix: (Units=1/GPa)
#
#
# Indices 1 2 3 4 5 6 
#
# 1 0.010001 -0.004855 -0.001846 -0.002984 0.002381 -0.003421
# 2 -0.004855 0.022410 -0.003066 -0.001732 0.001412 -0.008143
# 3 -0.001846 -0.003066 0.014347 -0.012142 -0.001646 0.001862
# 4 -0.002984 -0.001732 -0.012142 0.047282 -0.000942 0.005810
# 5 0.002381 0.001412 -0.001646 -0.000942 0.024102 -0.006711
# 6 -0.003421 -0.008143 0.001862 0.005810 -0.006711 0.033046
#
#
# Mechanical properties :
#
#
# Convention : Reuss Voigt Hill
#
# Bulk Modulus (GPa) = 36.73214 59.86323 48.29769
# Shear Modulus (GPa) = 27.80895 36.47265 32.14080
#
# Velocity S-wave (km/s) = 3.39107 3.88354 3.64563
# Velocity P-wave (km/s) = 5.52464 6.69801 6.13942
#
# Compressibility (1/GPa) = 0.02722411
#
# Stress axis : x y z
#
# Youngs Moduli (GPa) = 99.99067 44.62240 69.69864
#
# Poissons Ratio (x) = 0.21665 0.12869
# Poissons Ratio (y) = 0.48547 0.21368
# Poissons Ratio (z) = 0.18462 0.13680
#
# Static dielectric constant tensor:
#      x y z
#    x 1.950630 0.000310 0.023170 
#    y 0.000310 2.045080 -0.004870 
#    z 0.023170 -0.004870 2.000920 
# 
# From -- ./inp_files/70040.got.cif
#   From: 2010.05.17/outbox.cif.g08.bks.cpg/sg2_36_cif.got.tgz:70040.got - 2010.06.03 11:33:40.
