data_PCOD9008806
_publ_section_title
;
Structure prediction by ZEFSAII (Michael W. Deem and Ramdas Pophale) SiO2 
 PCOD9008806
Probable space group: P -1
;
_chemical_formula_sum "Si O2"
_cell_formula_units_Z 14
_cell_length_a 24.165234
_cell_length_b 12.575310
_cell_length_c 5.378530
_cell_angle_alpha 46.035288
_cell_angle_beta 127.014358
_cell_angle_gamma 151.531758
_cell_volume 560.607616
_symmetry_space_group_name_H-M "P -1"
_symmetry_group_IT_number 2
_symmetry_cell_setting 'triclinic'
loop_
_space_group_symop_operation_xyz
x,y,z
-x,-y,-z
loop_
_atom_site_type_symbol
_atom_site_label
_atom_site_fract_x
_atom_site_fract_y
_atom_site_fract_z
Si Si1 0.127991 0.264846 0.314121
Si Si2 0.339351 0.595015 0.726637
Si Si3 0.419622 0.997340 0.587294
Si Si4 0.879094 0.040238 0.482638
Si Si5 0.004863 0.334284 0.842004
Si Si6 0.647418 0.812764 0.120454
Si Si7 0.481790 0.656463 0.332478
O O1 0.229154 0.411929 0.548876
O O2 0.146705 0.176469 0.291900
O O3 0.000000 0.000000 0.500000
O O4 0.117767 0.421628 0.968618
O O5 0.458364 0.805476 0.547781
O O6 0.339883 0.731211 0.702338
O O7 0.369600 0.499427 0.116002
O O8 0.462539 0.095498 0.824822
O O9 0.359309 0.052524 0.280325
O O10 0.919385 0.124306 0.738397
O O11 0.774809 0.973141 0.252113
O O12 0.970482 0.247462 0.178107
O O13 0.000000 0.500000 0.500000
O O14 0.582415 0.750349 0.298609
O O15 0.572951 0.540523 0.283094
#
# Coordination Sequence:
#
# PCOD9008806 Si02
#       7
#     2   2   2   2   2   2   2
#     4  10  24  46  71 100 142 188 240 294 359 430
#     4  10  22  41  65  96 140 181 236 291 359 422
#     4  10  21  40  63 101 138 179 233 294 359 424
#     4  11  25  46  74 104 144 188 238 295 360 433
#     4  11  26  49  75 105 142 181 246 303 363 419
#     4  10  23  37  66  98 141 178 238 282 362 419
#     4  10  21  39  65  98 139 187 231 291 352 434
#
# _framework density 24.972904
#
# number of rings (size 3 to 8) (size 9 to 14) (size 15 to 20)
#    0.000    1.714    0.000    2.571    8.000    1.143 
#    5.143    0.000    0.000    0.000    0.000    0.000 
#    0.000    0.000    0.000    0.000    0.000    0.000 
#
# Total GULP energy -78220.027564 kJ/mol
# GULP energy per Si atom -5587.144826 kJ/mol
# Density = 2.491606 g / cm^3
# Si number density = 24.972904 Si / 1000 Ang^3
#
#
#
# Elastic Constant Matrix: (Units=GPa)
#
#
# Indices 1 2 3 4 5 6 
#
# 1 104.0693 30.0648 4.0408 3.0086 36.9656 -2.5270
# 2 30.0648 93.9129 16.2533 25.1974 22.7007 -21.6097
# 3 4.0408 16.2533 123.3355 4.0669 45.6230 -0.2256
# 4 3.0086 25.1974 4.0669 44.9152 7.0771 9.0053
# 5 36.9656 22.7007 45.6230 7.0771 47.0815 0.1983
# 6 -2.5270 -21.6097 -0.2256 9.0053 0.1983 48.3774
#
#
#
# Elastic Compliance Matrix: (Units=1/GPa)
#
#
# Indices 1 2 3 4 5 6 
#
# 1 0.016687 -0.003082 0.006583 0.003120 -0.018459 -0.000979
# 2 -0.003082 0.018050 -0.000270 -0.011211 -0.004379 0.010006
# 3 0.006583 -0.000270 0.015315 0.001470 -0.020100 0.000103
# 4 0.003120 -0.011211 0.001470 0.030811 -0.003056 -0.010561
# 5 -0.018459 -0.004379 -0.020100 -0.003056 0.057793 -0.002682
# 6 -0.000979 0.010006 0.000103 -0.010561 -0.002682 0.027066
#
#
# Mechanical properties :
#
#
# Convention : Reuss Voigt Hill
#
# Bulk Modulus (GPa) = 17.69462 46.89285 32.29373
# Shear Modulus (GPa) = 28.07463 46.13872 37.10668
#
# Velocity S-wave (km/s) = 3.35655 4.30298 3.85889
# Velocity P-wave (km/s) = 4.70349 6.59589 5.72838
#
# Compressibility (1/GPa) = 0.05651436
#
# Stress axis : x y z
#
# Youngs Moduli (GPa) = 59.92867 55.40071 65.29595
#
# Poissons Ratio (x) = 0.17073 -0.42985
# Poissons Ratio (y) = 0.18468 0.01763
# Poissons Ratio (z) = -0.39451 0.01496
#
# Static dielectric constant tensor:
#      x y z
#    x 2.039960 -0.030680 -0.045590 
#    y -0.030680 2.002760 -0.079820 
#    z -0.045590 -0.079820 2.103270 
# 
# From -- ./inp_files/123549.got.cif
#   From: 2010.05.17/outbox.cif.g08.bks.cpg/sg2_62_cif.got.tgz:123549.got - 2010.06.03 11:33:40.
