data_PCOD9008793
_publ_section_title
;
Structure prediction by ZEFSAII (Michael W. Deem and Ramdas Pophale) SiO2 
 PCOD9008793
Probable space group: P -1
;
_chemical_formula_sum "Si O2"
_cell_formula_units_Z 14
_cell_length_a 25.616901
_cell_length_b 9.217946
_cell_length_c 8.974554
_cell_angle_alpha 47.071923
_cell_angle_beta 31.115193
_cell_angle_gamma 33.104343
_cell_volume 593.210607
_symmetry_space_group_name_H-M "P -1"
_symmetry_group_IT_number 2
_symmetry_cell_setting 'triclinic'
loop_
_space_group_symop_operation_xyz
x,y,z
-x,-y,-z
loop_
_atom_site_type_symbol
_atom_site_label
_atom_site_fract_x
_atom_site_fract_y
_atom_site_fract_z
Si Si1 0.683367 0.198599 0.883848
Si Si2 0.464090 0.953260 0.820054
Si Si3 0.107227 0.678109 0.455114
Si Si4 0.463737 0.712835 0.263199
Si Si5 0.937727 0.592267 0.753378
Si Si6 0.349077 0.481728 0.785825
Si Si7 0.776935 0.482124 0.383006
O O1 0.752368 0.280264 0.559343
O O2 0.805043 0.909404 0.855268
O O3 0.584964 0.178030 0.052982
O O4 0.591009 0.436256 0.063081
O O5 0.625008 0.773301 0.541023
O O6 0.380835 0.254955 0.760761
O O7 0.427635 0.946176 0.085872
O O8 0.170958 0.564126 0.542021
O O9 0.041614 0.563581 0.631558
O O10 0.220111 0.601481 0.115707
O O11 0.000000 0.000000 0.500000
O O12 0.347071 0.701066 0.566915
O O13 0.518216 0.692459 0.307268
O O14 0.000000 0.500000 0.500000
O O15 0.884552 0.450215 0.038178
#
# Coordination Sequence:
#
# PCOD9008793 Si02
#       7
#     2   2   2   2   2   2   2
#     4  11  23  45  66  97 136 173 214 276 341 402
#     4  11  23  40  71 102 130 164 222 278 344 389
#     4  12  24  48  69  95 139 185 224 266 328 407
#     4  10  21  39  65  98 131 165 210 273 345 384
#     4  12  27  45  67  99 135 181 233 268 325 400
#     4  11  22  40  66  99 131 164 218 282 322 389
#     4  11  24  46  73  94 136 179 223 277 338 395
#
# _framework density 23.600389
#
# number of rings (size 3 to 8) (size 9 to 14) (size 15 to 20)
#    0.000    0.857    4.286    4.286    0.000    7.429 
#    5.143    0.000    0.000    0.000    0.000    0.000 
#    0.000    0.000    0.000    0.000    0.000    0.000 
#
# Total GULP energy -78411.186490 kJ/mol
# GULP energy per Si atom -5600.799035 kJ/mol
# Density = 2.354667 g / cm^3
# Si number density = 23.600389 Si / 1000 Ang^3
#
#
#
# Elastic Constant Matrix: (Units=GPa)
#
#
# Indices 1 2 3 4 5 6 
#
# 1 108.6484 15.5160 51.3807 5.7259 -14.3389 10.3366
# 2 15.5160 63.8274 34.1005 -4.7004 -6.3821 10.4249
# 3 51.3807 34.1005 202.9120 -27.7809 -9.5482 -0.4386
# 4 5.7259 -4.7004 -27.7809 31.0657 -0.3883 -11.6660
# 5 -14.3389 -6.3821 -9.5482 -0.3883 36.1266 -7.0494
# 6 10.3366 10.4249 -0.4386 -11.6660 -7.0494 26.3787
#
#
#
# Elastic Compliance Matrix: (Units=1/GPa)
#
#
# Indices 1 2 3 4 5 6 
#
# 1 0.013007 0.000268 -0.004609 -0.009860 0.002115 -0.009075
# 2 0.000268 0.018903 -0.003792 -0.004056 0.000590 -0.009275
# 3 -0.004609 -0.003792 0.008332 0.011022 0.001524 0.008725
# 4 -0.009860 -0.004056 0.011022 0.055084 0.004992 0.031345
# 5 0.002115 0.000590 0.001524 0.004992 0.030922 0.009434
# 6 -0.009075 -0.009275 0.008725 0.031345 0.009434 0.061659
#
#
# Mechanical properties :
#
#
# Convention : Reuss Voigt Hill
#
# Bulk Modulus (GPa) = 41.70705 64.15358 52.93032
# Shear Modulus (GPa) = 23.56648 37.00689 30.28669
#
# Velocity S-wave (km/s) = 3.16343 3.96417 3.58622
# Velocity P-wave (km/s) = 5.57258 6.94227 6.29479
#
# Compressibility (1/GPa) = 0.02397676
#
# Stress axis : x y z
#
# Youngs Moduli (GPa) = 76.87973 52.90070 120.01618
#
# Poissons Ratio (x) = -0.01417 0.55311
# Poissons Ratio (y) = -0.02059 0.45513
# Poissons Ratio (z) = 0.35431 0.20061
#
# Static dielectric constant tensor:
#      x y z
#    x 1.944850 0.009210 0.001860 
#    y 0.009210 1.867600 -0.031480 
#    z 0.001860 -0.031480 1.887740 
# 
# From -- ./inp_files/199234.got.cif
#   From: 2010.05.17/outbox.cif.g08.bks.cpg/sg2_100_cif.got.tgz:199234.got - 2010.06.03 11:33:40.
