data_PCOD9008828
_publ_section_title
;
Structure prediction by ZEFSAII (Michael W. Deem and Ramdas Pophale) SiO2 
 PCOD9008828
Probable space group: P -1
;
_chemical_formula_sum "Si O2"
_cell_formula_units_Z 15
_cell_length_a 5.128013
_cell_length_b 8.873292
_cell_length_c 15.795204
_cell_angle_alpha 69.890017
_cell_angle_beta 118.157248
_cell_angle_gamma 83.898852
_cell_volume 562.861847
_symmetry_space_group_name_H-M "P -1"
_symmetry_group_IT_number 2
_symmetry_cell_setting 'triclinic'
loop_
_space_group_symop_operation_xyz
x,y,z
-x,-y,-z
loop_
_atom_site_type_symbol
_atom_site_label
_atom_site_fract_x
_atom_site_fract_y
_atom_site_fract_z
Si Si1 0.103830 0.903722 0.699643
Si Si2 0.255369 0.610580 0.664000
Si Si3 0.820092 0.197422 0.922993
Si Si4 0.932905 0.244523 0.114442
Si Si5 0.498364 0.885207 0.258817
Si Si6 0.618373 0.659826 0.480562
Si Si7 0.500000 0.000000 0.500000
Si Si8 0.026000 0.521780 0.192074
O O1 0.215712 0.804700 0.648169
O O2 0.252244 0.800794 0.826118
O O3 0.184049 0.074498 0.684311
O O4 0.740936 0.927649 0.630040
O O5 0.997292 0.606025 0.557384
O O6 0.165479 0.528700 0.752276
O O7 0.614430 0.527739 0.714022
O O8 0.532785 0.196530 0.819708
O O9 0.033186 0.288397 0.887631
O O10 0.759979 0.277093 0.992007
O O11 0.000000 0.000000 0.000000
O O12 0.018782 0.403418 0.132817
O O13 0.225468 0.069173 0.184536
O O14 0.485574 0.758113 0.354956
O O15 0.500000 0.500000 0.500000
O O16 0.522507 0.804703 0.511122
#
# Coordination Sequence:
#
# PCOD9008828 Si02
#       8
#     2   2   2   2   2   2   1   2
#     4  10  21  39  66 101 130 185 230 289 357 426
#     4  10  24  42  74 103 143 182 238 292 361 433
#     4  10  24  44  68  99 135 185 232 295 360 421
#     4  10  21  43  67  94 137 177 235 291 350 420
#     4  11  22  42  65  97 138 178 237 288 356 422
#     4  11  24  42  68 105 142 189 239 298 363 439
#     4  10  22  40  66  94 138 182 224 294 354 424
#     4  11  22  48  69 106 137 184 237 298 355 434
#
# _framework density 26.649521
#
# number of rings (size 3 to 8) (size 9 to 14) (size 15 to 20)
#    0.000    1.600    2.667    1.200    0.000    6.933 
#    9.600    4.000    0.000    0.000    0.000    0.000 
#    0.000    0.000    0.000    0.000    0.000    0.000 
#
# Total GULP energy -83716.506732 kJ/mol
# GULP energy per Si atom -5581.100449 kJ/mol
# Density = 2.658887 g / cm^3
# Si number density = 26.649521 Si / 1000 Ang^3
#
#
#
# Elastic Constant Matrix: (Units=GPa)
#
#
# Indices 1 2 3 4 5 6 
#
# 1 74.2417 40.0956 32.5948 10.6472 -2.3221 17.6818
# 2 40.0956 217.9461 78.7685 25.2086 -4.8482 25.8817
# 3 32.5948 78.7685 165.6628 38.4467 -20.5207 8.7489
# 4 10.6472 25.2086 38.4467 59.6693 0.8604 -6.7611
# 5 -2.3221 -4.8482 -20.5207 0.8604 26.6429 2.6330
# 6 17.6818 25.8817 8.7489 -6.7611 2.6330 39.6228
#
#
#
# Elastic Compliance Matrix: (Units=1/GPa)
#
#
# Indices 1 2 3 4 5 6 
#
# 1 0.016898 -0.001447 -0.001743 -0.002037 0.000584 -0.006597
# 2 -0.001447 0.006166 -0.002244 -0.001243 -0.000389 -0.003073
# 3 -0.001743 -0.002244 0.009591 -0.005162 0.007114 -0.001227
# 4 -0.002037 -0.001243 -0.005162 0.021847 -0.005774 0.006972
# 5 0.000584 -0.000389 0.007114 -0.005774 0.043720 -0.005468
# 6 -0.006597 -0.003073 -0.001227 0.006972 -0.005468 0.032013
#
#
# Mechanical properties :
#
#
# Convention : Reuss Voigt Hill
#
# Bulk Modulus (GPa) = 45.90292 84.52980 65.21636
# Shear Modulus (GPa) = 33.70086 45.61312 39.65699
#
# Velocity S-wave (km/s) = 3.55997 4.14163 3.86177
# Velocity P-wave (km/s) = 5.84465 7.39315 6.66403
#
# Compressibility (1/GPa) = 0.02178511
#
# Stress axis : x y z
#
# Youngs Moduli (GPa) = 59.17939 162.19114 104.26938
#
# Poissons Ratio (x) = 0.23462 0.18179
# Poissons Ratio (y) = 0.08561 0.23402
# Poissons Ratio (z) = 0.10317 0.36402
#
# Static dielectric constant tensor:
#      x y z
#    x 2.221370 -0.072380 0.093280 
#    y -0.072380 2.077570 -0.058310 
#    z 0.093280 -0.058310 2.249560 
# 
# From -- ./inp_files/547105.got.cif
#   From: 2010.05.17/outbox.cif.g08.bks.cpg/sg2_274_cif.got.tgz:547105.got - 2010.06.03 11:33:40.
