data_PCOD9008815
_publ_section_title
;
Structure prediction by ZEFSAII (Michael W. Deem and Ramdas Pophale) SiO2 
 PCOD9008815
Probable space group: P -1
;
_chemical_formula_sum "Si O2"
_cell_formula_units_Z 16
_cell_length_a 12.101228
_cell_length_b 13.867280
_cell_length_c 9.875185
_cell_angle_alpha 137.409762
_cell_angle_beta 115.825975
_cell_angle_gamma 97.300185
_cell_volume 684.384225
_symmetry_space_group_name_H-M "P -1"
_symmetry_group_IT_number 2
_symmetry_cell_setting 'triclinic'
loop_
_space_group_symop_operation_xyz
x,y,z
-x,-y,-z
loop_
_atom_site_type_symbol
_atom_site_label
_atom_site_fract_x
_atom_site_fract_y
_atom_site_fract_z
Si Si1 0.347009 0.314497 0.388601
Si Si2 0.290779 0.719111 0.789515
Si Si3 0.760484 0.849031 0.550812
Si Si4 0.419097 0.061296 0.605284
Si Si5 0.977598 0.135884 0.392978
Si Si6 0.955094 0.300709 0.816267
Si Si7 0.675681 0.446362 0.580684
Si Si8 0.957970 0.257393 0.238433
O O1 0.307179 0.297849 0.508330
O O2 0.528054 0.375166 0.533698
O O3 0.353441 0.468438 0.471279
O O4 0.192679 0.092696 0.998467
O O5 0.348540 0.731419 0.680556
O O6 0.231370 0.825790 0.913366
O O7 0.101191 0.473838 0.457878
O O8 0.445560 0.799185 0.054674
O O9 0.859684 0.838115 0.480722
O O10 0.610963 0.823584 0.380928
O O11 0.910355 0.079788 0.940246
O O12 0.221986 0.853013 0.343782
O O13 0.500000 0.000000 0.500000
O O14 0.928409 0.179502 0.544910
O O15 0.036388 0.290730 0.462633
O O16 0.126624 0.383498 0.073336
O O17 0.000000 0.500000 0.000000
#
# Coordination Sequence:
#
# PCOD9008815 Si02
#       8
#     2   2   2   2   2   2   2   2
#     4  10  23  43  68 102 136 179 228 283 330 410
#     4  11  22  39  68  95 135 176 226 270 342 393
#     4  11  23  44  70 101 139 176 229 280 340 400
#     4  12  27  45  70 100 140 178 225 280 340 406
#     4  11  23  42  70  97 135 177 229 274 347 393
#     4  12  29  46  69 101 141 180 225 284 340 401
#     4  11  24  43  68  98 140 179 231 276 340 399
#     4  10  21  39  66 100 130 177 222 281 327 408
#
# _framework density 23.378681
#
# number of rings (size 3 to 8) (size 9 to 14) (size 15 to 20)
#    0.000    1.000    1.250    6.000    5.250    4.000 
#    0.000    5.000    0.000    0.000    0.000    0.000 
#    0.000    0.000    0.000    0.000    0.000    0.000 
#
# Total GULP energy -89562.251095 kJ/mol
# GULP energy per Si atom -5597.640693 kJ/mol
# Density = 2.332547 g / cm^3
# Si number density = 23.378681 Si / 1000 Ang^3
#
#
#
# Elastic Constant Matrix: (Units=GPa)
#
#
# Indices 1 2 3 4 5 6 
#
# 1 169.4402 26.9910 42.1978 -6.9035 19.9367 22.3977
# 2 26.9910 48.2905 2.6388 -2.7652 6.5370 2.0496
# 3 42.1978 2.6388 65.4451 -18.4593 12.3918 6.4890
# 4 -6.9035 -2.7652 -18.4593 30.2921 -3.9537 3.7161
# 5 19.9367 6.5370 12.3918 -3.9537 41.1585 -7.3896
# 6 22.3977 2.0496 6.4890 3.7161 -7.3896 34.5061
#
#
#
# Elastic Compliance Matrix: (Units=1/GPa)
#
#
# Indices 1 2 3 4 5 6 
#
# 1 0.008705 -0.004019 -0.004614 -0.000984 -0.003204 -0.005124
# 2 -0.004019 0.023276 0.002862 0.002656 -0.002376 -0.000107
# 3 -0.004614 0.002862 0.023121 0.013179 -0.004621 -0.003932
# 4 -0.000984 0.002656 0.013179 0.041742 -0.001112 -0.006731
# 5 -0.003204 -0.002376 -0.004621 -0.001112 0.029209 0.009465
# 6 -0.005124 -0.000107 -0.003932 -0.006731 0.009465 0.035804
#
#
# Mechanical properties :
#
#
# Convention : Reuss Voigt Hill
#
# Bulk Modulus (GPa) = 22.95534 47.42566 35.19050
# Shear Modulus (GPa) = 26.60722 35.28121 30.94422
#
# Velocity S-wave (km/s) = 3.37723 3.88895 3.64209
# Velocity P-wave (km/s) = 5.00478 6.36358 5.72464
#
# Compressibility (1/GPa) = 0.04356285
#
# Stress axis : x y z
#
# Youngs Moduli (GPa) = 114.87378 42.96259 43.24980
#
# Poissons Ratio (x) = 0.17265 0.19954
# Poissons Ratio (y) = 0.46164 -0.12380
# Poissons Ratio (z) = 0.53000 -0.12298
#
# Static dielectric constant tensor:
#      x y z
#    x 1.928760 -0.029390 -0.006770 
#    y -0.029390 1.913890 0.029050 
#    z -0.006770 0.029050 1.854970 
# 
# From -- ./inp_files/274439.got.cif
#   From: 2010.05.17/outbox.cif.g08.bks.cpg/sg2_138_cif.got.tgz:274439.got - 2010.06.03 11:33:40.
