data_PCOD9008916
_publ_section_title
;
Structure prediction by ZEFSAII (Michael W. Deem and Ramdas Pophale) SiO2 
 PCOD9008916
Probable space group: P -1
;
_chemical_formula_sum "Si O2"
_cell_formula_units_Z 16
_cell_length_a 28.819437
_cell_length_b 5.110005
_cell_length_c 12.898003
_cell_angle_alpha 53.489386
_cell_angle_beta 153.725775
_cell_angle_gamma 124.162178
_cell_volume 673.711655
_symmetry_space_group_name_H-M "P -1"
_symmetry_group_IT_number 2
_symmetry_cell_setting 'triclinic'
loop_
_space_group_symop_operation_xyz
x,y,z
-x,-y,-z
loop_
_atom_site_type_symbol
_atom_site_label
_atom_site_fract_x
_atom_site_fract_y
_atom_site_fract_z
Si Si1 0.922812 0.682030 0.941484
Si Si2 0.571593 0.732518 0.160370
Si Si3 0.587477 0.419838 0.479687
Si Si4 0.890175 0.638088 0.532739
Si Si5 0.171882 0.195128 0.849072
Si Si6 0.788390 0.922424 0.449846
Si Si7 0.589823 0.657048 0.721003
Si Si8 0.192597 0.423626 0.056753
O O1 0.997667 0.392927 0.181056
O O2 0.846141 0.652965 0.696642
O O3 0.858513 0.733147 0.905595
O O4 0.000000 0.000000 0.000000
O O5 0.609194 0.518058 0.382286
O O6 0.667909 0.876819 0.250130
O O7 0.500000 0.500000 0.000000
O O8 0.500000 0.000000 0.000000
O O9 0.466640 0.462323 0.256962
O O10 0.681753 0.622006 0.683337
O O11 0.593374 0.042804 0.612022
O O12 0.899576 0.741584 0.407521
O O13 0.820833 0.864384 0.409926
O O14 0.832685 0.275776 0.495450
O O15 0.286980 0.398514 0.016904
O O16 0.138621 0.299337 0.871930
O O17 0.185415 0.810309 0.964413
O O18 0.500000 0.500000 0.500000
#
# Coordination Sequence:
#
# PCOD9008916 Si02
#       8
#     2   2   2   2   2   2   2   2
#     4  10  24  47  74  99 132 182 233 283 346 408
#     4  12  28  43  66 103 138 183 222 280 347 402
#     4  10  23  42  62  96 134 178 225 275 329 410
#     4  11  25  44  70 100 134 179 228 290 341 394
#     4  11  25  40  66 102 135 175 225 282 341 396
#     4  11  24  46  68  97 139 181 229 276 338 417
#     4  10  21  39  66  92 131 182 225 266 332 405
#     4  11  23  44  68  98 135 177 223 282 338 408
#
# _framework density 23.749034000000002
#
# number of rings (size 3 to 8) (size 9 to 14) (size 15 to 20)
#    0.000    1.250    2.500    1.875    5.250    5.000 
#    0.000    0.000    0.000    0.000    0.000    0.000 
#    0.000    0.000    0.000    0.000    0.000    0.000 
#
# Total GULP energy -89444.496213 kJ/mol
# GULP energy per Si atom -5590.281013 kJ/mol
# Density = 2.369498 g / cm^3
# Si number density = 23.749034 Si / 1000 Ang^3
#
#
#
# Elastic Constant Matrix: (Units=GPa)
#
#
# Indices 1 2 3 4 5 6 
#
# 1 106.9546 28.1463 12.8590 3.0085 2.4749 -3.4988
# 2 28.1463 71.7009 17.7502 12.4115 12.9568 -4.2061
# 3 12.8590 17.7502 70.4856 0.7796 -3.1435 1.9611
# 4 3.0085 12.4115 0.7796 15.3130 2.4882 -7.6038
# 5 2.4749 12.9568 -3.1435 2.4882 38.2311 7.8920
# 6 -3.4988 -4.2061 1.9611 -7.6038 7.8920 40.9784
#
#
#
# Elastic Compliance Matrix: (Units=1/GPa)
#
#
# Indices 1 2 3 4 5 6 
#
# 1 0.010540 -0.004252 -0.000873 0.001720 0.000421 0.000743
# 2 -0.004252 0.020315 -0.004472 -0.014156 -0.006158 0.000495
# 3 -0.000873 -0.004472 0.015633 0.001732 0.003065 -0.001551
# 4 0.001720 -0.014156 0.001732 0.084410 -0.003761 0.014998
# 5 0.000421 -0.006158 0.003065 -0.003761 0.030212 -0.007259
# 6 0.000743 0.000495 -0.001551 0.014998 -0.007259 0.028773
#
#
# Mechanical properties :
#
#
# Convention : Reuss Voigt Hill
#
# Bulk Modulus (GPa) = 36.63695 40.73910 38.68803
# Shear Modulus (GPa) = 22.91738 31.59688 27.25713
#
# Velocity S-wave (km/s) = 3.10979 3.65149 3.39147
# Velocity P-wave (km/s) = 5.32490 5.91347 5.62688
#
# Compressibility (1/GPa) = 0.02729485
#
# Stress axis : x y z
#
# Youngs Moduli (GPa) = 94.87880 49.22400 63.96534
#
# Poissons Ratio (x) = 0.20928 0.05585
# Poissons Ratio (y) = 0.40339 0.28606
# Poissons Ratio (z) = 0.08284 0.22014
#
# Static dielectric constant tensor:
#      x y z
#    x 1.950700 -0.018220 0.012770 
#    y -0.018220 1.862730 -0.021570 
#    z 0.012770 -0.021570 1.980840 
# 
# From -- ./inp_files/475888.got.cif
#   From: 2010.05.17/outbox.cif.g08.bks.cpg/sg2_238_cif.got.tgz:475888.got - 2010.06.03 11:33:40.
