data_PCOD9008102
_publ_section_title
;
Structure prediction by ZEFSAII (Michael W. Deem and Ramdas Pophale) SiO2 
 PCOD9008102
Probable space group: P -1
;
_chemical_formula_sum "Si O2"
_cell_formula_units_Z 16
_cell_length_a 7.013028
_cell_length_b 9.148525
_cell_length_c 14.405834
_cell_angle_alpha 105.979296
_cell_angle_beta 123.792112
_cell_angle_gamma 57.500443
_cell_volume 647.461876
_symmetry_space_group_name_H-M "P -1"
_symmetry_group_IT_number 2
_symmetry_cell_setting 'triclinic'
loop_
_space_group_symop_operation_xyz
x,y,z
-x,-y,-z
loop_
_atom_site_type_symbol
_atom_site_label
_atom_site_fract_x
_atom_site_fract_y
_atom_site_fract_z
Si Si1 0.425203 0.205168 0.392210
Si Si2 0.381759 0.110025 0.751302
Si Si3 0.805141 0.832015 0.922074
Si Si4 0.997266 0.708223 0.450895
Si Si5 0.960460 0.157672 0.329787
Si Si6 0.100727 0.939477 0.155417
Si Si7 0.630565 0.585432 0.767906
Si Si8 0.546157 0.640460 0.403661
O O1 0.365191 0.345084 0.321774
O O2 0.580947 0.218487 0.524709
O O3 0.153838 0.230517 0.364288
O O4 0.554103 0.025159 0.340643
O O5 0.084962 0.242029 0.669981
O O6 0.593737 0.177121 0.809725
O O7 0.501406 0.981356 0.848909
O O8 0.815662 0.646523 0.882563
O O9 0.946899 0.885137 0.886227
O O10 0.925343 0.863713 0.052291
O O11 0.752352 0.680387 0.412071
O O12 0.019778 0.842955 0.552763
O O13 0.260113 0.532819 0.514961
O O14 0.661824 0.294064 0.250946
O O15 0.050215 0.993593 0.258171
O O16 0.635047 0.404167 0.719243
#
# Coordination Sequence:
#
# PCOD9008102 Si02
#       8
#     2   2   2   2   2   2   2   2
#     4   9  17  31  46  69  98 129 161 191 232 289
#     4   8  15  29  52  72  95 126 160 202 241 275
#     4   8  16  30  48  72  94 124 165 202 240 280
#     4   9  17  30  46  75 103 125 161 194 235 298
#     4   9  17  27  45  72  99 122 153 193 242 277
#     4   8  15  30  48  71  95 125 159 204 246 276
#     4  10  17  29  47  71  95 126 164 197 234 287
#     4   9  18  28  44  69 104 135 155 187 238 293
#
# _framework density 24.711881999999999
#
# number of rings (size 3 to 8) (size 9 to 14) (size 15 to 20)
#    0.750    2.500    1.250    1.125    0.000    5.000 
#    0.000   10.000    0.000    6.750    0.000   42.875 
#    0.000    0.000    0.000    0.000    0.000    0.000 
#
# Total GULP energy -89116.150337 kJ/mol
# GULP energy per Si atom -5569.759396 kJ/mol
# Density = 2.465564 g / cm^3
# Si number density = 24.711882 Si / 1000 Ang^3
#
#
#
# Elastic Constant Matrix: (Units=GPa)
#
#
# Indices 1 2 3 4 5 6 
#
# 1 76.9312 15.0259 21.6105 13.1409 18.7751 10.7881
# 2 15.0259 51.2670 36.4886 11.9368 7.6218 8.3602
# 3 21.6105 36.4886 179.1579 28.0761 26.4509 11.5377
# 4 13.1409 11.9368 28.0761 41.0388 15.9008 9.4009
# 5 18.7751 7.6218 26.4509 15.9008 32.2031 7.3618
# 6 10.7881 8.3602 11.5377 9.4009 7.3618 21.8537
#
#
#
# Elastic Compliance Matrix: (Units=1/GPa)
#
#
# Indices 1 2 3 4 5 6 
#
# 1 0.016038 -0.002866 0.000111 -0.000500 -0.007576 -0.004112
# 2 -0.002866 0.024535 -0.004138 -0.002940 0.001894 -0.005160
# 3 0.000111 -0.004138 0.007364 -0.002323 -0.003983 -0.000019
# 4 -0.000500 -0.002940 -0.002323 0.033314 -0.011779 -0.007765
# 5 -0.007576 0.001894 -0.003983 -0.011779 0.045267 -0.005064
# 6 -0.004112 -0.005160 -0.000019 -0.007765 -0.005064 0.054819
#
#
# Mechanical properties :
#
#
# Convention : Reuss Voigt Hill
#
# Bulk Modulus (GPa) = 29.28137 50.40068 39.84103
# Shear Modulus (GPa) = 24.21211 34.63453 29.42332
#
# Velocity S-wave (km/s) = 3.13353 3.74777 3.45433
# Velocity P-wave (km/s) = 4.99669 6.25838 5.66278
#
# Compressibility (1/GPa) = 0.03415141
#
# Stress axis : x y z
#
# Youngs Moduli (GPa) = 62.35032 40.75765 135.79031
#
# Poissons Ratio (x) = 0.11682 -0.01507
# Poissons Ratio (y) = 0.17871 0.56190
# Poissons Ratio (z) = -0.00692 0.16865
#
# Static dielectric constant tensor:
#      x y z
#    x 2.014470 0.025790 0.013070 
#    y 0.025790 2.076250 -0.011930 
#    z 0.013070 -0.011930 1.977980 
# 
# From -- ./inp_files/558019.got.cif
#   From: 2010.05.17/outbox.cif.g08.bks.cpg/sg2_280_cif.got.tgz:558019.got - 2010.06.03 11:33:40.
