data_PCOD9008788
_publ_section_title
;
Structure prediction by ZEFSAII (Michael W. Deem and Ramdas Pophale) SiO2 
 PCOD9008788
Probable space group: P -1
;
_chemical_formula_sum "Si O2"
_cell_formula_units_Z 16
_cell_length_a 9.769044
_cell_length_b 9.237032
_cell_length_c 10.060079
_cell_angle_alpha 76.695190
_cell_angle_beta 133.685897
_cell_angle_gamma 112.032271
_cell_volume 607.949552
_symmetry_space_group_name_H-M "P -1"
_symmetry_group_IT_number 2
_symmetry_cell_setting 'triclinic'
loop_
_space_group_symop_operation_xyz
x,y,z
-x,-y,-z
loop_
_atom_site_type_symbol
_atom_site_label
_atom_site_fract_x
_atom_site_fract_y
_atom_site_fract_z
Si Si1 0.972656 0.646184 0.063383
Si Si2 0.395601 0.578113 0.021423
Si Si3 0.439722 0.184835 0.490633
Si Si4 0.064063 0.653908 0.603330
Si Si5 0.823160 0.612401 0.699956
Si Si6 0.591344 0.107377 0.341378
Si Si7 0.981627 0.050171 0.824592
Si Si8 0.627880 0.890916 0.061800
O O1 0.740094 0.537129 0.938001
O O2 0.993902 0.768151 0.169789
O O3 0.136293 0.555782 0.215465
O O4 0.975249 0.704911 0.900606
O O5 0.225074 0.627144 0.819709
O O6 0.562996 0.736337 0.141028
O O7 0.500000 0.500000 0.000000
O O8 0.377834 0.339649 0.433373
O O9 0.571811 0.189323 0.449282
O O10 0.499793 0.082040 0.667312
O O11 0.232642 0.052091 0.343788
O O12 0.184502 0.814347 0.577294
O O13 0.000000 0.500000 0.500000
O O14 0.891350 0.660856 0.584997
O O15 0.449204 0.155971 0.130724
O O16 0.140429 0.037536 0.823593
O O17 0.000000 0.000000 0.000000
O O18 0.500000 0.000000 0.000000
#
# Coordination Sequence:
#
# PCOD9008788 Si02
#       8
#     2   2   2   2   2   2   2   2
#     4  10  21  39  65  98 128 166 214 272 321 382
#     4  10  21  40  65  93 127 169 206 266 331 374
#     4  11  24  43  67  96 128 178 216 272 327 386
#     4  10  24  43  65  92 129 173 215 261 328 395
#     4  10  22  40  66  94 127 163 219 268 320 380
#     4  10  24  45  65  90 139 172 211 273 334 381
#     4  12  22  38  71  94 129 173 224 258 327 394
#     4  11  24  41  65 101 132 165 219 275 317 387
#
# _framework density 26.317974
#
# number of rings (size 3 to 8) (size 9 to 14) (size 15 to 20)
#    0.000    1.500    3.750    0.000   10.500    0.500 
#    2.250    0.625    0.000    0.000    0.000    0.000 
#    0.000    0.000    0.000    0.000    0.000    0.000 
#
# Total GULP energy -89400.145847 kJ/mol
# GULP energy per Si atom -5587.509115 kJ/mol
# Density = 2.625807 g / cm^3
# Si number density = 26.317974 Si / 1000 Ang^3
#
#
#
# Elastic Constant Matrix: (Units=GPa)
#
#
# Indices 1 2 3 4 5 6 
#
# 1 153.7057 54.0552 16.4918 -2.5351 -4.3399 -25.5547
# 2 54.0552 111.2710 -7.7574 -10.9604 -3.0064 -14.6093
# 3 16.4918 -7.7574 46.8861 -11.1712 -5.5835 10.2343
# 4 -2.5351 -10.9604 -11.1712 37.2999 -5.2376 8.8223
# 5 -4.3399 -3.0064 -5.5835 -5.2376 30.5031 -6.4513
# 6 -25.5547 -14.6093 10.2343 8.8223 -6.4513 46.6370
#
#
#
# Elastic Compliance Matrix: (Units=1/GPa)
#
#
# Indices 1 2 3 4 5 6 
#
# 1 0.009881 -0.004848 -0.006570 -0.004134 0.000319 0.006164
# 2 -0.004848 0.012218 0.005438 0.005381 0.002281 -0.000725
# 3 -0.006570 0.005438 0.030690 0.013566 0.005336 -0.010459
# 4 -0.004134 0.005381 0.013566 0.035295 0.006512 -0.009332
# 5 0.000319 0.002281 0.005336 0.006512 0.035878 0.003449
# 6 0.006164 -0.000725 -0.010459 -0.009332 0.003449 0.029130
#
#
# Mechanical properties :
#
#
# Convention : Reuss Voigt Hill
#
# Bulk Modulus (GPa) = 24.49138 48.60467 36.54802
# Shear Modulus (GPa) = 27.98597 39.49287 33.73942
#
# Velocity S-wave (km/s) = 3.26449 3.87797 3.58438
# Velocity P-wave (km/s) = 4.85132 6.20966 5.57203
#
# Compressibility (1/GPa) = 0.04083069
#
# Stress axis : x y z
#
# Youngs Moduli (GPa) = 101.20142 81.84873 32.58395
#
# Poissons Ratio (x) = 0.39677 0.21408
# Poissons Ratio (y) = 0.49058 -0.17721
# Poissons Ratio (z) = 0.66489 -0.44513
#
# Static dielectric constant tensor:
#      x y z
#    x 2.155860 0.071030 0.001890 
#    y 0.071030 2.468570 -0.107010 
#    z 0.001890 -0.107010 2.093820 
# 
# From -- ./inp_files/379315.got.cif
#   From: 2010.05.17/outbox.cif.g08.bks.cpg/sg2_190_cif.got.tgz:379315.got - 2010.06.03 11:33:40.
