data_PCOD9008777
_publ_section_title
;
Structure prediction by ZEFSAII (Michael W. Deem and Ramdas Pophale) SiO2 
 PCOD9008777
Probable space group: P -1
;
_chemical_formula_sum "Si O2"
_cell_formula_units_Z 14
_cell_length_a 17.170449
_cell_length_b 11.538770
_cell_length_c 15.307269
_cell_angle_alpha 25.263748
_cell_angle_beta 28.096027
_cell_angle_gamma 29.101938
_cell_volume 564.348841
_symmetry_space_group_name_H-M "P -1"
_symmetry_group_IT_number 2
_symmetry_cell_setting 'triclinic'
loop_
_space_group_symop_operation_xyz
x,y,z
-x,-y,-z
loop_
_atom_site_type_symbol
_atom_site_label
_atom_site_fract_x
_atom_site_fract_y
_atom_site_fract_z
Si Si1 0.081218 0.667524 0.110818
Si Si2 0.350715 0.647056 0.476110
Si Si3 0.664120 0.737928 0.729793
Si Si4 0.042536 0.470877 0.847044
Si Si5 0.992650 0.953919 0.686207
Si Si6 0.572489 0.349302 0.319065
Si Si7 0.643346 0.452629 0.760874
O O1 0.157262 0.447537 0.266622
O O2 0.959875 0.598027 0.205108
O O3 0.252133 0.634260 0.906196
O O4 0.000000 0.000000 0.000000
O O5 0.500000 0.500000 0.500000
O O6 0.240509 0.440002 0.702121
O O7 0.189220 0.934164 0.475612
O O8 0.456735 0.643422 0.285446
O O9 0.677439 0.593029 0.719970
O O10 0.627432 0.073125 0.517138
O O11 0.494973 0.703239 0.969646
O O12 0.171018 0.766516 0.312038
O O13 0.977500 0.264522 0.111915
O O14 0.935908 0.800436 0.763938
O O15 0.455697 0.321711 0.371434
#
# Coordination Sequence:
#
# PCOD9008777 Si02
#       7
#     2   2   2   2   2   2   2
#     4  11  24  44  69 100 139 186 226 275 346 411
#     4  10  21  39  65  97 135 174 224 284 336 403
#     4  10  23  41  67 102 138 180 230 288 335 406
#     4   9  20  39  66  99 135 181 223 280 343 403
#     4   9  19  38  69  95 134 187 220 280 345 405
#     4  11  24  41  66 101 135 175 231 286 335 407
#     4  10  21  42  68  98 138 185 228 280 351 400
#
# _framework density 24.807352000000002
#
# number of rings (size 3 to 8) (size 9 to 14) (size 15 to 20)
#    0.857    1.143    0.000    3.000    0.000    4.571 
#    2.571    2.857    0.000    0.000    0.000    0.000 
#    0.000    0.000    0.000    0.000    0.000    0.000 
#
# Total GULP energy -78268.096289 kJ/mol
# GULP energy per Si atom -5590.578306 kJ/mol
# Density = 2.475089 g / cm^3
# Si number density = 24.807352 Si / 1000 Ang^3
#
#
#
# Elastic Constant Matrix: (Units=GPa)
#
#
# Indices 1 2 3 4 5 6 
#
# 1 204.7936 52.6947 33.0256 -1.9768 15.0591 -2.7450
# 2 52.6947 120.5677 44.7694 16.3491 -0.9187 -0.6691
# 3 33.0256 44.7694 68.4420 10.0797 17.7119 -2.9918
# 4 -1.9768 16.3491 10.0797 37.7223 -9.7671 5.9951
# 5 15.0591 -0.9187 17.7119 -9.7671 36.5676 -1.0863
# 6 -2.7450 -0.6691 -2.9918 5.9951 -1.0863 36.4398
#
#
#
# Elastic Compliance Matrix: (Units=1/GPa)
#
#
# Indices 1 2 3 4 5 6 
#
# 1 0.005774 -0.002314 -0.001013 0.001141 -0.001638 0.000073
# 2 -0.002314 0.012606 -0.007969 -0.002271 0.004520 -0.000089
# 3 -0.001013 -0.007969 0.025070 -0.007287 -0.013794 0.002623
# 4 0.001141 -0.002271 -0.007287 0.033455 0.011769 -0.005707
# 5 -0.001638 0.004520 -0.013794 0.011769 0.037901 -0.001979
# 6 0.000073 -0.000089 0.002623 -0.005707 -0.001979 0.028542
#
#
# Mechanical properties :
#
#
# Convention : Reuss Voigt Hill
#
# Bulk Modulus (GPa) = 47.94222 72.75361 60.34791
# Shear Modulus (GPa) = 28.91962 39.70018 34.30990
#
# Velocity S-wave (km/s) = 3.41804 4.00476 3.72298
# Velocity P-wave (km/s) = 5.91144 7.12568 6.54677
#
# Compressibility (1/GPa) = 0.02085844
#
# Stress axis : x y z
#
# Youngs Moduli (GPa) = 173.18155 79.32526 39.88856
#
# Poissons Ratio (x) = 0.18357 0.04042
# Poissons Ratio (y) = 0.40077 0.31785
# Poissons Ratio (z) = 0.17549 0.63211
#
# Static dielectric constant tensor:
#      x y z
#    x 2.032080 0.014470 -0.067340 
#    y 0.014470 1.982980 -0.029530 
#    z -0.067340 -0.029530 2.037870 
# 
# From -- ./inp_files/538143.got.cif
#   From: 2010.05.17/outbox.cif.g08.bks.cpg/sg2_270_cif.got.tgz:538143.got - 2010.06.03 11:33:40.
