data_PCOD9008465
_publ_section_title
;
Structure prediction by ZEFSAII (Michael W. Deem and Ramdas Pophale) SiO2 
 PCOD9008465
Probable space group: P -1
;
_chemical_formula_sum "Si O2"
_cell_formula_units_Z 14
_cell_length_a 14.571138
_cell_length_b 11.220579
_cell_length_c 14.537133
_cell_angle_alpha 50.053907
_cell_angle_beta 20.349383
_cell_angle_gamma 54.064012
_cell_volume 632.622275
_symmetry_space_group_name_H-M "P -1"
_symmetry_group_IT_number 2
_symmetry_cell_setting 'triclinic'
loop_
_space_group_symop_operation_xyz
x,y,z
-x,-y,-z
loop_
_atom_site_type_symbol
_atom_site_label
_atom_site_fract_x
_atom_site_fract_y
_atom_site_fract_z
Si Si1 0.598543 0.343389 0.225184
Si Si2 0.342782 0.531612 0.225149
Si Si3 0.325498 0.057095 0.265582
Si Si4 0.974845 0.763962 0.394178
Si Si5 0.785596 0.855618 0.880519
Si Si6 0.720992 0.521245 0.203996
Si Si7 0.052031 0.150109 0.814347
O O1 0.515515 0.491928 0.170022
O O2 0.653361 0.394172 0.251999
O O3 0.355828 0.214733 0.506688
O O4 0.858187 0.276798 0.971281
O O5 0.119370 0.390648 0.498490
O O6 0.210143 0.696266 0.266171
O O7 0.500000 0.500000 0.000000
O O8 0.249070 0.175143 0.359215
O O9 0.296026 0.136801 0.153990
O O10 0.089660 0.921385 0.563642
O O11 0.601629 0.975467 0.046363
O O12 0.023498 0.882385 0.205653
O O13 0.737448 0.688706 0.055045
O O14 0.500000 0.500000 0.500000
O O15 0.000000 0.500000 0.000000
O O16 0.000000 0.000000 0.000000
#
# Coordination Sequence:
#
# PCOD9008465 Si02
#       7
#     2   2   2   2   2   2   2
#     4  11  25  44  69  95 133 179 220 281 339 382
#     4  10  21  39  64  99 132 161 218 272 333 405
#     4  10  23  41  67  95 130 175 213 285 342 394
#     4  10  23  37  64  99 131 172 217 264 341 407
#     4  10  24  43  63  95 131 168 232 279 336 388
#     4  12  27  46  70  97 132 183 239 281 332 404
#     4  11  24  43  65 100 139 176 216 267 332 419
#
# _framework density 22.130109999999998
#
# number of rings (size 3 to 8) (size 9 to 14) (size 15 to 20)
#    0.000    1.429    1.429    2.143    4.000    6.857 
#    0.000    0.000    0.000    0.000    0.000    0.000 
#    0.000    0.000    0.000    0.000    0.000    0.000 
#
# Total GULP energy -78288.129037 kJ/mol
# GULP energy per Si atom -5592.009217 kJ/mol
# Density = 2.207974 g / cm^3
# Si number density = 22.130110 Si / 1000 Ang^3
#
#
#
# Elastic Constant Matrix: (Units=GPa)
#
#
# Indices 1 2 3 4 5 6 
#
# 1 123.9927 29.0226 24.1447 11.3631 27.9358 -4.6385
# 2 29.0226 84.4528 19.3058 -0.7222 23.9411 -10.0408
# 3 24.1447 19.3058 100.4479 7.4202 32.3403 -7.9260
# 4 11.3631 -0.7222 7.4202 45.3358 3.5979 9.0953
# 5 27.9358 23.9411 32.3403 3.5979 39.3357 -0.9708
# 6 -4.6385 -10.0408 -7.9260 9.0953 -0.9708 36.8502
#
#
#
# Elastic Compliance Matrix: (Units=1/GPa)
#
#
# Indices 1 2 3 4 5 6 
#
# 1 0.010036 -0.001654 0.000094 -0.002336 -0.005953 0.001253
# 2 -0.001654 0.015112 0.000425 0.000513 -0.008330 0.003655
# 3 0.000094 0.000425 0.013987 -0.002059 -0.011554 0.003340
# 4 -0.002336 0.000513 -0.002059 0.024253 0.000659 -0.006566
# 5 -0.005953 -0.008330 -0.011554 0.000659 0.044048 -0.004506
# 6 0.001253 0.003655 0.003340 -0.006566 -0.004506 0.030511
#
#
# Mechanical properties :
#
#
# Convention : Reuss Voigt Hill
#
# Bulk Modulus (GPa) = 27.12557 50.42663 38.77610
# Shear Modulus (GPa) = 32.78584 40.06569 36.42576
#
# Velocity S-wave (km/s) = 3.85321 4.25957 4.06147
# Velocity P-wave (km/s) = 5.66394 6.85768 6.28920
#
# Compressibility (1/GPa) = 0.03686559
#
# Stress axis : x y z
#
# Youngs Moduli (GPa) = 99.64046 66.17108 71.49650
#
# Poissons Ratio (x) = 0.10943 -0.00669
# Poissons Ratio (y) = 0.16478 -0.03041
# Poissons Ratio (z) = -0.00933 -0.02814
#
# Static dielectric constant tensor:
#      x y z
#    x 1.832470 -0.023780 -0.032650 
#    y -0.023780 1.897650 -0.095810 
#    z -0.032650 -0.095810 1.861490 
# 
# From -- ./inp_files/531691.got.cif
#   From: 2010.05.17/outbox.cif.g08.bks.cpg/sg2_266_cif.got.tgz:531691.got - 2010.06.03 11:33:40.
