data_PCOD9008457
_publ_section_title
;
Structure prediction by ZEFSAII (Michael W. Deem and Ramdas Pophale) SiO2 
 PCOD9008457
Probable space group: P -1
;
_chemical_formula_sum "Si O2"
_cell_formula_units_Z 16
_cell_length_a 5.212411
_cell_length_b 23.480360
_cell_length_c 11.106682
_cell_angle_alpha 32.964078
_cell_angle_beta 80.803219
_cell_angle_gamma 68.527443
_cell_volume 658.530735
_symmetry_space_group_name_H-M "P -1"
_symmetry_group_IT_number 2
_symmetry_cell_setting 'triclinic'
loop_
_space_group_symop_operation_xyz
x,y,z
-x,-y,-z
loop_
_atom_site_type_symbol
_atom_site_label
_atom_site_fract_x
_atom_site_fract_y
_atom_site_fract_z
Si Si1 0.874599 0.366836 0.641288
Si Si2 0.682520 0.759343 0.680687
Si Si3 0.638137 0.537118 0.056224
Si Si4 0.802313 0.895490 0.007343
Si Si5 0.307550 0.972065 0.470649
Si Si6 0.669917 0.113652 0.762115
Si Si7 0.209370 0.691006 0.631890
Si Si8 0.242949 0.509460 0.332473
O O1 0.538322 0.421873 0.532966
O O2 0.895701 0.381904 0.757737
O O3 0.037390 0.444510 0.445026
O O4 0.009330 0.238336 0.804204
O O5 0.482175 0.838613 0.657565
O O6 0.522988 0.816376 0.464586
O O7 0.993507 0.756131 0.640698
O O8 0.744989 0.627940 0.938196
O O9 0.867656 0.403628 0.261654
O O10 0.376425 0.539244 0.151956
O O11 0.508829 0.601449 0.825369
O O12 0.718039 0.956871 0.775376
O O13 0.881903 0.988364 0.912854
O O14 0.534181 0.899318 0.098735
O O15 0.500000 0.000000 0.500000
O O16 0.000000 0.000000 0.500000
O O17 0.784081 0.207386 0.628141
#
# Coordination Sequence:
#
# PCOD9008457 Si02
#       8
#     2   2   2   2   2   2   2   2
#     4  10  23  42  63  94 131 170 229 269 327 392
#     4  10  23  40  67  98 136 176 230 281 337 405
#     4  10  22  37  64  95 133 178 220 273 348 392
#     4  10  22  44  71  95 134 181 222 279 348 395
#     4  11  28  48  70 102 138 178 229 282 334 410
#     4   9  21  43  64 102 132 171 230 281 336 407
#     4  10  21  39  64  98 134 171 226 277 340 403
#     4  10  23  41  62  95 130 174 221 278 320 395
#
# _framework density 24.296510000000001
#
# number of rings (size 3 to 8) (size 9 to 14) (size 15 to 20)
#    0.000    2.000    0.000    1.125   10.500    1.000 
#    6.750    1.875    0.000    0.000    0.000    0.000 
#    0.000    0.000    0.000    0.000    0.000    0.000 
#
# Total GULP energy -89356.355291 kJ/mol
# GULP energy per Si atom -5584.772206 kJ/mol
# Density = 2.424121 g / cm^3
# Si number density = 24.296510 Si / 1000 Ang^3
#
#
#
# Elastic Constant Matrix: (Units=GPa)
#
#
# Indices 1 2 3 4 5 6 
#
# 1 75.3475 41.8611 20.5950 -14.5590 -17.3424 -10.6302
# 2 41.8611 181.6364 69.6544 -19.6143 -14.7391 -7.8074
# 3 20.5950 69.6544 141.5571 -26.1153 -16.4986 0.3023
# 4 -14.5590 -19.6143 -26.1153 49.3107 -2.8775 -1.5418
# 5 -17.3424 -14.7391 -16.4986 -2.8775 33.7788 6.7619
# 6 -10.6302 -7.8074 0.3023 -1.5418 6.7619 34.3494
#
#
#
# Elastic Compliance Matrix: (Units=1/GPa)
#
#
# Indices 1 2 3 4 5 6 
#
# 1 0.018131 -0.003117 0.000767 0.005100 0.008049 0.003540
# 2 -0.003117 0.007519 -0.003170 0.000417 0.000010 0.000789
# 3 0.000767 -0.003170 0.009845 0.004400 0.004444 -0.001247
# 4 0.005100 0.000417 0.004400 0.024721 0.006773 0.001411
# 5 0.008049 0.000010 0.004444 0.006773 0.037411 -0.004606
# 6 0.003540 0.000789 -0.001247 0.001411 -0.004606 0.031369
#
#
# Mechanical properties :
#
#
# Convention : Reuss Voigt Hill
#
# Bulk Modulus (GPa) = 40.88927 73.64023 57.26475
# Shear Modulus (GPa) = 33.74114 41.24980 37.49547
#
# Velocity S-wave (km/s) = 3.73060 4.12487 3.93268
# Velocity P-wave (km/s) = 5.95167 7.28428 6.65143
#
# Compressibility (1/GPa) = 0.02445630
#
# Stress axis : x y z
#
# Youngs Moduli (GPa) = 55.15291 132.99213 101.57684
#
# Poissons Ratio (x) = 0.41451 -0.07794
# Poissons Ratio (y) = 0.17190 0.32200
# Poissons Ratio (z) = -0.04232 0.42159
#
# Static dielectric constant tensor:
#      x y z
#    x 2.118240 0.135360 0.049160 
#    y 0.135360 2.019640 -0.011700 
#    z 0.049160 -0.011700 1.953210 
# 
# From -- ./inp_files/370967.got.cif
#   From: 2010.05.17/outbox.cif.g08.bks.cpg/sg2_186_cif.got.tgz:370967.got - 2010.06.03 11:33:40.
