data_PCOD9008718
_publ_section_title
;
Structure prediction by ZEFSAII (Michael W. Deem and Ramdas Pophale) SiO2 
 PCOD9008718
Probable space group: P -1
;
_chemical_formula_sum "Si O2"
_cell_formula_units_Z 14
_cell_length_a 18.517206
_cell_length_b 9.070088
_cell_length_c 5.081492
_cell_angle_alpha 55.996840
_cell_angle_beta 114.999616
_cell_angle_gamma 124.419438
_cell_volume 576.523890
_symmetry_space_group_name_H-M "P -1"
_symmetry_group_IT_number 2
_symmetry_cell_setting 'triclinic'
loop_
_space_group_symop_operation_xyz
x,y,z
-x,-y,-z
loop_
_atom_site_type_symbol
_atom_site_label
_atom_site_fract_x
_atom_site_fract_y
_atom_site_fract_z
Si Si1 0.166139 0.613333 0.682778
Si Si2 0.564579 0.528355 0.822106
Si Si3 0.205427 0.185673 0.582079
Si Si4 0.282608 0.033810 0.480535
Si Si5 0.091528 0.187367 0.902859
Si Si6 0.405799 0.835581 0.954885
Si Si7 0.270976 0.602448 0.364791
O O1 0.233100 0.588157 0.606403
O O2 0.188199 0.844735 0.431755
O O3 0.083926 0.397722 0.708572
O O4 0.196791 0.602774 0.039520
O O5 0.500000 0.500000 0.500000
O O6 0.655578 0.738972 0.744836
O O7 0.591193 0.347078 0.011994
O O8 0.500000 0.500000 0.000000
O O9 0.255178 0.052678 0.722979
O O10 0.158028 0.189507 0.231779
O O11 0.280191 0.403278 0.527728
O O12 0.134210 0.155081 0.730051
O O13 0.349958 0.939099 0.638051
O O14 0.000000 0.000000 0.000000
O O15 0.360059 0.770801 0.233824
O O16 0.500000 0.000000 0.000000
#
# Coordination Sequence:
#
# PCOD9008718 Si02
#       7
#     2   2   2   2   2   2   2
#     4   9  21  36  63  90 122 165 207 251 326 375
#     4  12  28  45  64  96 132 175 227 281 329 374
#     4  10  21  39  65  95 128 172 212 259 328 390
#     4  11  24  44  67  96 135 173 225 275 320 398
#     4  10  21  42  68  98 132 165 209 267 327 396
#     4  11  23  42  66  94 132 173 225 276 332 367
#     4   9  19  38  57  87 122 165 210 258 306 386
#
# _framework density 24.283467000000002
#
# number of rings (size 3 to 8) (size 9 to 14) (size 15 to 20)
#    0.000    1.714    2.857    0.429    2.000    6.286 
#    0.000    1.429    0.000    0.000    0.000    0.000 
#    0.000    0.000    0.000    0.000    0.000    0.000 
#
# Total GULP energy -77970.631015 kJ/mol
# GULP energy per Si atom -5569.330787 kJ/mol
# Density = 2.422820 g / cm^3
# Si number density = 24.283467 Si / 1000 Ang^3
#
#
#
# Elastic Constant Matrix: (Units=GPa)
#
#
# Indices 1 2 3 4 5 6 
#
# 1 52.7466 34.2029 20.5447 -17.5671 -25.1994 -15.1257
# 2 34.2029 169.6139 25.6143 -56.4994 -15.6942 -7.5531
# 3 20.5447 25.6143 74.1422 -1.1711 -16.4037 -14.0245
# 4 -17.5671 -56.4994 -1.1711 55.0512 -1.3844 -8.8748
# 5 -25.1994 -15.6942 -16.4037 -1.3844 39.3850 -14.9632
# 6 -15.1257 -7.5531 -14.0245 -8.8748 -14.9632 58.0980
#
#
#
# Elastic Compliance Matrix: (Units=1/GPa)
#
#
# Indices 1 2 3 4 5 6 
#
# 1 0.068964 0.005588 0.001369 0.035970 0.063732 0.040921
# 2 0.005588 0.011266 -0.001330 0.014831 0.010951 0.007684
# 3 0.001369 -0.001330 0.017186 0.000839 0.010229 0.007095
# 4 0.035970 0.014831 0.000839 0.050823 0.042540 0.030215
# 5 0.063732 0.010951 0.010229 0.042540 0.095925 0.051689
# 6 0.040921 0.007684 0.007095 0.030215 0.051689 0.048506
#
#
# Mechanical properties :
#
#
# Convention : Reuss Voigt Hill
#
# Bulk Modulus (GPa) = 9.20220 50.80299 30.00259
# Shear Modulus (GPa) = 15.74117 44.91623 30.32870
#
# Velocity S-wave (km/s) = 2.54879 4.30544 3.53787
# Velocity P-wave (km/s) = 3.52980 6.75884 5.39173
#
# Compressibility (1/GPa) = 0.10866968
#
# Stress axis : x y z
#
# Youngs Moduli (GPa) = 14.50029 88.76643 58.18710
#
# Poissons Ratio (x) = -0.49601 -0.07964
# Poissons Ratio (y) = -0.08103 0.07736
# Poissons Ratio (z) = -0.01985 0.11802
#
# Static dielectric constant tensor:
#      x y z
#    x 1.922210 0.015580 0.076170 
#    y 0.015580 2.117440 -0.045010 
#    z 0.076170 -0.045010 2.097900 
# 
# From -- ./inp_files/106299.got.cif
#   From: 2010.05.17/outbox.cif.g08.bks.cpg/sg2_54_cif.got.tgz:106299.got - 2010.06.03 11:33:40.
