data_PCOD9008867
_publ_section_title
;
Structure prediction by ZEFSAII (Michael W. Deem and Ramdas Pophale) SiO2 
 PCOD9008867
Probable space group: P -1
;
_chemical_formula_sum "Si O2"
_cell_formula_units_Z 12
_cell_length_a 13.680699
_cell_length_b 14.133629
_cell_length_c 11.244401
_cell_angle_alpha 110.366778
_cell_angle_beta 58.530522
_cell_angle_gamma 158.906231
_cell_volume 595.008831
_symmetry_space_group_name_H-M "P -1"
_symmetry_group_IT_number 2
_symmetry_cell_setting 'triclinic'
loop_
_space_group_symop_operation_xyz
x,y,z
-x,-y,-z
loop_
_atom_site_type_symbol
_atom_site_label
_atom_site_fract_x
_atom_site_fract_y
_atom_site_fract_z
Si Si1 0.239024 0.246157 0.709549
Si Si2 0.085090 0.519801 0.582275
Si Si3 0.196012 0.922782 0.515514
Si Si4 0.374501 0.565479 0.633404
Si Si5 0.651245 0.613102 0.825353
Si Si6 0.881197 0.342808 0.887867
O O1 0.298580 0.407820 0.695264
O O2 0.521536 0.407261 0.541771
O O3 0.333250 0.328174 0.821609
O O4 0.875908 0.896270 0.767238
O O5 0.000000 0.500000 0.500000
O O6 0.925326 0.277624 0.559172
O O7 0.935826 0.441944 0.766979
O O8 0.478204 0.832464 0.502689
O O9 0.912576 0.738004 0.696015
O O10 0.303452 0.092772 0.419567
O O11 0.085670 0.407836 0.768816
O O12 0.500000 0.500000 0.000000
O O13 0.000000 0.500000 0.000000
O O14 0.500000 0.000000 0.000000
#
# Coordination Sequence:
#
# PCOD9008867 Si02
#       6
#     2   2   2   2   2   2
#     4  10  22  38  66  91 114 167 206 254 290 386
#     4  11  23  43  65  90 122 171 223 247 304 385
#     4  10  21  39  66  88 121 168 201 260 302 371
#     4   9  21  41  65  89 121 156 215 244 314 364
#     4  11  22  39  58  91 131 155 198 246 322 357
#     4  11  23  40  62  91 129 161 200 269 319 356
#
# _framework density 20.167767000000001
#
# number of rings (size 3 to 8) (size 9 to 14) (size 15 to 20)
#    0.000    1.667    0.000    6.000    0.000   11.333 
#    9.000    0.000    0.000    0.000    0.000    0.000 
#    0.000    0.000    0.000    0.000    0.000    0.000 
#
# Total GULP energy -66818.262757 kJ/mol
# GULP energy per Si atom -5568.188563 kJ/mol
# Density = 2.012186 g / cm^3
# Si number density = 20.167767 Si / 1000 Ang^3
#
#
#
# Elastic Constant Matrix: (Units=GPa)
#
#
# Indices 1 2 3 4 5 6 
#
# 1 58.6839 22.5161 30.3546 17.1042 4.7457 -18.6656
# 2 22.5161 115.9746 26.0994 17.3813 -5.6745 -2.6383
# 3 30.3546 26.0994 126.4624 9.2705 8.8479 -7.4273
# 4 17.1042 17.3813 9.2705 36.1720 4.6398 2.5279
# 5 4.7457 -5.6745 8.8479 4.6398 24.4855 7.8278
# 6 -18.6656 -2.6383 -7.4273 2.5279 7.8278 24.1324
#
#
#
# Elastic Compliance Matrix: (Units=1/GPa)
#
#
# Indices 1 2 3 4 5 6 
#
# 1 0.036451 -0.003922 -0.003940 -0.014806 -0.014201 0.032710
# 2 -0.003922 0.010404 -0.001590 -0.003184 0.005584 -0.003863
# 3 -0.003940 -0.001590 0.009412 0.000595 -0.003342 0.000697
# 4 -0.014806 -0.003184 0.000595 0.037127 -0.000180 -0.015448
# 5 -0.014201 0.005584 -0.003342 -0.000180 0.055526 -0.029394
# 6 0.032710 -0.003863 0.000697 -0.015448 -0.029394 0.077683
#
#
# Mechanical properties :
#
#
# Convention : Reuss Voigt Hill
#
# Bulk Modulus (GPa) = 26.76356 51.00680 38.88518
# Shear Modulus (GPa) = 19.38268 31.76804 25.57536
#
# Velocity S-wave (km/s) = 3.10348 3.97317 3.56495
# Velocity P-wave (km/s) = 5.11287 6.81133 6.02228
#
# Compressibility (1/GPa) = 0.03736424
#
# Stress axis : x y z
#
# Youngs Moduli (GPa) = 27.43405 96.11372 106.24174
#
# Poissons Ratio (x) = 0.37695 0.41857
# Poissons Ratio (y) = 0.10759 0.16893
# Poissons Ratio (z) = 0.10809 0.15283
#
# Static dielectric constant tensor:
#      x y z
#    x 1.795970 0.019350 0.020560 
#    y 0.019350 1.759790 0.007680 
#    z 0.020560 0.007680 1.704840 
# 
# From -- ./inp_files/95353.got.cif
#   From: 2010.05.17/outbox.cif.g08.bks.cpg/sg2_48_cif.got.tgz:95353.got - 2010.06.03 11:33:40.
