data_PCOD9008033
_publ_section_title
;
Structure prediction by ZEFSAII (Michael W. Deem and Ramdas Pophale) SiO2 
 PCOD9008033
Probable space group: P -1
;
_chemical_formula_sum "Si O2"
_cell_formula_units_Z 16
_cell_length_a 11.478921
_cell_length_b 15.329769
_cell_length_c 9.494320
_cell_angle_alpha 130.409675
_cell_angle_beta 39.416559
_cell_angle_gamma 107.963929
_cell_volume 741.035466
_symmetry_space_group_name_H-M "P -1"
_symmetry_group_IT_number 2
_symmetry_cell_setting 'triclinic'
loop_
_space_group_symop_operation_xyz
x,y,z
-x,-y,-z
loop_
_atom_site_type_symbol
_atom_site_label
_atom_site_fract_x
_atom_site_fract_y
_atom_site_fract_z
Si Si1 0.404684 0.042710 0.786983
Si Si2 0.839477 0.265554 0.711393
Si Si3 0.880967 0.022508 0.824397
Si Si4 0.931178 0.689972 0.685139
Si Si5 0.148586 0.316719 0.677586
Si Si6 0.947135 0.431380 0.272335
Si Si7 0.240632 0.052028 0.425196
Si Si8 0.421736 0.432396 0.386318
O O1 0.500000 0.000000 0.500000
O O2 0.582148 0.018248 0.706868
O O3 0.269914 0.970679 0.900518
O O4 0.256481 0.188209 0.063474
O O5 0.946741 0.117572 0.473466
O O6 0.878590 0.296633 0.548917
O O7 0.965008 0.318166 0.753594
O O8 0.609882 0.327246 0.027606
O O9 0.769271 0.027498 0.785848
O O10 0.020728 0.099122 0.755696
O O11 0.932240 0.562027 0.488159
O O12 0.951915 0.673827 0.815659
O O13 0.262373 0.173692 0.469370
O O14 0.287126 0.368616 0.517720
O O15 0.068528 0.395417 0.976376
O O16 0.718596 0.461465 0.477663
O O17 0.500000 0.500000 0.500000
#
# Coordination Sequence:
#
# PCOD9008033 Si02
#       8
#     2   2   2   2   2   2   2   2
#     4  11  23  42  66  93 129 172 210 256 322 382
#     4  10  21  39  63  94 129 165 206 258 317 373
#     4   9  22  40  64  98 127 161 214 264 313 373
#     4  10  23  42  64  89 130 169 207 260 313 376
#     4  11  22  41  65  95 134 163 204 269 315 370
#     4  11  22  41  65  91 128 169 209 258 317 368
#     4  10  22  40  68  94 128 165 211 261 318 373
#     4  12  23  37  68  99 123 166 216 258 314 382
#
# _framework density 21.59141
#
# number of rings (size 3 to 8) (size 9 to 14) (size 15 to 20)
#    0.000    1.500    2.500    2.250    1.750    4.000 
#    0.000    0.000    0.000    0.000    0.000    0.000 
#    0.000    0.000    0.000    0.000    0.000    0.000 
#
# Total GULP energy -89439.691360 kJ/mol
# GULP energy per Si atom -5589.980710 kJ/mol
# Density = 2.154227 g / cm^3
# Si number density = 21.591410 Si / 1000 Ang^3
#
#
#
# Elastic Constant Matrix: (Units=GPa)
#
#
# Indices 1 2 3 4 5 6 
#
# 1 64.2454 37.4616 24.1922 -3.1631 -24.0809 -18.9104
# 2 37.4616 85.6071 19.5227 -16.9232 -8.1443 -15.1468
# 3 24.1922 19.5227 111.8320 -30.5936 -10.3944 -11.1100
# 4 -3.1631 -16.9232 -30.5936 35.6748 -2.4882 0.9114
# 5 -24.0809 -8.1443 -10.3944 -2.4882 31.7072 4.2980
# 6 -18.9104 -15.1468 -11.1100 0.9114 4.2980 33.5876
#
#
#
# Elastic Compliance Matrix: (Units=1/GPa)
#
#
# Indices 1 2 3 4 5 6 
#
# 1 0.033589 -0.011000 -0.003647 -0.004254 0.019755 0.010332
# 2 -0.011000 0.018034 0.001599 0.008684 -0.002869 0.002600
# 3 -0.003647 0.001599 0.013166 0.011844 0.002565 0.002373
# 4 -0.004254 0.008684 0.011844 0.042238 0.005715 0.003562
# 5 0.019755 -0.002869 0.002565 0.005715 0.046474 0.004575
# 6 0.010332 0.002600 0.002373 0.003562 0.004575 0.036865
#
#
# Mechanical properties :
#
#
# Convention : Reuss Voigt Hill
#
# Bulk Modulus (GPa) = 25.84509 47.11527 36.48018
# Shear Modulus (GPa) = 21.79966 32.22781 27.01374
#
# Velocity S-wave (km/s) = 3.18094 3.86764 3.54097
# Velocity P-wave (km/s) = 5.04849 6.46634 5.80089
#
# Compressibility (1/GPa) = 0.03869207
#
# Stress axis : x y z
#
# Youngs Moduli (GPa) = 29.77152 55.45029 75.95212
#
# Poissons Ratio (x) = 0.60997 0.27700
# Poissons Ratio (y) = 0.32750 -0.12142
# Poissons Ratio (z) = 0.10858 -0.08865
#
# Static dielectric constant tensor:
#      x y z
#    x 1.788990 0.021030 0.000290 
#    y 0.021030 1.840690 -0.004260 
#    z 0.000290 -0.004260 1.797320 
# 
# From -- ./inp_files/270809.got.cif
#   From: 2010.05.17/outbox.cif.g08.bks.cpg/sg2_136_cif.got.tgz:270809.got - 2010.06.03 11:33:40.
