data_PCOD9008075
_publ_section_title
;
Structure prediction by ZEFSAII (Michael W. Deem and Ramdas Pophale) SiO2 
 PCOD9008075
Probable space group: P -1
;
_chemical_formula_sum "Si O2"
_cell_formula_units_Z 16
_cell_length_a 8.922504
_cell_length_b 26.333752
_cell_length_c 26.215825
_cell_angle_alpha 168.839712
_cell_angle_beta 42.271024
_cell_angle_gamma 138.181251
_cell_volume 793.108806
_symmetry_space_group_name_H-M "P -1"
_symmetry_group_IT_number 2
_symmetry_cell_setting 'triclinic'
loop_
_space_group_symop_operation_xyz
x,y,z
-x,-y,-z
loop_
_atom_site_type_symbol
_atom_site_label
_atom_site_fract_x
_atom_site_fract_y
_atom_site_fract_z
Si Si1 0.474000 0.763666 0.734143
Si Si2 0.102409 0.931911 0.124771
Si Si3 0.260174 0.094315 0.898927
Si Si4 0.980032 0.734559 0.276136
Si Si5 0.337793 0.719532 0.261277
Si Si6 0.886332 0.365096 0.657033
Si Si7 0.525024 0.358800 0.651964
Si Si8 0.999074 0.739377 0.776242
O O1 0.500000 0.500000 0.500000
O O2 0.227101 0.727691 0.737930
O O3 0.657768 0.886966 0.767398
O O4 0.500000 0.000000 0.000000
O O5 0.961312 0.938381 0.113870
O O6 0.987014 0.096655 0.357551
O O7 0.061531 0.624791 0.850636
O O8 0.367684 0.823893 0.597104
O O9 0.435080 0.332335 0.067298
O O10 0.189153 0.213142 0.087541
O O11 0.737633 0.717835 0.347855
O O12 0.173444 0.730623 0.265640
O O13 0.000000 0.000000 0.500000
O O14 0.000000 0.500000 0.000000
O O15 0.191846 0.639054 0.269461
O O16 0.500000 0.000000 0.500000
O O17 0.500000 0.500000 0.000000
O O18 0.671472 0.343855 0.652022
O O19 0.000000 0.500000 0.500000
O O20 0.000000 0.000000 0.000000
#
# Coordination Sequence:
#
# PCOD9008075 Si02
#       8
#     2   2   2   2   2   2   2   2
#     4  12  24  42  72  96 129 175 237 276 325 399
#     4  10  21  39  66  94 124 173 223 273 320 395
#     4  10  21  40  66  89 130 175 220 264 331 400
#     4  12  25  44  70 102 135 176 226 266 322 404
#     4  12  25  44  70 101 137 175 216 277 334 388
#     4  10  21  39  63  96 132 166 217 270 336 383
#     4  10  21  39  65  95 125 175 219 267 322 399
#     4  12  26  44  64  99 136 177 221 281 346 392
#
# _framework density 20.173777000000001
#
# number of rings (size 3 to 8) (size 9 to 14) (size 15 to 20)
#    0.000    1.000    1.250    6.000    3.500    2.000 
#    6.750    0.000    0.000    0.000    0.000    0.000 
#    0.000    0.000    0.000    0.000    0.000    0.000 
#
# Total GULP energy -89272.124153 kJ/mol
# GULP energy per Si atom -5579.507760 kJ/mol
# Density = 2.012786 g / cm^3
# Si number density = 20.173777 Si / 1000 Ang^3
#
#
#
# Elastic Constant Matrix: (Units=GPa)
#
#
# Indices 1 2 3 4 5 6 
#
# 1 115.6092 41.9873 50.9055 -3.6575 0.9801 0.1963
# 2 41.9873 81.0288 17.4978 -7.7380 2.1920 0.5656
# 3 50.9055 17.4978 157.3503 -1.2214 4.0866 -5.7309
# 4 -3.6575 -7.7380 -1.2214 38.5093 -10.5507 8.6159
# 5 0.9801 2.1920 4.0866 -10.5507 30.8495 -2.8128
# 6 0.1963 0.5656 -5.7309 8.6159 -2.8128 31.9459
#
#
#
# Elastic Compliance Matrix: (Units=1/GPa)
#
#
# Indices 1 2 3 4 5 6 
#
# 1 0.012144 -0.005562 -0.003342 0.000188 0.000463 -0.000586
# 2 -0.005562 0.015484 0.000065 0.002787 -0.000069 -0.000986
# 3 -0.003342 0.000065 0.007503 -0.000663 -0.000986 0.001457
# 4 0.000188 0.002787 -0.000663 0.030909 0.009758 -0.007646
# 5 0.000463 -0.000069 -0.000986 0.009758 0.035905 0.000351
# 6 -0.000586 -0.000986 0.001457 -0.007646 0.000351 0.033679
#
#
# Mechanical properties :
#
#
# Convention : Reuss Voigt Hill
#
# Bulk Modulus (GPa) = 57.29613 63.86327 60.57970
# Shear Modulus (GPa) = 31.42280 36.50080 33.96180
#
# Velocity S-wave (km/s) = 3.95093 4.25822 4.10745
# Velocity P-wave (km/s) = 7.01969 7.47676 7.25183
#
# Compressibility (1/GPa) = 0.01745318
#
# Stress axis : x y z
#
# Youngs Moduli (GPa) = 82.34191 64.58231 133.28229
#
# Poissons Ratio (x) = 0.35919 0.44548
# Poissons Ratio (y) = 0.45796 -0.00866
# Poissons Ratio (z) = 0.27522 -0.00419
#
# Static dielectric constant tensor:
#      x y z
#    x 1.690030 -0.008840 0.016480 
#    y -0.008840 1.717770 -0.028130 
#    z 0.016480 -0.028130 1.655020 
# 
# From -- ./inp_files/223936.got.cif
#   From: 2010.05.17/outbox.cif.g08.bks.cpg/sg2_112_cif.got.tgz:223936.got - 2010.06.03 11:33:40.
