data_PCOD9008139
_publ_section_title
;
Structure prediction by ZEFSAII (Michael W. Deem and Ramdas Pophale) SiO2 
 PCOD9008139
Probable space group: P -1
;
_chemical_formula_sum "Si O2"
_cell_formula_units_Z 14
_cell_length_a 19.856504
_cell_length_b 13.520295
_cell_length_c 11.502988
_cell_angle_alpha 147.778947
_cell_angle_beta 28.920579
_cell_angle_gamma 157.441297
_cell_volume 560.982256
_symmetry_space_group_name_H-M "P -1"
_symmetry_group_IT_number 2
_symmetry_cell_setting 'triclinic'
loop_
_space_group_symop_operation_xyz
x,y,z
-x,-y,-z
loop_
_atom_site_type_symbol
_atom_site_label
_atom_site_fract_x
_atom_site_fract_y
_atom_site_fract_z
Si Si1 0.298645 0.537755 0.989046
Si Si2 0.334636 0.151146 0.539119
Si Si3 0.995295 0.412330 0.132120
Si Si4 0.521634 0.297999 0.629070
Si Si5 0.895275 0.652139 0.652322
Si Si6 0.359607 0.848490 0.880634
Si Si7 0.262494 0.167774 0.090674
O O1 0.136596 0.468147 0.077164
O O2 0.197511 0.434509 0.166508
O O3 0.498451 0.844024 0.009970
O O4 0.348598 0.378081 0.714907
O O5 0.332909 0.130896 0.662437
O O6 0.525165 0.207581 0.278341
O O7 0.132362 0.879350 0.528590
O O8 0.848902 0.419434 0.422126
O O9 0.140369 0.655687 0.066731
O O10 0.890781 0.138797 0.956280
O O11 0.631821 0.225527 0.336666
O O12 0.647123 0.606833 0.726505
O O13 0.442162 0.238193 0.819800
O O14 0.834451 0.775868 0.795332
#
# Coordination Sequence:
#
# PCOD9008139 Si02
#       7
#     2   2   2   2   2   2   2
#     4  12  21  37  65  89 122 154 201 252 296 350
#     4  10  21  39  64  86 121 155 200 246 300 343
#     4  12  24  37  62  91 126 159 195 248 302 356
#     4   9  21  45  62  86 122 158 199 252 294 356
#     4  12  22  38  64  97 116 153 204 254 297 349
#     4  10  24  41  56  89 128 160 199 238 303 361
#     4  11  22  42  65  90 119 155 206 248 300 349
#
# _framework density 24.956226000000001
#
# number of rings (size 3 to 8) (size 9 to 14) (size 15 to 20)
#    0.857    0.286    4.286    3.000    0.000    2.286 
#    2.571    2.857    0.000    0.000    0.000    0.000 
#    0.000    0.000    0.000    0.000    0.000    0.000 
#
# Total GULP energy -78329.681470 kJ/mol
# GULP energy per Si atom -5594.977248 kJ/mol
# Density = 2.489942 g / cm^3
# Si number density = 24.956226 Si / 1000 Ang^3
#
#
#
# Elastic Constant Matrix: (Units=GPa)
#
#
# Indices 1 2 3 4 5 6 
#
# 1 65.7745 7.6423 6.9548 1.2490 -3.2898 8.2722
# 2 7.6423 121.6454 27.2364 28.8362 -0.2241 1.8497
# 3 6.9548 27.2364 47.2995 13.2212 -7.9231 -11.2073
# 4 1.2490 28.8362 13.2212 49.6654 2.4065 -0.4900
# 5 -3.2898 -0.2241 -7.9231 2.4065 28.6115 11.2078
# 6 8.2722 1.8497 -11.2073 -0.4900 11.2078 32.6014
#
#
#
# Elastic Compliance Matrix: (Units=1/GPa)
#
#
# Indices 1 2 3 4 5 6 
#
# 1 0.016581 -0.000281 -0.003352 0.000404 0.003505 -0.006543
# 2 -0.000281 0.010589 -0.005311 -0.004747 -0.000081 -0.002399
# 3 -0.003352 -0.005311 0.028975 -0.004656 0.004233 0.009588
# 4 0.000404 -0.004747 -0.004656 0.024283 -0.003356 0.000085
# 5 0.003505 -0.000081 0.004233 -0.003356 0.042301 -0.014022
# 6 -0.006543 -0.002399 0.009588 0.000085 -0.014022 0.040588
#
#
# Mechanical properties :
#
#
# Convention : Reuss Voigt Hill
#
# Bulk Modulus (GPa) = 26.13957 35.37626 30.75792
# Shear Modulus (GPa) = 25.77874 35.03472 30.40673
#
# Velocity S-wave (km/s) = 3.21745 3.75086 3.49435
# Velocity P-wave (km/s) = 4.92946 5.74149 5.35090
#
# Compressibility (1/GPa) = 0.03825618
#
# Stress axis : x y z
#
# Youngs Moduli (GPa) = 60.30986 94.43723 34.51216
#
# Poissons Ratio (x) = 0.02653 0.11570
# Poissons Ratio (y) = 0.01695 0.18330
# Poissons Ratio (z) = 0.20218 0.50158
#
# Static dielectric constant tensor:
#      x y z
#    x 2.040490 0.016760 0.002330 
#    y 0.016760 1.955450 0.018220 
#    z 0.002330 0.018220 1.944310 
# 
# From -- ./inp_files/471988.got.cif
#   From: 2010.05.17/outbox.cif.g08.bks.cpg/sg2_236_cif.got.tgz:471988.got - 2010.06.03 11:33:40.
