data_PCOD9008182
_publ_section_title
;
Structure prediction by ZEFSAII (Michael W. Deem and Ramdas Pophale) SiO2 
 PCOD9008182
Probable space group: P -1
;
_chemical_formula_sum "Si O2"
_cell_formula_units_Z 14
_cell_length_a 8.630227
_cell_length_b 8.121486
_cell_length_c 23.183328
_cell_angle_alpha 98.730967
_cell_angle_beta 47.306066
_cell_angle_gamma 63.410264
_cell_volume 770.215174
_symmetry_space_group_name_H-M "P -1"
_symmetry_group_IT_number 2
_symmetry_cell_setting 'triclinic'
loop_
_space_group_symop_operation_xyz
x,y,z
-x,-y,-z
loop_
_atom_site_type_symbol
_atom_site_label
_atom_site_fract_x
_atom_site_fract_y
_atom_site_fract_z
Si Si1 0.725881 0.712784 0.909809
Si Si2 0.137573 0.444049 0.680949
Si Si3 0.145657 0.746751 0.278910
Si Si4 0.862840 0.885695 0.691006
Si Si5 0.892077 0.064039 0.465447
Si Si6 0.907627 0.647488 0.090843
Si Si7 0.749434 0.248831 0.036700
O O1 0.482654 0.724907 0.942796
O O2 0.988076 0.593149 0.787461
O O3 0.914990 0.538866 0.909265
O O4 0.500000 0.000000 0.000000
O O5 0.516301 0.245843 0.568150
O O6 0.056885 0.295545 0.688510
O O7 0.966614 0.660479 0.687104
O O8 0.506191 0.493888 0.153373
O O9 0.050125 0.989039 0.292389
O O10 0.096854 0.808222 0.362500
O O11 0.035170 0.809410 0.581646
O O12 0.477565 0.119390 0.792818
O O13 0.000000 0.000000 0.500000
O O14 0.000000 0.500000 0.000000
O O15 0.046869 0.748825 0.053692
O O16 0.000000 0.000000 0.000000
#
# Coordination Sequence:
#
# PCOD9008182 Si02
#       7
#     2   2   2   2   2   2   2
#     4  11  25  37  60  94 121 160 210 253 310 372
#     4  11  21  42  63  87 121 159 210 251 305 373
#     4   9  22  38  63  86 120 159 204 243 311 357
#     4  10  22  37  64  87 118 162 207 243 317 356
#     4  10  21  39  64  89 123 156 201 257 311 364
#     4  12  20  39  60  82 127 160 196 257 309 364
#     4  11  22  39  63  91 122 164 207 251 311 375
#
# _framework density 18.176739999999999
#
# number of rings (size 3 to 8) (size 9 to 14) (size 15 to 20)
#    0.857    0.571    1.429    5.571    0.000    0.000 
#    0.000    0.714    0.000    0.000    0.000    0.000 
#    0.000    0.000    0.000    0.000    0.000    0.000 
#
# Total GULP energy -78021.312866 kJ/mol
# GULP energy per Si atom -5572.950919 kJ/mol
# Density = 1.813537 g / cm^3
# Si number density = 18.176740 Si / 1000 Ang^3
#
#
#
# Elastic Constant Matrix: (Units=GPa)
#
#
# Indices 1 2 3 4 5 6 
#
# 1 73.5411 36.3810 48.6441 0.4021 -3.9094 -8.3377
# 2 36.3810 103.6682 30.2798 -9.4981 -13.8163 -14.3840
# 3 48.6441 30.2798 99.3309 -21.5128 -13.1631 3.5338
# 4 0.4021 -9.4981 -21.5128 29.3414 -0.0386 1.0806
# 5 -3.9094 -13.8163 -13.1631 -0.0386 42.0216 -2.8178
# 6 -8.3377 -14.3840 3.5338 1.0806 -2.8178 31.3857
#
#
#
# Elastic Compliance Matrix: (Units=1/GPa)
#
#
# Indices 1 2 3 4 5 6 
#
# 1 0.027191 -0.005990 -0.015178 -0.013678 -0.003783 0.006318
# 2 -0.005990 0.013299 0.000217 0.004378 0.004203 0.004706
# 3 -0.015178 0.000217 0.021941 0.016612 0.005110 -0.006516
# 4 -0.013678 0.004378 0.016612 0.048046 0.005100 -0.004694
# 5 -0.003783 0.004203 0.005110 0.005100 0.026604 0.002559
# 6 0.006318 0.004706 -0.006516 -0.004694 0.002559 0.036822
#
#
# Mechanical properties :
#
#
# Convention : Reuss Voigt Hill
#
# Bulk Modulus (GPa) = 48.71160 56.34999 52.53080
# Shear Modulus (GPa) = 22.45705 31.29874 26.87790
#
# Velocity S-wave (km/s) = 3.51876 4.15409 3.84956
# Velocity P-wave (km/s) = 6.58528 7.35371 6.98008
#
# Compressibility (1/GPa) = 0.02052899
#
# Stress axis : x y z
#
# Youngs Moduli (GPa) = 36.77736 75.19383 45.57658
#
# Poissons Ratio (x) = 0.45037 0.69177
# Poissons Ratio (y) = 0.22028 -0.00989
# Poissons Ratio (z) = 0.55822 -0.01631
#
# Static dielectric constant tensor:
#      x y z
#    x 1.586990 0.086300 0.015320 
#    y 0.086300 1.580430 -0.018710 
#    z 0.015320 -0.018710 1.613840 
# 
# From -- ./inp_files/171787.got.cif
#   From: 2010.05.17/outbox.cif.g08.bks.cpg/sg2_86_cif.got.tgz:171787.got - 2010.06.03 11:33:40.
