data_PCOD9008799
_publ_section_title
;
Structure prediction by ZEFSAII (Michael W. Deem and Ramdas Pophale) SiO2 
 PCOD9008799
Probable space group: P -1
;
_chemical_formula_sum "Si O2"
_cell_formula_units_Z 14
_cell_length_a 8.594545
_cell_length_b 9.850504
_cell_length_c 14.594268
_cell_angle_alpha 79.545135
_cell_angle_beta 121.329166
_cell_angle_gamma 54.621544
_cell_volume 620.558575
_symmetry_space_group_name_H-M "P -1"
_symmetry_group_IT_number 2
_symmetry_cell_setting 'triclinic'
loop_
_space_group_symop_operation_xyz
x,y,z
-x,-y,-z
loop_
_atom_site_type_symbol
_atom_site_label
_atom_site_fract_x
_atom_site_fract_y
_atom_site_fract_z
Si Si1 0.263011 0.527472 0.763031
Si Si2 0.155671 0.439404 0.460013
Si Si3 0.711256 0.939230 0.651094
Si Si4 0.866645 0.589038 0.847294
Si Si5 0.506642 0.162533 0.001399
Si Si6 0.092787 0.789717 0.335618
Si Si7 0.522621 0.424792 0.351751
O O1 0.352888 0.557284 0.695659
O O2 0.020329 0.557905 0.659100
O O3 0.056983 0.746005 0.742875
O O4 0.535092 0.267130 0.920258
O O5 0.081158 0.638339 0.384386
O O6 0.000000 0.500000 0.500000
O O7 0.514660 0.188561 0.594098
O O8 0.717136 0.826439 0.749672
O O9 0.500000 0.000000 0.500000
O O10 0.646252 0.601124 0.744241
O O11 0.000000 0.500000 0.000000
O O12 0.170976 0.394475 0.905552
O O13 0.761982 0.034855 0.171461
O O14 0.500000 0.000000 0.000000
O O15 0.293821 0.649288 0.321120
O O16 0.230430 0.775761 0.471680
#
# Coordination Sequence:
#
# PCOD9008799 Si02
#       7
#     2   2   2   2   2   2   2
#     4  10  21  39  65  98 135 173 223 273 339 393
#     4  11  20  38  67  98 127 178 226 265 330 405
#     4   9  21  41  65  92 131 177 222 269 325 411
#     4  11  25  45  68  95 134 180 226 271 341 400
#     4  11  21  42  69  95 136 182 218 269 330 412
#     4  11  23  41  68 102 137 169 228 280 333 395
#     4  11  23  43  65 102 137 173 224 283 333 393
#
# _framework density 22.560319
#
# number of rings (size 3 to 8) (size 9 to 14) (size 15 to 20)
#    0.000    1.429    4.286    1.714    2.000    0.571 
#    0.000   18.571    0.000    0.000    0.000    0.000 
#    0.000    0.000    0.000    0.000    0.000    0.000 
#
# Total GULP energy -78081.629526 kJ/mol
# GULP energy per Si atom -5577.259252 kJ/mol
# Density = 2.250897 g / cm^3
# Si number density = 22.560319 Si / 1000 Ang^3
#
#
#
# Elastic Constant Matrix: (Units=GPa)
#
#
# Indices 1 2 3 4 5 6 
#
# 1 123.3103 43.8629 67.3353 11.9843 -25.9799 -13.0219
# 2 43.8629 64.5620 44.8152 11.5788 -16.3818 -4.2158
# 3 67.3353 44.8152 184.8122 14.3342 -23.1119 7.9870
# 4 11.9843 11.5788 14.3342 40.4201 4.2573 -0.7157
# 5 -25.9799 -16.3818 -23.1119 4.2573 41.9487 11.3167
# 6 -13.0219 -4.2158 7.9870 -0.7157 11.3167 33.7140
#
#
#
# Elastic Compliance Matrix: (Units=1/GPa)
#
#
# Indices 1 2 3 4 5 6 
#
# 1 0.012925 -0.005277 -0.003060 -0.001520 0.003361 0.003897
# 2 -0.005277 0.022943 -0.002686 -0.004557 0.004733 -0.000219
# 3 -0.003060 -0.002686 0.007808 -0.001449 0.002663 -0.004292
# 4 -0.001520 -0.004557 -0.001449 0.027774 -0.006903 0.002093
# 5 0.003361 0.004733 0.002663 -0.006903 0.032587 -0.009826
# 6 0.003897 -0.000219 -0.004292 0.002093 -0.009826 0.035498
#
#
# Mechanical properties :
#
#
# Convention : Reuss Voigt Hill
#
# Bulk Modulus (GPa) = 46.23205 76.07904 61.15555
# Shear Modulus (GPa) = 29.62248 37.66131 33.64189
#
# Velocity S-wave (km/s) = 3.62751 4.09021 3.86579
# Velocity P-wave (km/s) = 6.17108 7.49014 6.86238
#
# Compressibility (1/GPa) = 0.02163002
#
# Stress axis : x y z
#
# Youngs Moduli (GPa) = 77.36945 43.58685 128.07730
#
# Poissons Ratio (x) = 0.23002 0.39186
# Poissons Ratio (y) = 0.40831 0.34399
# Poissons Ratio (z) = 0.23672 0.11707
#
# Static dielectric constant tensor:
#      x y z
#    x 1.925570 0.042650 -0.006130 
#    y 0.042650 1.917290 -0.010100 
#    z -0.006130 -0.010100 1.878410 
# 
# From -- ./inp_files/500293.got.cif
#   From: 2010.05.17/outbox.cif.g08.bks.cpg/sg2_251_cif.got.tgz:500293.got - 2010.06.03 11:33:40.
