data_PCOD9008366
_publ_section_title
;
Structure prediction by ZEFSAII (Michael W. Deem and Ramdas Pophale) SiO2 
 PCOD9008366
Probable space group: P -1
;
_chemical_formula_sum "Si O2"
_cell_formula_units_Z 14
_cell_length_a 6.643128
_cell_length_b 10.963381
_cell_length_c 17.137420
_cell_angle_alpha 31.706843
_cell_angle_beta 100.801602
_cell_angle_gamma 106.855391
_cell_volume 623.432396
_symmetry_space_group_name_H-M "P -1"
_symmetry_group_IT_number 2
_symmetry_cell_setting 'triclinic'
loop_
_space_group_symop_operation_xyz
x,y,z
-x,-y,-z
loop_
_atom_site_type_symbol
_atom_site_label
_atom_site_fract_x
_atom_site_fract_y
_atom_site_fract_z
Si Si1 0.491201 0.010891 0.121846
Si Si2 0.093705 0.779195 0.875850
Si Si3 0.439155 0.532673 0.295638
Si Si4 0.700884 0.790753 0.776877
Si Si5 0.532163 0.863399 0.372364
Si Si6 0.664460 0.538197 0.148436
Si Si7 0.961115 0.728354 0.676972
O O1 0.734119 0.173012 0.067605
O O2 0.494103 0.813244 0.165076
O O3 0.434952 0.866311 0.277893
O O4 0.333962 0.180782 0.004554
O O5 0.868662 0.843341 0.831280
O O6 0.236005 0.954437 0.725443
O O7 0.000000 0.500000 0.000000
O O8 0.468881 0.387510 0.453957
O O9 0.567615 0.467299 0.266617
O O10 0.196998 0.438569 0.304200
O O11 0.498357 0.565152 0.878297
O O12 0.836649 0.748280 0.736453
O O13 0.596017 0.011468 0.645553
O O14 0.853338 0.408075 0.223572
O O15 0.000000 0.000000 0.500000
#
# Coordination Sequence:
#
# PCOD9008366 Si02
#       7
#     2   2   2   2   2   2   2
#     4  10  24  44  65  95 135 174 215 269 333 390
#     4  10  21  39  64  94 133 166 216 270 326 386
#     4  11  23  45  65  94 137 173 217 270 323 399
#     4  11  20  39  64  99 124 166 217 278 317 380
#     4  10  23  40  68  97 131 169 220 268 333 385
#     4  11  23  41  67  95 132 175 222 266 326 393
#     4  11  24  40  67  95 133 174 219 270 329 391
#
# _framework density 22.456325
#
# number of rings (size 3 to 8) (size 9 to 14) (size 15 to 20)
#    0.857    0.571    1.429    4.286    0.000    6.286 
#    2.571    0.714    0.000    0.000    0.000    0.000 
#    0.000    0.000    0.000    0.000    0.000    0.000 
#
# Total GULP energy -77985.083469 kJ/mol
# GULP energy per Si atom -5570.363105 kJ/mol
# Density = 2.240521 g / cm^3
# Si number density = 22.456325 Si / 1000 Ang^3
#
#
#
# Elastic Constant Matrix: (Units=GPa)
#
#
# Indices 1 2 3 4 5 6 
#
# 1 116.0751 37.7631 51.1672 -11.1623 25.8422 -7.9680
# 2 37.7631 79.5200 36.5926 -21.1024 9.1338 -1.6597
# 3 51.1672 36.5926 133.6324 -7.8367 7.6173 -7.1386
# 4 -11.1623 -21.1024 -7.8367 42.8969 -10.3463 -5.8274
# 5 25.8422 9.1338 7.6173 -10.3463 32.1627 0.1878
# 6 -7.9680 -1.6597 -7.1386 -5.8274 0.1878 27.7828
#
#
#
# Elastic Compliance Matrix: (Units=1/GPa)
#
#
# Indices 1 2 3 4 5 6 
#
# 1 0.013616 -0.003978 -0.003509 -0.000940 -0.009297 0.002632
# 2 -0.003978 0.017670 -0.002907 0.007537 0.001287 0.000740
# 3 -0.003509 -0.002907 0.009609 -0.000096 0.001331 0.001260
# 4 -0.000940 0.007537 -0.000096 0.029571 0.008113 0.006304
# 5 -0.009297 0.001287 0.001331 0.008113 0.040496 -0.000820
# 6 0.002632 0.000740 0.001260 0.006304 -0.000820 0.038444
#
#
# Mechanical properties :
#
#
# Convention : Reuss Voigt Hill
#
# Bulk Modulus (GPa) = 49.73472 64.47481 57.10477
# Shear Modulus (GPa) = 28.26517 34.14879 31.20698
#
# Velocity S-wave (km/s) = 3.55163 3.90381 3.73188
# Velocity P-wave (km/s) = 6.24613 7.00666 6.63729
#
# Compressibility (1/GPa) = 0.02010668
#
# Stress axis : x y z
#
# Youngs Moduli (GPa) = 73.44178 56.59243 104.07298
#
# Poissons Ratio (x) = 0.22513 0.36517
# Poissons Ratio (y) = 0.29216 0.30257
# Poissons Ratio (z) = 0.25769 0.16453
#
# Static dielectric constant tensor:
#      x y z
#    x 1.863950 0.038840 0.012210 
#    y 0.038840 1.914880 0.087130 
#    z 0.012210 0.087130 1.945710 
# 
# From -- ./inp_files/127248.got.cif
#   From: 2010.05.17/outbox.cif.g08.bks.cpg/sg2_64_cif.got.tgz:127248.got - 2010.06.03 11:33:40.
