data_PCOD9008394
_publ_section_title
;
Structure prediction by ZEFSAII (Michael W. Deem and Ramdas Pophale) SiO2 
 PCOD9008394
Probable space group: P -1
;
_chemical_formula_sum "Si O2"
_cell_formula_units_Z 16
_cell_length_a 11.463536
_cell_length_b 5.274252
_cell_length_c 13.011278
_cell_angle_alpha 63.697534
_cell_angle_beta 112.143002
_cell_angle_gamma 111.509789
_cell_volume 634.059407
_symmetry_space_group_name_H-M "P -1"
_symmetry_group_IT_number 2
_symmetry_cell_setting 'triclinic'
loop_
_space_group_symop_operation_xyz
x,y,z
-x,-y,-z
loop_
_atom_site_type_symbol
_atom_site_label
_atom_site_fract_x
_atom_site_fract_y
_atom_site_fract_z
Si Si1 0.646554 0.464710 0.074496
Si Si2 0.694259 0.839916 0.228034
Si Si3 0.930890 0.207950 0.373008
Si Si4 0.697585 0.205581 0.700105
Si Si5 0.433707 0.237104 0.597706
Si Si6 0.798755 0.187130 0.522644
Si Si7 0.128664 0.185194 0.064715
Si Si8 0.885118 0.689388 0.746976
O O1 0.692793 0.631762 0.167878
O O2 0.637876 0.119854 0.131596
O O3 0.500000 0.500000 0.000000
O O4 0.763975 0.608264 0.008851
O O5 0.608666 0.669629 0.322951
O O6 0.827371 0.005900 0.299266
O O7 0.872927 0.365911 0.418842
O O8 0.026021 0.419068 0.288373
O O9 0.000000 0.000000 0.500000
O O10 0.546409 0.065034 0.682862
O O11 0.734091 0.303413 0.576838
O O12 0.737728 0.503430 0.723915
O O13 0.785839 0.013564 0.815039
O O14 0.500000 0.500000 0.500000
O O15 0.313007 0.038101 0.535175
O O16 0.885503 0.004111 0.645129
O O17 0.075686 0.326572 0.120932
O O18 0.000000 0.000000 0.000000
#
# Coordination Sequence:
#
# PCOD9008394 Si02
#       8
#     2   2   2   2   2   2   2   2
#     4  12  28  50  76 103 146 192 247 308 366 418
#     4  11  27  47  73 108 142 191 240 297 359 440
#     4   9  20  43  65  97 145 182 231 283 359 433
#     4  11  23  37  66  96 133 174 230 284 346 423
#     4  11  22  41  69 101 141 175 225 281 355 433
#     4   9  20  39  58  99 130 179 215 274 349 426
#     4  11  27  45  69  97 134 187 245 302 355 414
#     4  10  21  39  64  95 130 172 232 283 343 420
#
# _framework density 25.234231000000001
#
# number of rings (size 3 to 8) (size 9 to 14) (size 15 to 20)
#    0.000    1.500    1.250    2.250    5.250    4.000 
#    0.000    0.000    0.000    0.000    0.000    0.000 
#    0.000    0.000    0.000    0.000    0.000    0.000 
#
# Total GULP energy -89390.812436 kJ/mol
# GULP energy per Si atom -5586.925777 kJ/mol
# Density = 2.517680 g / cm^3
# Si number density = 25.234231 Si / 1000 Ang^3
#
#
#
# Elastic Constant Matrix: (Units=GPa)
#
#
# Indices 1 2 3 4 5 6 
#
# 1 86.0341 -1.5061 55.4567 -0.7186 -29.0975 19.2118
# 2 -1.5061 60.7131 28.9102 6.7296 -26.1758 3.6345
# 3 55.4567 28.9102 151.5964 12.7383 -30.5947 4.3773
# 4 -0.7186 6.7296 12.7383 49.6108 -11.2004 -1.0692
# 5 -29.0975 -26.1758 -30.5947 -11.2004 62.9994 -4.0010
# 6 19.2118 3.6345 4.3773 -1.0692 -4.0010 31.2507
#
#
#
# Elastic Compliance Matrix: (Units=1/GPa)
#
#
# Indices 1 2 3 4 5 6 
#
# 1 0.023586 0.009475 -0.008194 0.003276 0.010609 -0.012984
# 2 0.009475 0.024731 -0.005719 0.000732 0.011599 -0.006390
# 3 -0.008194 -0.005719 0.010515 -0.002227 -0.001196 0.004001
# 4 0.003276 0.000732 -0.002227 0.021697 0.004564 -0.000460
# 5 0.010609 0.011599 -0.001196 0.004564 0.025551 -0.004276
# 6 -0.012984 -0.006390 0.004001 -0.000460 -0.004276 0.039601
#
#
# Mechanical properties :
#
#
# Convention : Reuss Voigt Hill
#
# Bulk Modulus (GPa) = 20.01761 51.56281 35.79021
# Shear Modulus (GPa) = 29.20404 43.13769 36.17086
#
# Velocity S-wave (km/s) = 3.40563 4.13908 3.79014
# Velocity P-wave (km/s) = 4.83884 6.58185 5.77646
#
# Compressibility (1/GPa) = 0.04995602
#
# Stress axis : x y z
#
# Youngs Moduli (GPa) = 42.39835 40.43467 95.10344
#
# Poissons Ratio (x) = -0.38312 0.77932
# Poissons Ratio (y) = -0.40173 0.54386
# Poissons Ratio (z) = 0.34743 0.23123
#
# Static dielectric constant tensor:
#      x y z
#    x 2.182560 -0.069920 0.034720 
#    y -0.069920 1.979750 -0.020260 
#    z 0.034720 -0.020260 1.977900 
# 
# From -- ./inp_files/410121.got.cif
#   From: 2010.05.17/outbox.cif.g08.bks.cpg/sg2_206_cif.got.tgz:410121.got - 2010.06.03 11:33:40.
