data_PCOD9008896
_publ_section_title
;
Structure prediction by ZEFSAII (Michael W. Deem and Ramdas Pophale) SiO2 
 PCOD9008896
Probable space group: P -1
;
_chemical_formula_sum "Si O2"
_cell_formula_units_Z 16
_cell_length_a 9.106819
_cell_length_b 15.150761
_cell_length_c 7.277159
_cell_angle_alpha 127.413482
_cell_angle_beta 57.247177
_cell_angle_gamma 97.551683
_cell_volume 640.791956
_symmetry_space_group_name_H-M "P -1"
_symmetry_group_IT_number 2
_symmetry_cell_setting 'triclinic'
loop_
_space_group_symop_operation_xyz
x,y,z
-x,-y,-z
loop_
_atom_site_type_symbol
_atom_site_label
_atom_site_fract_x
_atom_site_fract_y
_atom_site_fract_z
Si Si1 0.401276 0.824577 0.165351
Si Si2 0.069934 0.704244 0.574198
Si Si3 0.053286 0.783494 0.289464
Si Si4 0.725140 0.885611 0.119633
Si Si5 0.672472 0.826926 0.501245
Si Si6 0.390947 0.374120 0.506446
Si Si7 0.295155 0.872836 0.692853
Si Si8 0.769096 0.417079 0.363824
O O1 0.189875 0.863193 0.299046
O O2 0.528059 0.908581 0.185000
O O3 0.401656 0.800237 0.352662
O O4 0.502540 0.716190 0.836172
O O5 0.111501 0.703282 0.330048
O O6 0.153347 0.801900 0.736356
O O7 0.146072 0.590632 0.500690
O O8 0.855166 0.764272 0.807146
O O9 0.839011 0.852163 0.531674
O O10 0.107317 0.696388 0.971957
O O11 0.712349 0.863053 0.315456
O O12 0.787455 0.997248 0.164280
O O13 0.696990 0.692193 0.369526
O O14 0.451400 0.873510 0.735785
O O15 0.558215 0.415212 0.527598
O O16 0.246284 0.475264 0.623073
#
# Coordination Sequence:
#
# PCOD9008896 Si02
#       8
#     2   2   2   2   2   2   2   2
#     4   9  20  40  59  89 127 157 208 260 297 376
#     4  11  21  43  66  92 128 166 206 262 312 369
#     4  10  22  39  63  92 128 162 211 255 305 372
#     4  11  22  41  64  91 127 170 209 258 316 371
#     4  11  20  38  62  90 127 165 203 260 309 362
#     4  10  21  39  66  91 126 164 208 256 316 374
#     4  10  22  41  65  89 125 170 210 257 319 366
#     4  10  21  43  64  94 128 164 205 260 315 370
#
# _framework density 24.969104999999999
#
# number of rings (size 3 to 8) (size 9 to 14) (size 15 to 20)
#    0.000    1.750    2.500    2.625    0.000    0.500 
#    4.500   15.000    0.000    0.000    0.000    0.000 
#    0.000    0.000    0.000    0.000    0.000    0.000 
#
# Total GULP energy -89242.932854 kJ/mol
# GULP energy per Si atom -5577.683303 kJ/mol
# Density = 2.491227 g / cm^3
# Si number density = 24.969105 Si / 1000 Ang^3
#
#
#
# Elastic Constant Matrix: (Units=GPa)
#
#
# Indices 1 2 3 4 5 6 
#
# 1 114.8668 18.7078 5.4415 -0.7339 -26.5517 -3.1439
# 2 18.7078 106.5389 6.1208 3.8724 -4.4609 -4.3947
# 3 5.4415 6.1208 36.0716 -8.7216 -1.9010 -7.1958
# 4 -0.7339 3.8724 -8.7216 16.8242 -0.3089 0.0303
# 5 -26.5517 -4.4609 -1.9010 -0.3089 29.7859 -9.1146
# 6 -3.1439 -4.3947 -7.1958 0.0303 -9.1146 30.8491
#
#
#
# Elastic Compliance Matrix: (Units=1/GPa)
#
#
# Indices 1 2 3 4 5 6 
#
# 1 0.011758 -0.001449 0.000275 0.001195 0.011672 0.004503
# 2 -0.001449 0.009935 -0.002111 -0.003441 0.000290 0.000864
# 3 0.000275 -0.002111 0.034656 0.018542 0.005186 0.009325
# 4 0.001195 -0.003441 0.018542 0.069959 0.004011 0.005073
# 5 0.011672 0.000290 0.005186 0.004011 0.049626 0.017099
# 6 0.004503 0.000864 0.009325 0.005073 0.017099 0.040220
#
#
# Mechanical properties :
#
#
# Convention : Reuss Voigt Hill
#
# Bulk Modulus (GPa) = 20.08972 35.33527 27.71250
# Shear Modulus (GPa) = 20.89267 30.63898 25.76583
#
# Velocity S-wave (km/s) = 2.89579 3.50676 3.21582
# Velocity P-wave (km/s) = 4.38681 5.52981 4.99114
#
# Compressibility (1/GPa) = 0.04977670
#
# Stress axis : x y z
#
# Youngs Moduli (GPa) = 85.05112 100.65540 28.85473
#
# Poissons Ratio (x) = 0.14588 -0.00793
# Poissons Ratio (y) = 0.12327 0.06092
# Poissons Ratio (z) = -0.02336 0.21253
#
# Static dielectric constant tensor:
#      x y z
#    x 2.071790 0.019780 -0.016200 
#    y 0.019780 1.968310 -0.008380 
#    z -0.016200 -0.008380 1.933200 
# 
# From -- ./inp_files/203577.got.cif
#   From: 2010.05.17/outbox.cif.g08.bks.cpg/sg2_102_cif.got.tgz:203577.got - 2010.06.03 11:33:40.
