data_PCOD9008753
_publ_section_title
;
Structure prediction by ZEFSAII (Michael W. Deem and Ramdas Pophale) SiO2 
 PCOD9008753
Probable space group: P -1
;
_chemical_formula_sum "Si O2"
_cell_formula_units_Z 15
_cell_length_a 8.534351
_cell_length_b 12.757508
_cell_length_c 9.833342
_cell_angle_alpha 54.376835
_cell_angle_beta 47.393671
_cell_angle_gamma 62.845878
_cell_volume 637.082417
_symmetry_space_group_name_H-M "P -1"
_symmetry_group_IT_number 2
_symmetry_cell_setting 'triclinic'
loop_
_space_group_symop_operation_xyz
x,y,z
-x,-y,-z
loop_
_atom_site_type_symbol
_atom_site_label
_atom_site_fract_x
_atom_site_fract_y
_atom_site_fract_z
Si Si1 0.761543 0.254763 0.902599
Si Si2 0.416742 0.467704 0.920911
Si Si3 0.194322 0.997639 0.087073
Si Si4 0.096414 0.290767 0.874979
Si Si5 0.584711 0.863061 0.619883
Si Si6 0.489914 0.280942 0.476538
Si Si7 0.679584 0.021260 0.673052
Si Si8 0.000000 0.500000 0.000000
O O1 0.589109 0.353263 0.851045
O O2 0.932530 0.332779 0.818702
O O3 0.868514 0.132940 0.846346
O O4 0.612113 0.199002 0.148105
O O5 0.418066 0.591887 0.727310
O O6 0.500000 0.500000 0.000000
O O7 0.173861 0.437975 0.067373
O O8 0.190677 0.986124 0.259661
O O9 0.075128 0.136951 0.016039
O O10 0.435781 0.005701 0.880536
O O11 0.335165 0.308114 0.673719
O O12 0.052042 0.370269 0.976120
O O13 0.650856 0.770204 0.525842
O O14 0.500000 0.000000 0.500000
O O15 0.732580 0.905263 0.622483
O O16 0.663228 0.161459 0.504796
#
# Coordination Sequence:
#
# PCOD9008753 Si02
#       8
#     2   2   2   2   2   2   2   1
#     4  11  22  42  68  96 133 181 222 272 345 396
#     4  12  25  47  69  93 135 185 224 277 337 402
#     4   9  19  35  64  94 130 166 219 271 332 393
#     4  11  24  42  67 101 134 176 223 279 332 408
#     4   9  17  33  62  89 128 171 215 271 328 391
#     4  10  21  39  65  96 133 174 225 276 333 394
#     4   8  17  33  58  98 123 170 216 272 331 389
#     4  12  28  46  68  98 132 180 230 270 342 402
#
# _framework density 23.544834000000002
#
# number of rings (size 3 to 8) (size 9 to 14) (size 15 to 20)
#    0.000    1.867    2.667    1.200    7.467    1.067 
#    0.000    0.000    2.933    3.200    0.000    0.000 
#    0.000    0.000    0.000    0.000    0.000    0.000 
#
# Total GULP energy -83509.168722 kJ/mol
# GULP energy per Si atom -5567.277915 kJ/mol
# Density = 2.349125 g / cm^3
# Si number density = 23.544834 Si / 1000 Ang^3
#
#
#
# Elastic Constant Matrix: (Units=GPa)
#
#
# Indices 1 2 3 4 5 6 
#
# 1 45.8599 -7.4165 -4.2398 40.0019 18.7177 2.2387
# 2 -7.4165 107.5479 10.9360 30.9375 13.5097 13.2104
# 3 -4.2398 10.9360 57.8120 -10.0725 13.0440 -0.1653
# 4 40.0019 30.9375 -10.0725 17.8831 1.0836 12.9407
# 5 18.7177 13.5097 13.0440 1.0836 30.9362 6.2270
# 6 2.2387 13.2104 -0.1653 12.9407 6.2270 30.1944
#
#
#
# Elastic Compliance Matrix: (Units=1/GPa)
#
#
# Indices 1 2 3 4 5 6 
#
# 1 -0.001891 -0.007318 0.004972 0.025393 0.002991 -0.008131
# 2 -0.007318 0.006895 -0.001022 0.008577 0.002907 -0.006755
# 3 0.004972 -0.001022 0.020819 0.001724 -0.011779 0.001883
# 4 0.025393 0.008577 0.001724 -0.018111 -0.020482 0.006360
# 5 0.002991 0.002907 -0.011779 -0.020482 0.034926 0.000018
# 6 -0.008131 -0.006755 0.001883 0.006360 0.000018 0.033958
#
#
# Mechanical properties :
#
#
# Convention : Reuss Voigt Hill
#
# Bulk Modulus (GPa) = 52.39220 23.30882 37.85051
# Shear Modulus (GPa) = 55.74574 29.93206 42.83890
#
# Velocity S-wave (km/s) = 4.87112 3.56937 4.27014
# Velocity P-wave (km/s) = 7.34422 5.18733 6.35791
#
# Compressibility (1/GPa) = 0.01908681
#
# Stress axis : x y z
#
# Youngs Moduli (GPa) = -528.68371 145.03843 48.03355
#
# Poissons Ratio (x) = 1.06133 -0.23880
# Poissons Ratio (y) = -3.86870 0.04907
# Poissons Ratio (z) = 2.62841 0.14817
#
# Static dielectric constant tensor:
#      x y z
#    x 2.122200 -0.006550 -0.176310 
#    y -0.006550 1.906420 -0.001890 
#    z -0.176310 -0.001890 1.846100 
# 
# From -- ./inp_files/184808.got.cif
#   From: 2010.05.17/outbox.cif.g08.bks.cpg/sg2_93_cif.got.tgz:184808.got - 2010.06.03 11:33:40.
