data_PCOD9008642
_publ_section_title
;
Structure prediction by ZEFSAII (Michael W. Deem and Ramdas Pophale) SiO2 
 PCOD9008642
Probable space group: P -1
;
_chemical_formula_sum "Si O2"
_cell_formula_units_Z 16
_cell_length_a 8.166713
_cell_length_b 7.504070
_cell_length_c 16.262773
_cell_angle_alpha 135.178632
_cell_angle_beta 93.098721
_cell_angle_gamma 110.108816
_cell_volume 589.110218
_symmetry_space_group_name_H-M "P -1"
_symmetry_group_IT_number 2
_symmetry_cell_setting 'triclinic'
loop_
_space_group_symop_operation_xyz
x,y,z
-x,-y,-z
loop_
_atom_site_type_symbol
_atom_site_label
_atom_site_fract_x
_atom_site_fract_y
_atom_site_fract_z
Si Si1 0.346197 0.580881 0.041650
Si Si2 0.810135 0.724627 0.518886
Si Si3 0.491604 0.265385 0.660708
Si Si4 0.308422 0.922271 0.271522
Si Si5 0.060520 0.973765 0.136063
Si Si6 0.185206 0.379319 0.705494
Si Si7 0.279375 0.851416 0.975375
Si Si8 0.234321 0.565847 0.412937
O O1 0.263858 0.630363 0.973419
O O2 0.153783 0.299567 0.985432
O O3 0.500000 0.500000 0.000000
O O4 0.441313 0.888821 0.197196
O O5 0.791642 0.605324 0.387372
O O6 0.803631 0.501662 0.513874
O O7 0.665480 0.805823 0.585420
O O8 0.006195 0.057591 0.625267
O O9 0.658968 0.261181 0.715589
O O10 0.384022 0.404576 0.747590
O O11 0.590740 0.427230 0.630802
O O12 0.312618 0.918708 0.521768
O O13 0.142409 0.877018 0.185807
O O14 0.062624 0.260504 0.265316
O O15 0.197897 0.028319 0.078389
O O16 0.157917 0.631718 0.825649
O O17 0.500000 0.000000 0.000000
#
# Coordination Sequence:
#
# PCOD9008642 Si02
#       8
#     2   2   2   2   2   2   2   2
#     4  11  23  43  68  95 128 170 220 278 333 390
#     4  10  22  40  65  90 125 175 218 263 322 388
#     4  11  23  38  62  96 133 165 214 274 321 387
#     4  10  21  39  65  93 124 170 214 262 328 389
#     4  10  22  43  69  92 129 178 221 266 328 400
#     4  11  23  41  62  94 130 166 218 270 319 382
#     4  11  22  39  64  96 133 171 215 264 321 396
#     4  10  22  41  65  95 129 171 217 266 328 388
#
# _framework density 27.159607000000001
#
# number of rings (size 3 to 8) (size 9 to 14) (size 15 to 20)
#    0.000    1.500    0.000    6.750    0.000    7.000 
#    0.000    7.500    0.000    0.000    0.000    0.000 
#    0.000    0.000    0.000    0.000    0.000    0.000 
#
# Total GULP energy -89204.476707 kJ/mol
# GULP energy per Si atom -5575.279794 kJ/mol
# Density = 2.709779 g / cm^3
# Si number density = 27.159607 Si / 1000 Ang^3
#
#
#
# Elastic Constant Matrix: (Units=GPa)
#
#
# Indices 1 2 3 4 5 6 
#
# 1 81.0200 39.8046 37.2983 -14.3973 0.6598 -0.7316
# 2 39.8046 150.6146 54.2244 -16.0567 8.8926 13.8196
# 3 37.2983 54.2244 144.5940 -28.7072 -23.0081 14.2218
# 4 -14.3973 -16.0567 -28.7072 47.9290 14.0665 4.8910
# 5 0.6598 8.8926 -23.0081 14.0665 38.0318 -6.7723
# 6 -0.7316 13.8196 14.2218 4.8910 -6.7723 34.2188
#
#
#
# Elastic Compliance Matrix: (Units=1/GPa)
#
#
# Indices 1 2 3 4 5 6 
#
# 1 0.015566 -0.002872 -0.002988 0.002269 -0.001882 0.002038
# 2 -0.002872 0.009372 -0.002702 0.002710 -0.005527 -0.004205
# 3 -0.002988 -0.002702 0.010445 0.003159 0.005352 -0.002706
# 4 0.002269 0.002710 0.003159 0.028382 -0.010782 -0.008549
# 5 -0.001882 -0.005527 0.005352 -0.010782 0.036396 0.008712
# 6 0.002038 -0.004205 -0.002706 -0.008549 0.008712 0.035036
#
#
# Mechanical properties :
#
#
# Convention : Reuss Voigt Hill
#
# Bulk Modulus (GPa) = 54.76511 70.98703 62.87607
# Shear Modulus (GPa) = 31.56422 40.36266 35.96344
#
# Velocity S-wave (km/s) = 3.41277 3.85922 3.64284
# Velocity P-wave (km/s) = 5.97806 6.78615 6.39488
#
# Compressibility (1/GPa) = 0.01825980
#
# Stress axis : x y z
#
# Youngs Moduli (GPa) = 64.24266 106.69781 95.74270
#
# Poissons Ratio (x) = 0.30645 0.28605
# Poissons Ratio (y) = 0.18451 0.25867
# Poissons Ratio (z) = 0.19194 0.28826
#
# Static dielectric constant tensor:
#      x y z
#    x 2.176870 -0.014920 0.121810 
#    y -0.014920 2.108700 -0.005490 
#    z 0.121810 -0.005490 2.187130 
# 
# From -- ./inp_files/557668.got.cif
#   From: 2010.05.17/outbox.cif.g08.bks.cpg/sg2_279_cif.got.tgz:557668.got - 2010.06.03 11:33:40.
