data_PCOD9008927
_publ_section_title
;
Structure prediction by ZEFSAII (Michael W. Deem and Ramdas Pophale) SiO2 
 PCOD9008927
Probable space group: P -1
;
_chemical_formula_sum "Si O2"
_cell_formula_units_Z 16
_cell_length_a 7.330210
_cell_length_b 22.156299
_cell_length_c 11.238335
_cell_angle_alpha 145.472703
_cell_angle_beta 39.666949
_cell_angle_gamma 128.765465
_cell_volume 660.204163
_symmetry_space_group_name_H-M "P -1"
_symmetry_group_IT_number 2
_symmetry_cell_setting 'triclinic'
loop_
_space_group_symop_operation_xyz
x,y,z
-x,-y,-z
loop_
_atom_site_type_symbol
_atom_site_label
_atom_site_fract_x
_atom_site_fract_y
_atom_site_fract_z
Si Si1 0.959404 0.087976 0.565463
Si Si2 0.318502 0.103190 0.917661
Si Si3 0.623823 0.660588 0.767147
Si Si4 0.109608 0.084197 0.236230
Si Si5 0.741960 0.301219 0.749869
Si Si6 0.829067 0.696006 0.099949
Si Si7 0.712262 0.433635 0.440142
Si Si8 0.317033 0.474374 0.932253
O O1 0.633849 0.085430 0.677012
O O2 0.179406 0.078777 0.330921
O O3 0.008405 0.198112 0.784324
O O4 0.000000 0.000000 0.500000
O O5 0.093148 0.016669 0.849173
O O6 0.224952 0.226290 0.140759
O O7 0.345384 0.085233 0.017200
O O8 0.783152 0.550478 0.543624
O O9 0.465383 0.628857 0.673020
O O10 0.408082 0.681118 0.018787
O O11 0.945715 0.198405 0.486345
O O12 0.490689 0.280353 0.746173
O O13 0.856086 0.417783 0.843331
O O14 0.846456 0.626249 0.098894
O O15 0.990268 0.631075 0.809148
O O16 0.526516 0.443980 0.669077
O O17 0.500000 0.500000 0.000000
#
# Coordination Sequence:
#
# PCOD9008927 Si02
#       8
#     2   2   2   2   2   2   2   2
#     4  12  26  44  69  96 129 166 212 276 323 377
#     4  11  24  44  66  96 125 171 220 259 324 382
#     4  10  21  39  66  93 128 171 217 255 322 379
#     4  11  25  44  68  92 128 171 218 267 315 387
#     4  10  21  43  65  96 130 174 214 259 319 383
#     4  11  23  40  66  99 130 172 212 260 331 372
#     4  10  21  41  62  96 133 168 210 270 312 381
#     4   9  22  39  60  96 134 166 211 253 316 381
#
# _framework density 24.234928
#
# number of rings (size 3 to 8) (size 9 to 14) (size 15 to 20)
#    0.000    1.500    2.500    1.125    5.250    5.000 
#    2.250    2.500    0.000    0.000    0.000    0.000 
#    0.000    0.000    0.000    0.000    0.000    0.000 
#
# Total GULP energy -89532.761724 kJ/mol
# GULP energy per Si atom -5595.797608 kJ/mol
# Density = 2.417977 g / cm^3
# Si number density = 24.234928 Si / 1000 Ang^3
#
#
#
# Elastic Constant Matrix: (Units=GPa)
#
#
# Indices 1 2 3 4 5 6 
#
# 1 53.4648 26.0882 16.1245 6.8142 13.7845 -14.7186
# 2 26.0882 156.7526 61.1090 29.3095 6.2948 -23.9313
# 3 16.1245 61.1090 95.8856 12.1119 17.8076 -17.2679
# 4 6.8142 29.3095 12.1119 56.4537 -8.9791 4.3708
# 5 13.7845 6.2948 17.8076 -8.9791 25.2117 -5.2527
# 6 -14.7186 -23.9313 -17.2679 4.3708 -5.2527 37.3604
#
#
#
# Elastic Compliance Matrix: (Units=1/GPa)
#
#
# Indices 1 2 3 4 5 6 
#
# 1 0.026146 -0.002245 0.002102 -0.005544 -0.015463 0.008309
# 2 -0.002245 0.009988 -0.005152 -0.003818 0.001811 0.003834
# 3 0.002102 -0.005152 0.016745 -0.003400 -0.012075 0.003968
# 4 -0.005544 -0.003818 -0.003400 0.023771 0.013372 -0.007102
# 5 -0.015463 0.001811 -0.012075 0.013372 0.060205 -0.003612
# 6 0.008309 0.003834 0.003968 -0.007102 -0.003612 0.034652
#
#
# Mechanical properties :
#
#
# Convention : Reuss Voigt Hill
#
# Bulk Modulus (GPa) = 23.64586 56.97183 40.30884
# Shear Modulus (GPa) = 25.48516 37.32389 31.40453
#
# Velocity S-wave (km/s) = 3.24634 3.92865 3.60368
# Velocity P-wave (km/s) = 4.88157 6.64366 5.82958
#
# Compressibility (1/GPa) = 0.04229070
#
# Stress axis : x y z
#
# Youngs Moduli (GPa) = 38.24670 100.12193 59.71858
#
# Poissons Ratio (x) = 0.22477 -0.12555
# Poissons Ratio (y) = 0.08586 0.30764
# Poissons Ratio (z) = -0.08041 0.51579
#
# Static dielectric constant tensor:
#      x y z
#    x 1.944450 0.010620 -0.009790 
#    y 0.010620 1.933750 -0.004720 
#    z -0.009790 -0.004720 1.919170 
# 
# From -- ./inp_files/406735.got.cif
#   From: 2010.05.17/outbox.cif.g08.bks.cpg/sg2_204_cif.got.tgz:406735.got - 2010.06.03 11:33:40.
