data_PCOD9008652
_publ_section_title
;
Structure prediction by ZEFSAII (Michael W. Deem and Ramdas Pophale) SiO2 
 PCOD9008652
Probable space group: P -1
;
_chemical_formula_sum "Si O2"
_cell_formula_units_Z 14
_cell_length_a 16.881715
_cell_length_b 11.413563
_cell_length_c 5.015377
_cell_angle_alpha 126.219212
_cell_angle_beta 89.585135
_cell_angle_gamma 54.452906
_cell_volume 536.176024
_symmetry_space_group_name_H-M "P -1"
_symmetry_group_IT_number 2
_symmetry_cell_setting 'triclinic'
loop_
_space_group_symop_operation_xyz
x,y,z
-x,-y,-z
loop_
_atom_site_type_symbol
_atom_site_label
_atom_site_fract_x
_atom_site_fract_y
_atom_site_fract_z
Si Si1 0.175755 0.289435 0.059033
Si Si2 0.383767 0.819283 0.568658
Si Si3 0.012508 0.274756 0.058130
Si Si4 0.505172 0.209627 0.985899
Si Si5 0.191853 0.863850 0.817236
Si Si6 0.166887 0.708585 0.107880
Si Si7 0.667842 0.717553 0.280671
O O1 0.104859 0.252613 0.873525
O O2 0.088736 0.486561 0.519145
O O3 0.225113 0.338475 0.919308
O O4 0.285174 0.075616 0.919568
O O5 0.430653 0.769672 0.200794
O O6 0.313563 0.772195 0.602631
O O7 0.484973 0.725179 0.643849
O O8 0.949465 0.223906 0.856878
O O9 0.089872 0.111430 0.080136
O O10 0.391821 0.306517 0.968981
O O11 0.576402 0.963277 0.687280
O O12 0.168053 0.761916 0.481739
O O13 0.185652 0.817094 0.054094
O O14 0.275606 0.456423 0.729579
#
# Coordination Sequence:
#
# PCOD9008652 Si02
#       7
#     2   2   2   2   2   2   2
#     4   9  20  39  65  96 125 159 205 262 308 363
#     4  10  21  42  65  93 124 161 207 256 309 361
#     4  10  21  39  65  93 126 165 208 252 309 363
#     4  10  22  41  69  93 121 158 203 264 316 360
#     4  11  25  42  63  90 128 169 208 248 300 369
#     4  12  24  41  62  90 128 169 205 250 300 371
#     4  10  23  40  64  95 125 158 206 257 315 367
#
# _framework density 26.110825999999999
#
# number of rings (size 3 to 8) (size 9 to 14) (size 15 to 20)
#    0.000    1.714    0.000    3.429    0.000   10.286 
#    0.000   10.000    0.000    0.000    0.000    0.000 
#    0.000    0.000    0.000    0.000    0.000    0.000 
#
# Total GULP energy -78479.408597 kJ/mol
# GULP energy per Si atom -5605.672043 kJ/mol
# Density = 2.605140 g / cm^3
# Si number density = 26.110826 Si / 1000 Ang^3
#
#
#
# Elastic Constant Matrix: (Units=GPa)
#
#
# Indices 1 2 3 4 5 6 
#
# 1 145.3702 35.9648 22.2919 11.6678 -5.0400 2.6412
# 2 35.9648 88.5284 17.4288 6.2005 -11.9939 -5.2631
# 3 22.2919 17.4288 33.1327 -7.8412 -2.6943 -2.5314
# 4 11.6678 6.2005 -7.8412 16.2883 -5.7611 3.5638
# 5 -5.0400 -11.9939 -2.6943 -5.7611 34.6554 -4.0059
# 6 2.6412 -5.2631 -2.5314 3.5638 -4.0059 31.5665
#
#
#
# Elastic Compliance Matrix: (Units=1/GPa)
#
#
# Indices 1 2 3 4 5 6 
#
# 1 0.009316 -0.001772 -0.007957 -0.010252 -0.001670 -0.000768
# 2 -0.001772 0.014745 -0.007856 -0.007659 0.003339 0.003265
# 3 -0.007957 -0.007856 0.048114 0.033773 0.005490 0.000098
# 4 -0.010252 -0.007659 0.033773 0.094088 0.013358 -0.006638
# 5 -0.001670 0.003339 0.005490 0.013358 0.032855 0.003798
# 6 -0.000768 0.003265 0.000098 -0.006638 0.003798 0.033527
#
#
# Mechanical properties :
#
#
# Convention : Reuss Voigt Hill
#
# Bulk Modulus (GPa) = 27.02225 46.48916 36.75571
# Shear Modulus (GPa) = 17.84755 29.25839 23.55297
#
# Velocity S-wave (km/s) = 2.61728 3.35109 3.00665
# Velocity P-wave (km/s) = 4.41645 5.72855 5.11475
#
# Compressibility (1/GPa) = 0.03700654
#
# Stress axis : x y z
#
# Youngs Moduli (GPa) = 107.33685 67.81851 20.78403
#
# Poissons Ratio (x) = 0.12019 0.16537
# Poissons Ratio (y) = 0.19022 0.16327
# Poissons Ratio (z) = 0.85404 0.53276
#
# Static dielectric constant tensor:
#      x y z
#    x 2.023480 0.024930 0.022580 
#    y 0.024930 2.027530 0.039320 
#    z 0.022580 0.039320 2.056240 
# 
# From -- ./inp_files/94266.got.cif
#   From: 2010.05.17/outbox.cif.g08.bks.cpg/sg2_48_cif.got.tgz:94266.got - 2010.06.03 11:33:40.
