data_PCOD9008283
_publ_section_title
;
Structure prediction by ZEFSAII (Michael W. Deem and Ramdas Pophale) SiO2 
 PCOD9008283
Probable space group: P -1
;
_chemical_formula_sum "Si O2"
_cell_formula_units_Z 16
_cell_length_a 15.202260
_cell_length_b 12.314277
_cell_length_c 9.270456
_cell_angle_alpha 102.346904
_cell_angle_beta 94.019611
_cell_angle_gamma 27.741233
_cell_volume 761.566990
_symmetry_space_group_name_H-M "P -1"
_symmetry_group_IT_number 2
_symmetry_cell_setting 'triclinic'
loop_
_space_group_symop_operation_xyz
x,y,z
-x,-y,-z
loop_
_atom_site_type_symbol
_atom_site_label
_atom_site_fract_x
_atom_site_fract_y
_atom_site_fract_z
Si Si1 0.990981 0.724251 0.216437
Si Si2 0.353087 0.431345 0.293777
Si Si3 0.892096 0.181607 0.401851
Si Si4 0.074267 0.029818 0.090241
Si Si5 0.482211 0.989121 0.824284
Si Si6 0.097031 0.415851 0.337525
Si Si7 0.082534 0.555404 0.878221
Si Si8 0.665042 0.252375 0.222539
O O1 0.185426 0.582064 0.205255
O O2 0.990323 0.645251 0.328932
O O3 0.011584 0.622636 0.052570
O O4 0.808408 0.006990 0.253644
O O5 0.234342 0.578516 0.471056
O O6 0.508277 0.155565 0.230575
O O7 0.453095 0.436733 0.272180
O O8 0.732213 0.289915 0.320980
O O9 0.054867 0.034548 0.261030
O O10 0.000000 0.000000 0.500000
O O11 0.939162 0.289174 0.113598
O O12 0.273382 0.823192 0.961258
O O13 0.000000 0.000000 0.000000
O O14 0.674836 0.813412 0.712826
O O15 0.295355 0.260755 0.814457
O O16 0.500000 0.000000 0.000000
O O17 0.000000 0.500000 0.500000
O O18 0.058091 0.353934 0.215592
#
# Coordination Sequence:
#
# PCOD9008283 Si02
#       8
#     2   2   2   2   2   2   2   2
#     4  10  21  39  64  92 126 170 210 260 316 377
#     4  11  22  38  67  94 127 160 219 258 314 381
#     4  11  22  42  68  91 131 168 208 269 328 368
#     4   9  23  41  67  93 124 167 213 260 318 376
#     4  11  24  41  65  95 129 171 218 257 316 391
#     4  11  25  39  62  97 134 164 217 263 320 377
#     4  11  22  41  71  88 131 172 212 259 323 377
#     4  10  21  41  69  89 123 171 214 254 318 385
#
# _framework density 21.009315000000001
#
# number of rings (size 3 to 8) (size 9 to 14) (size 15 to 20)
#    0.000    1.500    3.750    1.500    7.000    0.500 
#    2.250    0.625   11.000    0.000    0.000    0.000 
#    0.000    0.000    0.000    0.000    0.000    0.000 
#
# Total GULP energy -89252.474316 kJ/mol
# GULP energy per Si atom -5578.279645 kJ/mol
# Density = 2.096150 g / cm^3
# Si number density = 21.009315 Si / 1000 Ang^3
#
#
#
# Elastic Constant Matrix: (Units=GPa)
#
#
# Indices 1 2 3 4 5 6 
#
# 1 86.7196 10.9060 23.3853 -4.2327 6.7540 1.0091
# 2 10.9060 43.3039 4.6447 2.8842 -1.7114 12.6054
# 3 23.3853 4.6447 119.6745 -1.8803 -8.7961 4.9356
# 4 -4.2327 2.8842 -1.8803 26.1756 11.0714 4.4096
# 5 6.7540 -1.7114 -8.7961 11.0714 44.6777 0.8500
# 6 1.0091 12.6054 4.9356 4.4096 0.8500 23.3870
#
#
#
# Elastic Compliance Matrix: (Units=1/GPa)
#
#
# Indices 1 2 3 4 5 6 
#
# 1 0.013184 -0.003860 -0.002697 0.003629 -0.003600 0.001527
# 2 -0.003860 0.028651 0.000418 -0.002332 0.002627 -0.015020
# 3 -0.002697 0.000418 0.009118 -0.000492 0.002379 -0.002027
# 4 0.003629 -0.002332 -0.000492 0.045160 -0.011795 -0.006882
# 5 -0.003600 0.002627 0.002379 -0.011795 0.026428 -0.000499
# 6 0.001527 -0.015020 -0.002027 -0.006882 -0.000499 0.052532
#
#
# Mechanical properties :
#
#
# Convention : Reuss Voigt Hill
#
# Bulk Modulus (GPa) = 25.85612 36.39666 31.12639
# Shear Modulus (GPa) = 24.96978 32.89884 28.93431
#
# Velocity S-wave (km/s) = 3.45122 3.96146 3.71511
# Velocity P-wave (km/s) = 5.31177 6.18756 5.76632
#
# Compressibility (1/GPa) = 0.03867557
#
# Stress axis : x y z
#
# Youngs Moduli (GPa) = 75.85040 34.90257 109.67885
#
# Poissons Ratio (x) = 0.13471 0.29581
# Poissons Ratio (y) = 0.29275 -0.04586
# Poissons Ratio (z) = 0.20457 -0.01459
#
# Static dielectric constant tensor:
#      x y z
#    x 1.809590 -0.000950 0.014240 
#    y -0.000950 1.765260 -0.007290 
#    z 0.014240 -0.007290 1.760220 
# 
# From -- ./inp_files/307741.got.cif
#   From: 2010.05.17/outbox.cif.g08.bks.cpg/sg2_154_cif.got.tgz:307741.got - 2010.06.03 11:33:40.
