data_PCOD9008400
_publ_section_title
;
Structure prediction by ZEFSAII (Michael W. Deem and Ramdas Pophale) SiO2 
 PCOD9008400
Probable space group: P -1
;
_chemical_formula_sum "Si O2"
_cell_formula_units_Z 16
_cell_length_a 14.420359
_cell_length_b 14.370888
_cell_length_c 8.357524
_cell_angle_alpha 83.450509
_cell_angle_beta 54.523144
_cell_angle_gamma 39.747134
_cell_volume 694.481072
_symmetry_space_group_name_H-M "P -1"
_symmetry_group_IT_number 2
_symmetry_cell_setting 'triclinic'
loop_
_space_group_symop_operation_xyz
x,y,z
-x,-y,-z
loop_
_atom_site_type_symbol
_atom_site_label
_atom_site_fract_x
_atom_site_fract_y
_atom_site_fract_z
Si Si1 0.135757 0.817377 0.153044
Si Si2 0.443638 0.578634 0.367726
Si Si3 0.474986 0.724819 0.816615
Si Si4 0.647030 0.802869 0.230094
Si Si5 0.232513 0.214839 0.203286
Si Si6 0.348360 0.834594 0.555440
Si Si7 0.331292 0.210310 0.431118
Si Si8 0.897347 0.289842 0.505968
O O1 0.042280 0.823925 0.391518
O O2 0.353709 0.602806 0.912666
O O3 0.242946 0.841352 0.089412
O O4 0.927871 0.970004 0.206342
O O5 0.500000 0.500000 0.500000
O O6 0.424664 0.703406 0.375009
O O7 0.205078 0.701930 0.531264
O O8 0.444752 0.736277 0.651810
O O9 0.543165 0.784207 0.754384
O O10 0.684730 0.512333 0.711823
O O11 0.454282 0.859761 0.407087
O O12 0.762437 0.710425 0.308241
O O13 0.520502 0.993752 0.310788
O O14 0.789604 0.699600 0.942037
O O15 0.167710 0.295771 0.431359
O O16 0.101717 0.214421 0.284947
O O17 0.500000 0.000000 0.000000
#
# Coordination Sequence:
#
# PCOD9008400 Si02
#       8
#     2   2   2   2   2   2   2   2
#     4  11  23  41  68 100 139 175 224 285 345 411
#     4  11  23  43  67  99 139 175 219 281 345 407
#     4  10  21  39  64  95 133 176 224 277 342 420
#     4   9  20  39  62  94 131 170 235 283 326 415
#     4  10  21  40  60  90 131 175 228 283 331 403
#     4  11  22  42  70 101 135 179 232 276 344 421
#     4   9  19  38  61  88 125 174 220 278 342 391
#     4  11  24  43  63  98 139 176 227 283 346 413
#
# _framework density 23.038782999999999
#
# number of rings (size 3 to 8) (size 9 to 14) (size 15 to 20)
#    0.000    1.750    2.500    3.375    0.000    5.000 
#    9.000    3.750    0.000    0.000    0.000    0.000 
#    0.000    0.000    0.000    0.000    0.000    0.000 
#
# Total GULP energy -89314.963436 kJ/mol
# GULP energy per Si atom -5582.185215 kJ/mol
# Density = 2.298635 g / cm^3
# Si number density = 23.038783 Si / 1000 Ang^3
#
#
#
# Elastic Constant Matrix: (Units=GPa)
#
#
# Indices 1 2 3 4 5 6 
#
# 1 159.0098 63.4929 57.5523 18.3409 -68.1725 -0.4976
# 2 63.4929 114.2652 47.5782 4.6262 -46.1790 6.1416
# 3 57.5523 47.5782 87.7243 -5.0169 -48.5497 -8.4512
# 4 18.3409 4.6262 -5.0169 45.5103 -16.6740 -0.5554
# 5 -68.1725 -46.1790 -48.5497 -16.6740 104.2377 -10.1062
# 6 -0.4976 6.1416 -8.4512 -0.5554 -10.1062 50.8065
#
#
#
# Elastic Compliance Matrix: (Units=1/GPa)
#
#
# Indices 1 2 3 4 5 6 
#
# 1 0.010608 -0.002880 -0.003541 -0.003056 0.003576 0.000541
# 2 -0.002880 0.012960 -0.004479 -0.000104 0.001558 -0.002031
# 3 -0.003541 -0.004479 0.021014 0.006874 0.007120 0.005494
# 4 -0.003056 -0.000104 0.006874 0.026043 0.005567 0.002518
# 5 0.003576 0.001558 0.007120 0.005567 0.017268 0.004527
# 6 0.000541 -0.002031 0.005494 0.002518 0.004527 0.021775
#
#
# Mechanical properties :
#
#
# Convention : Reuss Voigt Hill
#
# Bulk Modulus (GPa) = 43.89239 77.58287 60.73763
# Shear Modulus (GPa) = 35.95507 52.93595 44.44551
#
# Velocity S-wave (km/s) = 3.95477 4.79862 4.39699
# Velocity P-wave (km/s) = 6.32032 8.02810 7.22485
#
# Compressibility (1/GPa) = 0.02278299
#
# Stress axis : x y z
#
# Youngs Moduli (GPa) = 94.26906 77.16082 47.58685
#
# Poissons Ratio (x) = 0.22224 0.16849
# Poissons Ratio (y) = 0.27151 0.21312
# Poissons Ratio (z) = 0.33378 0.34557
#
# Static dielectric constant tensor:
#      x y z
#    x 1.929300 -0.038590 0.059220 
#    y -0.038590 1.904290 0.026670 
#    z 0.059220 0.026670 1.906240 
# 
# From -- ./inp_files/315051.got.cif
#   From: 2010.05.17/outbox.cif.g08.bks.cpg/sg2_158_cif.got.tgz:315051.got - 2010.06.03 11:33:40.
