data_PCOD9008854
_publ_section_title
;
Structure prediction by ZEFSAII (Michael W. Deem and Ramdas Pophale) SiO2 
 PCOD9008854
Probable space group: P -1
;
_chemical_formula_sum "Si O2"
_cell_formula_units_Z 16
_cell_length_a 10.932296
_cell_length_b 8.001380
_cell_length_c 11.291198
_cell_angle_alpha 137.102422
_cell_angle_beta 59.854319
_cell_angle_gamma 101.461249
_cell_volume 556.841535
_symmetry_space_group_name_H-M "P -1"
_symmetry_group_IT_number 2
_symmetry_cell_setting 'triclinic'
loop_
_space_group_symop_operation_xyz
x,y,z
-x,-y,-z
loop_
_atom_site_type_symbol
_atom_site_label
_atom_site_fract_x
_atom_site_fract_y
_atom_site_fract_z
Si Si1 0.063629 0.650832 0.676305
Si Si2 0.020256 0.736196 0.191894
Si Si3 0.544081 0.712509 0.379715
Si Si4 0.303227 0.438523 0.016157
Si Si5 0.300432 0.489270 0.310524
Si Si6 0.285747 0.931835 0.097737
Si Si7 0.753268 0.844218 0.530649
Si Si8 0.237208 0.977561 0.903559
O O1 0.129823 0.616525 0.494122
O O2 0.135713 0.376586 0.560072
O O3 0.893136 0.789208 0.853018
O O4 0.148431 0.828988 0.793813
O O5 0.131567 0.590410 0.163450
O O6 0.863033 0.895741 0.403154
O O7 0.117743 0.899557 0.168709
O O8 0.000000 0.500000 0.000000
O O9 0.400021 0.617288 0.408547
O O10 0.638561 0.731554 0.458938
O O11 0.500000 0.000000 0.500000
O O12 0.634921 0.539532 0.135432
O O13 0.346258 0.512776 0.164205
O O14 0.322419 0.134772 0.866696
O O15 0.331651 0.193532 0.179767
O O16 0.318874 0.930705 0.223880
O O17 0.327369 0.813038 0.882880
#
# Coordination Sequence:
#
# PCOD9008854 Si02
#       8
#     2   2   2   2   2   2   2   2
#     4  10  21  39  71  99 142 182 222 288 347 423
#     4  12  23  42  71 106 143 174 232 297 363 412
#     4  12  27  47  72  98 142 194 240 284 343 421
#     4  11  24  43  72 102 136 184 234 296 348 411
#     4  10  25  47  68 101 142 189 239 281 344 420
#     4  10  25  40  67 105 142 185 221 290 351 419
#     4  11  24  43  68 107 140 182 234 291 353 410
#     4  10  21  39  66 106 140 177 224 278 367 412
#
# _framework density 28.733487
#
# number of rings (size 3 to 8) (size 9 to 14) (size 15 to 20)
#    0.000    1.250    2.500    2.250    5.250    4.500 
#    0.000    0.625    0.000    0.000    0.000    0.000 
#    0.000    0.000    0.000    0.000    0.000    0.000 
#
# Total GULP energy -89445.742956 kJ/mol
# GULP energy per Si atom -5590.358935 kJ/mol
# Density = 2.866809 g / cm^3
# Si number density = 28.733487 Si / 1000 Ang^3
#
#
#
# Elastic Constant Matrix: (Units=GPa)
#
#
# Indices 1 2 3 4 5 6 
#
# 1 136.7085 7.4865 28.2031 -0.9092 20.6011 9.6411
# 2 7.4865 61.5977 -30.8510 -26.8500 -5.2227 -10.8073
# 3 28.2031 -30.8510 141.5482 -7.5360 7.7523 -8.5948
# 4 -0.9092 -26.8500 -7.5360 49.3647 4.8266 13.0695
# 5 20.6011 -5.2227 7.7523 4.8266 59.6409 5.4145
# 6 9.6411 -10.8073 -8.5948 13.0695 5.4145 40.0746
#
#
#
# Elastic Compliance Matrix: (Units=1/GPa)
#
#
# Indices 1 2 3 4 5 6 
#
# 1 0.008633 -0.003584 -0.002595 -0.001173 -0.002603 -0.002866
# 2 -0.003584 0.028150 0.007904 0.014998 0.000997 0.005123
# 3 -0.002595 0.007904 0.009787 0.004908 -0.000381 0.003306
# 4 -0.001173 0.014998 0.004908 0.030404 -0.000980 -0.004404
# 5 -0.002603 0.000997 -0.000381 -0.000980 0.018000 -0.001299
# 6 -0.002866 0.005123 0.003306 -0.004404 -0.001299 0.029345
#
#
# Mechanical properties :
#
#
# Convention : Reuss Voigt Hill
#
# Bulk Modulus (GPa) = 19.99174 38.83685 29.41430
# Shear Modulus (GPa) = 36.35228 52.15041 44.25135
#
# Velocity S-wave (km/s) = 3.56076 4.26487 3.92862
# Velocity P-wave (km/s) = 4.88652 6.14798 5.55319
#
# Compressibility (1/GPa) = 0.05002065
#
# Stress axis : x y z
#
# Youngs Moduli (GPa) = 115.83333 35.52452 102.17140
#
# Poissons Ratio (x) = 0.12732 0.26515
# Poissons Ratio (y) = 0.41514 -0.80760
# Poissons Ratio (z) = 0.30060 -0.28080
#
# Static dielectric constant tensor:
#      x y z
#    x 2.199200 -0.119810 -0.087760 
#    y -0.119810 2.460360 0.144460 
#    z -0.087760 0.144460 2.425930 
# 
# From -- ./inp_files/419950.got.cif
#   From: 2010.05.17/outbox.cif.g08.bks.cpg/sg2_210_cif.got.tgz:419950.got - 2010.06.03 11:33:40.
