data_PCOD9008955
_publ_section_title
;
Structure prediction by ZEFSAII (Michael W. Deem and Ramdas Pophale) SiO2 
 PCOD9008955
Probable space group: P -1
;
_chemical_formula_sum "Si O2"
_cell_formula_units_Z 16
_cell_length_a 9.869263
_cell_length_b 14.036855
_cell_length_c 8.345503
_cell_angle_alpha 105.879017
_cell_angle_beta 46.708574
_cell_angle_gamma 116.521109
_cell_volume 752.023368
_symmetry_space_group_name_H-M "P -1"
_symmetry_group_IT_number 2
_symmetry_cell_setting 'triclinic'
loop_
_space_group_symop_operation_xyz
x,y,z
-x,-y,-z
loop_
_atom_site_type_symbol
_atom_site_label
_atom_site_fract_x
_atom_site_fract_y
_atom_site_fract_z
Si Si1 0.823664 0.046776 0.180197
Si Si2 0.196207 0.496128 0.416117
Si Si3 0.940037 0.101870 0.616405
Si Si4 0.741796 0.711921 0.732182
Si Si5 0.289529 0.409902 0.597624
Si Si6 0.404144 0.929810 0.326028
Si Si7 0.111085 0.224078 0.863649
Si Si8 0.501643 0.735042 0.231391
O O1 0.712956 0.024417 0.429995
O O2 0.641746 0.996638 0.178741
O O3 0.941953 0.172290 0.109318
O O4 0.000000 0.000000 0.000000
O O5 0.239954 0.395768 0.260607
O O6 0.165013 0.460059 0.610538
O O7 0.370366 0.611436 0.312439
O O8 0.000000 0.500000 0.500000
O O9 0.707154 0.074946 0.753518
O O10 0.056065 0.190007 0.427877
O O11 0.018992 0.153146 0.748467
O O12 0.000000 0.000000 0.500000
O O13 0.660846 0.672174 0.600841
O O14 0.605285 0.744867 0.978124
O O15 0.500000 0.500000 0.500000
O O16 0.168480 0.345262 0.815829
O O17 0.380393 0.812673 0.354558
O O18 0.319885 0.223237 0.763995
#
# Coordination Sequence:
#
# PCOD9008955 Si02
#       8
#     2   2   2   2   2   2   2   2
#     4  11  23  45  68  96 133 178 233 278 334 405
#     4  10  21  39  66  94 132 169 225 273 334 405
#     4  11  24  42  65  95 138 175 219 286 348 396
#     4   9  22  40  66  95 130 175 227 273 335 402
#     4   9  19  40  64  94 128 170 216 273 341 398
#     4  11  26  42  68  99 133 179 234 278 334 415
#     4  11  22  39  66  94 133 174 218 282 343 393
#     4  12  22  40  71  93 128 182 231 272 337 409
#
# _framework density 21.275933999999999
#
# number of rings (size 3 to 8) (size 9 to 14) (size 15 to 20)
#    0.750    0.750    2.500    2.625    3.500    0.500 
#    0.000    0.000    2.750    2.250    0.000    0.000 
#    0.000    0.000    0.000    0.000    0.000    0.000 
#
# Total GULP energy -89215.300700 kJ/mol
# GULP energy per Si atom -5575.956294 kJ/mol
# Density = 2.122751 g / cm^3
# Si number density = 21.275934 Si / 1000 Ang^3
#
#
#
# Elastic Constant Matrix: (Units=GPa)
#
#
# Indices 1 2 3 4 5 6 
#
# 1 148.0952 38.0888 27.3648 -7.6322 -19.3723 8.9196
# 2 38.0888 90.3173 29.3667 -21.5677 -19.0373 5.6284
# 3 27.3648 29.3667 80.2035 -13.5268 -11.4096 -0.2503
# 4 -7.6322 -21.5677 -13.5268 35.9646 -0.6931 -2.6050
# 5 -19.3723 -19.0373 -11.4096 -0.6931 26.8003 -3.6118
# 6 8.9196 5.6284 -0.2503 -2.6050 -3.6118 33.3468
#
#
#
# Elastic Compliance Matrix: (Units=1/GPa)
#
#
# Indices 1 2 3 4 5 6 
#
# 1 0.008121 -0.002143 -0.001522 -0.000172 0.003500 -0.001456
# 2 -0.002143 0.017010 -0.002638 0.008895 0.009561 -0.000587
# 3 -0.001522 -0.002638 0.015177 0.003999 0.003818 0.001692
# 4 -0.000172 0.008895 0.003999 0.034949 0.009109 0.002291
# 5 0.003500 0.009561 0.003818 0.009109 0.048967 0.003494
# 6 -0.001456 -0.000587 0.001692 0.002291 0.003494 0.031047
#
#
# Mechanical properties :
#
#
# Convention : Reuss Voigt Hill
#
# Bulk Modulus (GPa) = 36.09953 56.47297 46.28625
# Shear Modulus (GPa) = 28.23104 34.14204 31.18654
#
# Velocity S-wave (km/s) = 3.64662 4.01025 3.83275
# Velocity P-wave (km/s) = 5.89360 6.93134 6.43343
#
# Compressibility (1/GPa) = 0.02770119
#
# Stress axis : x y z
#
# Youngs Moduli (GPa) = 123.13147 58.78977 65.89092
#
# Poissons Ratio (x) = 0.12597 0.10029
# Poissons Ratio (y) = 0.26383 0.17385
# Poissons Ratio (z) = 0.18742 0.15512
#
# Static dielectric constant tensor:
#      x y z
#    x 1.777690 -0.000430 0.004670 
#    y -0.000430 1.829770 -0.032150 
#    z 0.004670 -0.032150 1.728860 
# 
# From -- ./inp_files/201810.got.cif
#   From: 2010.05.17/outbox.cif.g08.bks.cpg/sg2_101_cif.got.tgz:201810.got - 2010.06.03 11:33:40.
