data_PCOD9008472
_publ_section_title
;
Structure prediction by ZEFSAII (Michael W. Deem and Ramdas Pophale) SiO2 
 PCOD9008472
Probable space group: P -1
;
_chemical_formula_sum "Si O2"
_cell_formula_units_Z 16
_cell_length_a 11.005432
_cell_length_b 15.918344
_cell_length_c 6.024109
_cell_angle_alpha 65.461073
_cell_angle_beta 88.799987
_cell_angle_gamma 132.565191
_cell_volume 631.234737
_symmetry_space_group_name_H-M "P -1"
_symmetry_group_IT_number 2
_symmetry_cell_setting 'triclinic'
loop_
_space_group_symop_operation_xyz
x,y,z
-x,-y,-z
loop_
_atom_site_type_symbol
_atom_site_label
_atom_site_fract_x
_atom_site_fract_y
_atom_site_fract_z
Si Si1 0.608765 0.822726 0.833058
Si Si2 0.739996 0.762349 0.216895
Si Si3 0.855056 0.985203 0.287863
Si Si4 0.961095 0.356527 0.365530
Si Si5 0.470760 0.936523 0.828476
Si Si6 0.139478 0.814695 0.820254
Si Si7 0.783776 0.585517 0.338085
Si Si8 0.278282 0.610893 0.738569
O O1 0.601708 0.726082 0.081293
O O2 0.816994 0.943893 0.593610
O O3 0.573187 0.897344 0.879154
O O4 0.452490 0.733286 0.749528
O O5 0.751635 0.842327 0.327553
O O6 0.705295 0.634010 0.396818
O O7 0.947968 0.890216 0.969154
O O8 0.772657 0.042498 0.234705
O O9 0.860928 0.211612 0.410363
O O10 0.808755 0.348495 0.419098
O O11 0.084387 0.391877 0.521289
O O12 0.110895 0.480752 0.046161
O O13 0.248915 0.796056 0.960484
O O14 0.500000 0.000000 0.500000
O O15 0.500000 0.000000 0.000000
O O16 0.925779 0.700932 0.015461
O O17 0.669730 0.441768 0.373449
#
# Coordination Sequence:
#
# PCOD9008472 Si02
#       8
#     2   2   2   2   2   2   2   2
#     4  12  24  41  68  97 141 178 225 295 349 425
#     4  10  24  43  64  98 131 182 234 282 347 425
#     4  10  22  42  65  93 134 176 229 274 346 415
#     4  10  21  42  65  93 130 174 227 286 352 416
#     4  12  26  43  67 106 152 185 228 293 365 432
#     4  10  21  39  65 100 128 175 228 278 355 415
#     4  10  23  42  68  89 130 183 231 288 340 421
#     4  10  23  41  63  99 127 169 234 280 360 411
#
# _framework density 25.347145999999999
#
# number of rings (size 3 to 8) (size 9 to 14) (size 15 to 20)
#    0.000    1.500    2.500    1.500    1.750    7.500 
#    0.000    1.250    0.000    0.000    0.000    0.000 
#    0.000    0.000    0.000    0.000    0.000    0.000 
#
# Total GULP energy -89226.505610 kJ/mol
# GULP energy per Si atom -5576.656601 kJ/mol
# Density = 2.528946 g / cm^3
# Si number density = 25.347146 Si / 1000 Ang^3
#
#
#
# Elastic Constant Matrix: (Units=GPa)
#
#
# Indices 1 2 3 4 5 6 
#
# 1 100.7924 53.0474 29.2750 -1.0102 0.9299 -40.7377
# 2 53.0474 161.1736 20.3442 16.0842 -2.1411 -33.7290
# 3 29.2750 20.3442 57.2041 5.3128 -1.0479 -17.1252
# 4 -1.0102 16.0842 5.3128 26.3903 2.5568 -5.9956
# 5 0.9299 -2.1411 -1.0479 2.5568 41.7635 -3.1166
# 6 -40.7377 -33.7290 -17.1252 -5.9956 -3.1166 51.5787
#
#
#
# Elastic Compliance Matrix: (Units=1/GPa)
#
#
# Indices 1 2 3 4 5 6 
#
# 1 0.017664 -0.003575 -0.005186 0.006339 -0.000303 0.010610
# 2 -0.003575 0.008319 -0.000035 -0.004815 0.000957 0.002103
# 3 -0.005186 -0.000035 0.021303 -0.003990 0.001083 0.002556
# 4 0.006339 -0.004815 -0.003990 0.043368 -0.002740 0.005409
# 5 -0.000303 0.000957 0.001083 -0.002740 0.024337 0.001898
# 6 0.010610 0.002103 0.002556 0.005409 0.001898 0.030735
#
#
# Mechanical properties :
#
#
# Convention : Reuss Voigt Hill
#
# Bulk Modulus (GPa) = 33.67714 58.27814 45.97764
# Shear Modulus (GPa) = 28.86570 38.38008 33.62289
#
# Velocity S-wave (km/s) = 3.37829 3.89546 3.64606
# Velocity P-wave (km/s) = 5.34157 6.57836 5.99196
#
# Compressibility (1/GPa) = 0.02969373
#
# Stress axis : x y z
#
# Youngs Moduli (GPa) = 56.61198 120.20801 46.94097
#
# Poissons Ratio (x) = 0.42980 0.24345
# Poissons Ratio (y) = 0.20242 0.00162
# Poissons Ratio (z) = 0.29361 0.00415
#
# Static dielectric constant tensor:
#      x y z
#    x 2.014500 0.007200 -0.054930 
#    y 0.007200 2.047710 -0.073320 
#    z -0.054930 -0.073320 2.122910 
# 
# From -- ./inp_files/77421.got.cif
#   From: 2010.05.17/outbox.cif.g08.bks.cpg/sg2_39_cif.got.tgz:77421.got - 2010.06.03 11:33:40.
