data_PCOD9008893
_publ_section_title
;
Structure prediction by ZEFSAII (Michael W. Deem and Ramdas Pophale) SiO2 
 PCOD9008893
Probable space group: P -1
;
_chemical_formula_sum "Si O2"
_cell_formula_units_Z 16
_cell_length_a 12.067967
_cell_length_b 9.849720
_cell_length_c 8.995308
_cell_angle_alpha 100.376356
_cell_angle_beta 87.195545
_cell_angle_gamma 37.590167
_cell_volume 607.972616
_symmetry_space_group_name_H-M "P -1"
_symmetry_group_IT_number 2
_symmetry_cell_setting 'triclinic'
loop_
_space_group_symop_operation_xyz
x,y,z
-x,-y,-z
loop_
_atom_site_type_symbol
_atom_site_label
_atom_site_fract_x
_atom_site_fract_y
_atom_site_fract_z
Si Si1 0.849295 0.516577 0.156053
Si Si2 0.564476 0.337105 0.154511
Si Si3 0.992538 0.225885 0.477101
Si Si4 0.347925 0.269646 0.491812
Si Si5 0.837623 0.110103 0.340032
Si Si6 0.208063 0.686627 0.071597
Si Si7 0.752737 0.937404 0.828480
Si Si8 0.531919 0.001947 0.170693
O O1 0.721598 0.593292 0.319982
O O2 0.062296 0.319521 0.160071
O O3 0.749020 0.754893 0.151197
O O4 0.829500 0.427178 0.009183
O O5 0.642040 0.278243 0.302580
O O6 0.338666 0.559856 0.184744
O O7 0.660396 0.369164 0.067401
O O8 0.648838 0.124455 0.006748
O O9 0.868766 0.492124 0.523301
O O10 0.854175 0.236498 0.451732
O O11 0.157127 0.060921 0.306971
O O12 0.094191 0.084319 0.596874
O O13 0.462969 0.194667 0.319114
O O14 0.500000 0.000000 0.500000
O O15 0.000153 0.958152 0.170857
O O16 0.613896 0.972273 0.761933
O O17 0.500000 0.000000 0.000000
#
# Coordination Sequence:
#
# PCOD9008893 Si02
#       8
#     2   2   2   2   2   2   2   2
#     4  10  21  39  66  91 123 170 211 263 330 387
#     4  11  21  35  65  98 127 176 220 257 327 396
#     4  10  23  40  66  96 138 176 213 271 331 391
#     4   9  21  42  65  93 126 175 221 267 327 386
#     4  11  22  41  64 102 140 171 213 270 328 393
#     4  11  21  36  67  95 134 172 219 264 319 400
#     4  11  21  41  64  90 127 170 218 261 326 398
#     4  11  25  42  64  92 126 161 222 284 322 378
#
# _framework density 26.316973999999998
#
# number of rings (size 3 to 8) (size 9 to 14) (size 15 to 20)
#    0.000    1.500    3.750    1.875    1.750    2.500 
#    0.000   10.000    0.000    0.000    0.000    0.000 
#    0.000    0.000    0.000    0.000    0.000    0.000 
#
# Total GULP energy -89210.913631 kJ/mol
# GULP energy per Si atom -5575.682102 kJ/mol
# Density = 2.625708 g / cm^3
# Si number density = 26.316974 Si / 1000 Ang^3
#
#
#
# Elastic Constant Matrix: (Units=GPa)
#
#
# Indices 1 2 3 4 5 6 
#
# 1 76.4882 17.0728 6.8789 -14.4823 10.2860 -17.2022
# 2 17.0728 127.4311 13.3196 -29.9332 10.9977 -21.8512
# 3 6.8789 13.3196 124.4011 -14.3793 -5.2858 -6.7632
# 4 -14.4823 -29.9332 -14.3793 58.5124 -3.0366 11.8157
# 5 10.2860 10.9977 -5.2858 -3.0366 21.5212 -9.1560
# 6 -17.2022 -21.8512 -6.7632 11.8157 -9.1560 33.6981
#
#
#
# Elastic Compliance Matrix: (Units=1/GPa)
#
#
# Indices 1 2 3 4 5 6 
#
# 1 0.015479 -0.000114 -0.000475 0.002270 -0.004732 0.005651
# 2 -0.000114 0.009761 -0.000488 0.003882 -0.002780 0.004057
# 3 -0.000475 -0.000488 0.008532 0.001600 0.003448 0.001529
# 4 0.002270 0.003882 0.001600 0.020693 -0.001292 -0.003610
# 5 -0.004732 -0.002780 0.003448 -0.001292 0.055976 0.012136
# 6 0.005651 0.004057 0.001529 -0.003610 0.012136 0.040061
#
#
# Mechanical properties :
#
#
# Convention : Reuss Voigt Hill
#
# Bulk Modulus (GPa) = 31.62702 44.76258 38.19480
# Shear Modulus (GPa) = 30.63837 42.14961 36.39399
#
# Velocity S-wave (km/s) = 3.41575 4.00636 3.72278
# Velocity P-wave (km/s) = 5.25359 6.20058 5.74662
#
# Compressibility (1/GPa) = 0.03161853
#
# Stress axis : x y z
#
# Youngs Moduli (GPa) = 64.60334 102.44820 117.21176
#
# Poissons Ratio (x) = 0.01164 0.05571
# Poissons Ratio (y) = 0.00734 0.05716
# Poissons Ratio (z) = 0.03071 0.04996
#
# Static dielectric constant tensor:
#      x y z
#    x 2.162160 0.141910 -0.062430 
#    y 0.141910 2.107290 -0.024990 
#    z -0.062430 -0.024990 2.162600 
# 
# From -- ./inp_files/307742.got.cif
#   From: 2010.05.17/outbox.cif.g08.bks.cpg/sg2_154_cif.got.tgz:307742.got - 2010.06.03 11:33:40.
