data_PCOD9008331
_publ_section_title
;
Structure prediction by ZEFSAII (Michael W. Deem and Ramdas Pophale) SiO2 
 PCOD9008331
Probable space group: P -1
;
_chemical_formula_sum "Si O2"
_cell_formula_units_Z 16
_cell_length_a 6.680596
_cell_length_b 8.635217
_cell_length_c 14.034288
_cell_angle_alpha 109.024446
_cell_angle_beta 102.519116
_cell_angle_gamma 101.741359
_cell_volume 713.467481
_symmetry_space_group_name_H-M "P -1"
_symmetry_group_IT_number 2
_symmetry_cell_setting 'triclinic'
loop_
_space_group_symop_operation_xyz
x,y,z
-x,-y,-z
loop_
_atom_site_type_symbol
_atom_site_label
_atom_site_fract_x
_atom_site_fract_y
_atom_site_fract_z
Si Si1 0.097275 0.751121 0.824905
Si Si2 0.356334 0.517470 0.294608
Si Si3 0.302133 0.618018 0.639767
Si Si4 0.020025 0.004351 0.277517
Si Si5 0.215489 0.604051 0.986693
Si Si6 0.022170 0.755107 0.511615
Si Si7 0.703312 0.121378 0.598373
Si Si8 0.621389 0.669194 0.169747
O O1 0.245587 0.701227 0.748507
O O2 0.193523 0.749550 0.939508
O O3 0.879385 0.594976 0.778722
O O4 0.024816 0.910821 0.809089
O O5 0.462397 0.402086 0.346809
O O6 0.333469 0.694130 0.365361
O O7 0.522600 0.572994 0.236396
O O8 0.237685 0.723967 0.570146
O O9 0.142403 0.425861 0.570404
O O10 0.802746 0.848279 0.240732
O O11 0.223770 0.933208 0.302537
O O12 0.055602 0.153039 0.390867
O O13 0.275122 0.456999 0.902082
O O14 0.415303 0.683947 0.093008
O O15 0.000000 0.500000 0.000000
O O16 0.092463 0.861882 0.445155
O O17 0.500000 0.000000 0.500000
#
# Coordination Sequence:
#
# PCOD9008331 Si02
#       8
#     2   2   2   2   2   2   2   2
#     4  11  23  43  66  98 132 169 216 273 321 388
#     4  12  22  39  70  92 129 176 216 265 323 389
#     4  10  21  39  64  93 128 171 222 267 311 372
#     4  11  25  43  63  95 142 171 215 272 327 375
#     4  11  23  45  74  98 121 166 222 265 330 401
#     4  10  21  40  60  90 134 174 217 267 308 376
#     4  12  24  37  61  97 132 179 223 263 315 384
#     4  11  24  43  71  98 127 167 214 271 329 399
#
# _framework density 22.425688999999998
#
# number of rings (size 3 to 8) (size 9 to 14) (size 15 to 20)
#    0.000    1.000    3.750    3.375    1.750    1.000 
#    0.000    0.625    0.000    0.000    0.000    0.000 
#    0.000    0.000    0.000    0.000    0.000    0.000 
#
# Total GULP energy -89415.659837 kJ/mol
# GULP energy per Si atom -5588.478740 kJ/mol
# Density = 2.237465 g / cm^3
# Si number density = 22.425689 Si / 1000 Ang^3
#
#
#
# Elastic Constant Matrix: (Units=GPa)
#
#
# Indices 1 2 3 4 5 6 
#
# 1 76.0618 17.7420 25.9794 -10.9892 5.4475 -4.4321
# 2 17.7420 72.1922 15.4904 -25.8223 10.7474 0.6663
# 3 25.9794 15.4904 57.6929 -24.0873 12.2622 -0.9812
# 4 -10.9892 -25.8223 -24.0873 37.2524 -5.6701 17.3144
# 5 5.4475 10.7474 12.2622 -5.6701 42.9268 -5.6995
# 6 -4.4321 0.6663 -0.9812 17.3144 -5.6995 29.7425
#
#
#
# Elastic Compliance Matrix: (Units=1/GPa)
#
#
# Indices 1 2 3 4 5 6 
#
# 1 0.016891 -0.005384 -0.009959 -0.008416 0.001944 0.007581
# 2 -0.005384 0.025154 0.009386 0.030117 -0.006963 -0.019923
# 3 -0.009959 0.009386 0.036180 0.036440 -0.009739 -0.023580
# 4 -0.008416 0.030117 0.036440 0.093730 -0.012151 -0.057619
# 5 0.001944 -0.006963 -0.009739 -0.012151 0.027627 0.012492
# 6 0.007581 -0.019923 -0.023580 -0.057619 0.012492 0.070357
#
#
# Mechanical properties :
#
#
# Convention : Reuss Voigt Hill
#
# Bulk Modulus (GPa) = 15.08043 36.04115 25.56079
# Shear Modulus (GPa) = 16.44965 31.76668 24.10817
#
# Velocity S-wave (km/s) = 2.71129 3.76777 3.28231
# Velocity P-wave (km/s) = 4.06703 5.91898 5.07814
#
# Compressibility (1/GPa) = 0.06631109
#
# Stress axis : x y z
#
# Youngs Moduli (GPa) = 59.20282 39.75512 27.63932
#
# Poissons Ratio (x) = 0.21405 0.27525
# Poissons Ratio (y) = 0.31876 -0.25941
# Poissons Ratio (z) = 0.58958 -0.37313
#
# Static dielectric constant tensor:
#      x y z
#    x 1.857950 -0.051230 0.027850 
#    y -0.051230 1.816330 -0.072820 
#    z 0.027850 -0.072820 1.811490 
# 
# From -- ./inp_files/37977.got.cif
#   From: 2010.05.17/outbox.cif.g08.bks.cpg/sg2_19_cif.got.tgz:37977.got - 2010.06.03 11:33:40.
