data_PCOD9008093
_publ_section_title
;
Structure prediction by ZEFSAII (Michael W. Deem and Ramdas Pophale) SiO2 
 PCOD9008093
Probable space group: P -1
;
_chemical_formula_sum "Si O2"
_cell_formula_units_Z 16
_cell_length_a 14.920183
_cell_length_b 8.456938
_cell_length_c 9.889287
_cell_angle_alpha 54.691675
_cell_angle_beta 105.878146
_cell_angle_gamma 134.697605
_cell_volume 704.565349
_symmetry_space_group_name_H-M "P -1"
_symmetry_group_IT_number 2
_symmetry_cell_setting 'triclinic'
loop_
_space_group_symop_operation_xyz
x,y,z
-x,-y,-z
loop_
_atom_site_type_symbol
_atom_site_label
_atom_site_fract_x
_atom_site_fract_y
_atom_site_fract_z
Si Si1 0.308735 0.689637 0.872051
Si Si2 0.314999 0.338595 0.888003
Si Si3 0.610165 0.809513 0.750667
Si Si4 0.420954 0.623118 0.185968
Si Si5 0.847854 0.894852 0.320456
Si Si6 0.622238 0.813255 0.361232
Si Si7 0.094270 0.475639 0.110911
Si Si8 0.265518 0.648113 0.337233
O O1 0.256526 0.446517 0.876844
O O2 0.360835 0.951095 0.683180
O O3 0.413214 0.732406 0.990136
O O4 0.198141 0.588810 0.981223
O O5 0.456675 0.608356 0.759808
O O6 0.212799 0.134208 0.834425
O O7 0.352579 0.239028 0.067473
O O8 0.644334 0.683012 0.721079
O O9 0.667548 0.105638 0.653463
O O10 0.570877 0.805476 0.194883
O O11 0.355424 0.650340 0.268024
O O12 0.757436 0.898897 0.376478
O O13 0.811560 0.624129 0.475305
O O14 0.998824 0.157187 0.258199
O O15 0.500000 0.500000 0.500000
O O16 0.169367 0.622019 0.208708
O O17 0.000000 0.500000 0.000000
#
# Coordination Sequence:
#
# PCOD9008093 Si02
#       8
#     2   2   2   2   2   2   2   2
#     4  10  23  40  65  91 124 171 216 263 310 372
#     4  10  22  38  63  96 128 163 212 268 314 381
#     4  10  21  39  63  98 130 163 214 261 321 379
#     4  10  21  39  64  96 128 166 209 262 319 380
#     4  12  24  40  62  94 133 171 207 258 324 380
#     4  12  22  37  61  97 132 162 202 263 328 387
#     4  11  23  44  68  88 120 176 227 258 303 377
#     4  11  24  41  66  94 130 170 210 267 322 378
#
# _framework density 22.709035
#
# number of rings (size 3 to 8) (size 9 to 14) (size 15 to 20)
#    0.000    1.250    3.750    2.250    1.750    2.000 
#    0.000    1.250    0.000    8.250    0.000    0.000 
#    0.000    0.000    0.000    0.000    0.000    0.000 
#
# Total GULP energy -89273.953592 kJ/mol
# GULP energy per Si atom -5579.622100 kJ/mol
# Density = 2.265735 g / cm^3
# Si number density = 22.709035 Si / 1000 Ang^3
#
#
#
# Elastic Constant Matrix: (Units=GPa)
#
#
# Indices 1 2 3 4 5 6 
#
# 1 67.8779 27.4484 22.2469 -7.5558 11.8016 -6.2581
# 2 27.4484 105.3539 9.7417 -15.6724 -7.4972 -8.7318
# 3 22.2469 9.7417 61.2983 -31.0784 4.3513 -12.2371
# 4 -7.5558 -15.6724 -31.0784 46.3839 -3.8583 10.1051
# 5 11.8016 -7.4972 4.3513 -3.8583 29.2446 -4.1780
# 6 -6.2581 -8.7318 -12.2371 10.1051 -4.1780 35.4243
#
#
#
# Elastic Compliance Matrix: (Units=1/GPa)
#
#
# Indices 1 2 3 4 5 6 
#
# 1 0.021143 -0.006193 -0.008737 -0.005199 -0.009571 -0.000455
# 2 -0.006193 0.012218 0.002885 0.005089 0.006187 0.002192
# 3 -0.008737 0.002885 0.028922 0.018239 0.002984 0.004307
# 4 -0.005199 0.005089 0.018239 0.035712 0.004977 -0.002964
# 5 -0.009571 0.006187 0.002984 0.004977 0.040458 0.004217
# 6 -0.000455 0.002192 0.004307 -0.002964 0.004217 0.031520
#
#
# Mechanical properties :
#
#
# Convention : Reuss Voigt Hill
#
# Bulk Modulus (GPa) = 26.18336 39.26712 32.72524
# Shear Modulus (GPa) = 24.17870 33.88344 29.03107
#
# Velocity S-wave (km/s) = 3.26654 3.86692 3.57934
# Velocity P-wave (km/s) = 5.07760 6.10462 5.61464
#
# Compressibility (1/GPa) = 0.03819219
#
# Stress axis : x y z
#
# Youngs Moduli (GPa) = 47.29587 81.84935 34.57633
#
# Poissons Ratio (x) = 0.50689 0.30208
# Poissons Ratio (y) = 0.29290 -0.09974
# Poissons Ratio (z) = 0.41321 -0.23610
#
# Static dielectric constant tensor:
#      x y z
#    x 1.915390 -0.045560 0.023570 
#    y -0.045560 1.852810 -0.010620 
#    z 0.023570 -0.010620 1.973980 
# 
# From -- ./inp_files/179213.got.cif
#   From: 2010.05.17/outbox.cif.g08.bks.cpg/sg2_90_cif.got.tgz:179213.got - 2010.06.03 11:33:40.
