data_PCOD9008602
_publ_section_title
;
Structure prediction by ZEFSAII (Michael W. Deem and Ramdas Pophale) SiO2 
 PCOD9008602
Probable space group: P -1
;
_chemical_formula_sum "Si O2"
_cell_formula_units_Z 14
_cell_length_a 23.140252
_cell_length_b 23.110174
_cell_length_c 8.475781
_cell_angle_alpha 37.047449
_cell_angle_beta 37.755978
_cell_angle_gamma 12.646242
_cell_volume 595.439489
_symmetry_space_group_name_H-M "P -1"
_symmetry_group_IT_number 2
_symmetry_cell_setting 'triclinic'
loop_
_space_group_symop_operation_xyz
x,y,z
-x,-y,-z
loop_
_atom_site_type_symbol
_atom_site_label
_atom_site_fract_x
_atom_site_fract_y
_atom_site_fract_z
Si Si1 0.772288 0.290838 0.308361
Si Si2 0.368008 0.852090 0.346419
Si Si3 0.449884 0.895563 0.350939
Si Si4 0.777560 0.725200 0.797581
Si Si5 0.879398 0.382962 0.070578
Si Si6 0.306246 0.277424 0.493808
Si Si7 0.754765 0.241783 0.119598
O O1 0.500000 0.500000 0.500000
O O2 0.826288 0.342149 0.160839
O O3 0.773854 0.298104 0.099189
O O4 0.000000 0.000000 0.500000
O O5 0.339010 0.911775 0.460275
O O6 0.672382 0.567011 0.258964
O O7 0.272505 0.834888 0.570210
O O8 0.178396 0.095930 0.113960
O O9 0.611371 0.728360 0.527554
O O10 0.227311 0.183481 0.261231
O O11 0.638153 0.771591 0.089175
O O12 0.065970 0.441315 0.721487
O O13 0.570063 0.962349 0.598927
O O14 0.799248 0.557320 0.777972
O O15 0.500000 0.500000 0.000000
O O16 0.000000 0.000000 0.000000
#
# Coordination Sequence:
#
# PCOD9008602 Si02
#       7
#     2   2   2   2   2   2   2
#     4  12  23  46  68  88 130 180 203 252 328 394
#     4  12  26  43  62  96 131 163 207 269 322 364
#     4   9  23  39  69  87 130 163 212 261 315 365
#     4   9  20  39  67  91 122 166 215 251 318 373
#     4  12  25  43  63  94 131 167 210 253 322 389
#     4  10  21  39  65  92 120 166 216 252 301 390
#     4  12  26  43  67  98 125 162 221 270 310 374
#
# _framework density 23.512043999999999
#
# number of rings (size 3 to 8) (size 9 to 14) (size 15 to 20)
#    0.857    0.286    2.857    3.000    4.000    1.143 
#    0.000    4.286    0.000    0.000    0.000    0.000 
#    0.000    0.000    0.000    0.000    0.000    0.000 
#
# Total GULP energy -78299.305221 kJ/mol
# GULP energy per Si atom -5592.807516 kJ/mol
# Density = 2.345853 g / cm^3
# Si number density = 23.512044 Si / 1000 Ang^3
#
#
#
# Elastic Constant Matrix: (Units=GPa)
#
#
# Indices 1 2 3 4 5 6 
#
# 1 137.1630 11.3195 -21.6401 -8.5744 16.6382 11.4506
# 2 11.3195 116.9320 -4.6544 -6.6490 7.0496 -8.9532
# 3 -21.6401 -4.6544 39.4090 -15.9539 12.0432 1.5160
# 4 -8.5744 -6.6490 -15.9539 39.2965 -3.1455 9.8951
# 5 16.6382 7.0496 12.0432 -3.1455 28.8973 -7.3878
# 6 11.4506 -8.9532 1.5160 9.8951 -7.3878 26.8026
#
#
#
# Elastic Compliance Matrix: (Units=1/GPa)
#
#
# Indices 1 2 3 4 5 6 
#
# 1 0.016600 0.000070 0.023703 0.016681 -0.022981 -0.020902
# 2 0.000070 0.009047 0.002797 0.002136 -0.002859 0.001257
# 3 0.023703 0.002797 0.073010 0.042001 -0.051161 -0.042930
# 4 0.016681 0.002136 0.042001 0.053339 -0.031311 -0.037111
# 5 -0.022981 -0.002859 -0.051161 -0.031311 0.077899 0.044788
# 6 -0.020902 0.001257 -0.042930 -0.037111 0.044788 0.075134
#
#
# Mechanical properties :
#
#
# Convention : Reuss Voigt Hill
#
# Bulk Modulus (GPa) = 6.58769 29.28379 17.93574
# Shear Modulus (GPa) = 16.52969 39.56455 28.04712
#
# Velocity S-wave (km/s) = 2.65435 4.10657 3.45756
# Velocity P-wave (km/s) = 3.49314 5.91329 4.85639
#
# Compressibility (1/GPa) = 0.15179819
#
# Stress axis : x y z
#
# Youngs Moduli (GPa) = 60.24164 110.53845 13.69669
#
# Poissons Ratio (x) = -0.00776 -0.32466
# Poissons Ratio (y) = -0.00423 -0.03831
# Poissons Ratio (z) = -1.42793 -0.30920
#
# Static dielectric constant tensor:
#      x y z
#    x 1.839050 -0.054100 -0.231070 
#    y -0.054100 1.840180 -0.103100 
#    z -0.231070 -0.103100 1.412670 
# 
# From -- ./inp_files/357944.got.cif
#   From: 2010.05.17/outbox.cif.g08.bks.cpg/sg2_179_cif.got.tgz:357944.got - 2010.06.03 11:33:40.
