data_PCOD9008062
_publ_section_title
;
Structure prediction by ZEFSAII (Michael W. Deem and Ramdas Pophale) SiO2 
 PCOD9008062
Probable space group: P -1
;
_chemical_formula_sum "Si O2"
_cell_formula_units_Z 12
_cell_length_a 9.840933
_cell_length_b 11.096214
_cell_length_c 9.530241
_cell_angle_alpha 43.797010
_cell_angle_beta 79.975564
_cell_angle_gamma 112.453122
_cell_volume 473.329325
_symmetry_space_group_name_H-M "P -1"
_symmetry_group_IT_number 2
_symmetry_cell_setting 'triclinic'
loop_
_space_group_symop_operation_xyz
x,y,z
-x,-y,-z
loop_
_atom_site_type_symbol
_atom_site_label
_atom_site_fract_x
_atom_site_fract_y
_atom_site_fract_z
Si Si1 0.553715 0.717583 0.439020
Si Si2 0.231561 0.868731 0.741646
Si Si3 0.924018 0.820487 0.301031
Si Si4 0.168317 0.264232 0.076382
Si Si5 0.601143 0.335955 0.085293
Si Si6 0.586343 0.264384 0.821336
O O1 0.715781 0.729145 0.453849
O O2 0.531579 0.712734 0.281368
O O3 0.657848 0.991112 0.247086
O O4 0.334911 0.488988 0.744678
O O5 0.235467 0.664846 0.904491
O O6 0.022985 0.781973 0.848641
O O7 0.392957 0.093891 0.409639
O O8 0.832648 0.542742 0.521621
O O9 0.079746 0.000213 0.250769
O O10 0.000000 0.000000 0.000000
O O11 0.288805 0.390228 0.097013
O O12 0.552082 0.272943 0.983415
O O13 0.500000 0.000000 0.000000
#
# Coordination Sequence:
#
# PCOD9008062 Si02
#       6
#     2   2   2   2   2   2
#     4  10  21  43  69  91 132 175 217 264 324 397
#     4   9  19  39  65  93 130 182 210 258 331 394
#     4  11  24  43  71  95 127 181 216 260 334 396
#     4  10  21  41  67  93 124 179 224 247 325 402
#     4  10  21  39  63  95 137 167 213 276 322 375
#     4  12  24  43  67 101 134 164 216 283 324 370
#
# _framework density 25.352326999999999
#
# number of rings (size 3 to 8) (size 9 to 14) (size 15 to 20)
#    0.000    1.667    3.333    1.000    0.000    0.667 
#    3.000    9.167    0.000    0.000    0.000    0.000 
#    0.000    0.000    0.000    0.000    0.000    0.000 
#
# Total GULP energy -67029.847682 kJ/mol
# GULP energy per Si atom -5585.820640 kJ/mol
# Density = 2.529462 g / cm^3
# Si number density = 25.352327 Si / 1000 Ang^3
#
#
#
# Elastic Constant Matrix: (Units=GPa)
#
#
# Indices 1 2 3 4 5 6 
#
# 1 86.7846 15.1066 35.1211 3.3559 -12.1855 6.4986
# 2 15.1066 265.6276 84.8883 -18.9664 12.7859 23.4415
# 3 35.1211 84.8883 93.6893 -1.9301 -13.6553 4.8296
# 4 3.3559 -18.9664 -1.9301 65.1308 -6.6164 10.4261
# 5 -12.1855 12.7859 -13.6553 -6.6164 37.8345 -0.9484
# 6 6.4986 23.4415 4.8296 10.4261 -0.9484 31.0281
#
#
#
# Elastic Compliance Matrix: (Units=1/GPa)
#
#
# Indices 1 2 3 4 5 6 
#
# 1 0.014251 0.001331 -0.006115 0.000149 0.001883 -0.003031
# 2 0.001331 0.006657 -0.006817 0.002068 -0.004047 -0.005065
# 3 -0.006115 -0.006817 0.020016 -0.000933 0.007492 0.003858
# 4 0.000149 0.002068 -0.000933 0.017260 0.001850 -0.007191
# 5 0.001883 -0.004047 0.007492 0.001850 0.031479 0.001837
# 6 -0.003031 -0.005065 0.003858 -0.007191 0.001837 0.038563
#
#
# Mechanical properties :
#
#
# Convention : Reuss Voigt Hill
#
# Bulk Modulus (GPa) = 56.42131 79.59260 68.00696
# Shear Modulus (GPa) = 31.77982 47.53104 39.65543
#
# Velocity S-wave (km/s) = 3.54436 4.33462 3.95925
# Velocity P-wave (km/s) = 6.24925 7.51762 6.91259
#
# Compressibility (1/GPa) = 0.01772380
#
# Stress axis : x y z
#
# Youngs Moduli (GPa) = 70.16936 150.22231 49.96064
#
# Poissons Ratio (x) = -0.19995 0.30548
# Poissons Ratio (y) = -0.09340 0.34056
# Poissons Ratio (z) = 0.42905 1.02399
#
# Static dielectric constant tensor:
#      x y z
#    x 2.004480 -0.078520 0.062240 
#    y -0.078520 2.094570 -0.085500 
#    z 0.062240 -0.085500 2.063150 
# 
# From -- ./inp_files/40303.got.cif
#   From: 2010.05.17/outbox.cif.g08.bks.cpg/sg2_21_cif.got.tgz:40303.got - 2010.06.03 11:33:40.
