data_PCOD9008568
_publ_section_title
;
Structure prediction by ZEFSAII (Michael W. Deem and Ramdas Pophale) SiO2 
 PCOD9008568
Probable space group: P -1
;
_chemical_formula_sum "Si O2"
_cell_formula_units_Z 16
_cell_length_a 14.574720
_cell_length_b 15.942172
_cell_length_c 6.616653
_cell_angle_alpha 68.428823
_cell_angle_beta 106.802657
_cell_angle_gamma 52.935442
_cell_volume 827.749092
_symmetry_space_group_name_H-M "P -1"
_symmetry_group_IT_number 2
_symmetry_cell_setting 'triclinic'
loop_
_space_group_symop_operation_xyz
x,y,z
-x,-y,-z
loop_
_atom_site_type_symbol
_atom_site_label
_atom_site_fract_x
_atom_site_fract_y
_atom_site_fract_z
Si Si1 0.900332 0.453960 0.409161
Si Si2 0.102618 0.218743 0.393637
Si Si3 0.091277 0.385956 0.972174
Si Si4 0.799458 0.337494 0.961626
Si Si5 0.292855 0.894378 0.851420
Si Si6 0.833592 0.143882 0.869280
Si Si7 0.391408 0.429316 0.705376
Si Si8 0.674533 0.294594 0.230019
O O1 0.825998 0.593207 0.110589
O O2 0.764520 0.485666 0.353490
O O3 0.039991 0.308128 0.486288
O O4 0.974675 0.434606 0.682185
O O5 0.219148 0.047339 0.645539
O O6 0.173024 0.240692 0.265532
O O7 0.940600 0.301214 0.119825
O O8 0.000000 0.500000 0.000000
O O9 0.852655 0.214484 0.965328
O O10 0.658792 0.489466 0.611144
O O11 0.749368 0.326184 0.146218
O O12 0.245949 0.856952 0.679699
O O13 0.227373 0.895919 0.009333
O O14 0.484080 0.745111 0.102562
O O15 0.706251 0.265061 0.511065
O O16 0.000000 0.000000 0.000000
O O17 0.497275 0.416119 0.923184
#
# Coordination Sequence:
#
# PCOD9008568 Si02
#       8
#     2   2   2   2   2   2   2   2
#     4  10  21  39  65  91 111 152 200 238 298 361
#     4  11  21  37  65  88 115 153 199 248 286 352
#     4   9  20  40  64  92 117 142 195 252 291 348
#     4  11  22  36  58  86 117 160 209 236 288 342
#     4   9  23  39  52  87 124 152 194 247 292 337
#     4  11  22  36  57  83 122 166 206 245 283 338
#     4  10  22  41  55  87 123 158 194 246 298 353
#     4   9  22  38  54  79 128 159 197 240 291 336
#
# _framework density 19.329529999999998
#
# number of rings (size 3 to 8) (size 9 to 14) (size 15 to 20)
#    0.750    1.250    1.250    1.875    3.500    4.500 
#    0.000    0.625    0.000    6.750    0.000    0.000 
#    0.000    0.000    0.000    0.000    0.000    0.000 
#
# Total GULP energy -89205.605398 kJ/mol
# GULP energy per Si atom -5575.350337 kJ/mol
# Density = 1.928553 g / cm^3
# Si number density = 19.329530 Si / 1000 Ang^3
#
#
#
# Elastic Constant Matrix: (Units=GPa)
#
#
# Indices 1 2 3 4 5 6 
#
# 1 30.3383 12.7444 3.3330 -4.7855 -25.8602 4.2388
# 2 12.7444 86.5237 43.2752 -5.8564 -12.4709 3.1476
# 3 3.3330 43.2752 77.5472 -1.5302 -15.8405 10.2063
# 4 -4.7855 -5.8564 -1.5302 31.2142 -1.3788 -1.3087
# 5 -25.8602 -12.4709 -15.8405 -1.3788 33.6604 -0.3425
# 6 4.2388 3.1476 10.2063 -1.3087 -0.3425 23.5945
#
#
#
# Elastic Compliance Matrix: (Units=1/GPa)
#
#
# Indices 1 2 3 4 5 6 
#
# 1 0.164073 -0.020047 0.037930 0.027649 0.137203 -0.039683
# 2 -0.020047 0.018901 -0.013594 -0.000564 -0.014751 0.006715
# 3 0.037930 -0.013594 0.028862 0.005650 0.037749 -0.016624
# 4 0.027649 -0.000564 0.005650 0.037353 0.025172 -0.004899
# 5 0.137203 -0.014751 0.037749 0.025172 0.148086 -0.035464
# 6 -0.039683 0.006715 -0.016624 -0.004899 -0.035464 0.055021
#
#
# Mechanical properties :
#
#
# Convention : Reuss Voigt Hill
#
# Bulk Modulus (GPa) = 4.53694 34.79047 19.66370
# Shear Modulus (GPa) = 9.66765 26.69761 18.18263
#
# Velocity S-wave (km/s) = 2.23883 3.72046 3.07036
# Velocity P-wave (km/s) = 3.00589 6.04098 4.77121
#
# Compressibility (1/GPa) = 0.22041304
#
# Stress axis : x y z
#
# Youngs Moduli (GPa) = 6.09486 52.90738 34.64805
#
# Poissons Ratio (x) = 1.06065 -1.31421
# Poissons Ratio (y) = 0.12219 0.47101
# Poissons Ratio (z) = -0.23118 0.71923
#
# Static dielectric constant tensor:
#      x y z
#    x 1.661810 0.011780 -0.017160 
#    y 0.011780 1.717980 -0.014210 
#    z -0.017160 -0.014210 1.683290 
# 
# From -- ./inp_files/96917.got.cif
#   From: 2010.05.17/outbox.cif.g08.bks.cpg/sg2_49_cif.got.tgz:96917.got - 2010.06.03 11:33:40.
