data_PCOD9008890
_publ_section_title
;
Structure prediction by ZEFSAII (Michael W. Deem and Ramdas Pophale) SiO2 
 PCOD9008890
Probable space group: P -1
;
_chemical_formula_sum "Si O2"
_cell_formula_units_Z 13
_cell_length_a 11.057571
_cell_length_b 12.132943
_cell_length_c 9.991859
_cell_angle_alpha 75.447940
_cell_angle_beta 102.396811
_cell_angle_gamma 155.624694
_cell_volume 535.161266
_symmetry_space_group_name_H-M "P -1"
_symmetry_group_IT_number 2
_symmetry_cell_setting 'triclinic'
loop_
_space_group_symop_operation_xyz
x,y,z
-x,-y,-z
loop_
_atom_site_type_symbol
_atom_site_label
_atom_site_fract_x
_atom_site_fract_y
_atom_site_fract_z
Si Si1 0.212014 0.697694 0.682949
Si Si2 0.876876 0.755439 0.144419
Si Si3 0.000000 0.000000 0.500000
Si Si4 0.337605 0.755323 0.982163
Si Si5 0.616488 0.483206 0.420995
Si Si6 0.545749 0.697333 0.030078
Si Si7 0.409031 0.783247 0.410049
O O1 0.361337 0.764183 0.824481
O O2 0.334429 0.753746 0.555005
O O3 0.862059 0.396717 0.686519
O O4 0.299865 0.904790 0.650712
O O5 0.807538 0.615326 0.293739
O O6 0.735443 0.585083 0.028431
O O7 0.693262 0.718167 0.140971
O O8 0.205264 0.061945 0.092628
O O9 0.802604 0.738184 0.456004
O O10 0.725114 0.779600 0.612514
O O11 0.455779 0.735837 0.075388
O O12 0.000000 0.500000 0.000000
O O13 0.500000 0.000000 0.000000
O O14 0.581789 0.344731 0.552163
#
# Coordination Sequence:
#
# PCOD9008890 Si02
#       7
#     2   2   1   2   2   2   2
#     4  10  22  40  62  95 121 163 218 256 308 375
#     4  10  21  40  70  89 121 154 219 270 313 352
#     4  10  24  38  54  88 130 150 216 228 320 408
#     4  12  25  43  62  94 136 175 208 258 327 399
#     4  11  21  41  60  93 121 170 194 266 319 376
#     4  10  22  41  63  97 116 162 215 265 307 371
#     4  10  21  39  66  91 122 159 214 269 308 360
#
# _framework density 24.291744999999999
#
# number of rings (size 3 to 8) (size 9 to 14) (size 15 to 20)
#    0.000    1.538    0.000    4.615    0.000    3.692 
#   16.615    0.000    0.000    0.000    0.000    0.000 
#    0.000    0.000    0.000    0.000    0.000    0.000 
#
# Total GULP energy -72446.181206 kJ/mol
# GULP energy per Si atom -5572.783170 kJ/mol
# Density = 2.423646 g / cm^3
# Si number density = 24.291745 Si / 1000 Ang^3
#
#
#
# Elastic Constant Matrix: (Units=GPa)
#
#
# Indices 1 2 3 4 5 6 
#
# 1 91.2764 31.3444 -3.4958 4.0085 6.8895 -26.8934
# 2 31.3444 168.6254 3.1000 -2.0223 -4.6187 -19.1724
# 3 -3.4958 3.1000 46.1407 5.5386 9.9227 -2.5954
# 4 4.0085 -2.0223 5.5386 35.6275 -3.0889 -7.1164
# 5 6.8895 -4.6187 9.9227 -3.0889 17.3854 -7.9196
# 6 -26.8934 -19.1724 -2.5954 -7.1164 -7.9196 31.2651
#
#
#
# Elastic Compliance Matrix: (Units=1/GPa)
#
#
# Indices 1 2 3 4 5 6 
#
# 1 0.015239 -0.001629 0.002492 -0.000097 -0.002612 0.011633
# 2 -0.001629 0.007025 -0.001961 0.002407 0.006283 0.004884
# 3 0.002492 -0.001961 0.026853 -0.006940 -0.019606 -0.003376
# 4 -0.000097 0.002407 -0.006940 0.033194 0.016222 0.012481
# 5 -0.002612 0.006283 -0.019606 0.016222 0.085878 0.025425
# 6 0.011633 0.004884 -0.003376 0.012481 0.025425 0.053987
#
#
# Mechanical properties :
#
#
# Convention : Reuss Voigt Hill
#
# Bulk Modulus (GPa) = 21.31199 40.88220 31.09710
# Shear Modulus (GPa) = 20.83225 35.19518 28.01372
#
# Velocity S-wave (km/s) = 2.93163 3.81051 3.39959
# Velocity P-wave (km/s) = 4.50019 6.01882 5.31403
#
# Compressibility (1/GPa) = 0.04692194
#
# Stress axis : x y z
#
# Youngs Moduli (GPa) = 65.61977 142.34157 37.24004
#
# Poissons Ratio (x) = 0.23182 -0.09279
# Poissons Ratio (y) = 0.10687 0.07302
# Poissons Ratio (z) = -0.16351 0.27912
#
# Static dielectric constant tensor:
#      x y z
#    x 2.015870 -0.006600 0.000680 
#    y -0.006600 1.843870 0.006160 
#    z 0.000680 0.006160 1.921820 
# 
# From -- ./inp_files/425801.got.cif
#   From: 2010.05.17/outbox.cif.g08.bks.cpg/sg2_213_cif.got.tgz:425801.got - 2010.06.03 11:33:40.
