data_PCOD9008321
_publ_section_title
;
Structure prediction by ZEFSAII (Michael W. Deem and Ramdas Pophale) SiO2 
 PCOD9008321
Probable space group: P -1
;
_chemical_formula_sum "Si O2"
_cell_formula_units_Z 12
_cell_length_a 12.257554
_cell_length_b 10.808865
_cell_length_c 16.476171
_cell_angle_alpha 47.397135
_cell_angle_beta 22.919201
_cell_angle_gamma 34.664655
_cell_volume 450.325114
_symmetry_space_group_name_H-M "P -1"
_symmetry_group_IT_number 2
_symmetry_cell_setting 'triclinic'
loop_
_space_group_symop_operation_xyz
x,y,z
-x,-y,-z
loop_
_atom_site_type_symbol
_atom_site_label
_atom_site_fract_x
_atom_site_fract_y
_atom_site_fract_z
Si Si1 0.081014 0.132419 0.487160
Si Si2 0.071224 0.547614 0.688410
Si Si3 0.461923 0.914287 0.650201
Si Si4 0.248550 0.657273 0.962236
Si Si5 0.206149 0.256445 0.925350
Si Si6 0.018316 0.850896 0.727235
O O1 0.280365 0.116736 0.439566
O O2 0.938129 0.341939 0.436734
O O3 0.367699 0.906227 0.331950
O O4 0.806763 0.100128 0.722652
O O5 0.014298 0.697874 0.735848
O O6 0.524895 0.302452 0.496625
O O7 0.752670 0.529796 0.913337
O O8 0.500000 0.000000 0.500000
O O9 0.529485 0.685019 0.720080
O O10 0.014342 0.136049 0.883426
O O11 0.027581 0.699153 0.013323
O O12 0.000000 0.500000 0.000000
O O13 0.183542 0.115845 0.066588
#
# Coordination Sequence:
#
# PCOD9008321 Si02
#       6
#     2   2   2   2   2   2
#     4  11  24  42  63  98 128 167 220 261 313 380
#     4  11  22  41  64  96 133 167 209 267 314 380
#     4  10  21  42  67  88 124 171 214 265 317 373
#     4  10  21  39  64  93 125 166 213 262 318 375
#     4  11  20  39  67  91 127 171 208 258 322 375
#     4  11  21  41  62  91 137 169 202 258 323 378
#
# _framework density 26.647416
#
# number of rings (size 3 to 8) (size 9 to 14) (size 15 to 20)
#    0.000    1.333    5.000    2.500    0.000    1.333 
#    3.000    0.833    0.000    0.000    0.000    0.000 
#    0.000    0.000    0.000    0.000    0.000    0.000 
#
# Total GULP energy -67039.278025 kJ/mol
# GULP energy per Si atom -5586.606502 kJ/mol
# Density = 2.658677 g / cm^3
# Si number density = 26.647416 Si / 1000 Ang^3
#
#
#
# Elastic Constant Matrix: (Units=GPa)
#
#
# Indices 1 2 3 4 5 6 
#
# 1 86.8202 38.8369 42.0055 -9.8826 23.1988 -16.1153
# 2 38.8369 135.6951 78.8104 -47.9972 6.1590 -12.3205
# 3 42.0055 78.8104 148.2887 -40.4871 38.0207 -6.6135
# 4 -9.8826 -47.9972 -40.4871 69.8228 -9.5481 11.7873
# 5 23.1988 6.1590 38.0207 -9.5481 56.4532 -18.1873
# 6 -16.1153 -12.3205 -6.6135 11.7873 -18.1873 40.3003
#
#
#
# Elastic Compliance Matrix: (Units=1/GPa)
#
#
# Indices 1 2 3 4 5 6 
#
# 1 0.015593 -0.003729 -0.002006 -0.002692 -0.003880 0.003802
# 2 -0.003729 0.014176 -0.006315 0.005916 0.006159 0.002856
# 3 -0.002006 -0.006315 0.013471 0.002885 -0.008790 -0.005332
# 4 -0.002692 0.005916 0.002885 0.020522 0.000519 -0.004563
# 5 -0.003880 0.006159 -0.008790 0.000519 0.028360 0.011536
# 6 0.003802 0.002856 -0.005332 -0.004563 0.011536 0.032873
#
#
# Mechanical properties :
#
#
# Convention : Reuss Voigt Hill
#
# Bulk Modulus (GPa) = 52.24030 76.67883 64.45957
# Shear Modulus (GPa) = 32.15975 47.39200 39.77587
#
# Velocity S-wave (km/s) = 3.47776 4.22178 3.86770
# Velocity P-wave (km/s) = 5.98107 7.25275 6.64739
#
# Compressibility (1/GPa) = 0.01914231
#
# Stress axis : x y z
#
# Youngs Moduli (GPa) = 64.13321 70.53983 74.23183
#
# Poissons Ratio (x) = 0.26301 0.14889
# Poissons Ratio (y) = 0.23912 0.46875
# Poissons Ratio (z) = 0.12863 0.44544
#
# Static dielectric constant tensor:
#      x y z
#    x 2.022060 -0.021490 -0.062830 
#    y -0.021490 2.263450 -0.023380 
#    z -0.062830 -0.023380 2.126950 
# 
# From -- ./inp_files/518717.got.cif
#   From: 2010.05.17/outbox.cif.g08.bks.cpg/sg2_260_cif.got.tgz:518717.got - 2010.06.03 11:33:40.
