data_PCOD9008990
_publ_section_title
;
Structure prediction by ZEFSAII (Michael W. Deem and Ramdas Pophale) SiO2 
 PCOD9008990
Probable space group: P -1
;
_chemical_formula_sum "Si O2"
_cell_formula_units_Z 13
_cell_length_a 9.146474
_cell_length_b 14.406034
_cell_length_c 5.386255
_cell_angle_alpha 103.680809
_cell_angle_beta 52.831506
_cell_angle_gamma 126.811734
_cell_volume 443.935272
_symmetry_space_group_name_H-M "P -1"
_symmetry_group_IT_number 2
_symmetry_cell_setting 'triclinic'
loop_
_space_group_symop_operation_xyz
x,y,z
-x,-y,-z
loop_
_atom_site_type_symbol
_atom_site_label
_atom_site_fract_x
_atom_site_fract_y
_atom_site_fract_z
Si Si1 0.200131 0.941397 0.309383
Si Si2 0.328641 0.325382 0.835735
Si Si3 0.141939 0.755085 0.925121
Si Si4 0.500000 0.000000 0.500000
Si Si5 0.770818 0.537061 0.669997
Si Si6 0.254840 0.631178 0.027672
Si Si7 0.705759 0.855744 0.938050
O O1 0.203741 0.833852 0.156873
O O2 0.947159 0.897742 0.603813
O O3 0.362720 0.011408 0.414706
O O4 0.290808 0.027240 0.019265
O O5 0.413327 0.561450 0.398803
O O6 0.122667 0.299507 0.867882
O O7 0.276301 0.366788 0.171156
O O8 0.307664 0.206047 0.829290
O O9 0.193985 0.659538 0.841317
O O10 0.294956 0.852723 0.624323
O O11 0.731624 0.469413 0.928828
O O12 0.028887 0.600468 0.377528
O O13 0.494143 0.751217 0.934575
#
# Coordination Sequence:
#
# PCOD9008990 Si02
#       7
#     2   2   2   1   2   2   2
#     4  11  24  43  65  95 135 166 218 259 318 398
#     4  10  21  41  65  94 132 172 211 268 325 368
#     4  12  25  40  68  98 130 172 211 263 328 380
#     4  12  24  44  66 100 124 176 210 268 312 402
#     4   9  21  42  67  92 130 168 224 266 311 387
#     4  10  21  39  66  96 126 170 217 267 318 372
#     4  10  21  41  63  94 132 170 207 265 320 383
#
# _framework density 29.283546000000001
#
# number of rings (size 3 to 8) (size 9 to 14) (size 15 to 20)
#    0.000    1.538    3.077    1.385    0.000    1.846 
#    0.000    4.615    0.000    0.000    0.000    0.000 
#    0.000    0.000    0.000    0.000    0.000    0.000 
#
# Total GULP energy -72635.677414 kJ/mol
# GULP energy per Si atom -5587.359801 kJ/mol
# Density = 2.921690 g / cm^3
# Si number density = 29.283546 Si / 1000 Ang^3
#
#
#
# Elastic Constant Matrix: (Units=GPa)
#
#
# Indices 1 2 3 4 5 6 
#
# 1 217.0705 62.7303 53.7822 -10.6722 -24.3966 22.8116
# 2 62.7303 127.6700 40.2556 -24.4344 2.7796 -8.9489
# 3 53.7822 40.2556 111.7457 -33.1396 -5.1155 6.3318
# 4 -10.6722 -24.4344 -33.1396 38.8310 -4.2459 3.1388
# 5 -24.3966 2.7796 -5.1155 -4.2459 47.9818 -8.4162
# 6 22.8116 -8.9489 6.3318 3.1388 -8.4162 71.5820
#
#
#
# Elastic Compliance Matrix: (Units=1/GPa)
#
#
# Indices 1 2 3 4 5 6 
#
# 1 0.006443 -0.002936 -0.002282 -0.001576 0.002743 -0.001827
# 2 -0.002936 0.010720 -0.001295 0.004506 -0.001499 0.002016
# 3 -0.002282 -0.001295 0.013728 0.010476 0.001134 -0.000975
# 4 -0.001576 0.004506 0.010476 0.037535 0.003177 -0.001133
# 5 0.002743 -0.001499 0.001134 0.003177 0.022970 0.001399
# 6 -0.001827 0.002016 -0.000975 -0.001133 0.001399 0.015105
#
#
# Mechanical properties :
#
#
# Convention : Reuss Voigt Hill
#
# Bulk Modulus (GPa) = 55.97498 85.55805 70.76651
# Shear Modulus (GPa) = 39.84612 51.66016 45.75314
#
# Velocity S-wave (km/s) = 3.69277 4.20472 3.95703
# Velocity P-wave (km/s) = 6.11051 7.27004 6.71535
#
# Compressibility (1/GPa) = 0.01786513
#
# Stress axis : x y z
#
# Youngs Moduli (GPa) = 155.19800 93.28266 72.84438
#
# Poissons Ratio (x) = 0.27387 0.16622
# Poissons Ratio (y) = 0.45565 0.09436
# Poissons Ratio (z) = 0.35415 0.12083
#
# Static dielectric constant tensor:
#      x y z
#    x 2.183940 0.034210 0.086250 
#    y 0.034210 2.228310 -0.046810 
#    z 0.086250 -0.046810 2.128690 
# 
# From -- ./inp_files/35076.got.cif
#   From: 2010.05.17/outbox.cif.g08.bks.cpg/sg2_18_cif.got.tgz:35076.got - 2010.06.03 11:33:40.
