data_PCOD9008938
_publ_section_title
;
Structure prediction by ZEFSAII (Michael W. Deem and Ramdas Pophale) SiO2 
 PCOD9008938
Probable space group: P -1
;
_chemical_formula_sum "Si O2"
_cell_formula_units_Z 15
_cell_length_a 19.745648
_cell_length_b 14.482918
_cell_length_c 7.263744
_cell_angle_alpha 51.238167
_cell_angle_beta 49.023271
_cell_angle_gamma 21.887129
_cell_volume 583.474965
_symmetry_space_group_name_H-M "P -1"
_symmetry_group_IT_number 2
_symmetry_cell_setting 'triclinic'
loop_
_space_group_symop_operation_xyz
x,y,z
-x,-y,-z
loop_
_atom_site_type_symbol
_atom_site_label
_atom_site_fract_x
_atom_site_fract_y
_atom_site_fract_z
Si Si1 0.322174 0.435864 0.995360
Si Si2 0.061739 0.416137 0.222982
Si Si3 0.033669 0.677767 0.730684
Si Si4 0.000000 0.000000 0.000000
Si Si5 0.359834 0.731282 0.722430
Si Si6 0.655580 0.201927 0.774784
Si Si7 0.590686 0.681196 0.453316
Si Si8 0.706109 0.801895 0.563867
O O1 0.519138 0.247600 0.969215
O O2 0.359668 0.381094 0.776324
O O3 0.167277 0.714790 0.970682
O O4 0.276971 0.358224 0.246929
O O5 0.076393 0.269990 0.291895
O O6 0.836769 0.691450 0.302759
O O7 0.181605 0.275392 0.366752
O O8 0.120240 0.467728 0.951648
O O9 0.203155 0.567323 0.510532
O O10 0.866286 0.942021 0.794884
O O11 0.166501 0.893890 0.917523
O O12 0.541973 0.436703 0.783361
O O13 0.335598 0.776382 0.486668
O O14 0.428802 0.770676 0.649687
O O15 0.499745 0.906969 0.412926
#
# Coordination Sequence:
#
# PCOD9008938 Si02
#       8
#     2   2   2   1   2   2   2   2
#     4  10  21  39  66  94 123 175 214 271 308 389
#     4  10  24  39  61  94 132 173 217 259 328 369
#     4  11  23  40  61  97 135 174 202 276 324 382
#     4  10  22  38  68  96 120 152 230 276 304 358
#     4   9  20  40  63  93 118 170 212 263 305 397
#     4   9  20  39  63  86 125 167 219 249 322 377
#     4  11  23  38  65  94 134 166 217 259 327 381
#     4  11  23  41  65  96 127 176 220 265 307 397
#
# _framework density 25.708044000000001
#
# number of rings (size 3 to 8) (size 9 to 14) (size 15 to 20)
#    0.000    1.867    1.333    2.800    9.333    1.067 
#    0.000    0.000    0.000    3.200    0.000    0.000 
#    0.000    0.000    0.000    0.000    0.000    0.000 
#
# Total GULP energy -83619.998237 kJ/mol
# GULP energy per Si atom -5574.666549 kJ/mol
# Density = 2.564953 g / cm^3
# Si number density = 25.708044 Si / 1000 Ang^3
#
#
#
# Elastic Constant Matrix: (Units=GPa)
#
#
# Indices 1 2 3 4 5 6 
#
# 1 87.4305 34.1788 24.6914 0.4620 -25.9013 -3.6323
# 2 34.1788 185.3065 23.4099 25.3255 -24.5932 -10.7423
# 3 24.6914 23.4099 49.5511 5.1115 -16.3106 -0.4820
# 4 0.4620 25.3255 5.1115 21.4596 -4.2519 -10.8709
# 5 -25.9013 -24.5932 -16.3106 -4.2519 43.1551 11.8012
# 6 -3.6323 -10.7423 -0.4820 -10.8709 11.8012 36.7582
#
#
#
# Elastic Compliance Matrix: (Units=1/GPa)
#
#
# Indices 1 2 3 4 5 6 
#
# 1 0.015629 -0.001961 -0.005108 0.004578 0.006759 0.000088
# 2 -0.001961 0.007243 -0.000875 -0.008531 0.002134 -0.001297
# 3 -0.005108 -0.000875 0.025964 -0.005894 0.006862 -0.004366
# 4 0.004578 -0.008531 -0.005894 0.066808 -0.002832 0.018549
# 5 0.006759 0.002134 0.006862 -0.002832 0.033557 -0.010229
# 6 0.000088 -0.001297 -0.004366 0.018549 -0.010229 0.035547
#
#
# Mechanical properties :
#
#
# Convention : Reuss Voigt Hill
#
# Bulk Modulus (GPa) = 30.35062 54.09425 42.22244
# Shear Modulus (GPa) = 23.62761 36.27513 29.95137
#
# Velocity S-wave (km/s) = 3.03491 3.76046 3.41700
# Velocity P-wave (km/s) = 4.91044 6.31998 5.65927
#
# Compressibility (1/GPa) = 0.03294825
#
# Stress axis : x y z
#
# Youngs Moduli (GPa) = 63.98527 138.07250 38.51463
#
# Poissons Ratio (x) = 0.27074 0.19673
# Poissons Ratio (y) = 0.12547 0.03369
# Poissons Ratio (z) = 0.32683 0.12078
#
# Static dielectric constant tensor:
#      x y z
#    x 2.029190 0.041160 0.035350 
#    y 0.041160 2.062170 0.030760 
#    z 0.035350 0.030760 2.065810 
# 
# From -- ./inp_files/203323.got.cif
#   From: 2010.05.17/outbox.cif.g08.bks.cpg/sg2_102_cif.got.tgz:203323.got - 2010.06.03 11:33:40.
