data_PCOD9008995
_publ_section_title
;
Structure prediction by ZEFSAII (Michael W. Deem and Ramdas Pophale) SiO2 
 PCOD9008995
Probable space group: P -1
;
_chemical_formula_sum "Si O2"
_cell_formula_units_Z 14
_cell_length_a 11.871520
_cell_length_b 17.415218
_cell_length_c 6.344235
_cell_angle_alpha 75.451746
_cell_angle_beta 58.584883
_cell_angle_gamma 35.392322
_cell_volume 606.947414
_symmetry_space_group_name_H-M "P -1"
_symmetry_group_IT_number 2
_symmetry_cell_setting 'triclinic'
loop_
_space_group_symop_operation_xyz
x,y,z
-x,-y,-z
loop_
_atom_site_type_symbol
_atom_site_label
_atom_site_fract_x
_atom_site_fract_y
_atom_site_fract_z
Si Si1 0.500043 0.916596 0.181077
Si Si2 0.720228 0.128474 0.673491
Si Si3 0.995644 0.334965 0.984398
Si Si4 0.244812 0.654807 0.480918
Si Si5 0.294109 0.755286 0.745679
Si Si6 0.092643 0.138182 0.720948
Si Si7 0.578561 0.593273 0.976008
O O1 0.360541 0.920669 0.178745
O O2 0.763227 0.756339 0.084092
O O3 0.357180 0.994550 0.485855
O O4 0.500000 0.000000 0.000000
O O5 0.663438 0.182724 0.451661
O O6 0.578580 0.258106 0.874037
O O7 0.000000 0.000000 0.500000
O O8 0.067009 0.222774 0.851608
O O9 0.825973 0.390082 0.301472
O O10 0.844088 0.466000 0.887272
O O11 0.260756 0.710900 0.615434
O O12 0.481586 0.557515 0.188442
O O13 0.044406 0.771714 0.423746
O O14 0.511323 0.627492 0.774305
O O15 0.054267 0.862494 0.039605
#
# Coordination Sequence:
#
# PCOD9008995 Si02
#       7
#     2   2   2   2   2   2   2
#     4  12  25  45  67  97 133 176 221 274 333 390
#     4  11  25  45  71  96 130 173 224 273 328 396
#     4  11  23  39  64  97 137 173 217 272 331 391
#     4   9  18  37  65  96 134 171 215 268 321 389
#     4   9  20  40  66  96 130 167 224 271 321 387
#     4  10  21  39  66  96 131 174 220 271 326 384
#     4  10  22  40  65  99 131 175 220 267 330 390
#
# _framework density 23.066248000000002
#
# number of rings (size 3 to 8) (size 9 to 14) (size 15 to 20)
#    0.000    1.714    1.429    3.429    2.000   10.286 
#    2.571    0.714    0.000    0.000    0.000    0.000 
#    0.000    0.000    0.000    0.000    0.000    0.000 
#
# Total GULP energy -78232.742573 kJ/mol
# GULP energy per Si atom -5588.053041 kJ/mol
# Density = 2.301375 g / cm^3
# Si number density = 23.066248 Si / 1000 Ang^3
#
#
#
# Elastic Constant Matrix: (Units=GPa)
#
#
# Indices 1 2 3 4 5 6 
#
# 1 101.4337 27.3875 27.8079 6.4675 -6.7930 0.8270
# 2 27.3875 84.4227 18.9527 7.4398 -7.4116 -26.6438
# 3 27.8079 18.9527 88.7842 -10.5727 7.9448 0.5739
# 4 6.4675 7.4398 -10.5727 37.9969 0.7618 6.4504
# 5 -6.7930 -7.4116 7.9448 0.7618 34.0456 4.3991
# 6 0.8270 -26.6438 0.5739 6.4504 4.3991 42.3192
#
#
#
# Elastic Compliance Matrix: (Units=1/GPa)
#
#
# Indices 1 2 3 4 5 6 
#
# 1 0.012095 -0.003442 -0.003534 -0.002028 0.002837 -0.002341
# 2 -0.003442 0.018613 -0.003984 -0.006348 0.002820 0.012514
# 3 -0.003534 -0.003984 0.014372 0.005994 -0.004665 -0.003063
# 4 -0.002028 -0.006348 0.005994 0.031070 -0.002784 -0.008485
# 5 0.002837 0.002820 -0.004665 -0.002784 0.031846 -0.001103
# 6 -0.002341 0.012514 -0.003063 -0.008485 -0.001103 0.033004
#
#
# Mechanical properties :
#
#
# Convention : Reuss Voigt Hill
#
# Bulk Modulus (GPa) = 43.17851 46.99298 45.08574
# Shear Modulus (GPa) = 29.30178 36.23849 32.77013
#
# Velocity S-wave (km/s) = 3.56804 3.96796 3.77330
# Velocity P-wave (km/s) = 5.97783 6.43508 6.21067
#
# Compressibility (1/GPa) = 0.02315967
#
# Stress axis : x y z
#
# Youngs Moduli (GPa) = 82.67892 53.72709 69.58162
#
# Poissons Ratio (x) = 0.18490 0.24588
# Poissons Ratio (y) = 0.28454 0.27725
# Poissons Ratio (z) = 0.29216 0.21408
#
# Static dielectric constant tensor:
#      x y z
#    x 1.891240 0.018000 0.006110 
#    y 0.018000 1.925500 0.023180 
#    z 0.006110 0.023180 1.887410 
# 
# From -- ./inp_files/70587.got.cif
#   From: 2010.05.17/outbox.cif.g08.bks.cpg/sg2_36_cif.got.tgz:70587.got - 2010.06.03 11:33:40.
