data_PCOD9008953
_publ_section_title
;
Structure prediction by ZEFSAII (Michael W. Deem and Ramdas Pophale) SiO2 
 PCOD9008953
Probable space group: P -1
;
_chemical_formula_sum "Si O2"
_cell_formula_units_Z 16
_cell_length_a 10.292212
_cell_length_b 14.706502
_cell_length_c 13.796772
_cell_angle_alpha 29.381376
_cell_angle_beta 137.362724
_cell_angle_gamma 118.813109
_cell_volume 609.321391
_symmetry_space_group_name_H-M "P -1"
_symmetry_group_IT_number 2
_symmetry_cell_setting 'triclinic'
loop_
_space_group_symop_operation_xyz
x,y,z
-x,-y,-z
loop_
_atom_site_type_symbol
_atom_site_label
_atom_site_fract_x
_atom_site_fract_y
_atom_site_fract_z
Si Si1 0.653053 0.313000 0.055846
Si Si2 0.434862 0.064595 0.582494
Si Si3 0.615562 0.756126 0.403372
Si Si4 0.292950 0.612962 0.708692
Si Si5 0.069811 0.480246 0.943347
Si Si6 0.571802 0.195987 0.929316
Si Si7 0.088867 0.055125 0.095899
Si Si8 0.076274 0.486658 0.441053
O O1 0.836639 0.354921 0.165460
O O2 0.646369 0.104528 0.282308
O O3 0.421992 0.513682 0.770529
O O4 0.683175 0.282649 0.985081
O O5 0.444289 0.188515 0.569329
O O6 0.679861 0.948014 0.789564
O O7 0.264697 0.246529 0.250458
O O8 0.437828 0.756499 0.233227
O O9 0.843018 0.549853 0.703099
O O10 0.661898 0.947529 0.219457
O O11 0.157144 0.865846 0.386513
O O12 0.110447 0.542707 0.689693
O O13 0.500000 0.500000 0.000000
O O14 0.000000 0.500000 0.000000
O O15 0.320237 0.296974 0.736283
O O16 0.926704 0.300361 0.792803
O O17 0.000000 0.000000 0.000000
O O18 0.000000 0.500000 0.500000
#
# Coordination Sequence:
#
# PCOD9008953 Si02
#       8
#     2   2   2   2   2   2   2   2
#     4  11  21  43  68  90 132 177 217 273 344 401
#     4  10  21  40  69  97 131 172 223 273 340 404
#     4   9  21  40  63  95 128 171 220 276 326 392
#     4  12  27  43  67 103 140 181 227 289 347 409
#     4  10  22  40  65  92 128 173 218 272 329 398
#     4  10  21  39  66  94 131 172 219 276 330 398
#     4  12  23  41  74 102 136 181 226 279 352 421
#     4  12  22  43  70 102 136 180 229 277 351 417
#
# _framework density 26.258723
#
# number of rings (size 3 to 8) (size 9 to 14) (size 15 to 20)
#    0.000    1.250    5.000    0.750    1.750    5.000 
#    2.250    2.500    0.000    1.500    0.000    0.000 
#    0.000    0.000    0.000    0.000    0.000    0.000 
#
# Total GULP energy -89575.740699 kJ/mol
# GULP energy per Si atom -5598.483794 kJ/mol
# Density = 2.619896 g / cm^3
# Si number density = 26.258723 Si / 1000 Ang^3
#
#
#
# Elastic Constant Matrix: (Units=GPa)
#
#
# Indices 1 2 3 4 5 6 
#
# 1 67.4795 21.4779 16.7368 -13.3505 -9.1372 14.6253
# 2 21.4779 111.6877 39.5074 -7.5545 -22.4940 12.3170
# 3 16.7368 39.5074 149.8042 -1.5785 -12.8039 10.7775
# 4 -13.3505 -7.5545 -1.5785 37.2249 -0.9030 -1.9715
# 5 -9.1372 -22.4940 -12.8039 -0.9030 29.3787 -5.4961
# 6 14.6253 12.3170 10.7775 -1.9715 -5.4961 45.2229
#
#
#
# Elastic Compliance Matrix: (Units=1/GPa)
#
#
# Indices 1 2 3 4 5 6 
#
# 1 0.018186 -0.001578 -0.000936 0.006003 0.003371 -0.004557
# 2 -0.001578 0.011781 -0.002192 0.001848 0.007407 -0.001195
# 3 -0.000936 -0.002192 0.007506 -0.000475 0.001143 -0.000771
# 4 0.006003 0.001848 -0.000475 0.029435 0.003871 -0.000578
# 5 0.003371 0.007407 0.001143 0.003871 0.041723 0.001859
# 6 -0.004557 -0.001195 -0.000771 -0.000578 0.001859 0.024296
#
#
# Mechanical properties :
#
#
# Convention : Reuss Voigt Hill
#
# Bulk Modulus (GPa) = 35.63859 53.82397 44.73128
# Shear Modulus (GPa) = 32.96104 39.11524 36.03814
#
# Velocity S-wave (km/s) = 3.54678 3.86373 3.70865
# Velocity P-wave (km/s) = 5.51130 6.35977 5.95068
#
# Compressibility (1/GPa) = 0.02805947
#
# Stress axis : x y z
#
# Youngs Moduli (GPa) = 54.98830 84.88155 133.22253
#
# Poissons Ratio (x) = 0.13398 0.12473
# Poissons Ratio (y) = 0.08679 0.29204
# Poissons Ratio (z) = 0.05148 0.18607
#
# Static dielectric constant tensor:
#      x y z
#    x 2.123920 -0.100240 -0.094080 
#    y -0.100240 2.074690 0.044940 
#    z -0.094080 0.044940 2.066300 
# 
# From -- ./inp_files/522200.got.cif
#   From: 2010.05.17/outbox.cif.g08.bks.cpg/sg2_262_cif.got.tgz:522200.got - 2010.06.03 11:33:40.
