data_PCOD9008702
_publ_section_title
;
Structure prediction by ZEFSAII (Michael W. Deem and Ramdas Pophale) SiO2 
 PCOD9008702
Probable space group: P -1
;
_chemical_formula_sum "Si O2"
_cell_formula_units_Z 14
_cell_length_a 11.456428
_cell_length_b 18.243540
_cell_length_c 17.821835
_cell_angle_alpha 161.211994
_cell_angle_beta 31.034282
_cell_angle_gamma 138.025182
_cell_volume 564.634613
_symmetry_space_group_name_H-M "P -1"
_symmetry_group_IT_number 2
_symmetry_cell_setting 'triclinic'
loop_
_space_group_symop_operation_xyz
x,y,z
-x,-y,-z
loop_
_atom_site_type_symbol
_atom_site_label
_atom_site_fract_x
_atom_site_fract_y
_atom_site_fract_z
Si Si1 0.834817 0.937716 0.806301
Si Si2 0.492896 0.329178 0.269070
Si Si3 0.766884 0.914175 0.338627
Si Si4 0.683492 0.611487 0.975946
Si Si5 0.439785 0.732919 0.580611
Si Si6 0.244682 0.004965 0.407241
Si Si7 0.255738 0.507639 0.339316
O O1 0.761509 0.705183 0.633418
O O2 0.092658 0.945268 0.648600
O O3 0.687861 0.062847 0.931117
O O4 0.735147 0.098812 0.093312
O O5 0.500000 0.500000 0.500000
O O6 0.543363 0.457475 0.292939
O O7 0.822990 0.657689 0.015998
O O8 0.476463 0.099761 0.679953
O O9 0.836489 0.878798 0.352687
O O10 0.500000 0.500000 0.000000
O O11 0.781419 0.464844 0.702892
O O12 0.298121 0.719418 0.569461
O O13 0.647766 0.830471 0.541022
O O14 0.487024 0.740501 0.029562
O O15 0.000000 0.000000 0.500000
O O16 0.000000 0.500000 0.500000
#
# Coordination Sequence:
#
# PCOD9008702 Si02
#       7
#     2   2   2   2   2   2   2
#     4  10  21  39  65  94 137 175 230 282 339 412
#     4   9  21  37  61  95 132 176 227 277 338 407
#     4  10  23  41  67  96 133 182 224 283 352 408
#     4  10  22  43  65  96 131 175 235 285 337 408
#     4  11  23  42  67 102 137 184 233 286 351 420
#     4  11  27  45  68 103 150 183 224 293 363 418
#     4  11  25  45  71 101 135 184 241 287 349 417
#
# _framework density 24.794795000000001
#
# number of rings (size 3 to 8) (size 9 to 14) (size 15 to 20)
#    0.000    1.714    0.000    2.571    8.000    5.714 
#    2.571    0.000    0.000    0.000    0.000    0.000 
#    0.000    0.000    0.000    0.000    0.000    0.000 
#
# Total GULP energy -78178.530588 kJ/mol
# GULP energy per Si atom -5584.180756 kJ/mol
# Density = 2.473836 g / cm^3
# Si number density = 24.794795 Si / 1000 Ang^3
#
#
#
# Elastic Constant Matrix: (Units=GPa)
#
#
# Indices 1 2 3 4 5 6 
#
# 1 188.9478 52.3615 54.9069 -21.1188 36.4185 0.3445
# 2 52.3615 152.1631 32.3476 -21.7478 9.3605 -3.4471
# 3 54.9069 32.3476 78.5166 -20.6717 8.0602 2.7697
# 4 -21.1188 -21.7478 -20.6717 37.5287 -7.8664 7.6590
# 5 36.4185 9.3605 8.0602 -7.8664 44.3440 -12.5799
# 6 0.3445 -3.4471 2.7697 7.6590 -12.5799 49.3828
#
#
#
# Elastic Compliance Matrix: (Units=1/GPa)
#
#
# Indices 1 2 3 4 5 6 
#
# 1 0.008157 -0.001500 -0.004317 0.000402 -0.005952 -0.001498
# 2 -0.001500 0.007791 -0.001454 0.002904 0.000452 0.000301
# 3 -0.004317 -0.001454 0.018247 0.007445 0.001313 -0.001915
# 4 0.000402 0.002904 0.007445 0.034155 0.002370 -0.004911
# 5 -0.005952 0.000452 0.001313 0.002370 0.029557 0.007161
# 6 -0.001498 0.000301 -0.001915 -0.004911 0.007161 0.022975
#
#
# Mechanical properties :
#
#
# Convention : Reuss Voigt Hill
#
# Bulk Modulus (GPa) = 50.87867 77.65105 64.26486
# Shear Modulus (GPa) = 35.21771 44.91853 40.06812
#
# Velocity S-wave (km/s) = 3.77286 4.26092 4.02430
# Velocity P-wave (km/s) = 6.28839 7.45605 6.89697
#
# Compressibility (1/GPa) = 0.01965460
#
# Stress axis : x y z
#
# Youngs Moduli (GPa) = 122.58827 128.35332 54.80414
#
# Poissons Ratio (x) = 0.19250 0.23659
# Poissons Ratio (y) = 0.18385 0.07966
# Poissons Ratio (z) = 0.52922 0.18656
#
# Static dielectric constant tensor:
#      x y z
#    x 2.087250 0.016510 -0.140360 
#    y 0.016510 1.908820 0.017340 
#    z -0.140360 0.017340 2.217960 
# 
# From -- ./inp_files/570390.got.cif
#   From: 2010.05.17/outbox.cif.g08.bks.cpg/sg2_286_cif.got.tgz:570390.got - 2010.06.03 11:33:40.
