data_PCOD9008290
_publ_section_title
;
Structure prediction by ZEFSAII (Michael W. Deem and Ramdas Pophale) SiO2 
 PCOD9008290
Probable space group: P -1
;
_chemical_formula_sum "Si O2"
_cell_formula_units_Z 14
_cell_length_a 7.897553
_cell_length_b 20.132264
_cell_length_c 7.640607
_cell_angle_alpha 58.420052
_cell_angle_beta 144.078632
_cell_angle_gamma 118.297360
_cell_volume 604.120977
_symmetry_space_group_name_H-M "P -1"
_symmetry_group_IT_number 2
_symmetry_cell_setting 'triclinic'
loop_
_space_group_symop_operation_xyz
x,y,z
-x,-y,-z
loop_
_atom_site_type_symbol
_atom_site_label
_atom_site_fract_x
_atom_site_fract_y
_atom_site_fract_z
Si Si1 0.741270 0.631791 0.165684
Si Si2 0.470883 0.757335 0.987400
Si Si3 0.851398 0.763621 0.621367
Si Si4 0.649169 0.357155 0.470756
Si Si5 0.424939 0.930851 0.668471
Si Si6 0.837534 0.935294 0.327148
Si Si7 0.802543 0.494708 0.671545
O O1 0.523499 0.688206 0.995137
O O2 0.842039 0.566242 0.470307
O O3 0.054210 0.675031 0.307080
O O4 0.531647 0.595554 0.885393
O O5 0.743804 0.756524 0.342684
O O6 0.492447 0.843047 0.799439
O O7 0.189937 0.750299 0.893764
O O8 0.616833 0.705580 0.607256
O O9 0.804524 0.852407 0.515218
O O10 0.777209 0.414601 0.652095
O O11 0.080797 0.923947 0.402837
O O12 0.500000 0.000000 0.500000
O O13 0.563987 0.948761 0.955725
O O14 0.000000 0.000000 0.500000
O O15 0.500000 0.500000 0.500000
O O16 0.000000 0.500000 0.000000
#
# Coordination Sequence:
#
# PCOD9008290 Si02
#       7
#     2   2   2   2   2   2   2
#     4  12  25  43  68 102 135 166 216 282 328 376
#     4  10  22  42  65  94 132 177 221 264 325 401
#     4  10  22  42  65  94 132 177 221 264 325 401
#     4  12  25  43  68 102 135 166 216 282 328 376
#     4  10  21  39  64  92 128 171 219 271 324 387
#     4  10  21  39  64  92 128 171 219 271 324 387
#     4  12  26  46  72  96 129 180 219 258 326 406
#
# _framework density 23.174167000000001
#
# number of rings (size 3 to 8) (size 9 to 14) (size 15 to 20)
#    0.000    1.143    0.000    6.000    0.000    3.429 
#    0.000    2.857    0.000    0.000    0.000    0.000 
#    0.000    0.000    0.000    0.000    0.000    0.000 
#
# Total GULP energy -78076.585729 kJ/mol
# GULP energy per Si atom -5576.898981 kJ/mol
# Density = 2.312142 g / cm^3
# Si number density = 23.174167 Si / 1000 Ang^3
#
#
#
# Elastic Constant Matrix: (Units=GPa)
#
#
# Indices 1 2 3 4 5 6 
#
# 1 56.7672 45.4212 27.5156 -1.8461 3.7176 15.6153
# 2 45.4212 145.8687 36.0388 -3.9373 -18.5100 8.4956
# 3 27.5156 36.0388 149.4998 20.8570 -1.8593 3.8802
# 4 -1.8461 -3.9373 20.8570 40.2180 5.8681 -7.8116
# 5 3.7176 -18.5100 -1.8593 5.8681 32.4315 9.8472
# 6 15.6153 8.4956 3.8802 -7.8116 9.8472 31.1257
#
#
#
# Elastic Compliance Matrix: (Units=1/GPa)
#
#
# Indices 1 2 3 4 5 6 
#
# 1 0.028946 -0.008286 -0.003297 0.001109 -0.005447 -0.009847
# 2 -0.008286 0.010637 -0.000907 -0.000120 0.007285 -0.000968
# 3 -0.003297 -0.000907 0.008235 -0.004882 0.001463 -0.000813
# 4 0.001109 -0.000120 -0.004882 0.030895 -0.009343 0.010794
# 5 -0.005447 0.007285 0.001463 -0.009343 0.041963 -0.015058
# 6 -0.009847 -0.000968 -0.000813 0.010794 -0.015058 0.044906
#
#
# Mechanical properties :
#
#
# Convention : Reuss Voigt Hill
#
# Bulk Modulus (GPa) = 43.78760 63.34299 53.56529
# Shear Modulus (GPa) = 25.23027 36.96571 31.09799
#
# Velocity S-wave (km/s) = 3.30316 3.99824 3.66720
# Velocity P-wave (km/s) = 5.78652 6.97906 6.41058
#
# Compressibility (1/GPa) = 0.02283752
#
# Stress axis : x y z
#
# Youngs Moduli (GPa) = 34.54758 94.00905 121.43696
#
# Poissons Ratio (x) = 0.77900 0.40036
# Poissons Ratio (y) = 0.28628 0.11011
# Poissons Ratio (z) = 0.11390 0.08524
#
# Static dielectric constant tensor:
#      x y z
#    x 1.935710 -0.038810 -0.016490 
#    y -0.038810 1.989700 -0.059430 
#    z -0.016490 -0.059430 1.846190 
# 
# From -- ./inp_files/223317.got.cif
#   From: 2010.05.17/outbox.cif.g08.bks.cpg/sg2_112_cif.got.tgz:223317.got - 2010.06.03 11:33:40.
