data_PCOD9008593
_publ_section_title
;
Structure prediction by ZEFSAII (Michael W. Deem and Ramdas Pophale) SiO2 
 PCOD9008593
Probable space group: P -1
;
_chemical_formula_sum "Si O2"
_cell_formula_units_Z 12
_cell_length_a 14.018422
_cell_length_b 5.210037
_cell_length_c 8.700592
_cell_angle_alpha 90.170282
_cell_angle_beta 124.112115
_cell_angle_gamma 72.877476
_cell_volume 492.135279
_symmetry_space_group_name_H-M "P -1"
_symmetry_group_IT_number 2
_symmetry_cell_setting 'triclinic'
loop_
_space_group_symop_operation_xyz
x,y,z
-x,-y,-z
loop_
_atom_site_type_symbol
_atom_site_label
_atom_site_fract_x
_atom_site_fract_y
_atom_site_fract_z
Si Si1 0.810420 0.315223 0.391011
Si Si2 0.555233 0.208861 0.631696
Si Si3 0.082874 0.113291 0.750187
Si Si4 0.016422 0.640047 0.854261
Si Si5 0.252733 0.978994 0.418423
Si Si6 0.417028 0.175485 0.793153
O O1 0.817594 0.070101 0.279778
O O2 0.699339 0.581891 0.242709
O O3 0.773715 0.275852 0.533253
O O4 0.955166 0.263249 0.539136
O O5 0.500000 0.500000 0.500000
O O6 0.510388 0.255489 0.765380
O O7 0.500000 0.000000 0.500000
O O8 0.698238 0.080307 0.710502
O O9 0.060739 0.898931 0.855997
O O10 0.103644 0.375339 0.840929
O O11 0.873815 0.769844 0.674124
O O12 0.000000 0.500000 0.000000
O O13 0.354487 0.018527 0.622345
O O14 0.500000 0.000000 0.000000
#
# Coordination Sequence:
#
# PCOD9008593 Si02
#       6
#     2   2   2   2   2   2
#     4  10  21  39  65  91 130 170 211 267 331 386
#     4  10  21  41  63  89 122 171 217 257 320 383
#     4  10  23  39  66  96 128 167 215 264 326 389
#     4  11  23  41  65  96 130 168 218 264 326 392
#     4  10  22  41  65  86 133 174 212 268 330 387
#     4  11  23  40  65  97 131 169 224 275 323 386
#
# _framework density 24.38354
#
# number of rings (size 3 to 8) (size 9 to 14) (size 15 to 20)
#    0.000    1.667    3.333    0.500    2.333    4.000 
#    0.000    0.000    0.000    0.000    0.000    0.000 
#    0.000    0.000    0.000    0.000    0.000    0.000 
#
# Total GULP energy -66938.483315 kJ/mol
# GULP energy per Si atom -5578.206943 kJ/mol
# Density = 2.432804 g / cm^3
# Si number density = 24.383540 Si / 1000 Ang^3
#
#
#
# Elastic Constant Matrix: (Units=GPa)
#
#
# Indices 1 2 3 4 5 6 
#
# 1 128.9249 38.7786 33.4684 -15.4590 -25.2724 -17.7924
# 2 38.7786 143.9918 26.3899 -29.9768 1.3504 -11.3858
# 3 33.4684 26.3899 105.5182 -38.9127 -13.9246 3.3588
# 4 -15.4590 -29.9768 -38.9127 28.3235 5.6424 -5.0724
# 5 -25.2724 1.3504 -13.9246 5.6424 31.7000 -2.7356
# 6 -17.7924 -11.3858 3.3588 -5.0724 -2.7356 46.6563
#
#
#
# Elastic Compliance Matrix: (Units=1/GPa)
#
#
# Indices 1 2 3 4 5 6 
#
# 1 0.011285 -0.002433 -0.002020 -0.000127 0.008611 0.004346
# 2 -0.002433 0.010488 0.003344 0.015569 -0.003440 0.002882
# 3 -0.002020 0.003344 0.021025 0.031273 0.002094 0.002055
# 4 -0.000127 0.015569 0.031273 0.097478 -0.003351 0.011900
# 5 0.008611 -0.003440 0.002094 -0.003351 0.040444 0.004301
# 6 0.004346 0.002882 0.002055 0.011900 0.004301 0.025192
#
#
# Mechanical properties :
#
#
# Convention : Reuss Voigt Hill
#
# Bulk Modulus (GPa) = 24.64169 63.96763 44.30466
# Shear Modulus (GPa) = 22.55731 39.98916 31.27324
#
# Velocity S-wave (km/s) = 3.04485 4.05409 3.58516
# Velocity P-wave (km/s) = 4.74229 6.94299 5.94535
#
# Compressibility (1/GPa) = 0.04058164
#
# Stress axis : x y z
#
# Youngs Moduli (GPa) = 88.61318 95.34390 47.56200
#
# Poissons Ratio (x) = 0.23193 0.09608
# Poissons Ratio (y) = 0.21556 -0.15905
# Poissons Ratio (z) = 0.17900 -0.31884
#
# Static dielectric constant tensor:
#      x y z
#    x 2.091490 0.042300 -0.045300 
#    y 0.042300 2.003450 0.024530 
#    z -0.045300 0.024530 1.964450 
# 
# From -- ./inp_files/18559.got.cif
#   From: 2010.05.17/outbox.cif.g08.bks.cpg/sg2_10_cif.got.tgz:18559.got - 2010.06.03 11:33:40.
