data_PCOD9008424
_publ_section_title
;
Structure prediction by ZEFSAII (Michael W. Deem and Ramdas Pophale) SiO2 
 PCOD9008424
Probable space group: P -1
;
_chemical_formula_sum "Si O2"
_cell_formula_units_Z 12
_cell_length_a 15.111179
_cell_length_b 7.768490
_cell_length_c 5.942030
_cell_angle_alpha 91.895530
_cell_angle_beta 69.714580
_cell_angle_gamma 134.653596
_cell_volume 441.644539
_symmetry_space_group_name_H-M "P -1"
_symmetry_group_IT_number 2
_symmetry_cell_setting 'triclinic'
loop_
_space_group_symop_operation_xyz
x,y,z
-x,-y,-z
loop_
_atom_site_type_symbol
_atom_site_label
_atom_site_fract_x
_atom_site_fract_y
_atom_site_fract_z
Si Si1 0.566782 0.364065 0.428708
Si Si2 0.275627 0.208239 0.387666
Si Si3 0.853568 0.280974 0.752178
Si Si4 0.611577 0.109986 0.711388
Si Si5 0.833669 0.722011 0.888770
Si Si6 0.052932 0.813601 0.943498
O O1 0.580362 0.534649 0.610388
O O2 0.605534 0.249090 0.537504
O O3 0.430943 0.119919 0.399906
O O4 0.690331 0.550931 0.147033
O O5 0.208761 0.286025 0.327047
O O6 0.252745 0.025842 0.219912
O O7 0.173429 0.010413 0.666121
O O8 0.755342 0.291217 0.725516
O O9 0.000000 0.500000 0.500000
O O10 0.901864 0.292529 0.959413
O O11 0.500000 0.000000 0.000000
O O12 0.912118 0.658803 0.916333
O O13 0.939715 0.019798 0.876887
#
# Coordination Sequence:
#
# PCOD9008424 Si02
#       6
#     2   2   2   2   2   2
#     4  10  22  41  66  93 125 174 221 262 322 391
#     4  10  21  39  64  96 131 169 217 272 322 384
#     4  11  25  43  65  99 134 168 216 273 328 381
#     4  11  25  44  67  95 132 175 217 265 325 393
#     4   9  17  35  61  94 129 167 213 262 320 385
#     4   9  19  34  60  94 130 169 211 263 323 381
#
# _framework density 27.171171000000001
#
# number of rings (size 3 to 8) (size 9 to 14) (size 15 to 20)
#    0.000    2.000    0.000    2.500    0.000    9.333 
#    0.000   11.667    0.000    0.000    0.000    0.000 
#    0.000    0.000    0.000    0.000    0.000    0.000 
#
# Total GULP energy -67037.554375 kJ/mol
# GULP energy per Si atom -5586.462865 kJ/mol
# Density = 2.710933 g / cm^3
# Si number density = 27.171171 Si / 1000 Ang^3
#
#
#
# Elastic Constant Matrix: (Units=GPa)
#
#
# Indices 1 2 3 4 5 6 
#
# 1 115.4298 17.7484 39.7296 -2.3844 50.8074 20.3681
# 2 17.7484 169.0756 16.4309 49.3688 31.2337 35.5469
# 3 39.7296 16.4309 130.8829 -7.9341 46.8309 20.4199
# 4 -2.3844 49.3688 -7.9341 52.7546 13.0317 17.7611
# 5 50.8074 31.2337 46.8309 13.0317 59.0161 1.6675
# 6 20.3681 35.5469 20.4199 17.7611 1.6675 69.5606
#
#
#
# Elastic Compliance Matrix: (Units=1/GPa)
#
#
# Indices 1 2 3 4 5 6 
#
# 1 0.017874 0.000830 0.003517 0.008366 -0.020229 -0.008341
# 2 0.000830 0.009116 0.000253 -0.006305 -0.004256 -0.003264
# 3 0.003517 0.000253 0.013714 0.008173 -0.015654 -0.006897
# 4 0.008366 -0.006305 0.008173 0.034156 -0.017612 -0.009926
# 5 -0.020229 -0.004256 -0.015654 -0.017612 0.052473 0.015933
# 6 -0.008341 -0.003264 -0.006897 -0.009926 0.015933 0.022663
#
#
# Mechanical properties :
#
#
# Convention : Reuss Voigt Hill
#
# Bulk Modulus (GPa) = 20.03834 62.57847 41.30841
# Shear Modulus (GPa) = 31.76001 59.03153 45.39577
#
# Velocity S-wave (km/s) = 3.42261 4.66615 4.09189
# Velocity P-wave (km/s) = 4.79686 7.21885 6.12869
#
# Compressibility (1/GPa) = 0.04990433
#
# Stress axis : x y z
#
# Youngs Moduli (GPa) = 55.94712 109.69351 72.92069
#
# Poissons Ratio (x) = -0.09104 -0.25645
# Poissons Ratio (y) = -0.04644 -0.01847
# Poissons Ratio (z) = -0.19676 -0.02779
#
# Static dielectric constant tensor:
#      x y z
#    x 2.248550 -0.160770 -0.071930 
#    y -0.160770 2.264990 0.120510 
#    z -0.071930 0.120510 2.030340 
# 
# From -- ./inp_files/31002.got.cif
#   From: 2010.05.17/outbox.cif.g08.bks.cpg/sg2_16_cif.got.tgz:31002.got - 2010.06.03 11:33:40.
