data_PCOD9008258
_publ_section_title
;
Structure prediction by ZEFSAII (Michael W. Deem and Ramdas Pophale) SiO2 
 PCOD9008258
Probable space group: P -1
;
_chemical_formula_sum "Si O2"
_cell_formula_units_Z 16
_cell_length_a 25.891979
_cell_length_b 8.319023
_cell_length_c 8.134969
_cell_angle_alpha 48.033702
_cell_angle_beta 44.915881
_cell_angle_gamma 37.589009
_cell_volume 730.773010
_symmetry_space_group_name_H-M "P -1"
_symmetry_group_IT_number 2
_symmetry_cell_setting 'triclinic'
loop_
_space_group_symop_operation_xyz
x,y,z
-x,-y,-z
loop_
_atom_site_type_symbol
_atom_site_label
_atom_site_fract_x
_atom_site_fract_y
_atom_site_fract_z
Si Si1 0.518439 0.587699 0.659631
Si Si2 0.062163 0.603427 0.997160
Si Si3 0.101893 0.724021 0.493051
Si Si4 0.746561 0.536047 0.917812
Si Si5 0.179686 0.012682 0.277082
Si Si6 0.863623 0.089067 0.209982
Si Si7 0.562507 0.694322 0.135695
Si Si8 0.357734 0.897783 0.041553
O O1 0.548345 0.676011 0.375744
O O2 0.469044 0.464313 0.778256
O O3 0.600125 0.349131 0.753995
O O4 0.442768 0.827317 0.787556
O O5 0.092154 0.566665 0.765682
O O6 0.103666 0.738186 0.906189
O O7 0.103017 0.318358 0.181511
O O8 0.952770 0.822446 0.108987
O O9 0.162307 0.541353 0.327660
O O10 0.158601 0.824861 0.367423
O O11 0.000000 0.000000 0.500000
O O12 0.694884 0.817249 0.940536
O O13 0.784781 0.283971 0.125436
O O14 0.667901 0.574451 0.955167
O O15 0.169600 0.992930 0.507582
O O16 0.280720 0.925814 0.081823
O O17 0.500000 0.000000 0.000000
#
# Coordination Sequence:
#
# PCOD9008258 Si02
#       8
#     2   2   2   2   2   2   2   2
#     4  10  24  46  68  94 138 164 218 268 329 389
#     4  10  21  41  64  90 125 174 215 266 319 376
#     4  11  25  44  62  92 137 172 215 272 320 383
#     4  12  23  43  67  97 133 174 219 265 331 381
#     4  11  23  41  66  95 124 172 221 264 323 381
#     4  10  21  39  64  91 129 164 221 270 311 378
#     4  11  23  44  68 100 130 172 208 270 333 388
#     4  11  23  44  68  99 126 175 218 271 319 394
#
# _framework density 21.894621999999998
#
# number of rings (size 3 to 8) (size 9 to 14) (size 15 to 20)
#    0.000    1.250    3.750    1.875    0.000    3.000 
#    6.750    0.000    0.000    0.000    0.000    0.000 
#    0.000    0.000    0.000    0.000    0.000    0.000 
#
# Total GULP energy -89517.998653 kJ/mol
# GULP energy per Si atom -5594.874916 kJ/mol
# Density = 2.184479 g / cm^3
# Si number density = 21.894622 Si / 1000 Ang^3
#
#
#
# Elastic Constant Matrix: (Units=GPa)
#
#
# Indices 1 2 3 4 5 6 
#
# 1 58.6544 25.9169 -12.9350 3.1056 -3.8635 -16.1665
# 2 25.9169 146.8851 50.0907 16.7480 16.9030 -20.1765
# 3 -12.9350 50.0907 68.3866 9.3711 21.0844 -4.5015
# 4 3.1056 16.7480 9.3711 31.5419 -5.2243 6.1838
# 5 -3.8635 16.9030 21.0844 -5.2243 37.2858 -1.4084
# 6 -16.1665 -20.1765 -4.5015 6.1838 -1.4084 39.2046
#
#
#
# Elastic Compliance Matrix: (Units=1/GPa)
#
#
# Indices 1 2 3 4 5 6 
#
# 1 0.024747 -0.006201 0.010662 -0.004200 -0.000907 0.008868
# 2 -0.006201 0.011936 -0.008658 -0.004042 -0.001604 0.003172
# 3 0.010662 -0.008658 0.027827 -0.007402 -0.011596 0.003887
# 4 -0.004200 -0.004042 -0.007402 0.040343 0.010834 -0.010636
# 5 -0.000907 -0.001604 -0.011596 0.010834 0.035416 -0.002968
# 6 0.008868 0.003172 0.003887 -0.010636 -0.002968 0.032813
#
#
# Mechanical properties :
#
#
# Convention : Reuss Voigt Hill
#
# Bulk Modulus (GPa) = 17.82077 44.45236 31.13657
# Shear Modulus (GPa) = 24.97735 35.66335 30.32035
#
# Velocity S-wave (km/s) = 3.38124 4.04030 3.72537
# Velocity P-wave (km/s) = 4.83742 6.48940 5.72333
#
# Compressibility (1/GPa) = 0.05611430
#
# Stress axis : x y z
#
# Youngs Moduli (GPa) = 40.40924 83.78072 35.93693
#
# Poissons Ratio (x) = 0.51951 -0.38315
# Poissons Ratio (y) = 0.25057 0.31115
# Poissons Ratio (z) = -0.43083 0.72540
#
# Static dielectric constant tensor:
#      x y z
#    x 1.817680 0.029800 -0.002740 
#    y 0.029800 1.773990 0.035310 
#    z -0.002740 0.035310 1.791470 
# 
# From -- ./inp_files/57034.got.cif
#   From: 2010.05.17/outbox.cif.g08.bks.cpg/sg2_29_cif.got.tgz:57034.got - 2010.06.03 11:33:40.
