data_PCOD9008862
_publ_section_title
;
Structure prediction by ZEFSAII (Michael W. Deem and Ramdas Pophale) SiO2 
 PCOD9008862
Probable space group: P -1
;
_chemical_formula_sum "Si O2"
_cell_formula_units_Z 16
_cell_length_a 15.167940
_cell_length_b 9.315917
_cell_length_c 14.918437
_cell_angle_alpha 91.207194
_cell_angle_beta 151.318282
_cell_angle_gamma 68.972321
_cell_volume 713.045165
_symmetry_space_group_name_H-M "P -1"
_symmetry_group_IT_number 2
_symmetry_cell_setting 'triclinic'
loop_
_space_group_symop_operation_xyz
x,y,z
-x,-y,-z
loop_
_atom_site_type_symbol
_atom_site_label
_atom_site_fract_x
_atom_site_fract_y
_atom_site_fract_z
Si Si1 0.929325 0.467074 0.690092
Si Si2 0.558111 0.966525 0.893288
Si Si3 0.776354 0.218382 0.847281
Si Si4 0.706057 0.168572 0.338145
Si Si5 0.030340 0.330048 0.979789
Si Si6 0.479489 0.116076 0.629632
Si Si7 0.695343 0.155401 0.120086
Si Si8 0.562623 0.415984 0.838018
O O1 0.973989 0.372029 0.825379
O O2 0.829370 0.685770 0.625021
O O3 0.701255 0.516269 0.431140
O O4 0.198387 0.276999 0.878662
O O5 0.540711 0.096564 0.955219
O O6 0.323252 0.984947 0.673901
O O7 0.581322 0.042452 0.822013
O O8 0.813633 0.345004 0.829492
O O9 0.545302 0.229774 0.639859
O O10 0.780540 0.256633 0.956522
O O11 0.000000 0.000000 0.000000
O O12 0.660221 0.217810 0.192263
O O13 0.506163 0.377968 0.217126
O O14 0.999105 0.050972 0.621432
O O15 0.000000 0.500000 0.000000
O O16 0.331515 0.103778 0.254325
O O17 0.626972 0.316758 0.990787
#
# Coordination Sequence:
#
# PCOD9008862 Si02
#       8
#     2   2   2   2   2   2   2   2
#     4  10  21  39  66  86 130 175 209 262 334 383
#     4  11  21  42  67  93 130 172 218 266 325 392
#     4   9  19  37  61  86 122 168 210 254 324 381
#     4  11  26  40  69 100 127 175 220 270 331 389
#     4  10  22  37  60  94 131 166 222 276 316 390
#     4   9  20  39  60  88 124 172 213 259 326 387
#     4  11  23  47  65  96 137 168 218 275 329 391
#     4  11  22  42  67  92 131 173 215 276 325 393
#
# _framework density 22.438970000000001
#
# number of rings (size 3 to 8) (size 9 to 14) (size 15 to 20)
#    0.000    1.750    3.750    0.750    3.500    3.500 
#    0.000    1.875    0.000    0.000    0.000    0.000 
#    0.000    0.000    0.000    0.000    0.000    0.000 
#
# Total GULP energy -89089.232897 kJ/mol
# GULP energy per Si atom -5568.077056 kJ/mol
# Density = 2.238790 g / cm^3
# Si number density = 22.438970 Si / 1000 Ang^3
#
#
#
# Elastic Constant Matrix: (Units=GPa)
#
#
# Indices 1 2 3 4 5 6 
#
# 1 -2.7085 3.6595 31.8775 -9.8242 -34.3572 -24.6166
# 2 3.6595 106.8602 15.1292 -9.2875 1.0270 10.7660
# 3 31.8775 15.1292 36.5590 -11.0017 -2.0160 10.9967
# 4 -9.8242 -9.2875 -11.0017 33.7257 -5.3787 2.3151
# 5 -34.3572 1.0270 -2.0160 -5.3787 17.3448 -17.9706
# 6 -24.6166 10.7660 10.9967 2.3151 -17.9706 6.7098
#
#
#
# Elastic Compliance Matrix: (Units=1/GPa)
#
#
# Indices 1 2 3 4 5 6 
#
# 1 0.004918 0.002166 0.001403 0.001999 -0.012618 -0.022213
# 2 0.002166 0.010534 -0.004275 0.002341 -0.000585 -0.004325
# 3 0.001403 -0.004275 0.029936 0.011365 0.018267 0.007945
# 4 0.001999 0.002341 0.011365 0.036311 0.006856 -0.009215
# 5 -0.012618 -0.000585 0.018267 0.006856 0.024516 -0.011996
# 6 -0.022213 -0.004325 0.007945 -0.009215 -0.011996 0.032510
#
#
# Mechanical properties :
#
#
# Convention : Reuss Voigt Hill
#
# Bulk Modulus (GPa) = 22.73944 26.89366 24.81655
# Shear Modulus (GPa) = 32.30037 17.55902 24.92970
#
# Velocity S-wave (km/s) = 3.79816 2.80040 3.33678
# Velocity P-wave (km/s) = 5.42131 4.74000 5.09206
#
# Compressibility (1/GPa) = 0.04397647
#
# Stress axis : x y z
#
# Youngs Moduli (GPa) = 203.32251 94.93180 33.40406
#
# Poissons Ratio (x) = -0.20562 -0.04685
# Poissons Ratio (y) = -0.44039 0.14279
# Poissons Ratio (z) = -0.28519 0.40581
#
# Static dielectric constant tensor:
#      x y z
#    x 1.879550 0.004950 0.072270 
#    y 0.004950 1.985260 0.006280 
#    z 0.072270 0.006280 1.902220 
# 
# From -- ./inp_files/529831.got.cif
#   From: 2010.05.17/outbox.cif.g08.bks.cpg/sg2_265_cif.got.tgz:529831.got - 2010.06.03 11:33:40.
