data_PCOD9008377
_publ_section_title
;
Structure prediction by ZEFSAII (Michael W. Deem and Ramdas Pophale) SiO2 
 PCOD9008377
Probable space group: P -1
;
_chemical_formula_sum "Si O2"
_cell_formula_units_Z 16
_cell_length_a 11.424541
_cell_length_b 14.921974
_cell_length_c 14.277785
_cell_angle_alpha 120.318293
_cell_angle_beta 140.365953
_cell_angle_gamma 33.120644
_cell_volume 776.697571
_symmetry_space_group_name_H-M "P -1"
_symmetry_group_IT_number 2
_symmetry_cell_setting 'triclinic'
loop_
_space_group_symop_operation_xyz
x,y,z
-x,-y,-z
loop_
_atom_site_type_symbol
_atom_site_label
_atom_site_fract_x
_atom_site_fract_y
_atom_site_fract_z
Si Si1 0.797366 0.935207 0.303845
Si Si2 0.365392 0.433651 0.713345
Si Si3 0.519578 0.388578 0.110691
Si Si4 0.853482 0.562025 0.601165
Si Si5 0.663637 0.226603 0.311977
Si Si6 0.116044 0.832563 0.964941
Si Si7 0.821271 0.771328 0.810881
Si Si8 0.801593 0.435059 0.671188
O O1 0.753771 0.064111 0.291003
O O2 0.453030 0.071385 0.204687
O O3 0.046833 0.846172 0.495541
O O4 0.934061 0.771834 0.247462
O O5 0.294636 0.588144 0.747682
O O6 0.366831 0.385215 0.586195
O O7 0.141176 0.474475 0.669112
O O8 0.702254 0.275478 0.884782
O O9 0.595582 0.287549 0.195493
O O10 0.655521 0.276834 0.040924
O O11 0.147467 0.582069 0.962064
O O12 0.713074 0.723646 0.656229
O O13 0.919432 0.442662 0.655593
O O14 0.344011 0.411532 0.267583
O O15 0.882816 0.842322 0.820065
O O16 0.000000 0.000000 0.000000
O O17 0.500000 0.500000 0.500000
#
# Coordination Sequence:
#
# PCOD9008377 Si02
#       8
#     2   2   2   2   2   2   2   2
#     4  10  22  40  64  99 127 169 229 275 312 391
#     4  10  21  39  64  95 123 170 215 261 330 395
#     4  11  22  45  65  93 136 178 208 268 343 399
#     4  11  20  38  70  95 123 168 221 269 319 390
#     4  10  22  42  66  90 136 174 215 271 337 376
#     4  11  24  43  61  94 137 174 212 269 336 401
#     4  11  22  42  69  93 134 173 217 275 330 388
#     4  10  21  40  64  93 133 172 212 272 332 380
#
# _framework density 20.600038000000001
#
# number of rings (size 3 to 8) (size 9 to 14) (size 15 to 20)
#    0.000    1.500    3.750    2.250    1.750    1.500 
#    4.500    1.875    0.000    0.000    0.000    0.000 
#    0.000    0.000    0.000    0.000    0.000    0.000 
#
# Total GULP energy -89188.867488 kJ/mol
# GULP energy per Si atom -5574.304218 kJ/mol
# Density = 2.055315 g / cm^3
# Si number density = 20.600038 Si / 1000 Ang^3
#
#
#
# Elastic Constant Matrix: (Units=GPa)
#
#
# Indices 1 2 3 4 5 6 
#
# 1 89.4432 55.1795 38.5290 -13.6393 -6.1128 18.9589
# 2 55.1795 139.9061 47.7411 -8.0087 -5.0812 26.6753
# 3 38.5290 47.7411 45.9621 7.3324 -18.4016 -13.2680
# 4 -13.6393 -8.0087 7.3324 27.7664 -5.1665 4.1735
# 5 -6.1128 -5.0812 -18.4016 -5.1665 22.9758 -17.6673
# 6 18.9589 26.6753 -13.2680 4.1735 -17.6673 -2.8565
#
#
#
# Elastic Compliance Matrix: (Units=1/GPa)
#
#
# Indices 1 2 3 4 5 6 
#
# 1 0.015931 -0.006460 -0.001819 0.006927 0.009053 0.007988
# 2 -0.006460 0.008616 0.000217 -0.000753 0.004772 0.005958
# 3 -0.001819 0.000217 0.013301 -0.002372 -0.008377 -0.023487
# 4 0.006927 -0.000753 -0.002372 0.041451 0.016345 0.009425
# 5 0.009053 0.004772 -0.008377 0.016345 0.030005 -0.018141
# 6 0.007988 0.005958 -0.023487 0.009425 -0.018141 -0.006361
#
#
# Mechanical properties :
#
#
# Convention : Reuss Voigt Hill
#
# Bulk Modulus (GPa) = 46.03404 62.02339 54.02872
# Shear Modulus (GPa) = 39.58530 18.50126 29.04328
#
# Velocity S-wave (km/s) = 4.38838 3.00011 3.75889
# Velocity P-wave (km/s) = 6.93341 6.49420 6.71740
#
# Compressibility (1/GPa) = 0.02172305
#
# Stress axis : x y z
#
# Youngs Moduli (GPa) = 62.77012 116.06482 75.18044
#
# Poissons Ratio (x) = 0.74981 0.13677
# Poissons Ratio (y) = 0.40551 -0.01630
# Poissons Ratio (z) = 0.11419 -0.02516
#
# Static dielectric constant tensor:
#      x y z
#    x 1.791110 0.070380 0.061890 
#    y 0.070380 1.809590 0.038070 
#    z 0.061890 0.038070 1.763320 
# 
# From -- ./inp_files/522394.got.cif
#   From: 2010.05.17/outbox.cif.g08.bks.cpg/sg2_262_cif.got.tgz:522394.got - 2010.06.03 11:33:40.
