data_PCOD9008857
_publ_section_title
;
Structure prediction by ZEFSAII (Michael W. Deem and Ramdas Pophale) SiO2 
 PCOD9008857
Probable space group: P -1
;
_chemical_formula_sum "Si O2"
_cell_formula_units_Z 12
_cell_length_a 10.449956
_cell_length_b 10.449253
_cell_length_c 13.993953
_cell_angle_alpha 59.961966
_cell_angle_beta 55.151203
_cell_angle_gamma 27.423160
_cell_volume 577.461484
_symmetry_space_group_name_H-M "P -1"
_symmetry_group_IT_number 2
_symmetry_cell_setting 'triclinic'
loop_
_space_group_symop_operation_xyz
x,y,z
-x,-y,-z
loop_
_atom_site_type_symbol
_atom_site_label
_atom_site_fract_x
_atom_site_fract_y
_atom_site_fract_z
Si Si1 0.958377 0.014628 0.220221
Si Si2 0.670958 0.712406 0.052746
Si Si3 0.358901 0.497546 0.689792
Si Si4 0.406379 0.911727 0.546026
Si Si5 0.858773 0.326128 0.493255
Si Si6 0.578492 0.497255 0.070354
O O1 0.849612 0.217628 0.271661
O O2 0.773218 0.017203 0.317329
O O3 0.855541 0.183246 0.107027
O O4 0.296535 0.700578 0.184024
O O5 0.596815 0.677631 0.193443
O O6 0.635995 0.624669 0.013176
O O7 0.000000 0.500000 0.000000
O O8 0.500000 0.000000 0.000000
O O9 0.191083 0.599862 0.624449
O O10 0.667808 0.330543 0.594488
O O11 0.693159 0.585747 0.525780
O O12 0.500000 0.000000 0.500000
O O13 0.188280 0.062186 0.491690
O O14 0.500000 0.500000 0.000000
#
# Coordination Sequence:
#
# PCOD9008857 Si02
#       6
#     2   2   2   2   2   2
#     4  10  21  39  66  86 119 166 201 256 300 370
#     4  11  23  40  62  92 129 159 201 269 319 356
#     4   9  21  41  65  94 122 162 214 252 318 370
#     4  11  22  39  58  92 130 160 199 250 323 365
#     4  10  22  38  66  91 120 165 211 255 296 389
#     4  11  23  43  65  87 120 170 221 246 302 383
#
# _framework density 20.780605000000001
#
# number of rings (size 3 to 8) (size 9 to 14) (size 15 to 20)
#    0.000    1.667    0.000    6.000    0.000   11.333 
#    9.000    0.000    0.000    0.000    0.000    0.000 
#    0.000    0.000    0.000    0.000    0.000    0.000 
#
# Total GULP energy -67037.020723 kJ/mol
# GULP energy per Si atom -5586.418394 kJ/mol
# Density = 2.073331 g / cm^3
# Si number density = 20.780605 Si / 1000 Ang^3
#
#
#
# Elastic Constant Matrix: (Units=GPa)
#
#
# Indices 1 2 3 4 5 6 
#
# 1 126.2853 21.8280 42.8414 -20.0662 -6.3194 13.1420
# 2 21.8280 95.7113 23.4309 -18.5936 -13.1598 -1.2509
# 3 42.8414 23.4309 76.9941 -18.3630 -7.3833 12.8159
# 4 -20.0662 -18.5936 -18.3630 39.2767 -1.2446 -5.9740
# 5 -6.3194 -13.1598 -7.3833 -1.2446 36.9595 -12.4508
# 6 13.1420 -1.2509 12.8159 -5.9740 -12.4508 26.7128
#
#
#
# Elastic Compliance Matrix: (Units=1/GPa)
#
#
# Indices 1 2 3 4 5 6 
#
# 1 0.010199 -0.000838 -0.004468 0.002340 -0.000206 -0.002486
# 2 -0.000838 0.013437 -0.002705 0.005898 0.006562 0.006717
# 3 -0.004468 -0.002705 0.018237 0.004101 0.000135 -0.005698
# 4 0.002340 0.005898 0.004101 0.032770 0.007039 0.007767
# 5 -0.000206 0.006562 0.000135 0.007039 0.035906 0.018654
# 6 -0.002486 0.006717 -0.005698 0.007767 0.018654 0.052139
#
#
# Mechanical properties :
#
#
# Convention : Reuss Voigt Hill
#
# Bulk Modulus (GPa) = 38.68318 52.79904 45.74111
# Shear Modulus (GPa) = 26.69130 34.64915 30.67022
#
# Velocity S-wave (km/s) = 3.58779 4.08779 3.84592
# Velocity P-wave (km/s) = 5.98485 6.90963 6.46380
#
# Compressibility (1/GPa) = 0.02585103
#
# Stress axis : x y z
#
# Youngs Moduli (GPa) = 98.04418 74.41954 54.83505
#
# Poissons Ratio (x) = 0.06240 0.24499
# Poissons Ratio (y) = 0.08221 0.14832
# Poissons Ratio (z) = 0.43804 0.20130
#
# Static dielectric constant tensor:
#      x y z
#    x 1.737020 -0.024850 0.020270 
#    y -0.024850 1.724490 -0.004150 
#    z 0.020270 -0.004150 1.773890 
# 
# From -- ./inp_files/221223.got.cif
#   From: 2010.05.17/outbox.cif.g08.bks.cpg/sg2_111_cif.got.tgz:221223.got - 2010.06.03 11:33:40.
