data_PCOD9008148
_publ_section_title
;
Structure prediction by ZEFSAII (Michael W. Deem and Ramdas Pophale) SiO2 
 PCOD9008148
Probable space group: P -1
;
_chemical_formula_sum "Si O2"
_cell_formula_units_Z 15
_cell_length_a 15.275857
_cell_length_b 14.805791
_cell_length_c 7.088849
_cell_angle_alpha 39.844789
_cell_angle_beta 52.362642
_cell_angle_gamma 38.419948
_cell_volume 638.184319
_symmetry_space_group_name_H-M "P -1"
_symmetry_group_IT_number 2
_symmetry_cell_setting 'triclinic'
loop_
_space_group_symop_operation_xyz
x,y,z
-x,-y,-z
loop_
_atom_site_type_symbol
_atom_site_label
_atom_site_fract_x
_atom_site_fract_y
_atom_site_fract_z
Si Si1 0.460688 0.221088 0.969189
Si Si2 0.097261 0.034616 0.713002
Si Si3 0.390568 0.314949 0.469333
Si Si4 0.500000 0.500000 0.500000
Si Si5 0.749863 0.851883 0.085290
Si Si6 0.708321 0.340578 0.159605
Si Si7 0.320300 0.056565 0.416981
Si Si8 0.019202 0.814893 0.747819
O O1 0.414277 0.281797 0.715425
O O2 0.458698 0.372970 0.825053
O O3 0.355741 0.183150 0.243695
O O4 0.616262 0.031740 0.069942
O O5 0.215110 0.848253 0.747641
O O6 0.189758 0.072797 0.646291
O O7 0.994588 0.193740 0.444808
O O8 0.000000 0.000000 0.000000
O O9 0.266263 0.301679 0.608442
O O10 0.533891 0.145439 0.455175
O O11 0.359959 0.498823 0.157174
O O12 0.605216 0.356441 0.425535
O O13 0.721773 0.892338 0.831399
O O14 0.894016 0.819672 0.987860
O O15 0.831618 0.328140 0.125635
O O16 0.000000 0.000000 0.500000
#
# Coordination Sequence:
#
# PCOD9008148 Si02
#       8
#     2   2   2   1   2   2   2   2
#     4   9  18  35  60  85 113 151 194 240 290 342
#     4  10  21  39  64  87 110 154 205 241 279 338
#     4   9  18  35  60  88 114 146 197 248 285 336
#     4  12  24  38  56  86 124 152 184 238 304 348
#     4   8  15  34  61  81 110 156 196 236 283 338
#     4  11  24  37  54  87 120 152 190 237 295 344
#     4   8  16  34  59  85 111 148 197 241 284 335
#     4   9  18  35  54  80 118 153 189 230 287 351
#
# _framework density 23.504182
#
# number of rings (size 3 to 8) (size 9 to 14) (size 15 to 20)
#    0.000    2.667    0.000    4.800    0.000    4.800 
#    0.000    6.667    0.000    4.800    0.000    0.000 
#    0.000    0.000    0.000    0.000    0.000    0.000 
#
# Total GULP energy -83583.349886 kJ/mol
# GULP energy per Si atom -5572.223326 kJ/mol
# Density = 2.345069 g / cm^3
# Si number density = 23.504182 Si / 1000 Ang^3
#
#
#
# Elastic Constant Matrix: (Units=GPa)
#
#
# Indices 1 2 3 4 5 6 
#
# 1 83.0472 16.1368 51.2333 17.3967 -24.5517 -27.9939
# 2 16.1368 54.8796 24.6096 24.7973 -5.4954 -3.9673
# 3 51.2333 24.6096 102.1056 10.5284 -22.4240 -17.9776
# 4 17.3967 24.7973 10.5284 43.8800 -8.0972 -9.6637
# 5 -24.5517 -5.4954 -22.4240 -8.0972 55.8395 10.1551
# 6 -27.9939 -3.9673 -17.9776 -9.6637 10.1551 35.4108
#
#
#
# Elastic Compliance Matrix: (Units=1/GPa)
#
#
# Indices 1 2 3 4 5 6 
#
# 1 0.023149 -0.000182 -0.008174 -0.003719 0.004171 0.011919
# 2 -0.000182 0.027296 -0.005884 -0.015010 -0.001239 -0.003813
# 3 -0.008174 -0.005884 0.015680 0.003493 0.002431 0.001096
# 4 -0.003719 -0.015010 0.003493 0.033555 0.002119 0.005701
# 5 0.004171 -0.001239 0.002431 0.002119 0.021100 -0.001080
# 6 0.011919 -0.003813 0.001096 0.005701 -0.001080 0.039657
#
#
# Mechanical properties :
#
#
# Convention : Reuss Voigt Hill
#
# Bulk Modulus (GPa) = 26.56231 47.11019 36.83625
# Shear Modulus (GPa) = 24.81827 36.89624 30.85725
#
# Velocity S-wave (km/s) = 3.25300 3.96633 3.62725
# Velocity P-wave (km/s) = 5.04331 6.40801 5.76618
#
# Compressibility (1/GPa) = 0.03764732
#
# Stress axis : x y z
#
# Youngs Moduli (GPa) = 43.19833 36.63517 63.77665
#
# Poissons Ratio (x) = 0.00665 0.52128
# Poissons Ratio (y) = 0.00785 0.37524
# Poissons Ratio (z) = 0.35308 0.21555
#
# Static dielectric constant tensor:
#      x y z
#    x 1.976830 0.010950 0.051630 
#    y 0.010950 1.851430 0.053200 
#    z 0.051630 0.053200 1.921970 
# 
# From -- ./inp_files/336419.got.cif
#   From: 2010.05.17/outbox.cif.g08.bks.cpg/sg2_169_cif.got.tgz:336419.got - 2010.06.03 11:33:40.
