data_PCOD9008368
_publ_section_title
;
Structure prediction by ZEFSAII (Michael W. Deem and Ramdas Pophale) SiO2 
 PCOD9008368
Probable space group: P -1
;
_chemical_formula_sum "Si O2"
_cell_formula_units_Z 16
_cell_length_a 11.355772
_cell_length_b 7.243549
_cell_length_c 17.865795
_cell_angle_alpha 81.098512
_cell_angle_beta 44.144655
_cell_angle_gamma 113.730418
_cell_volume 673.133943
_symmetry_space_group_name_H-M "P -1"
_symmetry_group_IT_number 2
_symmetry_cell_setting 'triclinic'
loop_
_space_group_symop_operation_xyz
x,y,z
-x,-y,-z
loop_
_atom_site_type_symbol
_atom_site_label
_atom_site_fract_x
_atom_site_fract_y
_atom_site_fract_z
Si Si1 0.760769 0.458656 0.648207
Si Si2 0.259174 0.034467 0.463653
Si Si3 0.901381 0.239869 0.300058
Si Si4 0.721012 0.215225 0.826969
Si Si5 0.186284 0.508062 0.795799
Si Si6 0.723932 0.818819 0.300056
Si Si7 0.792640 0.989551 0.099800
Si Si8 0.168807 0.367728 0.554596
O O1 0.683733 0.230412 0.755390
O O2 0.478196 0.317201 0.784520
O O3 0.813427 0.473559 0.534662
O O4 0.016384 0.770835 0.541811
O O5 0.552254 0.268284 0.288171
O O6 0.183165 0.179234 0.518436
O O7 0.283263 0.927345 0.534248
O O8 0.848235 0.356444 0.257116
O O9 0.156942 0.498746 0.210587
O O10 0.894055 0.036809 0.274668
O O11 0.932539 0.227540 0.722526
O O12 0.500000 0.000000 0.000000
O O13 0.218222 0.339583 0.745689
O O14 0.926876 0.268465 0.976895
O O15 0.759013 0.989749 0.203378
O O16 0.427759 0.591396 0.469176
O O17 0.000000 0.000000 0.000000
#
# Coordination Sequence:
#
# PCOD9008368 Si02
#       8
#     2   2   2   2   2   2   2   2
#     4  10  21  43  65  94 127 169 218 260 323 394
#     4  10  23  39  64 100 123 166 223 258 319 390
#     4  11  24  39  63  93 129 172 209 263 317 387
#     4  11  25  43  60  95 134 169 214 268 327 377
#     4  10  21  39  64  94 134 165 210 275 314 371
#     4   9  22  39  63  98 122 168 222 253 325 384
#     4   9  19  41  66  90 128 166 209 272 318 375
#     4  10  22  41  68  86 129 174 212 271 316 379
#
# _framework density 23.769414999999999
#
# number of rings (size 3 to 8) (size 9 to 14) (size 15 to 20)
#    0.000    2.000    0.000    2.625    7.000    1.500 
#    6.750    1.250    0.000    0.000    0.000    0.000 
#    0.000    0.000    0.000    0.000    0.000    0.000 
#
# Total GULP energy -89187.459170 kJ/mol
# GULP energy per Si atom -5574.216198 kJ/mol
# Density = 2.371532 g / cm^3
# Si number density = 23.769415 Si / 1000 Ang^3
#
#
#
# Elastic Constant Matrix: (Units=GPa)
#
#
# Indices 1 2 3 4 5 6 
#
# 1 96.6214 13.4391 33.8322 3.8307 15.4252 0.7172
# 2 13.4391 70.8143 16.3333 -5.2628 -12.8709 2.7191
# 3 33.8322 16.3333 156.1621 0.0496 -1.4758 -0.7479
# 4 3.8307 -5.2628 0.0496 26.3706 -0.4496 -4.9451
# 5 15.4252 -12.8709 -1.4758 -0.4496 35.1594 -2.2783
# 6 0.7172 2.7191 -0.7479 -4.9451 -2.2783 29.3861
#
#
#
# Elastic Compliance Matrix: (Units=1/GPa)
#
#
# Indices 1 2 3 4 5 6 
#
# 1 0.012960 -0.003342 -0.002530 -0.002874 -0.007124 -0.001107
# 2 -0.003342 0.016646 -0.000948 0.003893 0.007554 -0.000242
# 3 -0.002530 -0.000948 0.007063 0.000270 0.001093 0.000459
# 4 -0.002874 0.003893 0.000270 0.040454 0.003656 0.006808
# 5 -0.007124 0.007554 0.001093 0.003656 0.034607 0.002801
# 6 -0.001107 -0.000242 0.000459 0.006808 0.002801 0.035454
#
#
# Mechanical properties :
#
#
# Convention : Reuss Voigt Hill
#
# Bulk Modulus (GPa) = 43.42264 50.08967 46.75615
# Shear Modulus (GPa) = 29.67373 35.51608 32.59491
#
# Velocity S-wave (km/s) = 3.53710 3.86967 3.70712
# Velocity P-wave (km/s) = 5.91518 6.40974 6.16742
#
# Compressibility (1/GPa) = 0.02302946
#
# Stress axis : x y z
#
# Youngs Moduli (GPa) = 77.16170 60.07482 141.57697
#
# Poissons Ratio (x) = 0.20076 0.35818
# Poissons Ratio (y) = 0.25786 0.13422
# Poissons Ratio (z) = 0.19521 0.05695
#
# Static dielectric constant tensor:
#      x y z
#    x 2.042170 -0.039250 0.070470 
#    y -0.039250 1.945590 -0.055850 
#    z 0.070470 -0.055850 2.001140 
# 
# From -- ./inp_files/566724.got.cif
#   From: 2010.05.17/outbox.cif.g08.bks.cpg/sg2_284_cif.got.tgz:566724.got - 2010.06.03 11:33:40.
