data_PCOD9008494
_publ_section_title
;
Structure prediction by ZEFSAII (Michael W. Deem and Ramdas Pophale) SiO2 
 PCOD9008494
Probable space group: P -1
;
_chemical_formula_sum "Si O2"
_cell_formula_units_Z 16
_cell_length_a 5.944386
_cell_length_b 5.098521
_cell_length_c 24.194819
_cell_angle_alpha 68.358655
_cell_angle_beta 72.665828
_cell_angle_gamma 81.949123
_cell_volume 650.265223
_symmetry_space_group_name_H-M "P -1"
_symmetry_group_IT_number 2
_symmetry_cell_setting 'triclinic'
loop_
_space_group_symop_operation_xyz
x,y,z
-x,-y,-z
loop_
_atom_site_type_symbol
_atom_site_label
_atom_site_fract_x
_atom_site_fract_y
_atom_site_fract_z
Si Si1 0.314661 0.716721 0.467337
Si Si2 0.045048 0.376963 0.302956
Si Si3 0.833090 0.681953 0.575411
Si Si4 0.520008 0.445017 0.204656
Si Si5 0.900184 0.974778 0.249366
Si Si6 0.267024 0.191401 0.015010
Si Si7 0.756146 0.712801 0.868182
Si Si8 0.870297 0.763070 0.099190
O O1 0.500000 0.500000 0.500000
O O2 0.284475 0.599253 0.416540
O O3 0.064007 0.705055 0.518106
O O4 0.351933 0.051603 0.438713
O O5 0.068563 0.316085 0.370290
O O6 0.298409 0.485660 0.257017
O O7 0.997066 0.107129 0.289272
O O8 0.864867 0.642465 0.283857
O O9 0.682222 0.186733 0.235554
O O10 0.433742 0.340862 0.159599
O O11 0.649090 0.735613 0.157926
O O12 0.092736 0.023512 0.182822
O O13 0.330241 0.312227 0.060846
O O14 0.203759 0.332283 0.949952
O O15 0.020797 0.038285 0.058659
O O16 0.500000 0.000000 0.000000
O O17 0.947244 0.458708 0.870493
#
# Coordination Sequence:
#
# PCOD9008494 Si02
#       8
#     2   2   2   2   2   2   2   2
#     4  10  21  39  65 101 137 185 216 275 325 380
#     4  11  24  45  65 100 131 179 225 278 325 394
#     4  10  22  39  65  97 140 174 229 270 323 386
#     4  10  24  44  66  90 128 171 216 275 341 397
#     4  10  25  41  66  92 130 171 224 272 334 393
#     4  11  24  38  65  90 119 158 206 271 336 407
#     4  10  23  42  60  86 121 161 207 271 331 407
#     4  10  23  42  59  91 119 160 207 269 334 412
#
# _framework density 24.605342
#
# number of rings (size 3 to 8) (size 9 to 14) (size 15 to 20)
#    0.000    1.750    0.000    2.250    7.000   10.000 
#    2.250    0.000    0.000    0.000    0.000    0.000 
#    0.000    0.000    0.000    0.000    0.000    0.000 
#
# Total GULP energy -89419.472051 kJ/mol
# GULP energy per Si atom -5588.717003 kJ/mol
# Density = 2.454934 g / cm^3
# Si number density = 24.605342 Si / 1000 Ang^3
#
#
#
# Elastic Constant Matrix: (Units=GPa)
#
#
# Indices 1 2 3 4 5 6 
#
# 1 57.8365 17.0861 5.5493 7.1681 23.1888 -11.9474
# 2 17.0861 108.4428 32.3490 6.5832 4.4669 -11.2338
# 3 5.5493 32.3490 75.9907 21.9799 31.2531 5.4699
# 4 7.1681 6.5832 21.9799 38.4261 1.0385 13.9042
# 5 23.1888 4.4669 31.2531 1.0385 31.2305 -5.0116
# 6 -11.9474 -11.2338 5.4699 13.9042 -5.0116 24.9517
#
#
#
# Elastic Compliance Matrix: (Units=1/GPa)
#
#
# Indices 1 2 3 4 5 6 
#
# 1 0.061802 -0.016999 0.050394 -0.040587 -0.090063 0.015419
# 2 -0.016999 0.017663 -0.024240 0.010858 0.034971 0.006100
# 3 0.050394 -0.024240 0.079803 -0.047791 -0.112253 -0.000193
# 4 -0.040587 0.010858 -0.047791 0.067122 0.069771 -0.027458
# 5 -0.090063 0.034971 -0.112253 0.069771 0.203789 -0.000719
# 6 0.015419 0.006100 -0.000193 -0.027458 -0.000719 0.065405
#
#
# Mechanical properties :
#
#
# Convention : Reuss Voigt Hill
#
# Bulk Modulus (GPa) = 5.63140 39.13764 22.38452
# Shear Modulus (GPa) = 9.32025 31.40737 20.36381
#
# Velocity S-wave (km/s) = 1.94836 3.57661 2.87995
# Velocity P-wave (km/s) = 2.71204 5.74429 4.49177
#
# Compressibility (1/GPa) = 0.17757575
#
# Stress axis : x y z
#
# Youngs Moduli (GPa) = 16.18080 56.61519 12.53091
#
# Poissons Ratio (x) = 0.96241 -0.63148
# Poissons Ratio (y) = 0.27506 0.30375
# Poissons Ratio (z) = -0.81541 1.37238
#
# Static dielectric constant tensor:
#      x y z
#    x 2.007950 0.062800 -0.039110 
#    y 0.062800 2.002260 0.009340 
#    z -0.039110 0.009340 2.014270 
# 
# From -- ./inp_files/603092.got.cif
#   From: 2010.05.17/outbox.cif.g08.bks.cpg/sg2_302_cif.got.tgz:603092.got - 2010.06.03 11:33:40.
