data_PCOD9008721
_publ_section_title
;
Structure prediction by ZEFSAII (Michael W. Deem and Ramdas Pophale) SiO2 
 PCOD9008721
Probable space group: P -1
;
_chemical_formula_sum "Si O2"
_cell_formula_units_Z 16
_cell_length_a 13.733250
_cell_length_b 11.463825
_cell_length_c 5.703154
_cell_angle_alpha 63.687144
_cell_angle_beta 105.817223
_cell_angle_gamma 92.656344
_cell_volume 771.479921
_symmetry_space_group_name_H-M "P -1"
_symmetry_group_IT_number 2
_symmetry_cell_setting 'triclinic'
loop_
_space_group_symop_operation_xyz
x,y,z
-x,-y,-z
loop_
_atom_site_type_symbol
_atom_site_label
_atom_site_fract_x
_atom_site_fract_y
_atom_site_fract_z
Si Si1 0.938242 0.208289 0.769374
Si Si2 0.199809 0.559311 0.576618
Si Si3 0.594750 0.582585 0.938740
Si Si4 0.257035 0.394126 0.367057
Si Si5 0.077211 0.040350 0.709956
Si Si6 0.295845 0.117603 0.757212
Si Si7 0.937139 0.593686 0.058266
Si Si8 0.405671 0.108415 0.323451
O O1 0.836253 0.290018 0.541988
O O2 0.022926 0.173902 0.659382
O O3 0.993602 0.295641 0.913584
O O4 0.914618 0.072610 0.988268
O O5 0.211557 0.525500 0.341826
O O6 0.105986 0.487363 0.683209
O O7 0.306112 0.496193 0.805776
O O8 0.635898 0.583620 0.698281
O O9 0.573036 0.738100 0.839826
O O10 0.500000 0.500000 0.000000
O O11 0.272299 0.272061 0.656410
O O12 0.170486 0.351633 0.172890
O O13 0.190504 0.057357 0.693274
O O14 0.000000 0.000000 0.500000
O O15 0.354307 0.107396 0.552714
O O16 0.346359 0.069244 0.080904
O O17 0.000000 0.500000 0.000000
O O18 0.500000 0.000000 0.500000
#
# Coordination Sequence:
#
# PCOD9008721 Si02
#       8
#     2   2   2   2   2   2   2   2
#     4  11  25  39  62  98 138 176 236 271 347 409
#     4  11  22  40  63  96 129 174 228 273 340 418
#     4  10  24  44  66  98 134 172 220 295 357 409
#     4  10  21  39  65  95 130 175 219 276 342 413
#     4  11  27  43  63  95 144 191 227 288 340 421
#     4  11  24  45  74  96 139 185 235 281 351 419
#     4  11  22  35  63  97 132 175 219 277 334 407
#     4  11  25  48  75 104 132 182 242 292 351 426
#
# _framework density 20.739360999999999
#
# number of rings (size 3 to 8) (size 9 to 14) (size 15 to 20)
#    0.000    1.250    2.500    2.250   10.500    1.500 
#    2.250    0.000    0.000    0.000    0.000    0.000 
#    0.000    0.000    0.000    0.000    0.000    0.000 
#
# Total GULP energy -89171.942776 kJ/mol
# GULP energy per Si atom -5573.246424 kJ/mol
# Density = 2.069216 g / cm^3
# Si number density = 20.739361 Si / 1000 Ang^3
#
#
#
# Elastic Constant Matrix: (Units=GPa)
#
#
# Indices 1 2 3 4 5 6 
#
# 1 152.9586 60.2259 45.4595 -10.3563 3.9895 4.0045
# 2 60.2259 95.6507 25.4876 -3.4368 4.9799 -14.6462
# 3 45.4595 25.4876 83.8808 -7.9757 20.9791 -2.3838
# 4 -10.3563 -3.4368 -7.9757 34.9288 -6.7385 5.4939
# 5 3.9895 4.9799 20.9791 -6.7385 34.7172 -5.1634
# 6 4.0045 -14.6462 -2.3838 5.4939 -5.1634 28.2240
#
#
#
# Elastic Compliance Matrix: (Units=1/GPa)
#
#
# Indices 1 2 3 4 5 6 
#
# 1 0.010553 -0.006352 -0.004168 0.002768 0.001963 -0.005326
# 2 -0.006352 0.016243 -0.001501 -0.002083 0.000341 0.009671
# 3 -0.004168 -0.001501 0.017087 0.000772 -0.009578 -0.000647
# 4 0.002768 -0.002083 0.000772 0.031360 0.004609 -0.006670
# 5 0.001963 0.000341 -0.009578 0.004609 0.035920 0.004764
# 6 -0.005326 0.009671 -0.000647 -0.006670 0.004764 0.043320
#
#
# Mechanical properties :
#
#
# Convention : Reuss Voigt Hill
#
# Bulk Modulus (GPa) = 50.40438 66.09291 58.24865
# Shear Modulus (GPa) = 27.00639 32.99513 30.00076
#
# Velocity S-wave (km/s) = 3.61249 3.99299 3.80749
# Velocity P-wave (km/s) = 6.46193 7.29357 6.89031
#
# Compressibility (1/GPa) = 0.01983954
#
# Stress axis : x y z
#
# Youngs Moduli (GPa) = 94.75649 61.56595 58.52298
#
# Poissons Ratio (x) = 0.39109 0.24393
# Poissons Ratio (y) = 0.60193 0.08787
# Poissons Ratio (z) = 0.39496 0.09243
#
# Static dielectric constant tensor:
#      x y z
#    x 1.814880 -0.016570 -0.010340 
#    y -0.016570 1.758430 0.021020 
#    z -0.010340 0.021020 1.865760 
# 
# From -- ./inp_files/68649.got.cif
#   From: 2010.05.17/outbox.cif.g08.bks.cpg/sg2_35_cif.got.tgz:68649.got - 2010.06.03 11:33:40.
