data_PCOD9008562
_publ_section_title
;
Structure prediction by ZEFSAII (Michael W. Deem and Ramdas Pophale) SiO2 
 PCOD9008562
Probable space group: P -1
;
_chemical_formula_sum "Si O2"
_cell_formula_units_Z 16
_cell_length_a 7.603729
_cell_length_b 15.531990
_cell_length_c 7.451252
_cell_angle_alpha 114.104619
_cell_angle_beta 125.181814
_cell_angle_gamma 71.929943
_cell_volume 653.217225
_symmetry_space_group_name_H-M "P -1"
_symmetry_group_IT_number 2
_symmetry_cell_setting 'triclinic'
loop_
_space_group_symop_operation_xyz
x,y,z
-x,-y,-z
loop_
_atom_site_type_symbol
_atom_site_label
_atom_site_fract_x
_atom_site_fract_y
_atom_site_fract_z
Si Si1 0.739336 0.512834 0.719377
Si Si2 0.404918 0.397823 0.955000
Si Si3 0.487408 0.133034 0.492472
Si Si4 0.875445 0.407962 0.397051
Si Si5 0.008369 0.919493 0.283977
Si Si6 0.361964 0.190345 0.858907
Si Si7 0.269295 0.323193 0.428361
Si Si8 0.663366 0.025789 0.961388
O O1 0.500000 0.500000 0.500000
O O2 0.740198 0.523071 0.943219
O O3 0.859070 0.420725 0.613264
O O4 0.771027 0.609623 0.711765
O O5 0.651536 0.413361 0.163088
O O6 0.362887 0.301393 0.947843
O O7 0.374300 0.376189 0.706866
O O8 0.748286 0.124927 0.646621
O O9 0.362264 0.158941 0.624599
O O10 0.404548 0.222575 0.392409
O O11 0.418546 0.033651 0.300695
O O12 0.000000 0.500000 0.500000
O O13 0.027537 0.315560 0.352250
O O14 0.839335 0.845931 0.184381
O O15 0.000000 0.000000 0.500000
O O16 0.900020 0.979720 0.106879
O O17 0.596954 0.137503 0.007956
O O18 0.500000 0.000000 0.000000
#
# Coordination Sequence:
#
# PCOD9008562 Si02
#       8
#     2   2   2   2   2   2   2   2
#     4   9  20  39  65  92 125 165 206 262 323 390
#     4  10  22  42  63  98 133 162 217 272 317 385
#     4  11  23  43  62  93 133 165 220 268 318 381
#     4   9  20  42  66  92 126 166 209 262 324 395
#     4  11  23  41  63  91 126 174 218 259 322 380
#     4  10  23  43  62  95 133 164 222 269 308 392
#     4  10  23  41  64  96 129 168 210 271 321 386
#     4  10  21  39  65  90 125 177 210 262 322 371
#
# _framework density 24.494150000000001
#
# number of rings (size 3 to 8) (size 9 to 14) (size 15 to 20)
#    0.000    2.000    2.500    0.375    3.500    7.500 
#   18.000    0.000    0.000    0.000    0.000    0.000 
#    0.000    0.000    0.000    0.000    0.000    0.000 
#
# Total GULP energy -89247.095886 kJ/mol
# GULP energy per Si atom -5577.943493 kJ/mol
# Density = 2.443840 g / cm^3
# Si number density = 24.494150 Si / 1000 Ang^3
#
#
#
# Elastic Constant Matrix: (Units=GPa)
#
#
# Indices 1 2 3 4 5 6 
#
# 1 94.5045 18.2915 30.1074 0.1891 -3.4366 -15.5082
# 2 18.2915 85.8975 -13.9993 -4.3989 3.7131 -4.8997
# 3 30.1074 -13.9993 90.0927 -4.5115 -8.7809 5.6528
# 4 0.1891 -4.3989 -4.5115 32.0185 -8.5101 5.1890
# 5 -3.4366 3.7131 -8.7809 -8.5101 44.8147 0.4307
# 6 -15.5082 -4.8997 5.6528 5.1890 0.4307 36.7424
#
#
#
# Elastic Compliance Matrix: (Units=1/GPa)
#
#
# Indices 1 2 3 4 5 6 
#
# 1 0.014323 -0.003753 -0.005962 -0.002635 -0.000325 0.006838
# 2 -0.003753 0.013091 0.003425 0.002350 -0.000248 -0.000694
# 3 -0.005962 0.003425 0.014421 0.004104 0.002911 -0.004892
# 4 -0.002635 0.002350 0.004104 0.035093 0.007134 -0.006470
# 5 -0.000325 -0.000248 0.002911 0.007134 0.024253 -0.001910
# 6 0.006838 -0.000694 -0.004892 -0.006470 -0.001910 0.031699
#
#
# Mechanical properties :
#
#
# Convention : Reuss Voigt Hill
#
# Bulk Modulus (GPa) = 34.18242 37.69931 35.94087
# Shear Modulus (GPa) = 32.21442 38.45480 35.33461
#
# Velocity S-wave (km/s) = 3.63049 3.96657 3.80224
# Velocity P-wave (km/s) = 5.61779 6.03347 5.82934
#
# Compressibility (1/GPa) = 0.02925480
#
# Stress axis : x y z
#
# Youngs Moduli (GPa) = 69.81844 76.39092 69.34541
#
# Poissons Ratio (x) = 0.28666 0.41345
# Poissons Ratio (y) = 0.26200 -0.23752
# Poissons Ratio (z) = 0.41627 -0.26165
#
# Static dielectric constant tensor:
#      x y z
#    x 2.077750 0.000610 -0.088600 
#    y 0.000610 2.240420 -0.076770 
#    z -0.088600 -0.076770 2.058540 
# 
# From -- ./inp_files/215622.got.cif
#   From: 2010.05.17/outbox.cif.g08.bks.cpg/sg2_108_cif.got.tgz:215622.got - 2010.06.03 11:33:40.
