data_PCOD9008202
_publ_section_title
;
Structure prediction by ZEFSAII (Michael W. Deem and Ramdas Pophale) SiO2 
 PCOD9008202
Probable space group: P -1
;
_chemical_formula_sum "Si O2"
_cell_formula_units_Z 16
_cell_length_a 16.032701
_cell_length_b 6.128829
_cell_length_c 16.451286
_cell_angle_alpha 52.765030
_cell_angle_beta 148.408702
_cell_angle_gamma 125.947580
_cell_volume 664.195553
_symmetry_space_group_name_H-M "P -1"
_symmetry_group_IT_number 2
_symmetry_cell_setting 'triclinic'
loop_
_space_group_symop_operation_xyz
x,y,z
-x,-y,-z
loop_
_atom_site_type_symbol
_atom_site_label
_atom_site_fract_x
_atom_site_fract_y
_atom_site_fract_z
Si Si1 0.822257 0.458986 0.326558
Si Si2 0.014138 0.558327 0.128220
Si Si3 0.765817 0.858307 0.629252
Si Si4 0.572246 0.727699 0.146333
Si Si5 0.390022 0.128735 0.672525
Si Si6 0.042049 0.353424 0.768348
Si Si7 0.649956 0.847036 0.886985
Si Si8 0.264406 0.137555 0.220691
O O1 0.723675 0.693373 0.223353
O O2 0.859413 0.473146 0.259296
O O3 0.000000 0.500000 0.500000
O O4 0.719016 0.170954 0.334253
O O5 0.103578 0.344075 0.205342
O O6 0.982457 0.458937 0.217391
O O7 0.140391 0.846155 0.177125
O O8 0.848139 0.628692 0.939882
O O9 0.672583 0.771060 0.487744
O O10 0.667606 0.839757 0.636571
O O11 0.873427 0.167961 0.642360
O O12 0.617378 0.723893 0.280458
O O13 0.440100 0.450272 0.088466
O O14 0.500000 0.000000 0.000000
O O15 0.571205 0.076797 0.816417
O O16 0.160390 0.143748 0.944634
O O17 0.621128 0.855915 0.763925
#
# Coordination Sequence:
#
# PCOD9008202 Si02
#       8
#     2   2   2   2   2   2   2   2
#     4  11  23  41  63  91 129 163 201 260 316 364
#     4   9  20  36  61  90 124 155 203 257 302 365
#     4  11  22  37  63  94 124 154 205 263 304 361
#     4  11  25  43  65  92 127 168 213 252 305 379
#     4  11  25  41  61  93 127 162 203 258 313 365
#     4  10  21  39  64  90 120 163 206 248 310 366
#     4  10  23  43  64  87 126 166 206 250 306 372
#     4   9  20  39  60  87 120 165 202 247 311 365
#
# _framework density 24.089288
#
# number of rings (size 3 to 8) (size 9 to 14) (size 15 to 20)
#    0.000    1.750    1.250    2.625    1.750   10.000 
#    0.000    1.250    0.000    0.000    0.000    0.000 
#    0.000    0.000    0.000    0.000    0.000    0.000 
#
# Total GULP energy -89464.233395 kJ/mol
# GULP energy per Si atom -5591.514587 kJ/mol
# Density = 2.403446 g / cm^3
# Si number density = 24.089288 Si / 1000 Ang^3
#
#
#
# Elastic Constant Matrix: (Units=GPa)
#
#
# Indices 1 2 3 4 5 6 
#
# 1 130.1296 1.1197 -0.7598 -7.1212 -18.4564 8.0523
# 2 1.1197 45.2094 8.0719 1.2198 5.2218 7.3248
# 3 -0.7598 8.0719 49.4421 9.9901 -13.5023 12.2540
# 4 -7.1212 1.2198 9.9901 25.0583 -1.6296 -1.2528
# 5 -18.4564 5.2218 -13.5023 -1.6296 43.9180 -2.7910
# 6 8.0523 7.3248 12.2540 -1.2528 -2.7910 16.4550
#
#
#
# Elastic Compliance Matrix: (Units=1/GPa)
#
#
# Indices 1 2 3 4 5 6 
#
# 1 0.008676 -0.000330 0.002199 0.001626 0.004109 -0.004916
# 2 -0.000330 0.024731 -0.002678 -0.001011 -0.004556 -0.009703
# 3 0.002199 -0.002678 0.031194 -0.012225 0.008948 -0.022527
# 4 0.001626 -0.001011 -0.012225 0.045869 -0.000479 0.012169
# 5 0.004109 -0.004556 0.008948 -0.000479 0.027645 -0.001994
# 6 -0.004916 -0.009703 -0.022527 0.012169 -0.001994 0.084861
#
#
# Mechanical properties :
#
#
# Convention : Reuss Voigt Hill
#
# Bulk Modulus (GPa) = 15.87680 26.84942 21.36311
# Shear Modulus (GPa) = 20.35932 31.50955 25.93443
#
# Velocity S-wave (km/s) = 2.91032 3.62060 3.28471
# Velocity P-wave (km/s) = 4.23065 5.35241 4.82424
#
# Compressibility (1/GPa) = 0.06298497
#
# Stress axis : x y z
#
# Youngs Moduli (GPa) = 115.25552 40.43468 32.05784
#
# Poissons Ratio (x) = 0.01333 -0.07050
# Poissons Ratio (y) = 0.03799 0.08584
# Poissons Ratio (z) = -0.25347 0.10827
#
# Static dielectric constant tensor:
#      x y z
#    x 1.901110 0.012770 -0.028270 
#    y 0.012770 1.813060 -0.077200 
#    z -0.028270 -0.077200 1.889660 
# 
# From -- ./inp_files/78543.got.cif
#   From: 2010.05.17/outbox.cif.g08.bks.cpg/sg2_40_cif.got.tgz:78543.got - 2010.06.03 11:33:40.
