data_PCOD9008265
_publ_section_title
;
Structure prediction by ZEFSAII (Michael W. Deem and Ramdas Pophale) SiO2 
 PCOD9008265
Probable space group: P -1
;
_chemical_formula_sum "Si O2"
_cell_formula_units_Z 14
_cell_length_a 5.182065
_cell_length_b 5.266727
_cell_length_c 21.407238
_cell_angle_alpha 63.693420
_cell_angle_beta 106.182283
_cell_angle_gamma 94.068029
_cell_volume 502.059605
_symmetry_space_group_name_H-M "P -1"
_symmetry_group_IT_number 2
_symmetry_cell_setting 'triclinic'
loop_
_space_group_symop_operation_xyz
x,y,z
-x,-y,-z
loop_
_atom_site_type_symbol
_atom_site_label
_atom_site_fract_x
_atom_site_fract_y
_atom_site_fract_z
Si Si1 0.754071 0.762017 0.083142
Si Si2 0.480194 0.533911 0.581334
Si Si3 0.262471 0.118345 0.790325
Si Si4 0.797721 0.355777 0.954206
Si Si5 0.137581 0.943140 0.448345
Si Si6 0.702081 0.997821 0.726128
Si Si7 0.261051 0.683978 0.677844
O O1 0.696105 0.898107 0.131597
O O2 0.518574 0.545276 0.078955
O O3 0.052170 0.624257 0.104063
O O4 0.760737 0.029724 0.007192
O O5 0.290493 0.632130 0.498329
O O6 0.278639 0.554646 0.624364
O O7 0.658144 0.806776 0.572009
O O8 0.092701 0.981856 0.625846
O O9 0.524703 0.069671 0.769403
O O10 0.147443 0.445265 0.738206
O O11 0.013435 0.949512 0.768297
O O12 0.000000 0.500000 0.000000
O O13 0.000000 0.000000 0.500000
O O14 0.648091 0.244082 0.642211
O O15 0.555934 0.736488 0.716175
#
# Coordination Sequence:
#
# PCOD9008265 Si02
#       7
#     2   2   2   2   2   2   2
#     4  10  22  39  61  89 124 157 190 239 288 333
#     4   9  19  37  56  80 115 144 195 249 295 349
#     4  11  24  41  58  88 123 154 196 239 283 349
#     4  10  21  39  64  92 120 154 196 237 282 339
#     4   9  17  35  58  79 110 149 187 249 299 345
#     4  11  24  38  61  85 115 158 199 238 291 349
#     4  10  22  37  59  81 116 153 194 244 298 344
#
# _framework density 27.88514
#
# number of rings (size 3 to 8) (size 9 to 14) (size 15 to 20)
#    0.000    2.000    1.429    1.286    2.000    2.857 
#    0.000    6.429    0.000    0.000    0.000    0.000 
#    0.000    0.000    0.000    0.000    0.000    0.000 
#
# Total GULP energy -78318.092287 kJ/mol
# GULP energy per Si atom -5594.149449 kJ/mol
# Density = 2.782167 g / cm^3
# Si number density = 27.885140 Si / 1000 Ang^3
#
#
#
# Elastic Constant Matrix: (Units=GPa)
#
#
# Indices 1 2 3 4 5 6 
#
# 1 157.4460 26.3688 24.2696 5.0282 -18.0168 16.4819
# 2 26.3688 77.2313 -1.5067 -9.6057 -2.4051 26.7722
# 3 24.2696 -1.5067 94.5294 -2.0848 -20.7595 11.3241
# 4 5.0282 -9.6057 -2.0848 26.8018 3.8510 10.4368
# 5 -18.0168 -2.4051 -20.7595 3.8510 37.5874 10.0540
# 6 16.4819 26.7722 11.3241 10.4368 10.0540 51.6397
#
#
#
# Elastic Compliance Matrix: (Units=1/GPa)
#
#
# Indices 1 2 3 4 5 6 
#
# 1 0.007504 -0.002426 -0.001165 -0.002442 0.003326 -0.001036
# 2 -0.002426 0.020624 0.004041 0.013064 0.004902 -0.014399
# 3 -0.001165 0.004041 0.013874 0.004340 0.008890 -0.007374
# 4 -0.002442 0.013064 0.004340 0.049260 0.001620 -0.017216
# 5 0.003326 0.004902 0.008890 0.001620 0.036743 -0.013033
# 6 -0.001036 -0.014399 -0.007374 -0.017216 -0.013033 0.034795
#
#
# Mechanical properties :
#
#
# Convention : Reuss Voigt Hill
#
# Bulk Modulus (GPa) = 23.30855 47.49668 35.40262
# Shear Modulus (GPa) = 28.37689 41.87745 35.12717
#
# Velocity S-wave (km/s) = 3.19350 3.87949 3.55309
# Velocity P-wave (km/s) = 4.68773 6.09403 5.43654
#
# Compressibility (1/GPa) = 0.04290271
#
# Stress axis : x y z
#
# Youngs Moduli (GPa) = 133.25805 48.48693 72.07931
#
# Poissons Ratio (x) = 0.11763 0.08395
# Poissons Ratio (y) = 0.32328 -0.29128
# Poissons Ratio (z) = 0.15521 -0.19594
#
# Static dielectric constant tensor:
#      x y z
#    x 2.301730 -0.113210 0.091010 
#    y -0.113210 2.157400 -0.017230 
#    z 0.091010 -0.017230 2.195340 
# 
# From -- ./inp_files/603114.got.cif
#   From: 2010.05.17/outbox.cif.g08.bks.cpg/sg2_302_cif.got.tgz:603114.got - 2010.06.03 11:33:40.
