data_PCOD9008100
_publ_section_title
;
Structure prediction by ZEFSAII (Michael W. Deem and Ramdas Pophale) SiO2 
 PCOD9008100
Probable space group: P -1
;
_chemical_formula_sum "Si O2"
_cell_formula_units_Z 10
_cell_length_a 9.303430
_cell_length_b 11.071686
_cell_length_c 9.446197
_cell_angle_alpha 111.781558
_cell_angle_beta 148.236844
_cell_angle_gamma 78.335223
_cell_volume 462.674828
_symmetry_space_group_name_H-M "P -1"
_symmetry_group_IT_number 2
_symmetry_cell_setting 'triclinic'
loop_
_space_group_symop_operation_xyz
x,y,z
-x,-y,-z
loop_
_atom_site_type_symbol
_atom_site_label
_atom_site_fract_x
_atom_site_fract_y
_atom_site_fract_z
Si Si1 0.391532 0.997503 0.746423
Si Si2 0.861757 0.362606 0.908457
Si Si3 0.187910 0.214225 0.785192
Si Si4 0.650250 0.784405 0.774752
Si Si5 0.812993 0.511300 0.214552
O O1 0.605047 0.936538 0.804318
O O2 0.086787 0.895072 0.439583
O O3 0.333381 0.145106 0.752948
O O4 0.500000 0.000000 0.000000
O O5 0.581044 0.298398 0.559548
O O6 0.816709 0.405397 0.048543
O O7 0.000000 0.500000 0.000000
O O8 0.060500 0.257408 0.033018
O O9 0.089985 0.341879 0.706914
O O10 0.388259 0.253784 0.106590
O O11 0.000000 0.500000 0.500000
O O12 0.500000 0.500000 0.000000
#
# Coordination Sequence:
#
# PCOD9008100 Si02
#       5
#     2   2   2   2   2
#     4   9  19  35  66  99 123 156 214 283 305 352
#     4  12  23  38  66  90 128 166 215 266 304 367
#     4  10  21  39  63  99 127 165 213 266 313 370
#     4  11  20  36  64  96 120 151 215 274 310 348
#     4  12  28  43  62  93 138 174 202 249 327 398
#
# _framework density 21.613451999999999
#
# number of rings (size 3 to 8) (size 9 to 14) (size 15 to 20)
#    0.000    1.200    4.000    1.800    8.400    0.000 
#    0.000    0.000    0.000    7.200    0.000    0.000 
#    0.000    0.000    0.000    0.000    0.000    0.000 
#
# Total GULP energy -55815.342638 kJ/mol
# GULP energy per Si atom -5581.534264 kJ/mol
# Density = 2.156426 g / cm^3
# Si number density = 21.613452 Si / 1000 Ang^3
#
#
#
# Elastic Constant Matrix: (Units=GPa)
#
#
# Indices 1 2 3 4 5 6 
#
# 1 114.3451 45.0771 53.6166 -2.8799 -19.5018 -47.1423
# 2 45.0771 94.6376 37.3797 -12.6231 -17.7875 -46.6411
# 3 53.6166 37.3797 179.9681 -19.9580 -30.8579 -16.1528
# 4 -2.8799 -12.6231 -19.9580 28.5973 -10.8640 3.2871
# 5 -19.5018 -17.7875 -30.8579 -10.8640 40.0898 0.4996
# 6 -47.1423 -46.6411 -16.1528 3.2871 0.4996 39.4463
#
#
#
# Elastic Compliance Matrix: (Units=1/GPa)
#
#
# Indices 1 2 3 4 5 6 
#
# 1 0.032924 0.026762 -0.002194 0.017144 0.029996 0.068284
# 2 0.026762 0.062861 0.001311 0.038974 0.051198 0.102952
# 3 -0.002194 0.001311 0.008626 0.009508 0.008711 0.001558
# 4 0.017144 0.038974 0.009508 0.072933 0.051921 0.063730
# 5 0.029996 0.051198 0.008711 0.051921 0.081848 0.094589
# 6 0.068284 0.102952 0.001558 0.063730 0.094589 0.222816
#
#
# Mechanical properties :
#
#
# Convention : Reuss Voigt Hill
#
# Bulk Modulus (GPa) = 6.40326 73.45529 39.92928
# Shear Modulus (GPa) = 10.36685 38.48519 24.42602
#
# Velocity S-wave (km/s) = 2.19246 4.22431 3.36539
# Velocity P-wave (km/s) = 3.06239 7.60610 5.79789
#
# Compressibility (1/GPa) = 0.15617040
#
# Stress axis : x y z
#
# Youngs Moduli (GPa) = 30.37289 15.90801 115.93253
#
# Poissons Ratio (x) = -0.42574 0.25438
# Poissons Ratio (y) = -0.81285 -0.15204
# Poissons Ratio (z) = 0.06664 -0.02086
#
# Static dielectric constant tensor:
#      x y z
#    x 1.834510 -0.030250 0.028810 
#    y -0.030250 1.855060 -0.002430 
#    z 0.028810 -0.002430 1.782680 
# 
# From -- ./inp_files/22765.got.cif
#   From: 2010.05.17/outbox.cif.g08.bks.cpg/sg2_12_cif.got.tgz:22765.got - 2010.06.03 11:33:40.
