data_PCOD9008751
_publ_section_title
;
Structure prediction by ZEFSAII (Michael W. Deem and Ramdas Pophale) SiO2 
 PCOD9008751
Probable space group: P -1
;
_chemical_formula_sum "Si O2"
_cell_formula_units_Z 16
_cell_length_a 29.288447
_cell_length_b 8.122414
_cell_length_c 5.632384
_cell_angle_alpha 56.780786
_cell_angle_beta 103.549450
_cell_angle_gamma 138.648828
_cell_volume 701.585372
_symmetry_space_group_name_H-M "P -1"
_symmetry_group_IT_number 2
_symmetry_cell_setting 'triclinic'
loop_
_space_group_symop_operation_xyz
x,y,z
-x,-y,-z
loop_
_atom_site_type_symbol
_atom_site_label
_atom_site_fract_x
_atom_site_fract_y
_atom_site_fract_z
Si Si1 0.932642 0.727115 0.795821
Si Si2 0.316552 0.422823 0.780029
Si Si3 0.794433 0.246168 0.708363
Si Si4 0.281792 0.642589 0.188958
Si Si5 0.843973 0.707928 0.025199
Si Si6 0.416645 0.963995 0.850386
Si Si7 0.982154 0.338388 0.854814
Si Si8 0.450622 0.731906 0.454786
O O1 0.867548 0.427373 0.798028
O O2 0.898026 0.808122 0.806226
O O3 0.000000 0.000000 0.500000
O O4 0.965893 0.686558 0.059525
O O5 0.283794 0.461888 0.509564
O O6 0.365450 0.717271 0.774168
O O7 0.373237 0.449387 0.707626
O O8 0.256778 0.106053 0.095752
O O9 0.750659 0.273676 0.780683
O O10 0.817337 0.428302 0.351850
O O11 0.226186 0.422993 0.078521
O O12 0.363658 0.937343 0.953878
O O13 0.896397 0.005931 0.016873
O O14 0.496174 0.262025 0.598496
O O15 0.431809 0.830532 0.151268
O O16 0.000000 0.500000 0.500000
O O17 0.000000 0.500000 0.000000
O O18 0.500000 0.000000 0.500000
#
# Coordination Sequence:
#
# PCOD9008751 Si02
#       8
#     2   2   2   2   2   2   2   2
#     4  11  24  47  68  90 129 178 221 278 346 406
#     4  10  21  39  65  96 131 172 222 267 330 403
#     4  11  25  41  65  93 136 172 219 274 341 402
#     4  10  23  41  62  94 132 174 219 272 332 397
#     4  11  25  45  65  90 132 176 216 276 345 405
#     4   9  17  35  64  92 130 170 219 269 326 386
#     4  12  28  44  71 102 129 168 232 289 342 418
#     4   8  16  33  62  95 126 171 215 267 323 388
#
# _framework density 22.805493999999999
#
# number of rings (size 3 to 8) (size 9 to 14) (size 15 to 20)
#    0.000    1.750    1.250    1.875    5.250    5.000 
#    0.000    0.625    0.000   30.750    0.000    0.000 
#    0.000    0.000    0.000    0.000    0.000    0.000 
#
# Total GULP energy -89372.468941 kJ/mol
# GULP energy per Si atom -5585.779309 kJ/mol
# Density = 2.275359 g / cm^3
# Si number density = 22.805494 Si / 1000 Ang^3
#
#
#
# Elastic Constant Matrix: (Units=GPa)
#
#
# Indices 1 2 3 4 5 6 
#
# 1 108.1417 3.7120 12.7857 0.3041 -10.5031 22.5238
# 2 3.7120 63.7382 31.6050 20.8805 27.4013 24.0075
# 3 12.7857 31.6050 111.6014 8.5883 7.4661 19.0150
# 4 0.3041 20.8805 8.5883 35.3153 8.9574 3.6051
# 5 -10.5031 27.4013 7.4661 8.9574 35.7999 5.0927
# 6 22.5238 24.0075 19.0150 3.6051 5.0927 38.2985
#
#
#
# Elastic Compliance Matrix: (Units=1/GPa)
#
#
# Indices 1 2 3 4 5 6 
#
# 1 0.011191 0.000946 -0.000495 -0.000773 0.003905 -0.007375
# 2 0.000946 0.039976 -0.005641 -0.014592 -0.022875 -0.018399
# 3 -0.000495 -0.005641 0.010757 0.000379 0.002094 -0.001827
# 4 -0.000773 -0.014592 0.000379 0.035999 0.001018 0.005889
# 5 0.003905 -0.022875 0.002094 0.001018 0.045199 0.004897
# 6 -0.007375 -0.018399 -0.001827 0.005889 0.004897 0.041683
#
#
# Mechanical properties :
#
#
# Convention : Reuss Voigt Hill
#
# Bulk Modulus (GPa) = 19.40115 42.18740 30.79428
# Shear Modulus (GPa) = 23.54419 37.57466 30.55943
#
# Velocity S-wave (km/s) = 3.21657 4.06349 3.66458
# Velocity P-wave (km/s) = 4.72449 6.36827 5.60694
#
# Compressibility (1/GPa) = 0.05154333
#
# Stress axis : x y z
#
# Youngs Moduli (GPa) = 89.35984 25.01503 92.96408
#
# Poissons Ratio (x) = -0.02367 0.04604
# Poissons Ratio (y) = -0.08456 0.52443
# Poissons Ratio (z) = 0.04425 0.14111
#
# Static dielectric constant tensor:
#      x y z
#    x 1.922780 -0.025760 -0.035740 
#    y -0.025760 1.883960 0.001490 
#    z -0.035740 0.001490 1.850730 
# 
# From -- ./inp_files/47730.got.cif
#   From: 2010.05.17/outbox.cif.g08.bks.cpg/sg2_24_cif.got.tgz:47730.got - 2010.06.03 11:33:40.
