data_PCOD9008963
_publ_section_title
;
Structure prediction by ZEFSAII (Michael W. Deem and Ramdas Pophale) SiO2 
 PCOD9008963
Probable space group: P -1
;
_chemical_formula_sum "Si O2"
_cell_formula_units_Z 12
_cell_length_a 7.862943
_cell_length_b 7.034558
_cell_length_c 14.497766
_cell_angle_alpha 134.288924
_cell_angle_beta 128.488294
_cell_angle_gamma 58.768263
_cell_volume 444.241593
_symmetry_space_group_name_H-M "P -1"
_symmetry_group_IT_number 2
_symmetry_cell_setting 'triclinic'
loop_
_space_group_symop_operation_xyz
x,y,z
-x,-y,-z
loop_
_atom_site_type_symbol
_atom_site_label
_atom_site_fract_x
_atom_site_fract_y
_atom_site_fract_z
Si Si1 0.255217 0.379125 0.725318
Si Si2 0.812531 0.815404 0.969248
Si Si3 0.350476 0.136820 0.870594
Si Si4 0.992909 0.188448 0.417689
Si Si5 0.140110 0.201442 0.213095
Si Si6 0.370190 0.909891 0.340395
O O1 0.122475 0.173105 0.554300
O O2 0.069033 0.634220 0.752165
O O3 0.319638 0.323445 0.834144
O O4 0.484983 0.358103 0.740516
O O5 0.602837 0.044788 0.953619
O O6 0.814721 0.655562 0.818810
O O7 0.771177 0.742930 0.036191
O O8 0.049755 0.916477 0.075943
O O9 0.248816 0.879774 0.707514
O O10 0.129196 0.964213 0.321126
O O11 0.000000 0.500000 0.500000
O O12 0.349474 0.127434 0.323674
O O13 0.500000 0.000000 0.500000
#
# Coordination Sequence:
#
# PCOD9008963 Si02
#       6
#     2   2   2   2   2   2
#     4  11  23  39  68  95 124 163 211 268 315 369
#     4  10  23  41  65  89 133 171 209 258 298 391
#     4  11  22  40  62  97 129 162 212 263 318 364
#     4  11  21  42  68  91 125 166 209 264 319 372
#     4  11  21  45  66  92 126 173 213 247 320 374
#     4  10  21  39  66  95 124 162 213 260 309 382
#
# _framework density 27.012331
#
# number of rings (size 3 to 8) (size 9 to 14) (size 15 to 20)
#    0.000    1.333    5.000    0.500    0.000    1.333 
#    0.000   11.667    0.000    0.000    0.000    0.000 
#    0.000    0.000    0.000    0.000    0.000    0.000 
#
# Total GULP energy -66885.070303 kJ/mol
# GULP energy per Si atom -5573.755859 kJ/mol
# Density = 2.695085 g / cm^3
# Si number density = 27.012331 Si / 1000 Ang^3
#
#
#
# Elastic Constant Matrix: (Units=GPa)
#
#
# Indices 1 2 3 4 5 6 
#
# 1 82.5221 32.3965 58.9685 -6.8703 -9.1638 -17.9933
# 2 32.3965 96.0457 34.8233 -18.1999 -11.4241 -20.6471
# 3 58.9685 34.8233 172.8961 -41.8241 -24.1891 14.4317
# 4 -6.8703 -18.1999 -41.8241 50.2564 8.0990 -6.9330
# 5 -9.1638 -11.4241 -24.1891 8.0990 49.1397 -0.5956
# 6 -17.9933 -20.6471 14.4317 -6.9330 -0.5956 36.3335
#
#
#
# Elastic Compliance Matrix: (Units=1/GPa)
#
#
# Indices 1 2 3 4 5 6 
#
# 1 0.021670 -0.002099 -0.008846 -0.003435 -0.000085 0.012396
# 2 -0.002099 0.014686 -0.001643 0.004637 0.001557 0.008869
# 3 -0.008846 -0.001643 0.011764 0.006362 0.002605 -0.008730
# 4 -0.003435 0.004637 0.006362 0.027027 -0.000843 0.003550
# 5 -0.000085 0.001557 0.002605 -0.000843 0.022118 0.000010
# 6 0.012396 0.008869 -0.008730 0.003550 0.000010 0.042847
#
#
# Mechanical properties :
#
#
# Convention : Reuss Voigt Hill
#
# Bulk Modulus (GPa) = 43.58228 67.09340 55.33784
# Shear Modulus (GPa) = 28.91274 42.16429 35.53852
#
# Velocity S-wave (km/s) = 3.27517 3.95514 3.63111
# Velocity P-wave (km/s) = 5.52011 6.76384 6.17338
#
# Compressibility (1/GPa) = 0.02294511
#
# Stress axis : x y z
#
# Youngs Moduli (GPa) = 46.14629 68.09365 85.00698
#
# Poissons Ratio (x) = 0.14290 0.75196
# Poissons Ratio (y) = 0.09684 0.13966
# Poissons Ratio (z) = 0.40820 0.11187
#
# Static dielectric constant tensor:
#      x y z
#    x 2.200180 0.045580 -0.028350 
#    y 0.045580 2.142720 0.009770 
#    z -0.028350 0.009770 2.170940 
# 
# From -- ./inp_files/155709.got.cif
#   From: 2010.05.17/outbox.cif.g08.bks.cpg/sg2_78_cif.got.tgz:155709.got - 2010.06.03 11:33:40.
