data_PCOD9008728
_publ_section_title
;
Structure prediction by ZEFSAII (Michael W. Deem and Ramdas Pophale) SiO2 
 PCOD9008728
Probable space group: P -1
;
_chemical_formula_sum "Si O2"
_cell_formula_units_Z 14
_cell_length_a 12.085684
_cell_length_b 14.395603
_cell_length_c 23.232950
_cell_angle_alpha 20.494378
_cell_angle_beta 28.791140
_cell_angle_gamma 29.342287
_cell_volume 649.923393
_symmetry_space_group_name_H-M "P -1"
_symmetry_group_IT_number 2
_symmetry_cell_setting 'triclinic'
loop_
_space_group_symop_operation_xyz
x,y,z
-x,-y,-z
loop_
_atom_site_type_symbol
_atom_site_label
_atom_site_fract_x
_atom_site_fract_y
_atom_site_fract_z
Si Si1 0.364889 0.976811 0.256353
Si Si2 0.699028 0.659332 0.818707
Si Si3 0.148278 0.188688 0.941649
Si Si4 0.366521 0.778195 0.674395
Si Si5 0.047206 0.551238 0.014579
Si Si6 0.070792 0.203508 0.479336
Si Si7 0.124522 0.594133 0.332809
O O1 0.378323 0.066492 0.264465
O O2 0.619032 0.867933 0.171757
O O3 0.225342 0.272392 0.120136
O O4 0.187631 0.791683 0.431690
O O5 0.764987 0.741746 0.678036
O O6 0.934950 0.431612 0.868891
O O7 0.500000 0.500000 0.000000
O O8 0.172370 0.312966 0.921910
O O9 0.074247 0.909320 0.150070
O O10 0.202836 0.763525 0.811959
O O11 0.587559 0.499313 0.729905
O O12 0.500000 0.000000 0.500000
O O13 0.201946 0.900183 0.623617
O O14 0.000000 0.500000 0.000000
O O15 0.062100 0.420236 0.408852
O O16 0.000000 0.500000 0.500000
#
# Coordination Sequence:
#
# PCOD9008728 Si02
#       7
#     2   2   2   2   2   2   2
#     4  11  24  45  68  99 136 173 227 275 329 398
#     4  11  27  46  71  95 130 181 227 274 332 393
#     4  11  25  44  68  98 134 172 227 275 327 402
#     4  10  21  39  65  95 137 171 215 269 329 393
#     4  11  22  41  66 100 135 175 212 271 345 389
#     4  11  24  44  67  96 137 181 218 275 335 390
#     4  11  24  40  67 105 135 173 226 273 332 396
#
# _framework density 21.541001000000001
#
# number of rings (size 3 to 8) (size 9 to 14) (size 15 to 20)
#    0.000    1.143    2.857    3.000    8.000    4.571 
#    0.000    0.000    0.000    0.000    0.000    0.000 
#    0.000    0.000    0.000    0.000    0.000    0.000 
#
# Total GULP energy -78137.387517 kJ/mol
# GULP energy per Si atom -5581.241966 kJ/mol
# Density = 2.149197 g / cm^3
# Si number density = 21.541001 Si / 1000 Ang^3
#
#
#
# Elastic Constant Matrix: (Units=GPa)
#
#
# Indices 1 2 3 4 5 6 
#
# 1 106.2793 52.5253 25.6082 19.1574 -8.7915 38.4861
# 2 52.5253 132.7082 35.2635 26.2346 -0.8212 30.9020
# 3 25.6082 35.2635 84.2775 23.2779 2.0647 18.7432
# 4 19.1574 26.2346 23.2779 42.4194 -0.3315 7.8148
# 5 -8.7915 -0.8212 2.0647 -0.3315 41.5473 3.6781
# 6 38.4861 30.9020 18.7432 7.8148 3.6781 38.6650
#
#
#
# Elastic Compliance Matrix: (Units=1/GPa)
#
#
# Indices 1 2 3 4 5 6 
#
# 1 0.016995 -0.002642 -0.000020 -0.003306 0.004810 -0.014584
# 2 -0.002642 0.010806 -0.001702 -0.003738 0.000102 -0.004436
# 3 -0.000020 -0.001702 0.015460 -0.006551 -0.000438 -0.004749
# 4 -0.003306 -0.003738 -0.006551 0.030349 -0.000504 0.003367
# 5 0.004810 0.000102 -0.000438 -0.000504 0.025726 -0.007002
# 6 -0.014584 -0.004436 -0.004749 0.003367 -0.007002 0.046213
#
#
# Mechanical properties :
#
#
# Convention : Reuss Voigt Hill
#
# Bulk Modulus (GPa) = 28.95792 61.11767 45.03779
# Shear Modulus (GPa) = 30.15922 38.51753 34.33837
#
# Velocity S-wave (km/s) = 3.74583 4.23318 3.99694
# Velocity P-wave (km/s) = 5.67280 7.23377 6.50031
#
# Compressibility (1/GPa) = 0.03453287
#
# Stress axis : x y z
#
# Youngs Moduli (GPa) = 58.84200 92.54417 64.68327
#
# Poissons Ratio (x) = 0.24448 0.00127
# Poissons Ratio (y) = 0.15545 0.11011
# Poissons Ratio (z) = 0.00116 0.15753
#
# Static dielectric constant tensor:
#      x y z
#    x 1.862360 -0.021880 -0.061920 
#    y -0.021880 1.837370 0.001790 
#    z -0.061920 0.001790 1.857440 
# 
# From -- ./inp_files/285125.got.cif
#   From: 2010.05.17/outbox.cif.g08.bks.cpg/sg2_143_cif.got.tgz:285125.got - 2010.06.03 11:33:40.
