data_PCOD9008973
_publ_section_title
;
Structure prediction by ZEFSAII (Michael W. Deem and Ramdas Pophale) SiO2 
 PCOD9008973
Probable space group: P -1
;
_chemical_formula_sum "Si O2"
_cell_formula_units_Z 14
_cell_length_a 5.250039
_cell_length_b 4.900644
_cell_length_c 23.250966
_cell_angle_alpha 62.930980
_cell_angle_beta 69.505547
_cell_angle_gamma 87.071136
_cell_volume 494.751134
_symmetry_space_group_name_H-M "P -1"
_symmetry_group_IT_number 2
_symmetry_cell_setting 'triclinic'
loop_
_space_group_symop_operation_xyz
x,y,z
-x,-y,-z
loop_
_atom_site_type_symbol
_atom_site_label
_atom_site_fract_x
_atom_site_fract_y
_atom_site_fract_z
Si Si1 0.842531 0.679614 0.282332
Si Si2 0.766286 0.199717 0.041450
Si Si3 0.389027 0.918978 0.452992
Si Si4 0.867558 0.669639 0.787580
Si Si5 0.799684 0.057627 0.917581
Si Si6 0.108126 0.429061 0.585936
Si Si7 0.603340 0.906470 0.679733
O O1 0.918266 0.507882 0.350650
O O2 0.856109 0.443387 0.251494
O O3 0.590406 0.865481 0.297396
O O4 0.072898 0.984649 0.225603
O O5 0.434765 0.187511 0.070186
O O6 0.773027 0.067843 0.988358
O O7 0.881738 0.004413 0.102952
O O8 0.000000 0.500000 0.000000
O O9 0.108332 0.709210 0.514820
O O10 0.600666 0.700229 0.431241
O O11 0.500000 0.000000 0.500000
O O12 0.429081 0.190623 0.376182
O O13 0.762763 0.392489 0.864420
O O14 0.677842 0.682777 0.745612
O O15 0.877478 0.146905 0.621480
#
# Coordination Sequence:
#
# PCOD9008973 Si02
#       7
#     2   2   2   2   2   2   2
#     4  10  25  45  69  98 146 181 246 302 358 447
#     4  10  22  46  75 110 153 196 252 314 374 451
#     4  10  21  39  66  95 128 173 237 302 364 442
#     4  11  26  48  68 110 142 195 245 298 371 449
#     4  10  24  44  74 112 151 200 256 309 379 455
#     4   9  21  41  59  95 128 175 233 292 366 431
#     4  10  23  45  70  96 138 188 233 303 372 441
#
# _framework density 28.297052000000001
#
# number of rings (size 3 to 8) (size 9 to 14) (size 15 to 20)
#    0.000    2.000    0.000    0.857   10.000    2.857 
#   10.286    0.000    0.000    0.000    0.000    0.000 
#    0.000    0.000    0.000    0.000    0.000    0.000 
#
# Total GULP energy -78153.517052 kJ/mol
# GULP energy per Si atom -5582.394075 kJ/mol
# Density = 2.823265 g / cm^3
# Si number density = 28.297052 Si / 1000 Ang^3
#
#
#
# Elastic Constant Matrix: (Units=GPa)
#
#
# Indices 1 2 3 4 5 6 
#
# 1 124.1970 23.2187 42.3379 -7.8230 33.5829 9.9888
# 2 23.2187 132.1395 6.6732 -3.0090 11.2431 -4.9791
# 3 42.3379 6.6732 110.5741 -11.1998 30.5983 -21.2205
# 4 -7.8230 -3.0090 -11.1998 29.4790 -8.4112 2.6995
# 5 33.5829 11.2431 30.5983 -8.4112 46.4647 -3.3763
# 6 9.9888 -4.9791 -21.2205 2.6995 -3.3763 44.9372
#
#
#
# Elastic Compliance Matrix: (Units=1/GPa)
#
#
# Indices 1 2 3 4 5 6 
#
# 1 0.011587 -0.001528 -0.003618 0.000304 -0.005925 -0.004917
# 2 -0.001528 0.007958 0.000727 0.000220 -0.001154 0.001465
# 3 -0.003618 0.000727 0.013403 0.002015 -0.005538 0.006677
# 4 0.000304 0.000220 0.002015 0.036272 0.004901 -0.000903
# 5 -0.005925 -0.001154 -0.005538 0.004901 0.030660 0.000583
# 6 -0.004917 0.001465 0.006677 -0.000903 0.000583 0.026759
#
#
# Mechanical properties :
#
#
# Convention : Reuss Voigt Hill
#
# Bulk Modulus (GPa) = 41.47245 56.81891 49.14568
# Shear Modulus (GPa) = 34.84032 43.82157 39.33094
#
# Velocity S-wave (km/s) = 3.51270 3.93953 3.73222
# Velocity P-wave (km/s) = 5.58032 6.38876 5.99818
#
# Compressibility (1/GPa) = 0.02411239
#
# Stress axis : x y z
#
# Youngs Moduli (GPa) = 86.30160 125.66210 74.61160
#
# Poissons Ratio (x) = 0.19195 0.26992
# Poissons Ratio (y) = 0.13183 -0.05427
# Poissons Ratio (z) = 0.31221 -0.09141
#
# Static dielectric constant tensor:
#      x y z
#    x 2.588600 0.123950 -0.059130 
#    y 0.123950 2.321560 -0.020180 
#    z -0.059130 -0.020180 2.297860 
# 
# From -- ./inp_files/602829.got.cif
#   From: 2010.05.17/outbox.cif.g08.bks.cpg/sg2_302_cif.got.tgz:602829.got - 2010.06.03 11:33:40.
