data_PCOD9008888
_publ_section_title
;
Structure prediction by ZEFSAII (Michael W. Deem and Ramdas Pophale) SiO2 
 PCOD9008888
Probable space group: P -1
;
_chemical_formula_sum "Si O2"
_cell_formula_units_Z 16
_cell_length_a 8.374524
_cell_length_b 16.447987
_cell_length_c 8.023192
_cell_angle_alpha 102.604779
_cell_angle_beta 133.103989
_cell_angle_gamma 97.647590
_cell_volume 723.045010
_symmetry_space_group_name_H-M "P -1"
_symmetry_group_IT_number 2
_symmetry_cell_setting 'triclinic'
loop_
_space_group_symop_operation_xyz
x,y,z
-x,-y,-z
loop_
_atom_site_type_symbol
_atom_site_label
_atom_site_fract_x
_atom_site_fract_y
_atom_site_fract_z
Si Si1 0.635410 0.603563 0.191778
Si Si2 0.388124 0.551764 0.324706
Si Si3 0.018971 0.625894 0.206854
Si Si4 0.078026 0.218811 0.968081
Si Si5 0.249534 0.992808 0.384014
Si Si6 0.393609 0.235239 0.884267
Si Si7 0.546632 0.077396 0.933470
Si Si8 0.100112 0.150551 0.297119
O O1 0.591404 0.604396 0.357745
O O2 0.491356 0.660411 0.038897
O O3 0.897039 0.638077 0.302177
O O4 0.500000 0.500000 0.000000
O O5 0.500000 0.500000 0.500000
O O6 0.265593 0.610995 0.361636
O O7 0.176838 0.469060 0.043739
O O8 0.036780 0.709739 0.134851
O O9 0.273453 0.235982 0.974375
O O10 0.916333 0.112059 0.781932
O O11 0.161146 0.220599 0.218480
O O12 0.500000 0.000000 0.500000
O O13 0.313894 0.029924 0.632369
O O14 0.181584 0.068367 0.280223
O O15 0.546229 0.176577 0.001593
O O16 0.214456 0.193168 0.577235
O O17 0.814234 0.101954 0.074852
O O18 0.500000 0.000000 0.000000
#
# Coordination Sequence:
#
# PCOD9008888 Si02
#       8
#     2   2   2   2   2   2   2   2
#     4   9  20  42  64  89 132 161 203 264 317 374
#     4  10  21  39  66  91 121 164 204 254 319 381
#     4   9  22  41  59  93 124 160 205 260 313 371
#     4  11  22  42  65  87 129 163 210 265 309 376
#     4  11  23  39  59  89 125 164 210 260 309 370
#     4  10  24  42  62  95 126 162 210 265 311 377
#     4  11  23  40  63  89 124 167 209 259 318 371
#     4  11  24  40  62  92 121 168 212 252 320 373
#
# _framework density 22.128637999999999
#
# number of rings (size 3 to 8) (size 9 to 14) (size 15 to 20)
#    0.000    1.750    1.250    1.875    5.250    2.500 
#    0.000    7.500    0.000    0.000    0.000    0.000 
#    0.000    0.000    0.000    0.000    0.000    0.000 
#
# Total GULP energy -89105.322430 kJ/mol
# GULP energy per Si atom -5569.082652 kJ/mol
# Density = 2.207827 g / cm^3
# Si number density = 22.128638 Si / 1000 Ang^3
#
#
#
# Elastic Constant Matrix: (Units=GPa)
#
#
# Indices 1 2 3 4 5 6 
#
# 1 130.9144 71.8759 33.9569 -45.5789 2.0423 0.0498
# 2 71.8759 201.1102 36.0511 -37.3730 1.0926 -7.7512
# 3 33.9569 36.0511 52.7257 -14.0408 -0.9474 0.0476
# 4 -45.5789 -37.3730 -14.0408 52.7350 -6.9451 -3.6905
# 5 2.0423 1.0926 -0.9474 -6.9451 16.9297 -17.4829
# 6 0.0498 -7.7512 0.0476 -3.6905 -17.4829 48.0892
#
#
#
# Elastic Compliance Matrix: (Units=1/GPa)
#
#
# Indices 1 2 3 4 5 6 
#
# 1 0.013141 -0.002115 -0.004463 0.009327 0.004011 0.001824
# 2 -0.002115 0.006807 -0.002424 0.003023 0.003678 0.002671
# 3 -0.004463 -0.002424 0.023920 0.001342 0.003630 0.001013
# 4 0.009327 0.003023 0.001342 0.033698 0.025204 0.012225
# 5 0.004011 0.003678 0.003630 0.025204 0.114464 0.044133
# 6 0.001824 0.002671 0.001013 0.012225 0.044133 0.038205
#
#
# Mechanical properties :
#
#
# Convention : Reuss Voigt Hill
#
# Bulk Modulus (GPa) = 38.66326 74.27977 56.47152
# Shear Modulus (GPa) = 19.46575 39.74188 29.60382
#
# Velocity S-wave (km/s) = 2.96913 4.24246 3.66157
# Velocity P-wave (km/s) = 5.40965 7.59198 6.59175
#
# Compressibility (1/GPa) = 0.02586435
#
# Stress axis : x y z
#
# Youngs Moduli (GPa) = 76.09601 146.89910 41.80664
#
# Poissons Ratio (x) = 0.31066 0.18659
# Poissons Ratio (y) = 0.16093 0.10134
# Poissons Ratio (z) = 0.33963 0.35608
#
# Static dielectric constant tensor:
#      x y z
#    x 1.214210 -0.739700 0.959350 
#    y -0.739700 0.965810 1.054870 
#    z 0.959350 1.054870 0.281230 
# 
# From -- ./inp_files/143418.got.cif
#   From: 2010.05.17/outbox.cif.g08.bks.cpg/sg2_72_cif.got.tgz:143418.got - 2010.06.03 11:33:40.
