data_PCOD9008199
_publ_section_title
;
Structure prediction by ZEFSAII (Michael W. Deem and Ramdas Pophale) SiO2 
 PCOD9008199
Probable space group: P -1
;
_chemical_formula_sum "Si O2"
_cell_formula_units_Z 14
_cell_length_a 17.566668
_cell_length_b 11.801617
_cell_length_c 11.552435
_cell_angle_alpha 57.758577
_cell_angle_beta 140.131563
_cell_angle_gamma 152.462168
_cell_volume 616.232076
_symmetry_space_group_name_H-M "P -1"
_symmetry_group_IT_number 2
_symmetry_cell_setting 'triclinic'
loop_
_space_group_symop_operation_xyz
x,y,z
-x,-y,-z
loop_
_atom_site_type_symbol
_atom_site_label
_atom_site_fract_x
_atom_site_fract_y
_atom_site_fract_z
Si Si1 0.898254 0.097729 0.616717
Si Si2 0.608386 0.985398 0.493022
Si Si3 0.446890 0.032455 0.105838
Si Si4 0.439572 0.684965 0.685787
Si Si5 0.111714 0.979871 0.586308
Si Si6 0.582209 0.535023 0.948166
Si Si7 0.117339 0.656077 0.703913
O O1 0.711993 0.948889 0.581753
O O2 0.899740 0.238679 0.465572
O O3 0.158288 0.287021 0.852584
O O4 0.807943 0.911920 0.510415
O O5 0.429685 0.879944 0.248267
O O6 0.854698 0.324007 0.599713
O O7 0.497470 0.846842 0.564051
O O8 0.692428 0.256670 0.187824
O O9 0.232312 0.815237 0.875082
O O10 0.141051 0.360917 0.518052
O O11 0.571981 0.675772 0.808608
O O12 0.524430 0.829043 0.831991
O O13 0.000000 0.000000 0.500000
O O14 0.373269 0.226456 0.823002
O O15 0.500000 0.500000 0.000000
#
# Coordination Sequence:
#
# PCOD9008199 Si02
#       7
#     2   2   2   2   2   2   2
#     4  11  22  40  67  95 131 166 214 265 307 387
#     4  11  24  41  63  99 135 166 204 268 328 370
#     4  10  22  43  65  94 129 174 219 255 312 380
#     4  11  23  43  65  98 130 166 214 266 319 381
#     4  10  21  39  64  90 118 166 222 254 303 374
#     4  11  24  41  68  94 120 172 218 260 310 379
#     4  10  23  39  68  96 125 173 216 260 313 377
#
# _framework density 22.718712
#
# number of rings (size 3 to 8) (size 9 to 14) (size 15 to 20)
#    0.000    1.429    2.857    3.857    2.000    3.429 
#    2.571    2.857    0.000    1.714    0.000    0.000 
#    0.000    0.000    0.000    0.000    0.000    0.000 
#
# Total GULP energy -77993.501839 kJ/mol
# GULP energy per Si atom -5570.964417 kJ/mol
# Density = 2.266700 g / cm^3
# Si number density = 22.718712 Si / 1000 Ang^3
#
#
#
# Elastic Constant Matrix: (Units=GPa)
#
#
# Indices 1 2 3 4 5 6 
#
# 1 137.6686 20.6546 51.4002 -2.6143 -10.6646 -6.2250
# 2 20.6546 58.6849 38.9216 -26.4130 -16.8072 0.4107
# 3 51.4002 38.9216 187.9896 0.8782 -11.6391 2.8270
# 4 -2.6143 -26.4130 0.8782 26.2344 -2.5240 -4.5427
# 5 -10.6646 -16.8072 -11.6391 -2.5240 52.2795 -3.0323
# 6 -6.2250 0.4107 2.8270 -4.5427 -3.0323 26.3420
#
#
#
# Elastic Compliance Matrix: (Units=1/GPa)
#
#
# Indices 1 2 3 4 5 6 
#
# 1 0.008391 -0.001359 -0.001988 0.000032 0.000969 0.002335
# 2 -0.001359 0.059987 -0.011291 0.064940 0.020412 0.013504
# 3 -0.001988 -0.011291 0.008127 -0.012776 -0.003059 -0.003721
# 4 0.000032 0.064940 -0.012776 0.110145 0.024645 0.022198
# 5 0.000969 0.020412 -0.003059 0.024645 0.026836 0.007578
# 6 0.002335 0.013504 -0.003721 0.022198 0.007578 0.043403
#
#
# Mechanical properties :
#
#
# Convention : Reuss Voigt Hill
#
# Bulk Modulus (GPa) = 21.17364 67.36621 44.26992
# Shear Modulus (GPa) = 16.56129 39.19563 27.87846
#
# Velocity S-wave (km/s) = 2.70288 4.15813 3.50682
# Velocity P-wave (km/s) = 4.36816 7.26430 5.99378
#
# Compressibility (1/GPa) = 0.04722854
#
# Stress axis : x y z
#
# Youngs Moduli (GPa) = 119.17101 16.67040 123.04730
#
# Poissons Ratio (x) = 0.02266 0.24464
# Poissons Ratio (y) = 0.16199 1.38929
# Poissons Ratio (z) = 0.23693 0.18822
#
# Static dielectric constant tensor:
#      x y z
#    x 1.996230 -0.121550 0.010270 
#    y -0.121550 1.887710 -0.005120 
#    z 0.010270 -0.005120 1.968000 
# 
# From -- ./inp_files/347565.got.cif
#   From: 2010.05.17/outbox.cif.g08.bks.cpg/sg2_174_cif.got.tgz:347565.got - 2010.06.03 11:33:40.
