data_PCOD9008336
_publ_section_title
;
Structure prediction by ZEFSAII (Michael W. Deem and Ramdas Pophale) SiO2 
 PCOD9008336
Probable space group: P -1
;
_chemical_formula_sum "Si O2"
_cell_formula_units_Z 12
_cell_length_a 11.933951
_cell_length_b 8.505603
_cell_length_c 13.183106
_cell_angle_alpha 55.071273
_cell_angle_beta 33.564889
_cell_angle_gamma 38.590191
_cell_volume 449.282563
_symmetry_space_group_name_H-M "P -1"
_symmetry_group_IT_number 2
_symmetry_cell_setting 'triclinic'
loop_
_space_group_symop_operation_xyz
x,y,z
-x,-y,-z
loop_
_atom_site_type_symbol
_atom_site_label
_atom_site_fract_x
_atom_site_fract_y
_atom_site_fract_z
Si Si1 0.700672 0.463020 0.735824
Si Si2 0.534707 0.766157 0.944088
Si Si3 0.827963 0.762067 0.097780
Si Si4 0.495408 0.317364 0.503787
Si Si5 0.025750 0.214040 0.403974
Si Si6 0.297361 0.976781 0.718445
O O1 0.713436 0.523642 0.819431
O O2 0.981679 0.297289 0.524331
O O3 0.481203 0.738039 0.744978
O O4 0.589967 0.316558 0.859769
O O5 0.713999 0.835248 0.815911
O O6 0.282063 0.015340 0.980752
O O7 0.569875 0.810131 0.321469
O O8 0.927625 0.790214 0.121202
O O9 0.000000 0.500000 0.000000
O O10 0.500000 0.500000 0.500000
O O11 0.229852 0.529033 0.556419
O O12 0.752264 0.122839 0.306475
O O13 0.000000 0.000000 0.500000
O O14 0.500000 0.000000 0.500000
#
# Coordination Sequence:
#
# PCOD9008336 Si02
#       6
#     2   2   2   2   2   2
#     4   9  20  39  67  95 131 171 218 273 342 396
#     4  10  21  41  67  96 133 171 219 277 330 410
#     4  10  21  39  64  93 131 166 211 275 340 394
#     4  10  21  41  62  89 128 174 222 269 329 396
#     4  11  23  38  64  98 129 175 222 270 336 398
#     4   8  17  38  67  88 126 173 215 265 330 403
#
# _framework density 26.709250999999998
#
# number of rings (size 3 to 8) (size 9 to 14) (size 15 to 20)
#    0.000    2.333    0.000    1.500    2.333    0.667 
#    6.000    2.500    0.000    0.000    0.000    0.000 
#    0.000    0.000    0.000    0.000    0.000    0.000 
#
# Total GULP energy -67035.795040 kJ/mol
# GULP energy per Si atom -5586.316253 kJ/mol
# Density = 2.664846 g / cm^3
# Si number density = 26.709251 Si / 1000 Ang^3
#
#
#
# Elastic Constant Matrix: (Units=GPa)
#
#
# Indices 1 2 3 4 5 6 
#
# 1 77.1095 33.5165 35.8777 18.1073 2.7090 19.5098
# 2 33.5165 150.8731 58.7216 -12.8238 7.6324 12.9045
# 3 35.8777 58.7216 137.5280 -5.1501 3.2987 5.3143
# 4 18.1073 -12.8238 -5.1501 70.3891 21.9433 20.0056
# 5 2.7090 7.6324 3.2987 21.9433 48.6044 6.4272
# 6 19.5098 12.9045 5.3143 20.0056 6.4272 47.6659
#
#
#
# Elastic Compliance Matrix: (Units=1/GPa)
#
#
# Indices 1 2 3 4 5 6 
#
# 1 0.018050 -0.002766 -0.003596 -0.004901 0.002482 -0.004516
# 2 -0.002766 0.008936 -0.002827 0.003462 -0.002341 -0.002109
# 3 -0.003596 -0.002827 0.009438 0.001047 -0.000578 0.000824
# 4 -0.004901 0.003462 0.001047 0.020811 -0.008866 -0.006587
# 5 0.002482 -0.002341 -0.000578 -0.008866 0.024838 0.000054
# 6 -0.004516 -0.002109 0.000824 -0.006587 0.000054 0.026064
#
#
# Mechanical properties :
#
#
# Convention : Reuss Voigt Hill
#
# Bulk Modulus (GPa) = 55.41413 69.08247 62.24830
# Shear Modulus (GPa) = 37.72722 49.15820 43.44271
#
# Velocity S-wave (km/s) = 3.76242 4.29475 4.03737
# Velocity P-wave (km/s) = 6.29814 7.10732 6.71493
#
# Compressibility (1/GPa) = 0.01804594
#
# Stress axis : x y z
#
# Youngs Moduli (GPa) = 55.40022 111.90971 105.95950
#
# Poissons Ratio (x) = 0.30954 0.38108
# Poissons Ratio (y) = 0.15323 0.29950
# Poissons Ratio (z) = 0.19924 0.31631
#
# Static dielectric constant tensor:
#      x y z
#    x 2.335920 0.198980 -0.033920 
#    y 0.198980 2.181790 -0.002760 
#    z -0.033920 -0.002760 2.120380 
# 
# From -- ./inp_files/526211.got.cif
#   From: 2010.05.17/outbox.cif.g08.bks.cpg/sg2_264_cif.got.tgz:526211.got - 2010.06.03 11:33:40.
