data_PCOD9008841
_publ_section_title
;
Structure prediction by ZEFSAII (Michael W. Deem and Ramdas Pophale) SiO2 
 PCOD9008841
Probable space group: P -1
;
_chemical_formula_sum "Si O2"
_cell_formula_units_Z 16
_cell_length_a 13.907729
_cell_length_b 12.437349
_cell_length_c 8.691346
_cell_angle_alpha 88.281544
_cell_angle_beta 119.356630
_cell_angle_gamma 140.881407
_cell_volume 637.200994
_symmetry_space_group_name_H-M "P -1"
_symmetry_group_IT_number 2
_symmetry_cell_setting 'triclinic'
loop_
_space_group_symop_operation_xyz
x,y,z
-x,-y,-z
loop_
_atom_site_type_symbol
_atom_site_label
_atom_site_fract_x
_atom_site_fract_y
_atom_site_fract_z
Si Si1 0.973972 0.162224 0.114469
Si Si2 0.313874 0.295642 0.477004
Si Si3 0.778457 0.245302 0.520926
Si Si4 0.989315 0.642962 0.588207
Si Si5 0.384219 0.031687 0.337021
Si Si6 0.767204 0.764158 0.255085
Si Si7 0.363962 0.567227 0.905558
Si Si8 0.384530 0.638268 0.253399
O O1 0.068899 0.125062 0.232344
O O2 0.954446 0.218449 0.250030
O O3 0.177683 0.391663 0.167468
O O4 0.745825 0.982942 0.847714
O O5 0.500000 0.500000 0.500000
O O6 0.353633 0.378410 0.674075
O O7 0.378971 0.227661 0.553529
O O8 0.949028 0.491693 0.637470
O O9 0.789692 0.186235 0.688398
O O10 0.832878 0.218938 0.416932
O O11 0.524591 0.077977 0.327370
O O12 0.753949 0.474563 0.326141
O O13 0.571869 0.229646 0.599303
O O14 0.776104 0.664230 0.166673
O O15 0.616909 0.734539 0.077411
O O16 0.000000 0.000000 0.500000
O O17 0.352451 0.628287 0.047871
#
# Coordination Sequence:
#
# PCOD9008841 Si02
#       8
#     2   2   2   2   2   2   2   2
#     4  11  22  41  71  94 134 170 216 272 334 395
#     4   9  20  39  64  98 132 168 208 258 319 403
#     4  10  25  46  65  95 129 168 233 279 328 391
#     4  11  22  45  69  97 129 171 220 279 337 378
#     4  11  24  46  66  96 130 174 223 275 331 391
#     4  10  21  39  66 102 134 171 217 261 324 395
#     4  10  22  41  68  94 138 175 210 269 328 394
#     4  10  22  43  66  96 136 178 213 261 329 402
#
# _framework density 25.109815000000001
#
# number of rings (size 3 to 8) (size 9 to 14) (size 15 to 20)
#    0.000    1.750    2.500    0.750    0.000    6.500 
#   11.250    0.000    0.000    0.000    0.000    0.000 
#    0.000    0.000    0.000    0.000    0.000    0.000 
#
# Total GULP energy -89454.077147 kJ/mol
# GULP energy per Si atom -5590.879822 kJ/mol
# Density = 2.505266 g / cm^3
# Si number density = 25.109815 Si / 1000 Ang^3
#
#
#
# Elastic Constant Matrix: (Units=GPa)
#
#
# Indices 1 2 3 4 5 6 
#
# 1 76.6792 5.8213 13.3091 1.8996 -6.1489 27.0991
# 2 5.8213 59.4964 5.8872 -3.9041 -3.2736 10.6258
# 3 13.3091 5.8872 100.1309 1.1712 -8.1066 4.3440
# 4 1.8996 -3.9041 1.1712 31.9107 0.5259 2.2934
# 5 -6.1489 -3.2736 -8.1066 0.5259 37.9701 -1.9241
# 6 27.0991 10.6258 4.3440 2.2934 -1.9241 33.9390
#
#
#
# Elastic Compliance Matrix: (Units=1/GPa)
#
#
# Indices 1 2 3 4 5 6 
#
# 1 0.018702 0.001133 -0.001743 0.000132 0.001994 -0.014960
# 2 0.001133 0.018202 -0.000868 0.002646 0.001196 -0.006603
# 3 -0.001743 -0.000868 0.010408 -0.000449 0.001895 0.000470
# 4 0.000132 0.002646 -0.000449 0.031897 -0.000443 -0.003057
# 5 0.001994 0.001196 0.001895 -0.000443 0.027141 -0.000641
# 6 -0.014960 -0.006603 0.000470 -0.003057 -0.000641 0.043587
#
#
# Mechanical properties :
#
#
# Convention : Reuss Voigt Hill
#
# Bulk Modulus (GPa) = 22.54633 31.81574 27.18103
# Shear Modulus (GPa) = 29.81905 34.84990 32.33448
#
# Velocity S-wave (km/s) = 3.44982 3.72949 3.59238
# Velocity P-wave (km/s) = 4.98667 5.58960 5.29672
#
# Compressibility (1/GPa) = 0.04435312
#
# Stress axis : x y z
#
# Youngs Moduli (GPa) = 53.47151 54.94036 96.07982
#
# Poissons Ratio (x) = -0.06224 0.16751
# Poissons Ratio (y) = -0.06057 0.08344
# Poissons Ratio (z) = 0.09322 0.04771
#
# Static dielectric constant tensor:
#      x y z
#    x 2.021960 0.042380 0.027110 
#    y 0.042380 2.074590 0.021460 
#    z 0.027110 0.021460 1.962550 
# 
# From -- ./inp_files/313424.got.cif
#   From: 2010.05.17/outbox.cif.g08.bks.cpg/sg2_157_cif.got.tgz:313424.got - 2010.06.03 11:33:40.
