data_PCOD9008931
_publ_section_title
;
Structure prediction by ZEFSAII (Michael W. Deem and Ramdas Pophale) SiO2 
 PCOD9008931
Probable space group: P -1
;
_chemical_formula_sum "Si O2"
_cell_formula_units_Z 14
_cell_length_a 7.779427
_cell_length_b 29.599133
_cell_length_c 8.518245
_cell_angle_alpha 26.896047
_cell_angle_beta 36.979522
_cell_angle_gamma 39.761995
_cell_volume 522.204665
_symmetry_space_group_name_H-M "P -1"
_symmetry_group_IT_number 2
_symmetry_cell_setting 'triclinic'
loop_
_space_group_symop_operation_xyz
x,y,z
-x,-y,-z
loop_
_atom_site_type_symbol
_atom_site_label
_atom_site_fract_x
_atom_site_fract_y
_atom_site_fract_z
Si Si1 0.892307 0.674406 0.464305
Si Si2 0.047480 0.857960 0.333483
Si Si3 0.255104 0.494633 0.564115
Si Si4 0.338604 0.651516 0.788396
Si Si5 0.185927 0.924480 0.720342
Si Si6 0.701667 0.887902 0.793204
Si Si7 0.420739 0.690360 0.245499
O O1 0.989784 0.574661 0.589368
O O2 0.121895 0.661435 0.480162
O O3 0.544993 0.677569 0.701123
O O4 0.893043 0.788537 0.046741
O O5 0.045358 0.739151 0.730436
O O6 0.895030 0.908796 0.440389
O O7 0.963044 0.898853 0.095876
O O8 0.393581 0.858446 0.074508
O O9 0.500000 0.500000 0.500000
O O10 0.317895 0.375177 0.845437
O O11 0.290270 0.544093 0.215374
O O12 0.445932 0.659249 0.507594
O O13 0.371017 0.004957 0.397650
O O14 0.371208 0.813322 0.884252
O O15 0.000000 0.000000 0.500000
#
# Coordination Sequence:
#
# PCOD9008931 Si02
#       7
#     2   2   2   2   2   2   2
#     4  10  21  40  68  92 129 176 217 274 344 395
#     4  10  23  41  73  99 130 182 226 275 343 409
#     4  10  21  39  66  93 131 170 218 281 333 409
#     4  10  21  40  66  94 132 169 221 276 338 404
#     4  11  22  40  67  94 139 171 224 286 337 398
#     4  11  21  44  70  97 135 177 229 275 340 407
#     4  10  22  40  63  97 129 173 225 277 333 409
#
# _framework density 26.809411000000001
#
# number of rings (size 3 to 8) (size 9 to 14) (size 15 to 20)
#    0.000    1.714    2.857    1.286    0.000    2.857 
#    0.000    5.714   15.714    0.000    0.000    0.000 
#    0.000    0.000    0.000    0.000    0.000    0.000 
#
# Total GULP energy -78114.482649 kJ/mol
# GULP energy per Si atom -5579.605903 kJ/mol
# Density = 2.674839 g / cm^3
# Si number density = 26.809411 Si / 1000 Ang^3
#
#
#
# Elastic Constant Matrix: (Units=GPa)
#
#
# Indices 1 2 3 4 5 6 
#
# 1 121.1967 18.9813 53.0035 -7.6783 12.8985 -1.5025
# 2 18.9813 130.5230 58.6032 -56.1534 -0.2365 10.1002
# 3 53.0035 58.6032 121.3494 -25.5054 28.6147 0.0252
# 4 -7.6783 -56.1534 -25.5054 53.0621 -1.6519 -10.9294
# 5 12.8985 -0.2365 28.6147 -1.6519 46.3971 -19.6457
# 6 -1.5025 10.1002 0.0252 -10.9294 -19.6457 29.8376
#
#
#
# Elastic Compliance Matrix: (Units=1/GPa)
#
#
# Indices 1 2 3 4 5 6 
#
# 1 0.010251 0.000632 -0.004893 -0.000076 0.000397 0.000540
# 2 0.000632 0.017234 -0.006729 0.016210 0.006516 0.004432
# 3 -0.004893 -0.006729 0.015852 -0.001761 -0.010998 -0.005868
# 4 -0.000076 0.016210 -0.001761 0.038333 0.008562 0.014189
# 5 0.000397 0.006516 -0.010998 0.008562 0.040169 0.027408
# 6 0.000540 0.004432 -0.005868 0.014189 0.027408 0.055290
#
#
# Mechanical properties :
#
#
# Convention : Reuss Voigt Hill
#
# Bulk Modulus (GPa) = 46.82020 70.47168 58.64594
# Shear Modulus (GPa) = 24.24511 42.02476 33.13493
#
# Velocity S-wave (km/s) = 3.01050 3.96351 3.51941
# Velocity P-wave (km/s) = 5.43932 6.87671 6.19981
#
# Compressibility (1/GPa) = 0.02135830
#
# Stress axis : x y z
#
# Youngs Moduli (GPa) = 97.54782 58.02570 63.08416
#
# Poissons Ratio (x) = -0.03669 0.30864
# Poissons Ratio (y) = -0.06168 0.42450
# Poissons Ratio (z) = 0.47725 0.39046
#
# Static dielectric constant tensor:
#      x y z
#    x 2.268310 0.034590 0.032890 
#    y 0.034590 2.133280 -0.012270 
#    z 0.032890 -0.012270 2.190990 
# 
# From -- ./inp_files/227966.got.cif
#   From: 2010.05.17/outbox.cif.g08.bks.cpg/sg2_114_cif.got.tgz:227966.got - 2010.06.03 11:33:40.
