data_PCOD9008719
_publ_section_title
;
Structure prediction by ZEFSAII (Michael W. Deem and Ramdas Pophale) SiO2 
 PCOD9008719
Probable space group: P -1
;
_chemical_formula_sum "Si O2"
_cell_formula_units_Z 14
_cell_length_a 13.640364
_cell_length_b 13.841395
_cell_length_c 8.362171
_cell_angle_alpha 143.979330
_cell_angle_beta 48.001358
_cell_angle_gamma 136.763650
_cell_volume 623.371637
_symmetry_space_group_name_H-M "P -1"
_symmetry_group_IT_number 2
_symmetry_cell_setting 'triclinic'
loop_
_space_group_symop_operation_xyz
x,y,z
-x,-y,-z
loop_
_atom_site_type_symbol
_atom_site_label
_atom_site_fract_x
_atom_site_fract_y
_atom_site_fract_z
Si Si1 0.385769 0.588426 0.738621
Si Si2 0.499574 0.728998 0.137254
Si Si3 0.928091 0.694576 0.205011
Si Si4 0.954975 0.956017 0.249916
Si Si5 0.016558 0.434636 0.570693
Si Si6 0.648799 0.445438 0.613374
Si Si7 0.195614 0.973533 0.780397
O O1 0.500000 0.500000 0.500000
O O2 0.223594 0.429381 0.714023
O O3 0.395591 0.669273 0.657982
O O4 0.415778 0.699767 0.020547
O O5 0.402567 0.675789 0.332451
O O6 0.632014 0.928747 0.262119
O O7 0.574918 0.586427 0.871300
O O8 0.896870 0.786520 0.204444
O O9 0.025017 0.863795 0.435869
O O10 0.003890 0.569926 0.896687
O O11 0.112851 0.986257 0.049240
O O12 0.850661 0.925824 0.173925
O O13 0.885006 0.236165 0.462358
O O14 0.000000 0.500000 0.500000
O O15 0.176711 0.443570 0.421245
#
# Coordination Sequence:
#
# PCOD9008719 Si02
#       7
#     2   2   2   2   2   2   2
#     4  10  21  39  65  95 129 171 224 269 321 395
#     4  10  22  39  68  97 130 179 223 272 323 398
#     4  11  23  41  66  98 130 172 220 276 334 388
#     4  10  22  39  67  96 127 168 231 271 316 400
#     4  12  24  42  67  99 140 174 214 279 345 391
#     4  10  22  40  66  99 131 177 223 270 334 396
#     4  11  22  40  66  99 130 169 224 274 328 391
#
# _framework density 22.458511000000001
#
# number of rings (size 3 to 8) (size 9 to 14) (size 15 to 20)
#    0.000    1.429    1.429    5.143    6.000    2.286 
#    0.000    2.857    0.000    2.571    0.000    0.000 
#    0.000    0.000    0.000    0.000    0.000    0.000 
#
# Total GULP energy -78314.089335 kJ/mol
# GULP energy per Si atom -5593.863524 kJ/mol
# Density = 2.240739 g / cm^3
# Si number density = 22.458511 Si / 1000 Ang^3
#
#
#
# Elastic Constant Matrix: (Units=GPa)
#
#
# Indices 1 2 3 4 5 6 
#
# 1 86.7935 39.0641 21.1273 -11.2398 25.6516 -6.1740
# 2 39.0641 99.6693 40.7973 -7.8224 19.4394 -4.0057
# 3 21.1273 40.7973 115.2666 -3.3020 10.8707 -8.7355
# 4 -11.2398 -7.8224 -3.3020 33.4072 -2.3364 6.2702
# 5 25.6516 19.4394 10.8707 -2.3364 25.9093 -10.6928
# 6 -6.1740 -4.0057 -8.7355 6.2702 -10.6928 26.1117
#
#
#
# Elastic Compliance Matrix: (Units=1/GPa)
#
#
# Indices 1 2 3 4 5 6 
#
# 1 0.018594 -0.003455 -0.000790 0.005037 -0.016900 -0.004528
# 2 -0.003455 0.014382 -0.004000 0.001935 -0.006845 -0.003216
# 3 -0.000790 -0.004000 0.010391 -0.000714 0.000643 0.003111
# 4 0.005037 0.001935 -0.000714 0.033328 -0.007125 -0.009672
# 5 -0.016900 -0.006845 0.000643 -0.007125 0.070113 0.025592
# 6 -0.004528 -0.003216 0.003111 -0.009672 0.025592 0.050576
#
#
# Mechanical properties :
#
#
# Convention : Reuss Voigt Hill
#
# Bulk Modulus (GPa) = 37.20711 55.96743 46.58727
# Shear Modulus (GPa) = 22.43844 30.46836 26.45340
#
# Velocity S-wave (km/s) = 3.16429 3.68727 3.43575
# Velocity P-wave (km/s) = 5.47297 6.56524 6.04383
#
# Compressibility (1/GPa) = 0.02687658
#
# Stress axis : x y z
#
# Youngs Moduli (GPa) = 53.78184 69.53073 96.23939
#
# Poissons Ratio (x) = 0.24020 0.07607
# Poissons Ratio (y) = 0.18580 0.38495
# Poissons Ratio (z) = 0.04251 0.27812
#
# Static dielectric constant tensor:
#      x y z
#    x 1.852230 -0.035880 0.004810 
#    y -0.035880 1.800530 -0.016010 
#    z 0.004810 -0.016010 1.868940 
# 
# From -- ./inp_files/314195.got.cif
#   From: 2010.05.17/outbox.cif.g08.bks.cpg/sg2_158_cif.got.tgz:314195.got - 2010.06.03 11:33:40.
