data_PCOD9008923
_publ_section_title
;
Structure prediction by ZEFSAII (Michael W. Deem and Ramdas Pophale) SiO2 
 PCOD9008923
Probable space group: P -1
;
_chemical_formula_sum "Si O2"
_cell_formula_units_Z 16
_cell_length_a 9.099769
_cell_length_b 11.883886
_cell_length_c 14.347027
_cell_angle_alpha 31.773999
_cell_angle_beta 94.705531
_cell_angle_gamma 83.089145
_cell_volume 758.942237
_symmetry_space_group_name_H-M "P -1"
_symmetry_group_IT_number 2
_symmetry_cell_setting 'triclinic'
loop_
_space_group_symop_operation_xyz
x,y,z
-x,-y,-z
loop_
_atom_site_type_symbol
_atom_site_label
_atom_site_fract_x
_atom_site_fract_y
_atom_site_fract_z
Si Si1 0.330978 0.415579 0.347092
Si Si2 0.804158 0.749757 0.864713
Si Si3 0.158989 0.639145 0.994122
Si Si4 0.535482 0.893517 0.890170
Si Si5 0.304082 0.920003 0.709271
Si Si6 0.650394 0.575950 0.457498
Si Si7 0.829171 0.108387 0.462914
Si Si8 0.337599 0.515878 0.680494
O O1 0.248155 0.562048 0.150350
O O2 0.264888 0.516268 0.374995
O O3 0.516697 0.388104 0.377967
O O4 0.306638 0.172785 0.513914
O O5 0.766026 0.547302 0.952851
O O6 0.689201 0.881599 0.848433
O O7 0.804029 0.922437 0.660591
O O8 0.980875 0.647520 0.986290
O O9 0.161364 0.880243 0.785868
O O10 0.445344 0.801100 0.872075
O O11 0.420691 0.147915 0.732133
O O12 0.584764 0.734724 0.094197
O O13 0.300067 0.826753 0.671770
O O14 0.500000 0.500000 0.500000
O O15 0.727097 0.495018 0.418435
O O16 0.799218 0.331844 0.365551
O O17 0.000000 0.000000 0.500000
#
# Coordination Sequence:
#
# PCOD9008923 Si02
#       8
#     2   2   2   2   2   2   2   2
#     4  10  21  39  66  93 126 164 213 269 310 370
#     4  11  24  38  59  94 134 170 203 260 321 384
#     4  11  22  39  60  93 135 168 208 256 321 385
#     4  11  23  38  67  98 124 165 217 261 314 377
#     4  11  22  38  62  94 128 161 211 262 317 377
#     4   9  20  41  63  94 124 164 213 268 309 366
#     4  12  24  39  61  92 131 172 203 258 324 382
#     4  11  23  39  66  94 127 169 213 262 316 372
#
# _framework density 21.081973000000001
#
# number of rings (size 3 to 8) (size 9 to 14) (size 15 to 20)
#    0.000    1.250    3.750    3.375    3.500    2.000 
#    0.000    0.000    0.000   15.000    0.000    0.000 
#    0.000    0.000    0.000    0.000    0.000    0.000 
#
# Total GULP energy -89275.110985 kJ/mol
# GULP energy per Si atom -5579.694437 kJ/mol
# Density = 2.103399 g / cm^3
# Si number density = 21.081973 Si / 1000 Ang^3
#
#
#
# Elastic Constant Matrix: (Units=GPa)
#
#
# Indices 1 2 3 4 5 6 
#
# 1 40.1607 33.8028 10.8809 5.2353 -5.0722 0.2836
# 2 33.8028 132.9918 23.6142 17.0280 7.7024 -3.5027
# 3 10.8809 23.6142 85.6880 19.6528 -17.1587 7.6428
# 4 5.2353 17.0280 19.6528 32.3292 0.0862 4.0126
# 5 -5.0722 7.7024 -17.1587 0.0862 31.8348 4.0228
# 6 0.2836 -3.5027 7.6428 4.0126 4.0228 12.1605
#
#
#
# Elastic Compliance Matrix: (Units=1/GPa)
#
#
# Indices 1 2 3 4 5 6 
#
# 1 0.033810 -0.009403 0.000728 -0.000137 0.008921 -0.006860
# 2 -0.009403 0.011676 -0.003512 -0.003645 -0.007399 0.009440
# 3 0.000728 -0.003512 0.018013 -0.007515 0.012463 -0.013993
# 4 -0.000137 -0.003645 -0.007515 0.038475 -0.002249 -0.008275
# 5 0.008921 -0.007399 0.012463 -0.002249 0.044395 -0.024116
# 6 -0.006860 0.009440 -0.013993 -0.008275 -0.024116 0.104615
#
#
# Mechanical properties :
#
#
# Convention : Reuss Voigt Hill
#
# Bulk Modulus (GPa) = 25.55805 43.93736 34.74771
# Shear Modulus (GPa) = 17.33713 27.96776 22.65245
#
# Velocity S-wave (km/s) = 2.87081 3.64623 3.28150
# Velocity P-wave (km/s) = 4.81022 6.21394 5.55659
#
# Compressibility (1/GPa) = 0.03912661
#
# Stress axis : x y z
#
# Youngs Moduli (GPa) = 29.57715 85.64255 55.51618
#
# Poissons Ratio (x) = 0.80526 -0.04041
# Poissons Ratio (y) = 0.27810 0.19495
# Poissons Ratio (z) = -0.02153 0.30074
#
# Static dielectric constant tensor:
#      x y z
#    x 1.819080 -0.003260 -0.023550 
#    y -0.003260 1.783500 -0.004990 
#    z -0.023550 -0.004990 1.789190 
# 
# From -- ./inp_files/454547.got.cif
#   From: 2010.05.17/outbox.cif.g08.bks.cpg/sg2_228_cif.got.tgz:454547.got - 2010.06.03 11:33:40.
