data_PCOD9008567
_publ_section_title
;
Structure prediction by ZEFSAII (Michael W. Deem and Ramdas Pophale) SiO2 
 PCOD9008567
Probable space group: P -1
;
_chemical_formula_sum "Si O2"
_cell_formula_units_Z 16
_cell_length_a 10.893517
_cell_length_b 15.165494
_cell_length_c 11.745893
_cell_angle_alpha 27.768488
_cell_angle_beta 66.048319
_cell_angle_gamma 82.208003
_cell_volume 703.076906
_symmetry_space_group_name_H-M "P -1"
_symmetry_group_IT_number 2
_symmetry_cell_setting 'triclinic'
loop_
_space_group_symop_operation_xyz
x,y,z
-x,-y,-z
loop_
_atom_site_type_symbol
_atom_site_label
_atom_site_fract_x
_atom_site_fract_y
_atom_site_fract_z
Si Si1 0.155382 0.871906 0.381554
Si Si2 0.012058 0.073921 0.040801
Si Si3 0.298964 0.186665 0.428404
Si Si4 0.574154 0.396933 0.929795
Si Si5 0.368378 0.371552 0.821870
Si Si6 0.358547 0.761151 0.288190
Si Si7 0.820369 0.438762 0.631470
Si Si8 0.104912 0.243572 0.236287
O O1 0.063135 0.931236 0.256854
O O2 0.222005 0.739076 0.446871
O O3 0.288798 0.118293 0.095378
O O4 0.029960 0.727094 0.691850
O O5 0.147810 0.330953 0.699422
O O6 0.846056 0.026189 0.210691
O O7 0.000000 0.000000 0.000000
O O8 0.370838 0.377523 0.279081
O O9 0.212988 0.247479 0.294284
O O10 0.443862 0.202830 0.283767
O O11 0.494786 0.403800 0.832964
O O12 0.728000 0.394296 0.835726
O O13 0.412679 0.582354 0.484097
O O14 0.228489 0.373997 0.942714
O O15 0.292681 0.750516 0.198499
O O16 0.500000 0.000000 0.000000
O O17 0.000000 0.500000 0.500000
O O18 0.000000 0.000000 0.500000
#
# Coordination Sequence:
#
# PCOD9008567 Si02
#       8
#     2   2   2   2   2   2   2   2
#     4  10  21  40  64  90 127 167 215 271 326 388
#     4  11  20  38  67  95 126 172 216 271 335 393
#     4   9  19  36  64  98 118 173 225 257 333 401
#     4  10  21  39  65  90 134 173 217 272 329 401
#     4  10  21  41  64  94 126 172 216 268 333 389
#     4  12  27  40  63  98 134 174 226 271 327 401
#     4  12  26  42  64  99 135 173 225 276 333 397
#     4   8  17  35  65  92 121 163 215 264 325 394
#
# _framework density 22.757111999999999
#
# number of rings (size 3 to 8) (size 9 to 14) (size 15 to 20)
#    0.000    1.750    2.500    1.500    3.500    2.500 
#    0.000    0.625    2.750    0.000    0.000    0.000 
#    0.000    0.000    0.000    0.000    0.000    0.000 
#
# Total GULP energy -89220.603541 kJ/mol
# GULP energy per Si atom -5576.287721 kJ/mol
# Density = 2.270532 g / cm^3
# Si number density = 22.757112 Si / 1000 Ang^3
#
#
#
# Elastic Constant Matrix: (Units=GPa)
#
#
# Indices 1 2 3 4 5 6 
#
# 1 86.8942 47.4051 23.4841 -8.7609 -13.4868 -0.6650
# 2 47.4051 109.4477 16.3027 13.7698 -9.8755 -9.2898
# 3 23.4841 16.3027 70.2872 15.2761 -17.7949 -6.1609
# 4 -8.7609 13.7698 15.2761 30.5224 -14.5753 -23.0275
# 5 -13.4868 -9.8755 -17.7949 -14.5753 35.7628 2.1389
# 6 -0.6650 -9.2898 -6.1609 -23.0275 2.1389 57.7237
#
#
#
# Elastic Compliance Matrix: (Units=1/GPa)
#
#
# Indices 1 2 3 4 5 6 
#
# 1 0.025098 -0.011417 -0.007875 0.029719 0.013971 0.008949
# 2 -0.011417 0.015025 0.002208 -0.016917 -0.005712 -0.004015
# 3 -0.007875 0.002208 0.019701 -0.015283 0.001440 -0.003783
# 4 0.029719 -0.016917 -0.015283 0.101063 0.038034 0.034896
# 5 0.013971 -0.005712 0.001440 0.038034 0.047104 0.012823
# 6 0.008949 -0.004015 -0.003783 0.034896 0.012823 0.029823
#
#
# Mechanical properties :
#
#
# Convention : Reuss Voigt Hill
#
# Bulk Modulus (GPa) = 38.97618 49.00142 43.98880
# Shear Modulus (GPa) = 17.82314 36.76426 27.29370
#
# Velocity S-wave (km/s) = 2.80159 4.02370 3.46692
# Velocity P-wave (km/s) = 5.25637 6.57008 5.94959
#
# Compressibility (1/GPa) = 0.02565670
#
# Stress axis : x y z
#
# Youngs Moduli (GPa) = 39.84349 66.55617 50.75858
#
# Poissons Ratio (x) = 0.75984 0.39974
# Poissons Ratio (y) = 0.45488 -0.11208
# Poissons Ratio (z) = 0.31378 -0.14697
#
# Static dielectric constant tensor:
#      x y z
#    x 1.885760 -0.029150 -0.001840 
#    y -0.029150 1.890920 0.106510 
#    z -0.001840 0.106510 1.970110 
# 
# From -- ./inp_files/433645.got.cif
#   From: 2010.05.17/outbox.cif.g08.bks.cpg/sg2_217_cif.got.tgz:433645.got - 2010.06.03 11:33:40.
