data_PCOD9008534
_publ_section_title
;
Structure prediction by ZEFSAII (Michael W. Deem and Ramdas Pophale) SiO2 
 PCOD9008534
Probable space group: P -1
;
_chemical_formula_sum "Si O2"
_cell_formula_units_Z 16
_cell_length_a 8.499156
_cell_length_b 13.503379
_cell_length_c 22.858063
_cell_angle_alpha 26.160157
_cell_angle_beta 138.204001
_cell_angle_gamma 136.676919
_cell_volume 755.498593
_symmetry_space_group_name_H-M "P -1"
_symmetry_group_IT_number 2
_symmetry_cell_setting 'triclinic'
loop_
_space_group_symop_operation_xyz
x,y,z
-x,-y,-z
loop_
_atom_site_type_symbol
_atom_site_label
_atom_site_fract_x
_atom_site_fract_y
_atom_site_fract_z
Si Si1 0.505158 0.574911 0.894386
Si Si2 0.849104 0.841036 0.764389
Si Si3 0.870086 0.115902 0.351558
Si Si4 0.448746 0.683964 0.258837
Si Si5 0.970689 0.658672 0.460976
Si Si6 0.714205 0.543385 0.782525
Si Si7 0.384185 0.801187 0.958745
Si Si8 0.754260 0.613727 0.538691
O O1 0.755619 0.724511 0.861126
O O2 0.321343 0.747827 0.746706
O O3 0.500000 0.500000 0.000000
O O4 0.478504 0.352523 0.962937
O O5 0.676440 0.722282 0.727579
O O6 0.127000 0.811411 0.850602
O O7 0.845066 0.105751 0.620996
O O8 0.047655 0.308215 0.261099
O O9 0.764980 0.885721 0.406827
O O10 0.000000 0.000000 0.500000
O O11 0.703705 0.699715 0.352432
O O12 0.449946 0.555390 0.265461
O O13 0.247722 0.526066 0.327251
O O14 0.445503 0.952970 0.111535
O O15 0.959039 0.581253 0.566165
O O16 0.000000 0.500000 0.500000
O O17 0.703417 0.323833 0.937986
O O18 0.500000 0.500000 0.500000
#
# Coordination Sequence:
#
# PCOD9008534 Si02
#       8
#     2   2   2   2   2   2   2   2
#     4  11  24  38  67  97 123 170 225 261 310 388
#     4  10  21  39  65  88 126 164 214 271 309 375
#     4  12  24  42  65  97 132 168 211 267 328 372
#     4  10  22  39  65  88 125 169 203 264 326 375
#     4  10  22  38  60  90 119 161 213 255 315 383
#     4  11  20  40  63  88 124 168 204 259 325 374
#     4  10  22  43  63  93 125 168 220 261 320 377
#     4  10  22  40  63  87 126 171 210 254 323 380
#
# _framework density 21.178066999999999
#
# number of rings (size 3 to 8) (size 9 to 14) (size 15 to 20)
#    0.000    1.500    2.500    3.375    7.000    0.000 
#    4.500    3.750    0.000    0.000    0.000    0.000 
#    0.000    0.000    0.000    0.000    0.000    0.000 
#
# Total GULP energy -89070.789587 kJ/mol
# GULP energy per Si atom -5566.924349 kJ/mol
# Density = 2.112986 g / cm^3
# Si number density = 21.178067 Si / 1000 Ang^3
#
#
#
# Elastic Constant Matrix: (Units=GPa)
#
#
# Indices 1 2 3 4 5 6 
#
# 1 99.0715 37.5929 51.9612 -19.2625 -19.5658 -24.8574
# 2 37.5929 102.2183 46.2541 -18.9642 -21.6236 -12.0132
# 3 51.9612 46.2541 97.6390 -23.9878 -18.2688 -13.8204
# 4 -19.2625 -18.9642 -23.9878 43.2102 2.3070 -7.8355
# 5 -19.5658 -21.6236 -18.2688 2.3070 42.0195 1.8305
# 6 -24.8574 -12.0132 -13.8204 -7.8355 1.8305 26.6243
#
#
#
# Elastic Compliance Matrix: (Units=1/GPa)
#
#
# Indices 1 2 3 4 5 6 
#
# 1 0.020389 -0.000112 -0.004613 0.009600 0.006076 0.018998
# 2 -0.000112 0.014109 -0.003740 0.004769 0.005086 0.005374
# 3 -0.004613 -0.003740 0.017302 0.006612 0.002880 0.004735
# 4 0.009600 0.004769 0.006612 0.037380 0.006653 0.025090
# 5 0.006076 0.005086 0.002880 0.006653 0.029724 0.009377
# 6 0.018998 0.005374 0.004735 0.025090 0.009377 0.066919
#
#
# Mechanical properties :
#
#
# Convention : Reuss Voigt Hill
#
# Bulk Modulus (GPa) = 28.67850 63.39391 46.03620
# Shear Modulus (GPa) = 23.32354 33.24550 28.28452
#
# Velocity S-wave (km/s) = 3.32219 3.96638 3.65849
# Velocity P-wave (km/s) = 5.31855 7.13967 6.29531
#
# Compressibility (1/GPa) = 0.03486933
#
# Stress axis : x y z
#
# Youngs Moduli (GPa) = 49.04668 70.87709 57.79632
#
# Poissons Ratio (x) = 0.00793 0.26662
# Poissons Ratio (y) = 0.00549 0.21617
# Poissons Ratio (z) = 0.22626 0.26510
#
# Static dielectric constant tensor:
#      x y z
#    x 1.838130 -0.024270 -0.026980 
#    y -0.024270 1.789210 0.006510 
#    z -0.026980 0.006510 1.842970 
# 
# From -- ./inp_files/274673.got.cif
#   From: 2010.05.17/outbox.cif.g08.bks.cpg/sg2_138_cif.got.tgz:274673.got - 2010.06.03 11:33:40.
