data_PCOD9008081
_publ_section_title
;
Structure prediction by ZEFSAII (Michael W. Deem and Ramdas Pophale) SiO2 
 PCOD9008081
Probable space group: P -1
;
_chemical_formula_sum "Si O2"
_cell_formula_units_Z 16
_cell_length_a 16.038576
_cell_length_b 10.427182
_cell_length_c 11.870176
_cell_angle_alpha 48.030949
_cell_angle_beta 27.478931
_cell_angle_gamma 53.998955
_cell_volume 680.953860
_symmetry_space_group_name_H-M "P -1"
_symmetry_group_IT_number 2
_symmetry_cell_setting 'triclinic'
loop_
_space_group_symop_operation_xyz
x,y,z
-x,-y,-z
loop_
_atom_site_type_symbol
_atom_site_label
_atom_site_fract_x
_atom_site_fract_y
_atom_site_fract_z
Si Si1 0.418500 0.306126 0.711377
Si Si2 0.731425 0.151620 0.539470
Si Si3 0.795233 0.764142 0.687592
Si Si4 0.430092 0.559013 0.927981
Si Si5 0.023185 0.207139 0.328650
Si Si6 0.391338 0.160732 0.588219
Si Si7 0.986549 0.156892 0.013282
Si Si8 0.055242 0.670846 0.262403
O O1 0.500000 0.500000 0.500000
O O2 0.532931 0.219461 0.722811
O O3 0.459492 0.209781 0.601665
O O4 0.206262 0.272884 0.008526
O O5 0.850426 0.247706 0.435934
O O6 0.718733 0.948978 0.699375
O O7 0.837115 0.171888 0.281200
O O8 0.945274 0.719719 0.627509
O O9 0.904389 0.793063 0.423703
O O10 0.649478 0.611448 0.937733
O O11 0.582691 0.667279 0.618880
O O12 0.500000 0.500000 0.000000
O O13 0.261335 0.691302 0.044560
O O14 0.000000 0.000000 0.500000
O O15 0.176494 0.136914 0.861301
O O16 0.500000 0.000000 0.500000
O O17 0.958510 0.314115 0.864577
O O18 0.000000 0.000000 0.000000
O O19 0.000000 0.500000 0.500000
#
# Coordination Sequence:
#
# PCOD9008081 Si02
#       8
#     2   2   2   2   2   2   2   2
#     4  12  27  49  72 108 152 192 254 309 374 448
#     4  11  24  46  75 101 140 197 247 302 368 444
#     4  10  22  44  68  98 143 186 241 296 366 442
#     4  11  24  42  64 108 145 182 239 303 375 436
#     4  10  24  47  71 102 141 190 249 297 367 441
#     4  12  26  43  74 110 144 190 244 312 373 443
#     4  12  22  42  72 103 140 186 242 300 369 436
#     4  10  21  39  63  96 136 178 224 288 364 424
#
# _framework density 23.496452999999999
#
# number of rings (size 3 to 8) (size 9 to 14) (size 15 to 20)
#    0.000    1.000    2.500    4.500    1.750    3.500 
#    9.000    0.000    0.000    0.000    0.000    0.000 
#    0.000    0.000    0.000    0.000    0.000    0.000 
#
# Total GULP energy -89302.647373 kJ/mol
# GULP energy per Si atom -5581.415461 kJ/mol
# Density = 2.344297 g / cm^3
# Si number density = 23.496453 Si / 1000 Ang^3
#
#
#
# Elastic Constant Matrix: (Units=GPa)
#
#
# Indices 1 2 3 4 5 6 
#
# 1 161.5992 32.6083 27.6854 -13.0180 -6.6671 5.7543
# 2 32.6083 65.8813 20.4852 -17.0893 -9.8186 1.9532
# 3 27.6854 20.4852 90.4379 -18.9785 1.6377 10.5584
# 4 -13.0180 -17.0893 -18.9785 29.3610 -0.5077 -3.7343
# 5 -6.6671 -9.8186 1.6377 -0.5077 54.7248 3.5340
# 6 5.7543 1.9532 10.5584 -3.7343 3.5340 43.2350
#
#
#
# Elastic Compliance Matrix: (Units=1/GPa)
#
#
# Indices 1 2 3 4 5 6 
#
# 1 0.007076 -0.002863 -0.001357 0.000542 0.000424 -0.000469
# 2 -0.002863 0.020077 -0.001822 0.009354 0.003366 0.000452
# 3 -0.001357 -0.001822 0.013610 0.006816 -0.000680 -0.002416
# 4 0.000542 0.009354 0.006816 0.044375 0.001854 0.001522
# 5 0.000424 0.003366 -0.000680 0.001854 0.019059 -0.001440
# 6 -0.000469 0.000452 -0.002416 0.001522 -0.001440 0.024011
#
#
# Mechanical properties :
#
#
# Convention : Reuss Voigt Hill
#
# Bulk Modulus (GPa) = 34.86767 53.27513 44.07140
# Shear Modulus (GPa) = 33.36627 41.27344 37.31986
#
# Velocity S-wave (km/s) = 3.77245 4.19571 3.98970
# Velocity P-wave (km/s) = 5.81781 6.79668 6.32621
#
# Compressibility (1/GPa) = 0.02867986
#
# Stress axis : x y z
#
# Youngs Moduli (GPa) = 141.31998 49.80841 73.47408
#
# Poissons Ratio (x) = 0.14259 0.09970
# Poissons Ratio (y) = 0.40456 0.13387
# Poissons Ratio (z) = 0.19177 0.09075
#
# Static dielectric constant tensor:
#      x y z
#    x 1.918930 0.010040 0.019730 
#    y 0.010040 2.132660 -0.049340 
#    z 0.019730 -0.049340 2.001520 
# 
# From -- ./inp_files/451046.got.cif
#   From: 2010.05.17/outbox.cif.g08.bks.cpg/sg2_226_cif.got.tgz:451046.got - 2010.06.03 11:33:40.
