data_PCOD9008685
_publ_section_title
;
Structure prediction by ZEFSAII (Michael W. Deem and Ramdas Pophale) SiO2 
 PCOD9008685
Probable space group: P -1
;
_chemical_formula_sum "Si O2"
_cell_formula_units_Z 14
_cell_length_a 8.799539
_cell_length_b 8.400156
_cell_length_c 10.781801
_cell_angle_alpha 83.425442
_cell_angle_beta 54.275119
_cell_angle_gamma 67.724936
_cell_volume 592.632081
_symmetry_space_group_name_H-M "P -1"
_symmetry_group_IT_number 2
_symmetry_cell_setting 'triclinic'
loop_
_space_group_symop_operation_xyz
x,y,z
-x,-y,-z
loop_
_atom_site_type_symbol
_atom_site_label
_atom_site_fract_x
_atom_site_fract_y
_atom_site_fract_z
Si Si1 0.106799 0.124867 0.390329
Si Si2 0.539564 0.814998 0.641468
Si Si3 0.286597 0.682507 0.967438
Si Si4 0.306257 0.958400 0.065701
Si Si5 0.246041 0.552718 0.540765
Si Si6 0.643559 0.571142 0.244500
Si Si7 0.195472 0.126619 0.834402
O O1 0.961169 0.328144 0.435761
O O2 0.308627 0.112584 0.368457
O O3 0.152740 0.059885 0.234195
O O4 0.000000 0.000000 0.500000
O O5 0.436513 0.724188 0.795143
O O6 0.670750 0.654634 0.506265
O O7 0.338580 0.981260 0.682252
O O8 0.309588 0.501085 0.911016
O O9 0.043348 0.787536 0.081980
O O10 0.351227 0.752235 0.056567
O O11 0.225398 0.034582 0.962457
O O12 0.500000 0.000000 0.000000
O O13 0.413987 0.616107 0.395918
O O14 0.235585 0.570105 0.693748
O O15 0.712881 0.728635 0.210002
#
# Coordination Sequence:
#
# PCOD9008685 Si02
#       7
#     2   2   2   2   2   2   2
#     4  12  24  41  65  93 130 173 216 263 324 393
#     4  10  21  40  61  92 130 170 216 265 316 388
#     4  10  21  39  65  94 128 167 216 267 326 373
#     4  11  22  41  65  92 128 168 212 269 322 376
#     4  10  23  40  63  90 135 172 209 266 335 371
#     4  10  22  41  63  98 129 168 218 272 314 391
#     4  11  21  39  70  93 129 167 224 265 321 382
#
# _framework density 23.623428000000001
#
# number of rings (size 3 to 8) (size 9 to 14) (size 15 to 20)
#    0.000    1.429    2.857    4.286    0.000    4.000 
#    0.000    2.143    0.000    0.000    0.000    0.000 
#    0.000    0.000    0.000    0.000    0.000    0.000 
#
# Total GULP energy -78070.090371 kJ/mol
# GULP energy per Si atom -5576.435026 kJ/mol
# Density = 2.356966 g / cm^3
# Si number density = 23.623428 Si / 1000 Ang^3
#
#
#
# Elastic Constant Matrix: (Units=GPa)
#
#
# Indices 1 2 3 4 5 6 
#
# 1 74.2381 36.5057 25.3337 15.4680 -5.5721 3.6970
# 2 36.5057 98.0843 54.8014 17.4426 -6.4312 22.8117
# 3 25.3337 54.8014 82.2258 18.6040 -1.4988 -0.4552
# 4 15.4680 17.4426 18.6040 25.6595 8.6722 -2.5679
# 5 -5.5721 -6.4312 -1.4988 8.6722 22.2418 3.8127
# 6 3.6970 22.8117 -0.4552 -2.5679 3.8127 44.1495
#
#
#
# Elastic Compliance Matrix: (Units=1/GPa)
#
#
# Indices 1 2 3 4 5 6 
#
# 1 0.018465 -0.004028 -0.000427 -0.010787 0.007770 -0.000768
# 2 -0.004028 0.024802 -0.012744 -0.010639 0.011895 -0.014255
# 3 -0.000427 -0.012744 0.022202 -0.006175 -0.001016 0.006578
# 4 -0.010787 -0.010639 -0.006175 0.070743 -0.036104 0.013569
# 5 0.007770 0.011895 -0.001016 -0.036104 0.066872 -0.014682
# 6 -0.000768 -0.014255 0.006578 0.013569 -0.014682 0.032205
#
#
# Mechanical properties :
#
#
# Convention : Reuss Voigt Hill
#
# Bulk Modulus (GPa) = 32.18344 54.20332 43.19338
# Shear Modulus (GPa) = 17.85439 27.60399 22.72919
#
# Velocity S-wave (km/s) = 2.75215 3.42204 3.10521
# Velocity P-wave (km/s) = 4.87362 6.21356 5.58393
#
# Compressibility (1/GPa) = 0.03107188
#
# Stress axis : x y z
#
# Youngs Moduli (GPa) = 54.15542 40.31965 45.04160
#
# Poissons Ratio (x) = 0.16240 0.01922
# Poissons Ratio (y) = 0.21813 0.57400
# Poissons Ratio (z) = 0.02311 0.51383
#
# Static dielectric constant tensor:
#      x y z
#    x 1.916010 0.010410 0.067320 
#    y 0.010410 2.084570 0.018730 
#    z 0.067320 0.018730 2.569600 
# 
# From -- ./inp_files/379330.got.cif
#   From: 2010.05.17/outbox.cif.g08.bks.cpg/sg2_190_cif.got.tgz:379330.got - 2010.06.03 11:33:40.
