data_PCOD9008329
_publ_section_title
;
Structure prediction by ZEFSAII (Michael W. Deem and Ramdas Pophale) SiO2 
 PCOD9008329
Probable space group: P -1
;
_chemical_formula_sum "Si O2"
_cell_formula_units_Z 16
_cell_length_a 8.422533
_cell_length_b 14.658807
_cell_length_c 8.372269
_cell_angle_alpha 41.001925
_cell_angle_beta 68.847878
_cell_angle_gamma 80.786152
_cell_volume 621.761520
_symmetry_space_group_name_H-M "P -1"
_symmetry_group_IT_number 2
_symmetry_cell_setting 'triclinic'
loop_
_space_group_symop_operation_xyz
x,y,z
-x,-y,-z
loop_
_atom_site_type_symbol
_atom_site_label
_atom_site_fract_x
_atom_site_fract_y
_atom_site_fract_z
Si Si1 0.651098 0.377152 0.760412
Si Si2 0.706129 0.536878 0.849689
Si Si3 0.889548 0.307871 0.214304
Si Si4 0.263341 0.384732 0.821181
Si Si5 0.831414 0.877825 0.000074
Si Si6 0.320066 0.151414 0.576118
Si Si7 0.228507 0.882211 0.796252
Si Si8 0.641679 0.096868 0.704304
O O1 0.738118 0.474260 0.746761
O O2 0.444567 0.372034 0.853890
O O3 0.715994 0.458248 0.467010
O O4 0.694671 0.222203 0.973658
O O5 0.746946 0.705403 0.625624
O O6 0.500000 0.500000 0.000000
O O7 0.816013 0.452412 0.035007
O O8 0.793604 0.199950 0.254472
O O9 0.808503 0.221492 0.514296
O O10 0.089238 0.332817 0.054014
O O11 0.250317 0.281670 0.807442
O O12 0.033630 0.895047 0.888286
O O13 0.745623 0.972638 0.782297
O O14 0.792504 0.917361 0.142201
O O15 0.511103 0.177587 0.548460
O O16 0.326680 0.042339 0.574290
O O17 0.500000 0.000000 0.000000
#
# Coordination Sequence:
#
# PCOD9008329 Si02
#       8
#     2   2   2   2   2   2   2   2
#     4  10  22  42  65  96 127 175 221 257 328 377
#     4  11  22  42  66  92 130 168 215 267 319 391
#     4  10  23  42  65  98 127 172 216 266 327 372
#     4  10  21  40  68  93 132 171 217 269 312 392
#     4  10  21  39  64  93 127 174 211 269 320 378
#     4  11  21  40  64  93 128 172 213 260 328 377
#     4  10  23  38  64  99 129 166 218 269 314 388
#     4  10  22  41  64  91 128 170 211 265 324 387
#
# _framework density 25.733339000000001
#
# number of rings (size 3 to 8) (size 9 to 14) (size 15 to 20)
#    0.000    1.750    2.500    1.125    1.750    4.000 
#    4.500    0.625    0.000    0.000    0.000    0.000 
#    0.000    0.000    0.000    0.000    0.000    0.000 
#
# Total GULP energy -89334.248173 kJ/mol
# GULP energy per Si atom -5583.390511 kJ/mol
# Density = 2.567477 g / cm^3
# Si number density = 25.733339 Si / 1000 Ang^3
#
#
#
# Elastic Constant Matrix: (Units=GPa)
#
#
# Indices 1 2 3 4 5 6 
#
# 1 75.5658 8.5483 41.7658 4.5985 -4.6365 -34.0241
# 2 8.5483 109.0509 24.2000 -22.0579 7.4256 -5.1184
# 3 41.7658 24.2000 125.1528 -20.3918 0.4774 -25.1992
# 4 4.5985 -22.0579 -20.3918 46.5307 -15.7846 1.1769
# 5 -4.6365 7.4256 0.4774 -15.7846 29.4023 -0.2180
# 6 -34.0241 -5.1184 -25.1992 1.1769 -0.2180 46.1148
#
#
#
# Elastic Compliance Matrix: (Units=1/GPa)
#
#
# Indices 1 2 3 4 5 6 
#
# 1 0.023133 -0.001052 -0.005518 -0.005093 0.001373 0.014072
# 2 -0.001052 0.010389 -0.000982 0.004480 -0.000371 -0.000276
# 3 -0.005518 -0.000982 0.011333 0.005783 0.002313 0.001876
# 4 -0.005093 0.004480 0.005783 0.031769 0.015021 -0.000840
# 5 0.001373 -0.000371 0.002313 0.015021 0.042363 0.002053
# 6 0.014072 -0.000276 0.001876 -0.000840 0.002053 0.033093
#
#
# Mechanical properties :
#
#
# Convention : Reuss Voigt Hill
#
# Bulk Modulus (GPa) = 33.61345 50.97754 42.29550
# Shear Modulus (GPa) = 28.23263 40.09326 34.16294
#
# Velocity S-wave (km/s) = 3.31588 3.95147 3.64754
# Velocity P-wave (km/s) = 5.26789 6.37744 5.84903
#
# Compressibility (1/GPa) = 0.02974999
#
# Stress axis : x y z
#
# Youngs Moduli (GPa) = 43.22906 96.25737 88.23948
#
# Poissons Ratio (x) = 0.10126 0.48692
# Poissons Ratio (y) = 0.04548 0.08665
# Poissons Ratio (z) = 0.23854 0.09452
#
# Static dielectric constant tensor:
#      x y z
#    x 2.020210 0.105060 0.011580 
#    y 0.105060 2.139170 0.175010 
#    z 0.011580 0.175010 2.539890 
# 
# From -- ./inp_files/205084.got.cif
#   From: 2010.05.17/outbox.cif.g08.bks.cpg/sg2_103_cif.got.tgz:205084.got - 2010.06.03 11:33:40.
