data_PCOD9008347
_publ_section_title
;
Structure prediction by ZEFSAII (Michael W. Deem and Ramdas Pophale) SiO2 
 PCOD9008347
Probable space group: P -1
;
_chemical_formula_sum "Si O2"
_cell_formula_units_Z 14
_cell_length_a 10.731293
_cell_length_b 24.787446
_cell_length_c 10.220826
_cell_angle_alpha 146.404757
_cell_angle_beta 128.042491
_cell_angle_gamma 29.595359
_cell_volume 682.413142
_symmetry_space_group_name_H-M "P -1"
_symmetry_group_IT_number 2
_symmetry_cell_setting 'triclinic'
loop_
_space_group_symop_operation_xyz
x,y,z
-x,-y,-z
loop_
_atom_site_type_symbol
_atom_site_label
_atom_site_fract_x
_atom_site_fract_y
_atom_site_fract_z
Si Si1 0.393324 0.437754 0.457063
Si Si2 0.103967 0.679694 0.526135
Si Si3 0.877269 0.478422 0.019222
Si Si4 0.260505 0.906910 0.064253
Si Si5 0.028756 0.596071 0.767872
Si Si6 0.463275 0.989665 0.232814
Si Si7 0.535491 0.783902 0.244035
O O1 0.183683 0.568437 0.470377
O O2 0.668211 0.353293 0.415849
O O3 0.488426 0.279190 0.211096
O O4 0.254461 0.535634 0.700819
O O5 0.804075 0.872164 0.753587
O O6 0.117688 0.614203 0.266065
O O7 0.626276 0.674933 0.208653
O O8 0.874918 0.454638 0.121767
O O9 0.180888 0.368042 0.962493
O O10 0.289575 0.871640 0.167588
O O11 0.334451 0.983803 0.250170
O O12 0.000000 0.000000 0.000000
O O13 0.000000 0.500000 0.500000
O O14 0.741768 0.798922 0.982275
O O15 0.511014 0.078819 0.478185
#
# Coordination Sequence:
#
# PCOD9008347 Si02
#       7
#     2   2   2   2   2   2   2
#     4  11  23  42  63  94 134 163 211 261 327 377
#     4  10  23  42  68  91 121 178 215 256 308 389
#     4  10  21  40  67  87 129 170 212 259 317 379
#     4  12  21  38  65  97 124 163 215 271 302 374
#     4  12  25  39  61  96 133 163 203 273 331 367
#     4  11  23  37  65  96 124 163 220 259 314 373
#     4  10  21  39  64  94 123 169 220 255 305 388
#
# _framework density 20.515433000000002
#
# number of rings (size 3 to 8) (size 9 to 14) (size 15 to 20)
#    0.000    1.143    5.714    0.429    6.000    1.143 
#    0.000    0.000    0.000    1.714    0.000    0.000 
#    0.000    0.000    0.000    0.000    0.000    0.000 
#
# Total GULP energy -77975.364630 kJ/mol
# GULP energy per Si atom -5569.668902 kJ/mol
# Density = 2.046874 g / cm^3
# Si number density = 20.515433 Si / 1000 Ang^3
#
#
#
# Elastic Constant Matrix: (Units=GPa)
#
#
# Indices 1 2 3 4 5 6 
#
# 1 37.9171 22.5198 31.0872 11.3113 -4.0198 14.4552
# 2 22.5198 150.2833 64.3794 22.2580 -5.9358 14.8480
# 3 31.0872 64.3794 101.2388 23.8922 5.5354 17.3197
# 4 11.3113 22.2580 23.8922 36.5989 7.4404 -0.6336
# 5 -4.0198 -5.9358 5.5354 7.4404 30.1944 -3.3947
# 6 14.4552 14.8480 17.3197 -0.6336 -3.3947 24.5704
#
#
#
# Elastic Compliance Matrix: (Units=1/GPa)
#
#
# Indices 1 2 3 4 5 6 
#
# 1 0.044625 0.000956 -0.008890 -0.010567 0.008146 -0.019712
# 2 0.000956 0.009731 -0.005514 -0.003392 0.003646 -0.002139
# 3 -0.008890 -0.005514 0.018481 -0.005037 -0.005009 -0.005287
# 4 -0.010567 -0.003392 -0.005037 0.038014 -0.009222 0.011523
# 5 0.008146 0.003646 -0.005009 -0.009222 0.038289 0.001587
# 6 -0.019712 -0.002139 -0.005287 0.011523 0.001587 0.057832
#
#
# Mechanical properties :
#
#
# Convention : Reuss Voigt Hill
#
# Bulk Modulus (GPa) = 21.76780 58.37912 40.07346
# Shear Modulus (GPa) = 20.06557 29.70292 24.88424
#
# Velocity S-wave (km/s) = 3.13081 3.80917 3.48652
# Velocity P-wave (km/s) = 4.86855 6.91840 5.98193
#
# Compressibility (1/GPa) = 0.04593942
#
# Stress axis : x y z
#
# Youngs Moduli (GPa) = 22.40894 102.76499 54.10899
#
# Poissons Ratio (x) = -0.09821 0.48103
# Poissons Ratio (y) = -0.02142 0.29838
# Poissons Ratio (z) = 0.19922 0.56669
#
# Static dielectric constant tensor:
#      x y z
#    x 1.799440 0.001010 0.056240 
#    y 0.001010 1.815110 0.008940 
#    z 0.056240 0.008940 1.727250 
# 
# From -- ./inp_files/285059.got.cif
#   From: 2010.05.17/outbox.cif.g08.bks.cpg/sg2_143_cif.got.tgz:285059.got - 2010.06.03 11:33:40.
