data_PCOD9008468
_publ_section_title
;
Structure prediction by ZEFSAII (Michael W. Deem and Ramdas Pophale) SiO2 
 PCOD9008468
Probable space group: P -1
;
_chemical_formula_sum "Si O2"
_cell_formula_units_Z 16
_cell_length_a 7.935510
_cell_length_b 14.962026
_cell_length_c 10.549029
_cell_angle_alpha 119.896681
_cell_angle_beta 71.300563
_cell_angle_gamma 61.187694
_cell_volume 641.685768
_symmetry_space_group_name_H-M "P -1"
_symmetry_group_IT_number 2
_symmetry_cell_setting 'triclinic'
loop_
_space_group_symop_operation_xyz
x,y,z
-x,-y,-z
loop_
_atom_site_type_symbol
_atom_site_label
_atom_site_fract_x
_atom_site_fract_y
_atom_site_fract_z
Si Si1 0.633144 0.025745 0.155304
Si Si2 0.767307 0.140041 0.483618
Si Si3 0.367202 0.410533 0.101079
Si Si4 0.602057 0.809644 0.946610
Si Si5 0.955926 0.188534 0.708322
Si Si6 0.215580 0.771741 0.734780
Si Si7 0.209466 0.532765 0.503898
Si Si8 0.778758 0.715215 0.339036
O O1 0.553925 0.090813 0.075635
O O2 0.413093 0.173616 0.410886
O O3 0.616625 0.909597 0.089851
O O4 0.965775 0.906542 0.991095
O O5 0.900929 0.162112 0.564502
O O6 0.817141 0.161381 0.346333
O O7 0.428066 0.270187 0.674776
O O8 0.898112 0.968157 0.356887
O O9 0.501441 0.237392 0.976901
O O10 0.249617 0.513133 0.331043
O O11 0.087518 0.529295 0.166261
O O12 0.636155 0.354638 0.951465
O O13 0.911783 0.630038 0.699230
O O14 0.144111 0.206617 0.679294
O O15 0.208715 0.652258 0.629545
O O16 0.527019 0.649018 0.630000
#
# Coordination Sequence:
#
# PCOD9008468 Si02
#       8
#     2   2   2   2   2   2   2   2
#     4  10  23  38  66 100 139 178 217 284 340 407
#     4  11  26  47  73  98 136 184 233 286 335 411
#     4  12  24  42  71 100 136 184 229 280 341 418
#     4  10  21  39  64  99 136 177 221 269 354 406
#     4  11  28  48  68  97 139 185 234 287 337 393
#     4  10  22  41  65 102 140 175 222 280 350 405
#     4  10  21  39  65 103 142 175 214 286 349 407
#     4  12  26  46  71 103 138 179 234 287 336 406
#
# _framework density 24.934325000000001
#
# number of rings (size 3 to 8) (size 9 to 14) (size 15 to 20)
#    0.000    1.250    1.250    3.375   10.500    1.000 
#    0.000    0.000    0.000    0.000    0.000    0.000 
#    0.000    0.000    0.000    0.000    0.000    0.000 
#
# Total GULP energy -89596.961536 kJ/mol
# GULP energy per Si atom -5599.810096 kJ/mol
# Density = 2.487757 g / cm^3
# Si number density = 24.934325 Si / 1000 Ang^3
#
#
#
# Elastic Constant Matrix: (Units=GPa)
#
#
# Indices 1 2 3 4 5 6 
#
# 1 58.5385 0.6492 20.0193 -6.9017 -10.8801 12.7051
# 2 0.6492 91.6406 21.3225 -1.8603 -13.3070 -1.0342
# 3 20.0193 21.3225 120.9699 -5.4701 -20.4534 -5.9561
# 4 -6.9017 -1.8603 -5.4701 19.1595 0.5929 -12.9858
# 5 -10.8801 -13.3070 -20.4534 0.5929 46.3219 5.0480
# 6 12.7051 -1.0342 -5.9561 -12.9858 5.0480 42.8695
#
#
#
# Elastic Compliance Matrix: (Units=1/GPa)
#
#
# Indices 1 2 3 4 5 6 
#
# 1 0.020596 0.001194 -0.003073 0.002206 0.004489 -0.006362
# 2 0.001194 0.011747 -0.001768 0.000665 0.002916 -0.000458
# 3 -0.003073 -0.001768 0.009854 0.003456 0.002755 0.002960
# 4 0.002206 0.000665 0.003456 0.067988 -0.000873 0.020540
# 5 0.004489 0.002916 0.002755 -0.000873 0.025155 -0.004104
# 6 -0.006362 -0.000458 0.002960 0.020540 -0.004104 0.032317
#
#
# Mechanical properties :
#
#
# Convention : Reuss Voigt Hill
#
# Bulk Modulus (GPa) = 28.65078 39.45899 34.05488
# Shear Modulus (GPa) = 26.79743 36.94738 31.87241
#
# Velocity S-wave (km/s) = 3.28185 3.85358 3.57915
# Velocity P-wave (km/s) = 5.08686 5.97157 5.54688
#
# Compressibility (1/GPa) = 0.03490307
#
# Stress axis : x y z
#
# Youngs Moduli (GPa) = 48.55344 85.12993 101.47697
#
# Poissons Ratio (x) = -0.10164 0.31188
# Poissons Ratio (y) = -0.05797 0.17937
# Poissons Ratio (z) = 0.14923 0.15047
#
# Static dielectric constant tensor:
#      x y z
#    x 2.046520 -0.027230 -0.018460 
#    y -0.027230 1.962870 0.020600 
#    z -0.018460 0.020600 1.936210 
# 
# From -- ./inp_files/233505.got.cif
#   From: 2010.05.17/outbox.cif.g08.bks.cpg/sg2_117_cif.got.tgz:233505.got - 2010.06.03 11:33:40.
