data_PCOD9008349
_publ_section_title
;
Structure prediction by ZEFSAII (Michael W. Deem and Ramdas Pophale) SiO2 
 PCOD9008349
Probable space group: P -1
;
_chemical_formula_sum "Si O2"
_cell_formula_units_Z 14
_cell_length_a 17.349820
_cell_length_b 12.332979
_cell_length_c 4.781623
_cell_angle_alpha 111.084320
_cell_angle_beta 125.238109
_cell_angle_gamma 38.955554
_cell_volume 517.459127
_symmetry_space_group_name_H-M "P -1"
_symmetry_group_IT_number 2
_symmetry_cell_setting 'triclinic'
loop_
_space_group_symop_operation_xyz
x,y,z
-x,-y,-z
loop_
_atom_site_type_symbol
_atom_site_label
_atom_site_fract_x
_atom_site_fract_y
_atom_site_fract_z
Si Si1 0.835791 0.226892 0.909818
Si Si2 0.739359 0.814627 0.236448
Si Si3 0.566867 0.194331 0.180507
Si Si4 0.839336 0.594649 0.733121
Si Si5 0.554412 0.569096 0.322367
Si Si6 0.826848 0.071197 0.264967
Si Si7 0.995885 0.737536 0.921444
O O1 0.694016 0.403318 0.624994
O O2 0.898785 0.082565 0.668136
O O3 0.795906 0.196126 0.077676
O O4 0.933060 0.250358 0.156786
O O5 0.745679 0.763831 0.889581
O O6 0.881570 0.757334 0.559091
O O7 0.608243 0.024022 0.184553
O O8 0.765171 0.677808 0.357140
O O9 0.542270 0.286132 0.500318
O O10 0.700729 0.124186 0.221903
O O11 0.441165 0.339629 0.833260
O O12 0.875036 0.440684 0.807222
O O13 0.000000 0.500000 0.000000
O O14 0.500000 0.500000 0.000000
O O15 0.908601 0.897225 0.102997
#
# Coordination Sequence:
#
# PCOD9008349 Si02
#       7
#     2   2   2   2   2   2   2
#     4  12  27  41  60  95 135 178 208 254 318 383
#     4  11  23  40  67  96 120 164 212 270 321 368
#     4  12  24  42  67  92 126 166 220 267 309 364
#     4  10  21  39  64  94 124 161 212 264 318 377
#     4  12  25  41  66  89 129 171 221 259 301 374
#     4  12  25  40  62  96 132 174 209 255 317 386
#     4  11  24  42  65  95 136 167 209 260 326 388
#
# _framework density 27.055277
#
# number of rings (size 3 to 8) (size 9 to 14) (size 15 to 20)
#    0.000    0.571    1.429    9.000    0.000    5.714 
#    0.000    0.000    0.000    5.143    0.000    0.000 
#    0.000    0.000    0.000    0.000    0.000    0.000 
#
# Total GULP energy -78472.615984 kJ/mol
# GULP energy per Si atom -5605.186856 kJ/mol
# Density = 2.699370 g / cm^3
# Si number density = 27.055277 Si / 1000 Ang^3
#
#
#
# Elastic Constant Matrix: (Units=GPa)
#
#
# Indices 1 2 3 4 5 6 
#
# 1 59.3616 22.8450 15.1457 0.9785 -17.8005 16.1825
# 2 22.8450 168.9037 21.4943 -12.9914 -24.5772 17.4843
# 3 15.1457 21.4943 126.8086 -4.8752 -35.9280 -1.9796
# 4 0.9785 -12.9914 -4.8752 65.6104 -2.8491 -24.0925
# 5 -17.8005 -24.5772 -35.9280 -2.8491 33.4998 -7.8514
# 6 16.1825 17.4843 -1.9796 -24.0925 -7.8514 31.0176
#
#
#
# Elastic Compliance Matrix: (Units=1/GPa)
#
#
# Indices 1 2 3 4 5 6 
#
# 1 0.023591 -0.001007 -0.001235 -0.005719 0.006564 -0.014600
# 2 -0.001007 0.006917 0.000283 0.001127 0.004633 -0.001308
# 3 -0.001235 0.000283 0.012854 0.005157 0.015968 0.009353
# 4 -0.005719 0.001127 0.005157 0.025868 0.011540 0.025692
# 5 0.006564 0.004633 0.015968 0.011540 0.059286 0.018954
# 6 -0.014600 -0.001308 0.009353 0.025692 0.018954 0.065944
#
#
# Mechanical properties :
#
#
# Convention : Reuss Voigt Hill
#
# Bulk Modulus (GPa) = 25.35243 52.67153 39.01198
# Shear Modulus (GPa) = 23.63772 45.73150 34.68461
#
# Velocity S-wave (km/s) = 2.95902 4.11578 3.58437
# Velocity P-wave (km/s) = 4.58970 6.48819 5.61970
#
# Compressibility (1/GPa) = 0.03944394
#
# Stress axis : x y z
#
# Youngs Moduli (GPa) = 42.38872 144.57530 77.79859
#
# Poissons Ratio (x) = 0.14560 0.09609
# Poissons Ratio (y) = 0.04269 -0.02204
# Poissons Ratio (z) = 0.05235 -0.04096
#
# Static dielectric constant tensor:
#      x y z
#    x 2.184770 -0.033080 0.062750 
#    y -0.033080 2.222220 -0.095630 
#    z 0.062750 -0.095630 2.051810 
# 
# From -- ./inp_files/117676.got.cif
#   From: 2010.05.17/outbox.cif.g08.bks.cpg/sg2_59_cif.got.tgz:117676.got - 2010.06.03 11:33:40.
