data_PCOD9008617
_publ_section_title
;
Structure prediction by ZEFSAII (Michael W. Deem and Ramdas Pophale) SiO2 
 PCOD9008617
Probable space group: P -1
;
_chemical_formula_sum "Si O2"
_cell_formula_units_Z 16
_cell_length_a 10.560034
_cell_length_b 15.192122
_cell_length_c 14.797020
_cell_angle_alpha 141.400129
_cell_angle_beta 153.037606
_cell_angle_gamma 55.889877
_cell_volume 589.069275
_symmetry_space_group_name_H-M "P -1"
_symmetry_group_IT_number 2
_symmetry_cell_setting 'triclinic'
loop_
_space_group_symop_operation_xyz
x,y,z
-x,-y,-z
loop_
_atom_site_type_symbol
_atom_site_label
_atom_site_fract_x
_atom_site_fract_y
_atom_site_fract_z
Si Si1 0.314989 0.078000 0.203407
Si Si2 0.785180 0.395997 0.111535
Si Si3 0.590107 0.193134 0.996316
Si Si4 0.887220 0.725017 0.467459
Si Si5 0.869888 0.134608 0.850161
Si Si6 0.043188 0.669153 0.233279
Si Si7 0.208703 0.956734 0.711456
Si Si8 0.781668 0.584651 0.820547
O O1 0.616954 0.253661 0.543131
O O2 0.137756 0.084173 0.003941
O O3 0.476995 0.964897 0.229576
O O4 0.000000 0.000000 0.000000
O O5 0.487876 0.361204 0.830437
O O6 0.912375 0.276607 0.062050
O O7 0.662727 0.339115 0.092202
O O8 0.985527 0.589155 0.389622
O O9 0.919006 0.224125 0.276874
O O10 0.329495 0.112979 0.848049
O O11 0.937930 0.864777 0.540388
O O12 0.500000 0.000000 0.500000
O O13 0.997569 0.231959 0.918390
O O14 0.114064 0.808627 0.462581
O O15 0.032227 0.516830 0.152282
O O16 0.750640 0.602271 0.923059
O O17 0.500000 0.000000 0.000000
O O18 0.500000 0.500000 0.500000
#
# Coordination Sequence:
#
# PCOD9008617 Si02
#       8
#     2   2   2   2   2   2   2   2
#     4  11  20  38  62  97 134 170 218 271 333 400
#     4  11  23  40  64  89 128 166 218 265 324 386
#     4  10  21  39  65  92 125 167 210 269 324 387
#     4  10  22  42  62  91 124 168 217 268 321 383
#     4  12  24  39  65  99 133 176 218 273 335 400
#     4  10  22  41  66  93 136 175 218 275 330 403
#     4   9  20  41  66  92 128 168 218 274 326 384
#     4  11  23  42  64  97 135 175 218 267 335 404
#
# _framework density 27.161490000000001
#
# number of rings (size 3 to 8) (size 9 to 14) (size 15 to 20)
#    0.000    1.500    2.500    2.625    1.750    0.500 
#    0.000    7.500    0.000    0.000    0.000    0.000 
#    0.000    0.000    0.000    0.000    0.000    0.000 
#
# Total GULP energy -89146.897852 kJ/mol
# GULP energy per Si atom -5571.681116 kJ/mol
# Density = 2.709967 g / cm^3
# Si number density = 27.161490 Si / 1000 Ang^3
#
#
#
# Elastic Constant Matrix: (Units=GPa)
#
#
# Indices 1 2 3 4 5 6 
#
# 1 53.6774 19.9556 13.7976 -3.9593 -14.3967 24.4856
# 2 19.9556 158.2410 43.7412 -5.5888 -12.2988 19.8023
# 3 13.7976 43.7412 136.9648 -24.1382 -19.9473 2.4416
# 4 -3.9593 -5.5888 -24.1382 54.0454 5.3321 -4.9504
# 5 -14.3967 -12.2988 -19.9473 5.3321 47.0918 10.3799
# 6 24.4856 19.8023 2.4416 -4.9504 10.3799 35.9313
#
#
#
# Elastic Compliance Matrix: (Units=1/GPa)
#
#
# Indices 1 2 3 4 5 6 
#
# 1 0.038117 0.000937 -0.001275 -0.002473 0.018725 -0.032155
# 2 0.000937 0.007698 -0.002219 -0.000909 0.002702 -0.005636
# 3 -0.001275 -0.002219 0.009070 0.003639 0.002163 0.001352
# 4 -0.002473 -0.000909 0.003639 0.020672 -0.003042 0.005666
# 5 0.018725 0.002702 0.002163 -0.003042 0.034381 -0.024748
# 6 -0.032155 -0.005636 0.001352 0.005666 -0.024748 0.060687
#
#
# Mechanical properties :
#
#
# Convention : Reuss Voigt Hill
#
# Bulk Modulus (GPa) = 20.09152 55.98577 38.03865
# Shear Modulus (GPa) = 25.99725 45.50629 35.75177
#
# Velocity S-wave (km/s) = 3.09712 4.09760 3.63198
# Velocity P-wave (km/s) = 4.49473 6.56080 5.62346
#
# Compressibility (1/GPa) = 0.04977225
#
# Stress axis : x y z
#
# Youngs Moduli (GPa) = 26.23533 129.90537 110.24875
#
# Poissons Ratio (x) = -0.12177 0.14053
# Poissons Ratio (y) = -0.02459 0.24465
# Poissons Ratio (z) = 0.03344 0.28827
#
# Static dielectric constant tensor:
#      x y z
#    x 2.410420 0.094920 -0.113980 
#    y 0.094920 2.413380 -0.017340 
#    z -0.113980 -0.017340 2.264380 
# 
# From -- ./inp_files/522546.got.cif
#   From: 2010.05.17/outbox.cif.g08.bks.cpg/sg2_262_cif.got.tgz:522546.got - 2010.06.03 11:33:40.
