data_PCOD9008511
_publ_section_title
;
Structure prediction by ZEFSAII (Michael W. Deem and Ramdas Pophale) SiO2 
 PCOD9008511
Probable space group: P -1
;
_chemical_formula_sum "Si O2"
_cell_formula_units_Z 14
_cell_length_a 12.852831
_cell_length_b 8.248550
_cell_length_c 12.636714
_cell_angle_alpha 109.855956
_cell_angle_beta 134.508975
_cell_angle_gamma 48.851023
_cell_volume 700.721645
_symmetry_space_group_name_H-M "P -1"
_symmetry_group_IT_number 2
_symmetry_cell_setting 'triclinic'
loop_
_space_group_symop_operation_xyz
x,y,z
-x,-y,-z
loop_
_atom_site_type_symbol
_atom_site_label
_atom_site_fract_x
_atom_site_fract_y
_atom_site_fract_z
Si Si1 0.291445 0.582071 0.862694
Si Si2 0.899220 0.604090 0.268517
Si Si3 0.747326 0.905076 0.551908
Si Si4 0.019409 0.141950 0.465087
Si Si5 0.086604 0.009167 0.956711
Si Si6 0.928721 0.439522 0.837346
Si Si7 0.356356 0.057666 0.279505
O O1 0.275609 0.394880 0.845654
O O2 0.182346 0.677238 0.694053
O O3 0.168094 0.792694 0.899461
O O4 0.500000 0.500000 0.000000
O O5 0.075627 0.350725 0.364138
O O6 0.909581 0.748368 0.391914
O O7 0.934254 0.645429 0.184325
O O8 0.681269 0.000086 0.644721
O O9 0.825670 0.991137 0.547164
O O10 0.573562 0.927819 0.386063
O O11 0.000000 0.000000 0.500000
O O12 0.936944 0.237584 0.837968
O O13 0.253651 0.015506 0.111218
O O14 0.000000 0.000000 0.000000
O O15 0.738482 0.681089 0.725568
O O16 0.000000 0.500000 0.000000
#
# Coordination Sequence:
#
# PCOD9008511 Si02
#       7
#     2   2   2   2   2   2   2
#     4  11  24  40  61  93 125 163 215 255 308 376
#     4  10  21  39  65  81 124 169 199 250 316 369
#     4   9  18  37  60  87 119 155 208 249 312 358
#     4  11  23  41  61  87 127 168 206 254 317 375
#     4  11  21  36  60  86 127 161 203 253 318 362
#     4   9  18  37  58  88 119 160 200 249 314 358
#     4   9  19  34  62  89 114 159 208 257 298 372
#
# _framework density 19.979403000000001
#
# number of rings (size 3 to 8) (size 9 to 14) (size 15 to 20)
#    0.000    2.000    0.000    6.000    4.000    0.000 
#    7.714    1.429    0.000    8.571    0.000    0.000 
#    0.000    0.000    0.000    0.000    0.000    0.000 
#
# Total GULP energy -78092.791641 kJ/mol
# GULP energy per Si atom -5578.056546 kJ/mol
# Density = 1.993393 g / cm^3
# Si number density = 19.979403 Si / 1000 Ang^3
#
#
#
# Elastic Constant Matrix: (Units=GPa)
#
#
# Indices 1 2 3 4 5 6 
#
# 1 149.6159 39.6554 49.0675 -9.3425 -4.9702 16.5356
# 2 39.6554 52.1650 25.8065 20.0566 0.0387 11.1570
# 3 49.0675 25.8065 101.0185 14.8839 10.3699 1.1080
# 4 -9.3425 20.0566 14.8839 30.9897 0.7550 -0.1856
# 5 -4.9702 0.0387 10.3699 0.7550 42.4139 -4.0657
# 6 16.5356 11.1570 1.1080 -0.1856 -4.0657 28.8602
#
#
#
# Elastic Compliance Matrix: (Units=1/GPa)
#
#
# Indices 1 2 3 4 5 6 
#
# 1 0.012920 -0.012179 -0.005504 0.014350 0.002419 -0.002050
# 2 -0.012179 0.042594 -0.000067 -0.031221 -0.001848 -0.009947
# 3 -0.005504 -0.000067 0.014180 -0.008323 -0.003767 0.002051
# 4 0.014350 -0.031221 -0.008323 0.060752 0.003143 0.005001
# 5 0.002419 -0.001848 -0.003767 0.003143 0.025017 0.003017
# 6 -0.002050 -0.009947 0.002051 0.005001 0.003017 0.040048
#
#
# Mechanical properties :
#
#
# Convention : Reuss Voigt Hill
#
# Bulk Modulus (GPa) = 29.24478 59.09534 44.17006
# Shear Modulus (GPa) = 20.62619 33.00411 26.81515
#
# Velocity S-wave (km/s) = 3.21654 4.06877 3.66750
# Velocity P-wave (km/s) = 5.33517 7.19135 6.33165
#
# Compressibility (1/GPa) = 0.03419414
#
# Stress axis : x y z
#
# Youngs Moduli (GPa) = 77.39901 23.47730 70.52022
#
# Poissons Ratio (x) = 0.28594 0.38817
# Poissons Ratio (y) = 0.94267 0.00469
# Poissons Ratio (z) = 0.42604 0.00156
#
# Static dielectric constant tensor:
#      x y z
#    x 1.742990 0.006390 -0.004930 
#    y 0.006390 1.715280 -0.004740 
#    z -0.004930 -0.004740 1.749820 
# 
# From -- ./inp_files/212846.got.cif
#   From: 2010.05.17/outbox.cif.g08.bks.cpg/sg2_107_cif.got.tgz:212846.got - 2010.06.03 11:33:40.
