data_PCOD9008553
_publ_section_title
;
Structure prediction by ZEFSAII (Michael W. Deem and Ramdas Pophale) SiO2 
 PCOD9008553
Probable space group: P -1
;
_chemical_formula_sum "Si O2"
_cell_formula_units_Z 14
_cell_length_a 10.789760
_cell_length_b 13.738018
_cell_length_c 11.679412
_cell_angle_alpha 32.018429
_cell_angle_beta 136.870081
_cell_angle_gamma 123.049457
_cell_volume 614.510139
_symmetry_space_group_name_H-M "P -1"
_symmetry_group_IT_number 2
_symmetry_cell_setting 'triclinic'
loop_
_space_group_symop_operation_xyz
x,y,z
-x,-y,-z
loop_
_atom_site_type_symbol
_atom_site_label
_atom_site_fract_x
_atom_site_fract_y
_atom_site_fract_z
Si Si1 0.509691 0.703547 0.855680
Si Si2 0.049316 0.415457 0.300947
Si Si3 0.427193 0.684702 0.429179
Si Si4 0.190176 0.466294 0.594038
Si Si5 0.721331 0.756502 0.728056
Si Si6 0.696012 0.324060 0.888863
Si Si7 0.844998 0.113031 0.420634
O O1 0.596637 0.801572 0.712450
O O2 0.312256 0.799475 0.679032
O O3 0.500000 0.500000 0.000000
O O4 0.656350 0.668912 0.092978
O O5 0.141390 0.399960 0.502571
O O6 0.167196 0.530652 0.187617
O O7 0.019396 0.211707 0.449740
O O8 0.844773 0.548674 0.030710
O O9 0.263004 0.659589 0.428715
O O10 0.579873 0.770333 0.512797
O O11 0.520024 0.467674 0.678764
O O12 0.353696 0.760981 0.180252
O O13 0.000000 0.500000 0.500000
O O14 0.864113 0.893353 0.671195
O O15 0.767254 0.172332 0.183458
#
# Coordination Sequence:
#
# PCOD9008553 Si02
#       7
#     2   2   2   2   2   2   2
#     4  12  20  42  68  89 124 163 205 254 313 369
#     4  11  23  40  62  93 126 163 205 256 305 367
#     4  10  21  39  65  90 121 166 209 255 302 370
#     4  11  19  36  69  88 117 166 202 253 315 356
#     4  12  24  40  65  94 126 162 209 253 312 370
#     4  10  21  41  65  89 125 167 210 248 311 361
#     4  12  24  41  65  93 125 167 204 255 310 370
#
# _framework density 22.782374999999998
#
# number of rings (size 3 to 8) (size 9 to 14) (size 15 to 20)
#    0.000    0.857    7.143    0.857    0.000    1.143 
#    0.000    3.571    0.000    0.000    0.000    0.000 
#    0.000    0.000    0.000    0.000    0.000    0.000 
#
# Total GULP energy -78286.434533 kJ/mol
# GULP energy per Si atom -5591.888181 kJ/mol
# Density = 2.273052 g / cm^3
# Si number density = 22.782375 Si / 1000 Ang^3
#
#
#
# Elastic Constant Matrix: (Units=GPa)
#
#
# Indices 1 2 3 4 5 6 
#
# 1 112.3729 18.3416 10.2561 -2.0090 -15.1924 7.9866
# 2 18.3416 110.8326 45.8862 8.0611 -17.4827 13.8837
# 3 10.2561 45.8862 42.0211 5.0984 -24.9140 -3.4197
# 4 -2.0090 8.0611 5.0984 36.3958 0.7715 -5.8319
# 5 -15.1924 -17.4827 -24.9140 0.7715 37.9896 4.5885
# 6 7.9866 13.8837 -3.4197 -5.8319 4.5885 27.9945
#
#
#
# Elastic Compliance Matrix: (Units=1/GPa)
#
#
# Indices 1 2 3 4 5 6 
#
# 1 0.009782 -0.001059 0.001252 0.000044 0.004590 -0.002856
# 2 -0.001059 0.021807 -0.028811 -0.002835 -0.007609 -0.013376
# 3 0.001252 -0.028811 0.078373 -0.002588 0.036644 0.016960
# 4 0.000044 -0.002835 -0.002588 0.029854 -0.004562 0.008044
# 5 0.004590 -0.007609 0.036644 -0.004562 0.049028 -0.002046
# 6 -0.002856 -0.013376 0.016960 0.008044 -0.002046 0.047253
#
#
# Mechanical properties :
#
#
# Convention : Reuss Voigt Hill
#
# Bulk Modulus (GPa) = 18.96551 46.02158 32.49355
# Shear Modulus (GPa) = 16.08200 33.19217 24.63709
#
# Velocity S-wave (km/s) = 2.65975 3.82111 3.29205
# Velocity P-wave (km/s) = 4.21605 6.30176 5.36131
#
# Compressibility (1/GPa) = 0.05272730
#
# Stress axis : x y z
#
# Youngs Moduli (GPa) = 102.23131 45.85623 12.75955
#
# Poissons Ratio (x) = 0.04854 -0.01598
# Poissons Ratio (y) = 0.10822 0.36761
# Poissons Ratio (z) = -0.12799 1.32115
#
# Static dielectric constant tensor:
#      x y z
#    x 1.905130 0.007600 0.023170 
#    y 0.007600 1.846890 0.014700 
#    z 0.023170 0.014700 1.832510 
# 
# From -- ./inp_files/238369.got.cif
#   From: 2010.05.17/outbox.cif.g08.bks.cpg/sg2_120_cif.got.tgz:238369.got - 2010.06.03 11:33:40.
