data_PCOD9008398
_publ_section_title
;
Structure prediction by ZEFSAII (Michael W. Deem and Ramdas Pophale) SiO2 
 PCOD9008398
Probable space group: P -1
;
_chemical_formula_sum "Si O2"
_cell_formula_units_Z 14
_cell_length_a 14.380355
_cell_length_b 14.656571
_cell_length_c 14.613416
_cell_angle_alpha 151.430442
_cell_angle_beta 151.112695
_cell_angle_gamma 46.686200
_cell_volume 664.094704
_symmetry_space_group_name_H-M "P -1"
_symmetry_group_IT_number 2
_symmetry_cell_setting 'triclinic'
loop_
_space_group_symop_operation_xyz
x,y,z
-x,-y,-z
loop_
_atom_site_type_symbol
_atom_site_label
_atom_site_fract_x
_atom_site_fract_y
_atom_site_fract_z
Si Si1 0.240059 0.765587 0.177448
Si Si2 0.447508 0.535870 0.698838
Si Si3 0.894926 0.533139 0.807612
Si Si4 0.108824 0.091304 0.283859
Si Si5 0.890506 0.755062 0.180305
Si Si6 0.603956 0.583633 0.066415
Si Si7 0.675633 0.894976 0.703519
O O1 0.469322 0.933953 0.535259
O O2 0.110241 0.861549 0.087704
O O3 0.286594 0.573702 0.009064
O O4 0.107469 0.688744 0.085573
O O5 0.272963 0.546866 0.488603
O O6 0.397462 0.291524 0.452056
O O7 0.674659 0.662713 0.967723
O O8 0.461686 0.603179 0.877234
O O9 0.950831 0.348597 0.736382
O O10 0.834729 0.662690 0.948384
O O11 0.219718 0.204598 0.569008
O O12 0.236868 0.174242 0.374793
O O13 0.875176 0.078951 0.069894
O O14 0.000000 0.000000 0.500000
O O15 0.500000 0.500000 0.000000
#
# Coordination Sequence:
#
# PCOD9008398 Si02
#       7
#     2   2   2   2   2   2   2
#     4  11  22  41  67  93 135 178 216 266 336 380
#     4  11  22  45  67  99 138 175 217 275 335 388
#     4  11  24  46  71  97 133 173 219 280 342 394
#     4  11  22  41  63  94 134 178 222 260 318 392
#     4  11  26  47  73  97 129 170 224 285 340 400
#     4  11  23  42  64  97 141 176 223 271 312 388
#     4  10  21  39  64  95 132 175 218 267 323 386
#
# _framework density 21.081330000000001
#
# number of rings (size 3 to 8) (size 9 to 14) (size 15 to 20)
#    0.000    1.143    7.143    0.857    2.000    0.571 
#    2.571    5.000    0.000    0.000    0.000    0.000 
#    0.000    0.000    0.000    0.000    0.000    0.000 
#
# Total GULP energy -78042.514855 kJ/mol
# GULP energy per Si atom -5574.465347 kJ/mol
# Density = 2.103335 g / cm^3
# Si number density = 21.081330 Si / 1000 Ang^3
#
#
#
# Elastic Constant Matrix: (Units=GPa)
#
#
# Indices 1 2 3 4 5 6 
#
# 1 99.4460 25.9115 44.6910 -4.1700 10.4954 16.2244
# 2 25.9115 72.1035 32.5895 -5.9741 -13.6157 7.9084
# 3 44.6910 32.5895 113.4434 -17.5576 -10.1694 8.1208
# 4 -4.1700 -5.9741 -17.5576 36.3789 15.3499 -1.4353
# 5 10.4954 -13.6157 -10.1694 15.3499 40.6293 -6.4480
# 6 16.2244 7.9084 8.1208 -1.4353 -6.4480 25.6732
#
#
#
# Elastic Compliance Matrix: (Units=1/GPa)
#
#
# Indices 1 2 3 4 5 6 
#
# 1 0.015864 -0.003970 -0.004899 0.002223 -0.008984 -0.009385
# 2 -0.003970 0.017949 -0.003258 -0.002018 0.006930 -0.000362
# 3 -0.004899 -0.003258 0.012428 0.004154 0.001852 0.000866
# 4 0.002223 -0.002018 0.004154 0.035221 -0.014100 -0.003669
# 5 -0.008984 0.006930 0.001852 -0.014100 0.036860 0.011426
# 6 -0.009385 -0.000362 0.000866 -0.003669 0.011426 0.047384
#
#
# Mechanical properties :
#
#
# Convention : Reuss Voigt Hill
#
# Bulk Modulus (GPa) = 45.47819 54.59744 50.03781
# Shear Modulus (GPa) = 25.34367 32.65635 29.00001
#
# Velocity S-wave (km/s) = 3.47102 3.94009 3.71297
# Velocity P-wave (km/s) = 6.13869 6.83035 6.49374
#
# Compressibility (1/GPa) = 0.02198856
#
# Stress axis : x y z
#
# Youngs Moduli (GPa) = 63.03572 55.71310 80.46566
#
# Poissons Ratio (x) = 0.22117 0.39418
# Poissons Ratio (y) = 0.25024 0.26213
# Poissons Ratio (z) = 0.30880 0.18149
#
# Static dielectric constant tensor:
#      x y z
#    x 1.779920 0.031680 -0.004910 
#    y 0.031680 1.753600 -0.011250 
#    z -0.004910 -0.011250 1.864380 
# 
# From -- ./inp_files/534652.got.cif
#   From: 2010.05.17/outbox.cif.g08.bks.cpg/sg2_268_cif.got.tgz:534652.got - 2010.06.03 11:33:40.
