data_PCOD9008163
_publ_section_title
;
Structure prediction by ZEFSAII (Michael W. Deem and Ramdas Pophale) SiO2 
 PCOD9008163
Probable space group: P -1
;
_chemical_formula_sum "Si O2"
_cell_formula_units_Z 16
_cell_length_a 8.035241
_cell_length_b 18.170673
_cell_length_c 9.302384
_cell_angle_alpha 44.687109
_cell_angle_beta 116.036982
_cell_angle_gamma 92.036250
_cell_volume 771.639754
_symmetry_space_group_name_H-M "P -1"
_symmetry_group_IT_number 2
_symmetry_cell_setting 'triclinic'
loop_
_space_group_symop_operation_xyz
x,y,z
-x,-y,-z
loop_
_atom_site_type_symbol
_atom_site_label
_atom_site_fract_x
_atom_site_fract_y
_atom_site_fract_z
Si Si1 0.508861 0.311587 0.375191
Si Si2 0.072753 0.494770 0.874565
Si Si3 0.536597 0.316398 0.708117
Si Si4 0.926296 0.331307 0.556233
Si Si5 0.115664 0.861277 0.742755
Si Si6 0.803335 0.856703 0.850908
Si Si7 0.790936 0.472613 0.572096
Si Si8 0.622779 0.133165 0.418993
O O1 0.460802 0.307799 0.531715
O O2 0.715026 0.328693 0.437729
O O3 0.569365 0.196285 0.464342
O O4 0.318382 0.416243 0.080407
O O5 0.000673 0.627978 0.613439
O O6 0.959334 0.439106 0.807146
O O7 0.000000 0.500000 0.000000
O O8 0.664165 0.394849 0.642889
O O9 0.356310 0.392079 0.644184
O O10 0.693479 0.192016 0.999946
O O11 0.879505 0.440980 0.491232
O O12 0.067467 0.221209 0.858237
O O13 0.232884 0.826004 0.681461
O O14 0.945102 0.827590 0.799748
O O15 0.000000 0.000000 0.500000
O O16 0.597334 0.839787 0.774617
O O17 0.736656 0.992896 0.668223
#
# Coordination Sequence:
#
# PCOD9008163 Si02
#       8
#     2   2   2   2   2   2   2   2
#     4  11  23  42  60  93 129 164 204 269 319 378
#     4  12  25  39  61  94 129 162 212 265 319 371
#     4  10  21  39  64  91 128 163 212 257 318 380
#     4  11  24  42  63  86 130 169 211 255 321 386
#     4  10  21  41  68  93 124 168 214 262 313 379
#     4  10  21  46  66  95 126 167 219 262 309 392
#     4  10  21  39  64  88 121 174 207 256 313 385
#     4  10  24  39  72  95 125 166 217 264 320 372
#
# _framework density 20.735064999999999
#
# number of rings (size 3 to 8) (size 9 to 14) (size 15 to 20)
#    0.000    1.500    3.750    1.500    3.500    1.500 
#    0.000    0.000    0.000    3.000    0.000    0.000 
#    0.000    0.000    0.000    0.000    0.000    0.000 
#
# Total GULP energy -89196.545278 kJ/mol
# GULP energy per Si atom -5574.784080 kJ/mol
# Density = 2.068787 g / cm^3
# Si number density = 20.735065 Si / 1000 Ang^3
#
#
#
# Elastic Constant Matrix: (Units=GPa)
#
#
# Indices 1 2 3 4 5 6 
#
# 1 96.6430 28.1240 47.8205 -1.4422 1.0079 -7.8425
# 2 28.1240 93.7591 39.8546 10.8553 9.8738 1.0975
# 3 47.8205 39.8546 129.5837 -0.7324 9.0116 -6.7429
# 4 -1.4422 10.8553 -0.7324 25.9665 -1.1435 3.3155
# 5 1.0079 9.8738 9.0116 -1.1435 38.3985 7.3950
# 6 -7.8425 1.0975 -6.7429 3.3155 7.3950 21.9273
#
#
#
# Elastic Compliance Matrix: (Units=1/GPa)
#
#
# Indices 1 2 3 4 5 6 
#
# 1 0.013353 -0.002561 -0.004010 0.001313 0.000662 0.003249
# 2 -0.002561 0.013780 -0.003173 -0.006020 -0.002769 -0.000737
# 3 -0.004010 -0.003173 0.010443 0.000999 -0.001972 0.002450
# 4 0.001313 -0.006020 0.000999 0.042136 0.003800 -0.006575
# 5 0.000662 -0.002769 -0.001972 0.003800 0.029376 -0.010713
# 6 0.003249 -0.000737 0.002450 -0.006575 -0.010713 0.052164
#
#
# Mechanical properties :
#
#
# Convention : Reuss Voigt Hill
#
# Bulk Modulus (GPa) = 55.28294 61.28712 58.28503
# Shear Modulus (GPa) = 26.77116 30.87091 28.82104
#
# Velocity S-wave (km/s) = 3.59709 3.86272 3.73227
# Velocity P-wave (km/s) = 6.63111 7.03673 6.83692
#
# Compressibility (1/GPa) = 0.01808876
#
# Stress axis : x y z
#
# Youngs Moduli (GPa) = 74.88982 72.57059 95.75967
#
# Poissons Ratio (x) = 0.18584 0.38396
# Poissons Ratio (y) = 0.19178 0.30383
# Poissons Ratio (z) = 0.30028 0.23026
#
# Static dielectric constant tensor:
#      x y z
#    x 1.877260 -0.034410 -0.011810 
#    y -0.034410 1.749200 0.000540 
#    z -0.011810 0.000540 1.752520 
# 
# From -- ./inp_files/214533.got.cif
#   From: 2010.05.17/outbox.cif.g08.bks.cpg/sg2_108_cif.got.tgz:214533.got - 2010.06.03 11:33:40.
