data_PCOD9008807
_publ_section_title
;
Structure prediction by ZEFSAII (Michael W. Deem and Ramdas Pophale) SiO2 
 PCOD9008807
Probable space group: P -1
;
_chemical_formula_sum "Si O2"
_cell_formula_units_Z 16
_cell_length_a 8.309741
_cell_length_b 15.191268
_cell_length_c 15.481538
_cell_angle_alpha 27.822809
_cell_angle_beta 127.951507
_cell_angle_gamma 128.130861
_cell_volume 704.750634
_symmetry_space_group_name_H-M "P -1"
_symmetry_group_IT_number 2
_symmetry_cell_setting 'triclinic'
loop_
_space_group_symop_operation_xyz
x,y,z
-x,-y,-z
loop_
_atom_site_type_symbol
_atom_site_label
_atom_site_fract_x
_atom_site_fract_y
_atom_site_fract_z
Si Si1 0.416381 0.065664 0.505416
Si Si2 0.037339 0.270129 0.970181
Si Si3 0.683650 0.530325 0.419252
Si Si4 0.555294 0.118847 0.147269
Si Si5 0.686204 0.977508 0.015837
Si Si6 0.389815 0.499263 0.766928
Si Si7 0.200978 0.429297 0.391080
Si Si8 0.990152 0.004892 0.340935
O O1 0.489377 0.293619 0.343853
O O2 0.165982 0.014827 0.462191
O O3 0.500000 0.000000 0.500000
O O4 0.493177 0.957935 0.705618
O O5 0.894207 0.121011 0.987860
O O6 0.895899 0.418489 0.827094
O O7 0.227783 0.399032 0.871723
O O8 0.090605 0.144809 0.175425
O O9 0.724663 0.470622 0.387647
O O10 0.440383 0.441004 0.434635
O O11 0.801346 0.497389 0.574082
O O12 0.713561 0.760518 0.225198
O O13 0.781178 0.076527 0.236177
O O14 0.393421 0.003645 0.123822
O O15 0.534891 0.341274 0.937793
O O16 0.500000 0.000000 0.000000
O O17 0.077894 0.213575 0.525410
#
# Coordination Sequence:
#
# PCOD9008807 Si02
#       8
#     2   2   2   2   2   2   2   2
#     4  12  28  50  70  95 140 186 233 287 335 401
#     4  12  24  40  68 103 139 184 215 278 345 412
#     4  10  21  39  65  98 141 173 219 284 334 408
#     4  11  25  45  73 102 134 181 230 289 334 402
#     4  11  19  42  69 104 143 174 222 278 346 408
#     4  11  27  45  65 103 138 180 228 279 349 405
#     4  11  22  39  69 102 133 179 225 277 340 402
#     4  12  25  45  72 102 135 181 237 274 337 404
#
# _framework density 22.703066
#
# number of rings (size 3 to 8) (size 9 to 14) (size 15 to 20)
#    0.000    0.750    3.750    3.375    3.500    6.000 
#    2.250    0.000    0.000    0.000    0.000    0.000 
#    0.000    0.000    0.000    0.000    0.000    0.000 
#
# Total GULP energy -89571.853818 kJ/mol
# GULP energy per Si atom -5598.240864 kJ/mol
# Density = 2.265139 g / cm^3
# Si number density = 22.703066 Si / 1000 Ang^3
#
#
#
# Elastic Constant Matrix: (Units=GPa)
#
#
# Indices 1 2 3 4 5 6 
#
# 1 42.2675 9.7336 -2.5510 7.3314 -10.6062 -9.3477
# 2 9.7336 87.8778 38.9958 -11.5834 -6.7779 -10.2954
# 3 -2.5510 38.9958 103.9980 6.2537 -15.2191 -9.0820
# 4 7.3314 -11.5834 6.2537 37.6806 -7.4605 -5.1636
# 5 -10.6062 -6.7779 -15.2191 -7.4605 38.9108 3.1743
# 6 -9.3477 -10.2954 -9.0820 -5.1636 3.1743 32.1828
#
#
#
# Elastic Compliance Matrix: (Units=1/GPa)
#
#
# Indices 1 2 3 4 5 6 
#
# 1 0.029235 -0.004570 0.004412 -0.005464 0.007306 0.006677
# 2 -0.004570 0.016016 -0.006244 0.007335 0.000248 0.003186
# 3 0.004412 -0.006244 0.013101 -0.003826 0.004347 0.001938
# 4 -0.005464 0.007335 -0.003826 0.031896 0.004049 0.004398
# 5 0.007306 0.000248 0.004347 0.004049 0.030121 0.001107
# 6 0.006677 0.003186 0.001938 0.004398 0.001107 0.035175
#
#
# Mechanical properties :
#
#
# Convention : Reuss Voigt Hill
#
# Bulk Modulus (GPa) = 21.95562 36.27779 29.11671
# Shear Modulus (GPa) = 27.24350 34.28584 30.76467
#
# Velocity S-wave (km/s) = 3.46785 3.89033 3.68515
# Velocity P-wave (km/s) = 5.07212 6.01610 5.56416
#
# Compressibility (1/GPa) = 0.04554643
#
# Stress axis : x y z
#
# Youngs Moduli (GPa) = 34.20519 62.43898 76.33269
#
# Poissons Ratio (x) = 0.28536 -0.33675
# Poissons Ratio (y) = 0.15633 0.47661
# Poissons Ratio (z) = -0.15090 0.38986
#
# Static dielectric constant tensor:
#      x y z
#    x 1.885020 -0.020750 0.012740 
#    y -0.020750 1.802650 0.043820 
#    z 0.012740 0.043820 1.873660 
# 
# From -- ./inp_files/499994.got.cif
#   From: 2010.05.17/outbox.cif.g08.bks.cpg/sg2_250_cif.got.tgz:499994.got - 2010.06.03 11:33:40.
