data_PCOD9008594
_publ_section_title
;
Structure prediction by ZEFSAII (Michael W. Deem and Ramdas Pophale) SiO2 
 PCOD9008594
Probable space group: P -1
;
_chemical_formula_sum "Si O2"
_cell_formula_units_Z 13
_cell_length_a 10.016787
_cell_length_b 8.351671
_cell_length_c 12.118791
_cell_angle_alpha 100.240597
_cell_angle_beta 39.974981
_cell_angle_gamma 124.065177
_cell_volume 475.536982
_symmetry_space_group_name_H-M "P -1"
_symmetry_group_IT_number 2
_symmetry_cell_setting 'triclinic'
loop_
_space_group_symop_operation_xyz
x,y,z
-x,-y,-z
loop_
_atom_site_type_symbol
_atom_site_label
_atom_site_fract_x
_atom_site_fract_y
_atom_site_fract_z
Si Si1 0.500000 0.000000 0.000000
Si Si2 0.029469 0.279276 0.542904
Si Si3 0.559318 0.418265 0.325992
Si Si4 0.721581 0.306631 0.430200
Si Si5 0.748945 0.746582 0.829803
Si Si6 0.244410 0.624265 0.029047
Si Si7 0.835375 0.918941 0.207117
O O1 0.792273 0.204411 0.914269
O O2 0.710035 0.125517 0.763123
O O3 0.229640 0.261773 0.486054
O O4 0.172713 0.526538 0.513659
O O5 0.097355 0.254775 0.372495
O O6 0.633377 0.352159 0.377151
O O7 0.688489 0.665973 0.281885
O O8 0.700052 0.412368 0.129300
O O9 0.422942 0.086095 0.633074
O O10 0.020383 0.400026 0.208691
O O11 0.500000 0.500000 0.000000
O O12 0.544914 0.792569 0.927424
O O13 0.959561 0.924146 0.806642
O O14 0.000000 0.000000 0.000000
#
# Coordination Sequence:
#
# PCOD9008594 Si02
#       7
#     1   2   2   2   2   2   2
#     4  10  22  36  60  98 130 154 210 256 324 354
#     4   9  20  38  61  89 132 162 210 256 309 380
#     4  10  21  39  65  91 130 171 209 257 320 378
#     4  10  21  40  61  94 130 163 210 262 318 370
#     4  11  24  43  67  91 124 173 217 254 319 384
#     4  10  23  39  65  92 135 158 211 264 312 375
#     4  11  23  41  66  90 124 173 218 255 317 384
#
# _framework density 27.337516999999998
#
# number of rings (size 3 to 8) (size 9 to 14) (size 15 to 20)
#    0.000    1.846    0.000    5.077    8.615    1.231 
#    0.000   10.000    0.000    0.000    0.000    0.000 
#    0.000    0.000    0.000    0.000    0.000    0.000 
#
# Total GULP energy -72536.424367 kJ/mol
# GULP energy per Si atom -5579.724951 kJ/mol
# Density = 2.727530 g / cm^3
# Si number density = 27.337517 Si / 1000 Ang^3
#
#
#
# Elastic Constant Matrix: (Units=GPa)
#
#
# Indices 1 2 3 4 5 6 
#
# 1 55.4402 49.7754 36.5041 6.4777 3.8030 13.1826
# 2 49.7754 159.5535 81.9317 18.4632 21.5825 30.8409
# 3 36.5041 81.9317 248.6210 30.4719 5.5488 33.0711
# 4 6.4777 18.4632 30.4719 74.8063 7.0168 5.6766
# 5 3.8030 21.5825 5.5488 7.0168 29.3937 3.4100
# 6 13.1826 30.8409 33.0711 5.6766 3.4100 49.6680
#
#
#
# Elastic Compliance Matrix: (Units=1/GPa)
#
#
# Indices 1 2 3 4 5 6 
#
# 1 0.025703 -0.007460 -0.001157 -0.000033 0.002563 -0.001592
# 2 -0.007460 0.011116 -0.001952 -0.000469 -0.006353 -0.003133
# 3 -0.001157 -0.001952 0.005246 -0.001522 0.001174 -0.001880
# 4 -0.000033 -0.000469 -0.001522 0.014378 -0.002780 -0.000139
# 5 0.002563 -0.006353 0.001174 -0.002780 0.038780 0.000138
# 6 -0.001592 -0.003133 -0.001880 -0.000139 0.000138 0.023760
#
#
# Mechanical properties :
#
#
# Convention : Reuss Voigt Hill
#
# Bulk Modulus (GPa) = 47.78276 88.89303 68.33789
# Shear Modulus (GPa) = 33.99124 50.46715 42.22920
#
# Velocity S-wave (km/s) = 3.53000 4.30126 3.93457
# Velocity P-wave (km/s) = 5.84220 7.56672 6.75968
#
# Compressibility (1/GPa) = 0.02092805
#
# Stress axis : x y z
#
# Youngs Moduli (GPa) = 38.90567 89.95840 190.62686
#
# Poissons Ratio (x) = 0.67105 0.22057
# Poissons Ratio (y) = 0.29022 0.37211
# Poissons Ratio (z) = 0.04502 0.17560
#
# Static dielectric constant tensor:
#      x y z
#    x 2.450950 -0.215060 -0.195120 
#    y -0.215060 2.301960 0.076180 
#    z -0.195120 0.076180 2.265650 
# 
# From -- ./inp_files/150178.got.cif
#   From: 2010.05.17/outbox.cif.g08.bks.cpg/sg2_76_cif.got.tgz:150178.got - 2010.06.03 11:33:40.
