data_PCOD9008342
_publ_section_title
;
Structure prediction by ZEFSAII (Michael W. Deem and Ramdas Pophale) SiO2 
 PCOD9008342
Probable space group: P -1
;
_chemical_formula_sum "Si O2"
_cell_formula_units_Z 16
_cell_length_a 11.702133
_cell_length_b 10.962995
_cell_length_c 9.344549
_cell_angle_alpha 124.178978
_cell_angle_beta 112.359150
_cell_angle_gamma 50.854592
_cell_volume 768.539088
_symmetry_space_group_name_H-M "P -1"
_symmetry_group_IT_number 2
_symmetry_cell_setting 'triclinic'
loop_
_space_group_symop_operation_xyz
x,y,z
-x,-y,-z
loop_
_atom_site_type_symbol
_atom_site_label
_atom_site_fract_x
_atom_site_fract_y
_atom_site_fract_z
Si Si1 0.998061 0.731507 0.158026
Si Si2 0.879297 0.942564 0.693941
Si Si3 0.211314 0.334496 0.497458
Si Si4 0.449015 0.372691 0.760846
Si Si5 0.979942 0.518344 0.753612
Si Si6 0.276579 0.726777 0.351815
Si Si7 0.311599 0.764744 0.992753
Si Si8 0.814550 0.146333 0.302389
O O1 0.168680 0.670893 0.203469
O O2 0.975516 0.647270 0.233161
O O3 0.964235 0.661707 0.952744
O O4 0.900351 0.941706 0.251772
O O5 0.815470 0.823200 0.613301
O O6 0.053945 0.833123 0.678367
O O7 0.798723 0.071824 0.606561
O O8 0.831662 0.080350 0.892182
O O9 0.369497 0.290981 0.590448
O O10 0.101928 0.467233 0.656246
O O11 0.163853 0.414888 0.368791
O O12 0.563375 0.377202 0.709991
O O13 0.548577 0.262959 0.871792
O O14 0.334400 0.573855 0.885450
O O15 0.266309 0.732968 0.520875
O O16 0.295218 0.814913 0.853448
#
# Coordination Sequence:
#
# PCOD9008342 Si02
#       8
#     2   2   2   2   2   2   2   2
#     4  10  21  41  60  94 121 156 198 259 304 355
#     4  10  21  39  64  94 119 154 203 259 306 342
#     4  11  23  38  63  90 122 161 200 251 296 364
#     4  10  25  41  58  89 127 166 200 243 300 363
#     4  10  23  37  63  90 126 154 200 249 315 349
#     4  10  22  39  63  87 126 162 203 242 302 363
#     4  10  23  39  61  90 121 162 205 244 300 356
#     4  11  21  37  68  91 121 154 209 254 300 353
#
# _framework density 20.818721
#
# number of rings (size 3 to 8) (size 9 to 14) (size 15 to 20)
#    0.000    1.750    0.000    4.125   12.250    2.500 
#    0.000    0.000    0.000    3.000    0.000    0.000 
#    0.000    0.000    0.000    0.000    0.000    0.000 
#
# Total GULP energy -89383.729662 kJ/mol
# GULP energy per Si atom -5586.483104 kJ/mol
# Density = 2.077134 g / cm^3
# Si number density = 20.818721 Si / 1000 Ang^3
#
#
#
# Elastic Constant Matrix: (Units=GPa)
#
#
# Indices 1 2 3 4 5 6 
#
# 1 60.9730 24.3802 56.0826 -13.7433 11.2586 -5.0127
# 2 24.3802 46.3912 44.6280 -12.3578 5.2246 6.0943
# 3 56.0826 44.6280 148.9647 -27.8918 -5.5800 -0.2325
# 4 -13.7433 -12.3578 -27.8918 36.4151 2.7832 -1.3240
# 5 11.2586 5.2246 -5.5800 2.7832 31.0015 -0.5597
# 6 -5.0127 6.0943 -0.2325 -1.3240 -0.5597 21.0160
#
#
#
# Elastic Compliance Matrix: (Units=1/GPa)
#
#
# Indices 1 2 3 4 5 6 
#
# 1 0.031837 -0.005951 -0.009976 0.003643 -0.012517 0.009105
# 2 -0.005951 0.035502 -0.007930 0.003745 -0.005797 -0.011721
# 3 -0.009976 -0.007930 0.013781 0.003572 0.007128 0.000487
# 4 0.003643 0.003745 0.003572 0.033235 -0.004262 0.001803
# 5 -0.012517 -0.005797 0.007128 -0.004262 0.039437 -0.000444
# 6 0.009105 -0.011721 0.000487 0.001803 -0.000444 0.053261
#
#
# Mechanical properties :
#
#
# Convention : Reuss Voigt Hill
#
# Bulk Modulus (GPa) = 29.93386 56.27895 43.10641
# Shear Modulus (GPa) = 18.80410 26.43571 22.61990
#
# Velocity S-wave (km/s) = 3.00864 3.56730 3.29981
# Velocity P-wave (km/s) = 5.14575 6.63770 5.93876
#
# Compressibility (1/GPa) = 0.03340698
#
# Stress axis : x y z
#
# Youngs Moduli (GPa) = 31.41026 28.16766 72.56356
#
# Poissons Ratio (x) = 0.16762 0.72388
# Poissons Ratio (y) = 0.18691 0.57541
# Poissons Ratio (z) = 0.31334 0.22336
#
# Static dielectric constant tensor:
#      x y z
#    x 1.750650 -0.002690 -0.007140 
#    y -0.002690 1.774750 -0.004430 
#    z -0.007140 -0.004430 1.760560 
# 
# From -- ./inp_files/263562.got.cif
#   From: 2010.05.17/outbox.cif.g08.bks.cpg/sg2_132_cif.got.tgz:263562.got - 2010.06.03 11:33:40.
