data_PCOD9008987
_publ_section_title
;
Structure prediction by ZEFSAII (Michael W. Deem and Ramdas Pophale) SiO2 
 PCOD9008987
Probable space group: P -1
;
_chemical_formula_sum "Si O2"
_cell_formula_units_Z 16
_cell_length_a 7.761971
_cell_length_b 14.516979
_cell_length_c 18.986916
_cell_angle_alpha 154.523552
_cell_angle_beta 135.498129
_cell_angle_gamma 44.198420
_cell_volume 625.820878
_symmetry_space_group_name_H-M "P -1"
_symmetry_group_IT_number 2
_symmetry_cell_setting 'triclinic'
loop_
_space_group_symop_operation_xyz
x,y,z
-x,-y,-z
loop_
_atom_site_type_symbol
_atom_site_label
_atom_site_fract_x
_atom_site_fract_y
_atom_site_fract_z
Si Si1 0.951270 0.328644 0.653786
Si Si2 0.080944 0.766280 0.564566
Si Si3 0.641375 0.712545 0.048083
Si Si4 0.882962 0.244390 0.856389
Si Si5 0.664123 0.007331 0.395959
Si Si6 0.120325 0.772217 0.996755
Si Si7 0.681360 0.163286 0.169965
Si Si8 0.231549 0.423075 0.568934
O O1 0.791954 0.295115 0.515099
O O2 0.971678 0.577811 0.824282
O O3 0.824143 0.197554 0.583389
O O4 0.239562 0.176635 0.642388
O O5 0.913619 0.592672 0.411992
O O6 0.256028 0.784813 0.694931
O O7 0.892150 0.005344 0.664297
O O8 0.817038 0.750496 0.060459
O O9 0.699649 0.863416 0.234545
O O10 0.338825 0.756064 0.991873
O O11 0.737703 0.455955 0.918438
O O12 0.775192 0.253303 0.909834
O O13 0.388124 0.174259 0.429222
O O14 0.936172 0.013565 0.106899
O O15 0.608673 0.395054 0.268130
O O16 0.500000 0.000000 0.000000
O O17 0.000000 0.500000 0.500000
#
# Coordination Sequence:
#
# PCOD9008987 Si02
#       8
#     2   2   2   2   2   2   2   2
#     4  11  24  41  62 109 134 176 218 284 367 400
#     4  10  22  43  66  97 135 171 227 283 340 420
#     4  11  21  38  67  99 134 187 224 277 339 423
#     4  10  21  39  66  95 139 180 226 270 351 412
#     4  11  22  40  67  97 146 176 224 284 347 423
#     4  11  23  42  69  94 140 177 229 290 341 408
#     4  10  22  46  75  97 131 187 233 286 346 407
#     4  10  22  43  69  96 131 187 230 279 348 399
#
# _framework density 25.566420000000001
#
# number of rings (size 3 to 8) (size 9 to 14) (size 15 to 20)
#    0.000    1.500    2.500    3.375    1.750    0.500 
#    6.750    6.250    2.750    0.000    0.000    0.000 
#    0.000    0.000    0.000    0.000    0.000    0.000 
#
# Total GULP energy -89258.489950 kJ/mol
# GULP energy per Si atom -5578.655622 kJ/mol
# Density = 2.550823 g / cm^3
# Si number density = 25.566420 Si / 1000 Ang^3
#
#
#
# Elastic Constant Matrix: (Units=GPa)
#
#
# Indices 1 2 3 4 5 6 
#
# 1 66.8325 13.9082 8.6053 -0.5334 11.6728 -2.4022
# 2 13.9082 64.3190 26.2624 17.8880 -2.6848 -3.8748
# 3 8.6053 26.2624 130.2500 0.5243 27.9599 17.7218
# 4 -0.5334 17.8880 0.5243 44.0597 9.5599 10.5163
# 5 11.6728 -2.6848 27.9599 9.5599 36.4960 -0.4292
# 6 -2.4022 -3.8748 17.7218 10.5163 -0.4292 31.5847
#
#
#
# Elastic Compliance Matrix: (Units=1/GPa)
#
#
# Indices 1 2 3 4 5 6 
#
# 1 0.017829 -0.007410 0.002936 0.006207 -0.010163 -0.003405
# 2 -0.007410 0.029103 -0.011530 -0.019715 0.018700 0.016295
# 3 0.002936 -0.011530 0.015190 0.011412 -0.016575 -0.013739
# 4 0.006207 -0.019715 0.011412 0.040995 -0.023179 -0.022314
# 5 -0.010163 0.018700 -0.016575 -0.023179 0.051023 0.019232
# 6 -0.003405 0.016295 -0.013739 -0.022314 0.019232 0.048801
#
#
# Mechanical properties :
#
#
# Convention : Reuss Voigt Hill
#
# Bulk Modulus (GPa) = 33.20770 39.88371 36.54571
# Shear Modulus (GPa) = 20.40928 36.60312 28.50620
#
# Velocity S-wave (km/s) = 2.82846 3.78787 3.34276
# Velocity P-wave (km/s) = 4.86661 5.89614 5.40594
#
# Compressibility (1/GPa) = 0.03011350
#
# Stress axis : x y z
#
# Youngs Moduli (GPa) = 56.08880 34.36067 65.83299
#
# Poissons Ratio (x) = 0.25460 -0.19328
# Poissons Ratio (y) = 0.41560 0.75909
# Poissons Ratio (z) = -0.16467 0.39619
#
# Static dielectric constant tensor:
#      x y z
#    x 2.116190 -0.095430 0.051230 
#    y -0.095430 2.053360 -0.094550 
#    z 0.051230 -0.094550 2.066470 
# 
# From -- ./inp_files/347198.got.cif
#   From: 2010.05.17/outbox.cif.g08.bks.cpg/sg2_174_cif.got.tgz:347198.got - 2010.06.03 11:33:40.
