data_PCOD9008286
_publ_section_title
;
Structure prediction by ZEFSAII (Michael W. Deem and Ramdas Pophale) SiO2 
 PCOD9008286
Probable space group: P -1
;
_chemical_formula_sum "Si O2"
_cell_formula_units_Z 15
_cell_length_a 9.426819
_cell_length_b 13.262458
_cell_length_c 5.538158
_cell_angle_alpha 71.397653
_cell_angle_beta 66.492638
_cell_angle_gamma 96.340027
_cell_volume 578.823773
_symmetry_space_group_name_H-M "P -1"
_symmetry_group_IT_number 2
_symmetry_cell_setting 'triclinic'
loop_
_space_group_symop_operation_xyz
x,y,z
-x,-y,-z
loop_
_atom_site_type_symbol
_atom_site_label
_atom_site_fract_x
_atom_site_fract_y
_atom_site_fract_z
Si Si1 0.431298 0.034494 0.774325
Si Si2 0.613316 0.596777 0.602989
Si Si3 0.881051 0.753825 0.609738
Si Si4 0.000000 0.000000 0.500000
Si Si5 0.131451 0.689926 0.805527
Si Si6 0.109062 0.891328 0.949386
Si Si7 0.535694 0.276211 0.708279
Si Si8 0.688828 0.402931 0.902531
O O1 0.459098 0.163974 0.700786
O O2 0.500000 0.000000 0.500000
O O3 0.246016 0.965974 0.965693
O O4 0.500000 0.000000 0.000000
O O5 0.718845 0.683708 0.653373
O O6 0.587305 0.651154 0.325482
O O7 0.696100 0.497253 0.625988
O O8 0.429804 0.564100 0.848876
O O9 0.886055 0.866572 0.661775
O O10 0.969641 0.681227 0.771433
O O11 0.992071 0.802209 0.265620
O O12 0.053826 0.974866 0.750405
O O13 0.176639 0.815359 0.778214
O O14 0.281141 0.685522 0.543124
O O15 0.149652 0.611197 0.076209
O O16 0.581789 0.286284 0.951771
#
# Coordination Sequence:
#
# PCOD9008286 Si02
#       8
#     2   2   2   1   2   2   2   2
#     4  12  25  40  68 105 137 180 228 281 342 414
#     4  10  24  42  64  96 129 169 231 273 352 403
#     4  11  23  41  63  93 131 174 214 278 336 415
#     4  10  24  40  64  90 134 170 224 260 344 410
#     4  10  21  39  64  92 127 167 218 273 335 405
#     4  11  23  42  63  94 134 175 216 281 340 405
#     4  11  22  41  67  92 132 171 227 279 337 403
#     4  10  22  43  67  92 128 173 219 293 334 405
#
# _framework density 25.914624
#
# number of rings (size 3 to 8) (size 9 to 14) (size 15 to 20)
#    0.000    1.333    1.333    4.000    3.733    3.733 
#    0.000    2.667    0.000    0.000    0.000    0.000 
#    0.000    0.000    0.000    0.000    0.000    0.000 
#
# Total GULP energy -83551.010987 kJ/mol
# GULP energy per Si atom -5570.067399 kJ/mol
# Density = 2.585564 g / cm^3
# Si number density = 25.914624 Si / 1000 Ang^3
#
#
#
# Elastic Constant Matrix: (Units=GPa)
#
#
# Indices 1 2 3 4 5 6 
#
# 1 141.8398 12.3261 51.3665 -1.1914 50.1332 -3.3015
# 2 12.3261 94.1940 21.0090 13.7639 4.6040 -2.2484
# 3 51.3665 21.0090 70.7278 2.8298 37.9933 -15.3395
# 4 -1.1914 13.7639 2.8298 18.2656 0.3815 2.1357
# 5 50.1332 4.6040 37.9933 0.3815 56.5266 0.3146
# 6 -3.3015 -2.2484 -15.3395 2.1357 0.3146 39.5671
#
#
#
# Elastic Compliance Matrix: (Units=1/GPa)
#
#
# Indices 1 2 3 4 5 6 
#
# 1 0.011142 -0.000411 -0.004633 0.002005 -0.006742 -0.000944
# 2 -0.000411 0.012885 -0.004656 -0.008992 0.002508 -0.000642
# 3 -0.004633 -0.004656 0.029753 -0.002380 -0.015556 0.011136
# 4 0.002005 -0.008992 -0.002380 0.062563 0.000157 -0.004645
# 5 -0.006742 0.002508 -0.015556 0.000157 0.033958 -0.006729
# 6 -0.000944 -0.000642 0.011136 -0.004645 -0.006729 0.029780
#
#
# Mechanical properties :
#
#
# Convention : Reuss Voigt Hill
#
# Bulk Modulus (GPa) = 29.08648 52.90718 40.99683
# Shear Modulus (GPa) = 23.70358 37.67584 30.68971
#
# Velocity S-wave (km/s) = 3.02765 3.81707 3.44504
# Velocity P-wave (km/s) = 4.84464 6.31561 5.62839
#
# Compressibility (1/GPa) = 0.03438024
#
# Stress axis : x y z
#
# Youngs Moduli (GPa) = 89.75355 77.61219 33.61026
#
# Poissons Ratio (x) = 0.03187 0.15571
# Poissons Ratio (y) = 0.03686 0.15648
# Poissons Ratio (z) = 0.41582 0.36135
#
# Static dielectric constant tensor:
#      x y z
#    x 2.005110 -0.109670 0.014820 
#    y -0.109670 2.294750 -0.014070 
#    z 0.014820 -0.014070 2.170590 
# 
# From -- ./inp_files/37325.got.cif
#   From: 2010.05.17/outbox.cif.g08.bks.cpg/sg2_19_cif.got.tgz:37325.got - 2010.06.03 11:33:40.
