data_PCOD9008842
_publ_section_title
;
Structure prediction by ZEFSAII (Michael W. Deem and Ramdas Pophale) SiO2 
 PCOD9008842
Probable space group: P -1
;
_chemical_formula_sum "Si O2"
_cell_formula_units_Z 14
_cell_length_a 9.061803
_cell_length_b 11.764060
_cell_length_c 8.828839
_cell_angle_alpha 94.934829
_cell_angle_beta 84.139039
_cell_angle_gamma 138.185153
_cell_volume 624.162785
_symmetry_space_group_name_H-M "P -1"
_symmetry_group_IT_number 2
_symmetry_cell_setting 'triclinic'
loop_
_space_group_symop_operation_xyz
x,y,z
-x,-y,-z
loop_
_atom_site_type_symbol
_atom_site_label
_atom_site_fract_x
_atom_site_fract_y
_atom_site_fract_z
Si Si1 0.303925 0.362791 0.386504
Si Si2 0.973291 0.861455 0.075001
Si Si3 0.095132 0.426935 0.947957
Si Si4 0.962346 0.631714 0.408601
Si Si5 0.194647 0.054667 0.382692
Si Si6 0.470385 0.624552 0.154866
Si Si7 0.389021 0.744910 0.441777
O O1 0.500000 0.500000 0.500000
O O2 0.088357 0.278904 0.492827
O O3 0.308735 0.235448 0.328828
O O4 0.332446 0.454816 0.247182
O O5 0.017145 0.756302 0.996156
O O6 0.712279 0.713679 0.119046
O O7 0.102669 0.941974 0.230130
O O8 0.000000 0.000000 0.000000
O O9 0.087518 0.404356 0.766933
O O10 0.339847 0.571831 0.009540
O O11 0.000000 0.500000 0.000000
O O12 0.782992 0.443615 0.483541
O O13 0.217216 0.746455 0.423963
O O14 0.394679 0.111517 0.462415
O O15 0.000000 0.000000 0.500000
O O16 0.473978 0.737243 0.275620
#
# Coordination Sequence:
#
# PCOD9008842 Si02
#       7
#     2   2   2   2   2   2   2
#     4  11  20  39  70 100 127 183 241 283 331 422
#     4  12  28  45  66 104 143 183 226 293 366 403
#     4  12  25  44  72  97 135 188 237 278 336 426
#     4  10  21  39  67 103 132 172 242 283 335 401
#     4  12  22  41  67  98 143 175 225 293 356 404
#     4  11  22  44  67  97 134 183 243 283 330 426
#     4  10  21  39  66 102 134 175 228 291 345 404
#
# _framework density 22.430043999999999
#
# number of rings (size 3 to 8) (size 9 to 14) (size 15 to 20)
#    0.000    0.857    5.714    3.000    2.000    0.000 
#    0.000    5.000    0.000    0.000    0.000    0.000 
#    0.000    0.000    0.000    0.000    0.000    0.000 
#
# Total GULP energy -78142.448763 kJ/mol
# GULP energy per Si atom -5581.603483 kJ/mol
# Density = 2.237899 g / cm^3
# Si number density = 22.430044 Si / 1000 Ang^3
#
#
#
# Elastic Constant Matrix: (Units=GPa)
#
#
# Indices 1 2 3 4 5 6 
#
# 1 159.7630 55.3918 62.0097 27.9454 9.5018 18.9142
# 2 55.3918 77.0591 43.3662 32.1849 3.5332 -5.5259
# 3 62.0097 43.3662 100.0490 18.7581 16.8331 7.5260
# 4 27.9454 32.1849 18.7581 39.5030 8.9565 8.3004
# 5 9.5018 3.5332 16.8331 8.9565 33.3219 18.0098
# 6 18.9142 -5.5259 7.5260 8.3004 18.0098 54.1664
#
#
#
# Elastic Compliance Matrix: (Units=1/GPa)
#
#
# Indices 1 2 3 4 5 6 
#
# 1 0.010024 -0.005101 -0.003910 -0.000689 0.002030 -0.004047
# 2 -0.005101 0.028759 -0.006818 -0.018819 0.002790 0.007618
# 3 -0.003910 -0.006818 0.016133 0.002183 -0.007154 0.000472
# 4 -0.000689 -0.018819 0.002183 0.043016 -0.007118 -0.006208
# 5 0.002030 0.002790 -0.007154 -0.007118 0.041162 -0.012026
# 6 -0.004047 0.007618 0.000472 -0.006208 -0.012026 0.025536
#
#
# Mechanical properties :
#
#
# Convention : Reuss Voigt Hill
#
# Bulk Modulus (GPa) = 42.99686 73.15629 58.07658
# Shear Modulus (GPa) = 24.50490 37.13848 30.82169
#
# Velocity S-wave (km/s) = 3.30889 4.07350 3.71094
# Velocity P-wave (km/s) = 5.81457 7.40342 6.65657
#
# Compressibility (1/GPa) = 0.02325751
#
# Stress axis : x y z
#
# Youngs Moduli (GPa) = 99.75795 34.77168 61.98609
#
# Poissons Ratio (x) = 0.17737 0.24237
# Poissons Ratio (y) = 0.50885 0.42264
# Poissons Ratio (z) = 0.39005 0.23709
#
# Static dielectric constant tensor:
#      x y z
#    x 1.903740 -0.098030 -0.002230 
#    y -0.098030 1.909540 -0.029260 
#    z -0.002230 -0.029260 1.822820 
# 
# From -- ./inp_files/188491.got.cif
#   From: 2010.05.17/outbox.cif.g08.bks.cpg/sg2_95_cif.got.tgz:188491.got - 2010.06.03 11:33:40.
