data_PCOD9008691
_publ_section_title
;
Structure prediction by ZEFSAII (Michael W. Deem and Ramdas Pophale) SiO2 
 PCOD9008691
Probable space group: P -1
;
_chemical_formula_sum "Si O2"
_cell_formula_units_Z 16
_cell_length_a 14.622139
_cell_length_b 14.212259
_cell_length_c 11.510218
_cell_angle_alpha 152.065003
_cell_angle_beta 119.379848
_cell_angle_gamma 43.023367
_cell_volume 668.260837
_symmetry_space_group_name_H-M "P -1"
_symmetry_group_IT_number 2
_symmetry_cell_setting 'triclinic'
loop_
_space_group_symop_operation_xyz
x,y,z
-x,-y,-z
loop_
_atom_site_type_symbol
_atom_site_label
_atom_site_fract_x
_atom_site_fract_y
_atom_site_fract_z
Si Si1 0.940709 0.845291 0.027417
Si Si2 0.336437 0.736610 0.086823
Si Si3 0.590270 0.954094 0.165392
Si Si4 0.877870 0.788602 0.164480
Si Si5 0.832778 0.169944 0.718599
Si Si6 0.297444 0.485942 0.436873
Si Si7 0.142020 0.661710 0.757199
Si Si8 0.509428 0.845156 0.224096
O O1 0.900893 0.743122 0.991373
O O2 0.042772 0.868614 0.183481
O O3 0.786414 0.181882 0.262186
O O4 0.057429 0.630310 0.760429
O O5 0.211674 0.936897 0.329057
O O6 0.373277 0.870959 0.172713
O O7 0.500000 0.500000 0.000000
O O8 0.271409 0.628425 0.861671
O O9 0.712370 0.944604 0.270550
O O10 0.507304 0.968693 0.237998
O O11 0.471974 0.236714 0.318011
O O12 0.688468 0.651569 0.825115
O O13 0.884442 0.004174 0.450380
O O14 0.000000 0.500000 0.000000
O O15 0.676869 0.510119 0.970710
O O16 0.208762 0.492559 0.492410
O O17 0.000000 0.000000 0.000000
O O18 0.500000 0.000000 0.500000
#
# Coordination Sequence:
#
# PCOD9008691 Si02
#       8
#     2   2   2   2   2   2   2   2
#     4  10  21  41  68  91 128 178 220 270 336 399
#     4   9  20  36  64  96 125 167 221 275 333 397
#     4  11  25  41  62  96 140 171 222 280 328 399
#     4  12  24  40  66  99 134 172 224 274 336 406
#     4  10  21  39  65  94 130 170 216 272 340 394
#     4  10  23  45  63  89 135 180 222 273 327 396
#     4   9  20  41  67  92 127 176 229 276 328 404
#     4  11  23  39  65 102 135 172 217 283 346 397
#
# _framework density 23.942746
#
# number of rings (size 3 to 8) (size 9 to 14) (size 15 to 20)
#    0.000    1.750    0.000    3.375    8.750    0.500 
#    9.000    0.625    0.000    0.000    0.000    0.000 
#    0.000    0.000    0.000    0.000    0.000    0.000 
#
# Total GULP energy -89335.376966 kJ/mol
# GULP energy per Si atom -5583.461060 kJ/mol
# Density = 2.388825 g / cm^3
# Si number density = 23.942746 Si / 1000 Ang^3
#
#
#
# Elastic Constant Matrix: (Units=GPa)
#
#
# Indices 1 2 3 4 5 6 
#
# 1 129.9428 19.6423 13.1150 -8.9670 -11.3988 21.6783
# 2 19.6423 72.9624 25.6214 6.0534 6.3061 7.1484
# 3 13.1150 25.6214 99.5868 -6.1224 -16.4926 8.5921
# 4 -8.9670 6.0534 -6.1224 46.9141 9.6474 -7.5520
# 5 -11.3988 6.3061 -16.4926 9.6474 21.5912 -10.6604
# 6 21.6783 7.1484 8.5921 -7.5520 -10.6604 43.0462
#
#
#
# Elastic Compliance Matrix: (Units=1/GPa)
#
#
# Indices 1 2 3 4 5 6 
#
# 1 0.008971 -0.002712 0.000498 0.000809 0.004056 -0.003020
# 2 -0.002712 0.018220 -0.006194 -0.001701 -0.012625 -0.003849
# 3 0.000498 -0.006194 0.013628 0.000204 0.013045 0.001324
# 4 0.000809 -0.001701 0.000204 0.023792 -0.008627 0.001872
# 5 0.004056 -0.012625 0.013045 -0.008627 0.072866 0.013982
# 6 -0.003020 -0.003849 0.001324 0.001872 0.013982 0.028918
#
#
# Mechanical properties :
#
#
# Convention : Reuss Voigt Hill
#
# Bulk Modulus (GPa) = 41.65897 46.58326 44.12111
# Shear Modulus (GPa) = 26.14919 38.58452 32.36685
#
# Velocity S-wave (km/s) = 3.30836 4.01875 3.68073
# Velocity P-wave (km/s) = 5.65958 6.40563 6.04413
#
# Compressibility (1/GPa) = 0.02400444
#
# Stress axis : x y z
#
# Youngs Moduli (GPa) = 111.47210 54.88455 73.37826
#
# Poissons Ratio (x) = 0.14884 -0.03656
# Poissons Ratio (y) = 0.30229 0.45449
# Poissons Ratio (z) = -0.05555 0.33994
#
# Static dielectric constant tensor:
#      x y z
#    x 1.981780 0.066290 0.025400 
#    y 0.066290 1.960450 -0.017450 
#    z 0.025400 -0.017450 1.920510 
# 
# From -- ./inp_files/456052.got.cif
#   From: 2010.05.17/outbox.cif.g08.bks.cpg/sg2_229_cif.got.tgz:456052.got - 2010.06.03 11:33:40.
