data_PCOD9008574
_publ_section_title
;
Structure prediction by ZEFSAII (Michael W. Deem and Ramdas Pophale) SiO2 
 PCOD9008574
Probable space group: P -1
;
_chemical_formula_sum "Si O2"
_cell_formula_units_Z 16
_cell_length_a 14.967384
_cell_length_b 8.494730
_cell_length_c 9.209358
_cell_angle_alpha 67.747617
_cell_angle_beta 133.452380
_cell_angle_gamma 80.257125
_cell_volume 604.817860
_symmetry_space_group_name_H-M "P -1"
_symmetry_group_IT_number 2
_symmetry_cell_setting 'triclinic'
loop_
_space_group_symop_operation_xyz
x,y,z
-x,-y,-z
loop_
_atom_site_type_symbol
_atom_site_label
_atom_site_fract_x
_atom_site_fract_y
_atom_site_fract_z
Si Si1 0.203062 0.679644 0.871898
Si Si2 0.571214 0.280652 0.484943
Si Si3 0.656395 0.580193 0.447852
Si Si4 0.243259 0.141005 0.001689
Si Si5 0.834940 0.587523 0.905538
Si Si6 0.910180 0.245396 0.610846
Si Si7 0.828361 0.938356 0.656839
Si Si8 0.706131 0.022460 0.168482
O O1 0.388764 0.469723 0.175157
O O2 0.102385 0.650937 0.881342
O O3 0.203684 0.884008 0.818683
O O4 0.151496 0.689382 0.646243
O O5 0.637439 0.407663 0.553785
O O6 0.672545 0.115760 0.521361
O O7 0.609931 0.115813 0.713414
O O8 0.720747 0.643525 0.624251
O O9 0.783539 0.441697 0.509633
O O10 0.484858 0.783515 0.119420
O O11 0.247282 0.279774 0.080120
O O12 0.247751 0.168278 0.825200
O O13 0.079164 0.186713 0.831867
O O14 0.915069 0.694896 0.904236
O O15 0.920375 0.035718 0.732116
O O16 0.760900 0.955401 0.417067
#
# Coordination Sequence:
#
# PCOD9008574 Si02
#       8
#     2   2   2   2   2   2   2   2
#     4  10  21  40  66  92 122 161 207 253 304 366
#     4   9  19  39  64  91 122 163 206 248 303 371
#     4  10  21  39  65  91 122 164 208 250 301 365
#     4  11  24  39  62  93 127 161 203 254 307 360
#     4  11  24  38  59  93 127 159 204 258 305 354
#     4  10  23  44  65  87 123 168 205 246 306 372
#     4   9  21  38  61  91 122 157 205 255 304 360
#     4  10  21  41  66  90 121 165 208 246 302 374
#
# _framework density 26.454246999999999
#
# number of rings (size 3 to 8) (size 9 to 14) (size 15 to 20)
#    0.000    2.000    0.000    2.250    0.000   18.500 
#    0.000    3.750    0.000    0.000    0.000    0.000 
#    0.000    0.000    0.000    0.000    0.000    0.000 
#
# Total GULP energy -89657.707407 kJ/mol
# GULP energy per Si atom -5603.606713 kJ/mol
# Density = 2.639404 g / cm^3
# Si number density = 26.454247 Si / 1000 Ang^3
#
#
#
# Elastic Constant Matrix: (Units=GPa)
#
#
# Indices 1 2 3 4 5 6 
#
# 1 112.1124 58.1932 38.3968 -4.2600 -6.4010 9.4713
# 2 58.1932 152.7623 67.4420 24.8376 -2.3488 -12.0040
# 3 38.3968 67.4420 106.7493 25.7850 7.5276 -13.5172
# 4 -4.2600 24.8376 25.7850 45.7533 -4.6473 -6.7398
# 5 -6.4010 -2.3488 7.5276 -4.6473 39.2607 -11.6400
# 6 9.4713 -12.0040 -13.5172 -6.7398 -11.6400 47.6284
#
#
#
# Elastic Compliance Matrix: (Units=1/GPa)
#
#
# Indices 1 2 3 4 5 6 
#
# 1 0.013196 -0.004461 -0.003869 0.005541 0.002240 -0.003515
# 2 -0.004461 0.010856 -0.004194 -0.003529 0.000951 0.002166
# 3 -0.003869 -0.004194 0.015663 -0.007004 -0.004070 0.002172
# 4 0.005541 -0.003529 -0.007004 0.029074 0.005948 0.001588
# 5 0.002240 0.000951 -0.004070 0.005948 0.029350 0.006653
# 6 -0.003515 0.002166 0.002172 0.001588 0.006653 0.024708
#
#
# Mechanical properties :
#
#
# Convention : Reuss Voigt Hill
#
# Bulk Modulus (GPa) = 68.18771 77.74309 72.96540
# Shear Modulus (GPa) = 32.72589 40.36795 36.54692
#
# Velocity S-wave (km/s) = 3.52102 3.91058 3.72091
# Velocity P-wave (km/s) = 6.50860 7.05987 6.78983
#
# Compressibility (1/GPa) = 0.01466540
#
# Stress axis : x y z
#
# Youngs Moduli (GPa) = 75.78127 92.11632 63.84413
#
# Poissons Ratio (x) = 0.41095 0.24704
# Poissons Ratio (y) = 0.33808 0.26777
# Poissons Ratio (z) = 0.29323 0.38635
#
# Static dielectric constant tensor:
#      x y z
#    x 2.145030 -0.006040 -0.022090 
#    y -0.006040 2.089610 -0.036250 
#    z -0.022090 -0.036250 1.984240 
# 
# From -- ./inp_files/262593.got.cif
#   From: 2010.05.17/outbox.cif.g08.bks.cpg/sg2_132_cif.got.tgz:262593.got - 2010.06.03 11:33:40.
