data_PCOD9008930
_publ_section_title
;
Structure prediction by ZEFSAII (Michael W. Deem and Ramdas Pophale) SiO2 
 PCOD9008930
Probable space group: P -1
;
_chemical_formula_sum "Si O2"
_cell_formula_units_Z 16
_cell_length_a 11.768608
_cell_length_b 19.469167
_cell_length_c 8.496594
_cell_angle_alpha 132.052865
_cell_angle_beta 47.535894
_cell_angle_gamma 150.929231
_cell_volume 680.319912
_symmetry_space_group_name_H-M "P -1"
_symmetry_group_IT_number 2
_symmetry_cell_setting 'triclinic'
loop_
_space_group_symop_operation_xyz
x,y,z
-x,-y,-z
loop_
_atom_site_type_symbol
_atom_site_label
_atom_site_fract_x
_atom_site_fract_y
_atom_site_fract_z
Si Si1 0.511736 0.131954 0.481560
Si Si2 0.751963 0.173734 0.050742
Si Si3 0.842057 0.335528 0.914836
Si Si4 0.372221 0.184360 0.001927
Si Si5 0.998552 0.901084 0.597288
Si Si6 0.894466 0.208238 0.412887
Si Si7 0.612446 0.629400 0.920854
Si Si8 0.771659 0.709428 0.220223
O O1 0.707565 0.232661 0.314344
O O2 0.642624 0.098910 0.382320
O O3 0.257912 0.028005 0.468361
O O4 0.446408 0.162779 0.742605
O O5 0.857372 0.272949 0.950293
O O6 0.958971 0.196562 0.934144
O O7 0.500000 0.000000 0.000000
O O8 0.896501 0.301401 0.656456
O O9 0.566471 0.241060 0.031197
O O10 0.000000 0.500000 0.000000
O O11 0.407291 0.305949 0.100530
O O12 0.113280 0.064983 0.148407
O O13 0.076841 0.860869 0.593689
O O14 0.806969 0.780483 0.459777
O O15 0.141072 0.313980 0.247779
O O16 0.389294 0.456835 0.859589
O O17 0.644238 0.693402 0.159778
#
# Coordination Sequence:
#
# PCOD9008930 Si02
#       8
#     2   2   2   2   2   2   2   2
#     4  11  22  42  62  98 136 174 222 280 341 399
#     4  12  23  44  70 103 131 180 234 279 330 410
#     4  11  24  43  66 101 135 177 229 282 340 398
#     4  10  25  42  60  98 138 179 214 284 346 395
#     4  11  22  40  68  95 131 183 229 271 332 419
#     4  10  21  39  66  93 129 180 225 276 323 405
#     4  10  23  42  65  94 134 172 234 275 341 402
#     4  11  22  40  67  98 125 173 233 285 323 394
#
# _framework density 23.518346000000001
#
# number of rings (size 3 to 8) (size 9 to 14) (size 15 to 20)
#    0.000    1.250    3.750    1.500    1.750    3.000 
#    4.500    3.125    0.000    0.000    0.000    0.000 
#    0.000    0.000    0.000    0.000    0.000    0.000 
#
# Total GULP energy -89101.308625 kJ/mol
# GULP energy per Si atom -5568.831789 kJ/mol
# Density = 2.346482 g / cm^3
# Si number density = 23.518346 Si / 1000 Ang^3
#
#
#
# Elastic Constant Matrix: (Units=GPa)
#
#
# Indices 1 2 3 4 5 6 
#
# 1 52.8540 -6.1831 7.0684 5.8515 3.3139 15.5829
# 2 -6.1831 57.3904 21.2923 -6.4497 -3.5711 4.7468
# 3 7.0684 21.2923 126.8400 -16.6579 0.0846 24.2114
# 4 5.8515 -6.4497 -16.6579 27.5930 7.5272 -4.2976
# 5 3.3139 -3.5711 0.0846 7.5272 39.4128 -5.5958
# 6 15.5829 4.7468 24.2114 -4.2976 -5.5958 31.5450
#
#
#
# Elastic Compliance Matrix: (Units=1/GPa)
#
#
# Indices 1 2 3 4 5 6 
#
# 1 0.024071 0.002901 -0.000002 -0.005840 -0.002573 -0.013578
# 2 0.002901 0.019174 -0.002832 0.001627 0.000939 -0.001756
# 3 -0.000002 -0.002832 0.010424 0.005122 -0.002291 -0.007282
# 4 -0.005840 0.001627 0.005122 0.043436 -0.007192 0.003351
# 5 -0.002573 0.000939 -0.002291 -0.007192 0.028029 0.006881
# 6 -0.013578 -0.001756 -0.007282 0.003351 0.006881 0.045938
#
#
# Mechanical properties :
#
#
# Convention : Reuss Voigt Hill
#
# Bulk Modulus (GPa) = 18.58672 31.27109 24.92891
# Shear Modulus (GPa) = 26.47282 34.03728 30.25505
#
# Velocity S-wave (km/s) = 3.35867 3.80842 3.59059
# Velocity P-wave (km/s) = 4.79178 5.71525 5.27377
#
# Compressibility (1/GPa) = 0.05380185
#
# Stress axis : x y z
#
# Youngs Moduli (GPa) = 41.54432 52.15305 95.93590
#
# Poissons Ratio (x) = -0.15127 0.00018
# Poissons Ratio (y) = -0.12050 0.27170
# Poissons Ratio (z) = 0.00008 0.14770
#
# Static dielectric constant tensor:
#      x y z
#    x 1.967200 -0.079430 0.111710 
#    y -0.079430 2.171550 -0.065410 
#    z 0.111710 -0.065410 1.985250 
# 
# From -- ./inp_files/282232.got.cif
#   From: 2010.05.17/outbox.cif.g08.bks.cpg/sg2_142_cif.got.tgz:282232.got - 2010.06.03 11:33:40.
