data_PCOD9008364
_publ_section_title
;
Structure prediction by ZEFSAII (Michael W. Deem and Ramdas Pophale) SiO2 
 PCOD9008364
Probable space group: P -1
;
_chemical_formula_sum "Si O2"
_cell_formula_units_Z 16
_cell_length_a 13.734721
_cell_length_b 11.162543
_cell_length_c 5.075311
_cell_angle_alpha 87.430874
_cell_angle_beta 99.973778
_cell_angle_gamma 54.299972
_cell_volume 611.905797
_symmetry_space_group_name_H-M "P -1"
_symmetry_group_IT_number 2
_symmetry_cell_setting 'triclinic'
loop_
_space_group_symop_operation_xyz
x,y,z
-x,-y,-z
loop_
_atom_site_type_symbol
_atom_site_label
_atom_site_fract_x
_atom_site_fract_y
_atom_site_fract_z
Si Si1 0.978976 0.175317 0.628387
Si Si2 0.409216 0.290232 0.116691
Si Si3 0.781500 0.946195 0.558031
Si Si4 0.965379 0.422872 0.784563
Si Si5 0.401788 0.564793 0.189384
Si Si6 0.189584 0.863766 0.792824
Si Si7 0.787185 0.710217 0.305945
Si Si8 0.567168 0.205233 0.672170
O O1 0.922855 0.317343 0.777518
O O2 0.869876 0.180261 0.447968
O O3 0.069260 0.153752 0.421630
O O4 0.072670 0.019838 0.839152
O O5 0.299998 0.288149 0.948155
O O6 0.496308 0.242507 0.908812
O O7 0.362295 0.453941 0.181517
O O8 0.488457 0.191800 0.414861
O O9 0.736816 0.086273 0.331973
O O10 0.703528 0.046334 0.763517
O O11 0.736079 0.846780 0.468026
O O12 0.107620 0.290257 0.789302
O O13 0.870392 0.552960 0.521003
O O14 0.000000 0.500000 0.000000
O O15 0.441419 0.642907 0.410455
O O16 0.500000 0.500000 0.000000
O O17 0.277408 0.723943 0.025719
#
# Coordination Sequence:
#
# PCOD9008364 Si02
#       8
#     2   2   2   2   2   2   2   2
#     4   8  18  36  65  93 128 166 218 273 323 386
#     4  11  25  43  66  98 132 171 225 267 323 393
#     4   9  19  39  62  91 131 170 214 268 329 384
#     4  10  21  40  64  91 128 167 213 267 335 389
#     4  10  21  39  64  94 131 171 212 271 328 384
#     4   9  17  37  66  92 128 167 218 267 326 385
#     4  10  23  41  62  93 129 170 217 270 330 388
#     4  11  24  43  65  96 131 175 218 270 327 387
#
# _framework density 26.147815999999999
#
# number of rings (size 3 to 8) (size 9 to 14) (size 15 to 20)
#    0.750    1.500    0.000    2.625    1.750    3.000 
#    4.500    0.625    0.000    0.000    0.000    0.000 
#    0.000    0.000    0.000    0.000    0.000    0.000 
#
# Total GULP energy -89120.790672 kJ/mol
# GULP energy per Si atom -5570.049417 kJ/mol
# Density = 2.608830 g / cm^3
# Si number density = 26.147816 Si / 1000 Ang^3
#
#
#
# Elastic Constant Matrix: (Units=GPa)
#
#
# Indices 1 2 3 4 5 6 
#
# 1 79.3509 32.2347 42.9537 5.6695 24.4924 0.1961
# 2 32.2347 83.8853 8.2995 73.3186 14.3218 19.7360
# 3 42.9537 8.2995 105.2180 41.3370 30.6123 5.1045
# 4 5.6695 73.3186 41.3370 -0.0583 4.8154 -7.7928
# 5 24.4924 14.3218 30.6123 4.8154 36.1171 13.2407
# 6 0.1961 19.7360 5.1045 -7.7928 13.2407 19.5642
#
#
#
# Elastic Compliance Matrix: (Units=1/GPa)
#
#
# Indices 1 2 3 4 5 6 
#
# 1 0.017047 0.000555 -0.001106 -0.006984 -0.011610 0.004634
# 2 0.000555 0.002775 -0.004589 0.010088 0.000245 0.002245
# 3 -0.001106 -0.004589 0.011810 0.003738 -0.012044 0.011199
# 4 -0.006984 0.010088 0.003738 -0.005388 0.004170 -0.016050
# 5 -0.011610 0.000245 -0.012044 0.004170 0.057726 -0.034395
# 6 0.004634 0.002245 0.011199 -0.016050 -0.034395 0.062765
#
#
# Mechanical properties :
#
#
# Convention : Reuss Voigt Hill
#
# Bulk Modulus (GPa) = 46.83431 48.38111 47.60771
# Shear Modulus (GPa) = 30.46350 23.45569 26.95960
#
# Velocity S-wave (km/s) = 3.41699 2.99832 3.21447
# Velocity P-wave (km/s) = 5.78947 5.52536 5.65896
#
# Compressibility (1/GPa) = 0.02135187
#
# Stress axis : x y z
#
# Youngs Moduli (GPa) = 58.66254 360.39116 84.67368
#
# Poissons Ratio (x) = -0.19999 0.09365
# Poissons Ratio (y) = -0.03255 0.38854
# Poissons Ratio (z) = 0.06488 1.65372
#
# Static dielectric constant tensor:
#      x y z
#    x 2.219120 0.057560 -0.037750 
#    y 0.057560 2.155350 0.059430 
#    z -0.037750 0.059430 2.295920 
# 
# From -- ./inp_files/109315.got.cif
#   From: 2010.05.17/outbox.cif.g08.bks.cpg/sg2_55_cif.got.tgz:109315.got - 2010.06.03 11:33:40.
