data_PCOD9008976
_publ_section_title
;
Structure prediction by ZEFSAII (Michael W. Deem and Ramdas Pophale) SiO2 
 PCOD9008976
Probable space group: P -1
;
_chemical_formula_sum "Si O2"
_cell_formula_units_Z 13
_cell_length_a 8.951394
_cell_length_b 9.742248
_cell_length_c 10.714709
_cell_angle_alpha 107.016392
_cell_angle_beta 39.687876
_cell_angle_gamma 116.876485
_cell_volume 529.745898
_symmetry_space_group_name_H-M "P -1"
_symmetry_group_IT_number 2
_symmetry_cell_setting 'triclinic'
loop_
_space_group_symop_operation_xyz
x,y,z
-x,-y,-z
loop_
_atom_site_type_symbol
_atom_site_label
_atom_site_fract_x
_atom_site_fract_y
_atom_site_fract_z
Si Si1 0.205993 0.853163 0.920115
Si Si2 0.833943 0.337639 0.624333
Si Si3 0.469724 0.687076 0.580903
Si Si4 0.500000 0.000000 0.000000
Si Si5 0.092217 0.569517 0.115041
Si Si6 0.180037 0.166547 0.379136
Si Si7 0.323432 0.315782 0.827713
O O1 0.132278 0.698007 0.016931
O O2 0.935902 0.830768 0.033915
O O3 0.384764 0.833255 0.691658
O O4 0.353886 0.985056 0.955053
O O5 0.840983 0.346472 0.772394
O O6 0.552715 0.299582 0.750465
O O7 0.000000 0.500000 0.500000
O O8 0.985765 0.230918 0.458336
O O9 0.668142 0.717874 0.575927
O O10 0.592168 0.676040 0.368607
O O11 0.201992 0.543649 0.721134
O O12 0.619625 0.873154 0.841198
O O13 0.259057 0.464119 0.954481
O O14 0.000000 0.000000 0.500000
#
# Coordination Sequence:
#
# PCOD9008976 Si02
#       7
#     2   2   2   1   2   2   2
#     4  10  23  38  68  95 127 178 233 273 320 400
#     4  12  26  41  67 102 143 174 211 284 345 391
#     4  10  21  39  66  95 129 170 230 276 319 394
#     4  10  22  44  66  92 124 174 230 270 312 392
#     4  11  23  40  64  98 132 181 222 272 332 399
#     4  11  25  46  69  96 131 181 230 269 329 402
#     4  11  22  40  63  98 138 173 214 277 345 391
#
# _framework density 24.540068000000002
#
# number of rings (size 3 to 8) (size 9 to 14) (size 15 to 20)
#    0.000    1.231    1.538    5.077    6.462    3.077 
#    2.769    3.077    0.000    7.385    0.000    0.000 
#    0.000    0.000    0.000    0.000    0.000    0.000 
#
# Total GULP energy -72497.598935 kJ/mol
# GULP energy per Si atom -5576.738380 kJ/mol
# Density = 2.448421 g / cm^3
# Si number density = 24.540068 Si / 1000 Ang^3
#
#
#
# Elastic Constant Matrix: (Units=GPa)
#
#
# Indices 1 2 3 4 5 6 
#
# 1 130.7095 15.2473 57.9557 33.5013 -44.5481 19.5945
# 2 15.2473 79.0775 32.7968 16.0937 -17.9655 -7.8170
# 3 57.9557 32.7968 152.4643 33.2538 -22.5419 9.3168
# 4 33.5013 16.0937 33.2538 34.5500 7.4365 6.1129
# 5 -44.5481 -17.9655 -22.5419 7.4365 57.7847 5.0745
# 6 19.5945 -7.8170 9.3168 6.1129 5.0745 39.2686
#
#
#
# Elastic Compliance Matrix: (Units=1/GPa)
#
#
# Indices 1 2 3 4 5 6 
#
# 1 0.025899 0.006680 0.000551 -0.032853 0.027378 -0.010148
# 2 0.006680 0.018211 -0.001015 -0.016942 0.012460 0.001560
# 3 0.000551 -0.001015 0.009710 -0.010232 0.005380 -0.001883
# 4 -0.032853 -0.016942 -0.010232 0.087151 -0.046495 0.007890
# 5 0.027378 0.012460 0.005380 -0.046495 0.051410 -0.011863
# 6 -0.010148 0.001560 -0.001883 0.007890 -0.011863 0.031591
#
#
# Mechanical properties :
#
#
# Convention : Reuss Voigt Hill
#
# Bulk Modulus (GPa) = 15.09335 63.80565 39.44950
# Shear Modulus (GPa) = 21.40199 43.40412 32.40306
#
# Velocity S-wave (km/s) = 2.95638 4.21016 3.63769
# Velocity P-wave (km/s) = 4.22107 7.04918 5.80984
#
# Compressibility (1/GPa) = 0.06625432
#
# Stress axis : x y z
#
# Youngs Moduli (GPa) = 38.61118 54.91052 102.98885
#
# Poissons Ratio (x) = -0.36683 -0.05679
# Poissons Ratio (y) = -0.25794 0.10453
# Poissons Ratio (z) = -0.02129 0.05573
#
# Static dielectric constant tensor:
#      x y z
#    x 1.958830 0.008230 -0.001550 
#    y 0.008230 2.024790 -0.034670 
#    z -0.001550 -0.034670 1.936070 
# 
# From -- ./inp_files/379782.got.cif
#   From: 2010.05.17/outbox.cif.g08.bks.cpg/sg2_190_cif.got.tgz:379782.got - 2010.06.03 11:33:40.
