data_PCOD9008587
_publ_section_title
;
Structure prediction by ZEFSAII (Michael W. Deem and Ramdas Pophale) SiO2 
 PCOD9008587
Probable space group: P -1
;
_chemical_formula_sum "Si O2"
_cell_formula_units_Z 14
_cell_length_a 14.612763
_cell_length_b 6.154223
_cell_length_c 21.739365
_cell_angle_alpha 95.153661
_cell_angle_beta 157.723217
_cell_angle_gamma 98.713378
_cell_volume 578.301564
_symmetry_space_group_name_H-M "P -1"
_symmetry_group_IT_number 2
_symmetry_cell_setting 'triclinic'
loop_
_space_group_symop_operation_xyz
x,y,z
-x,-y,-z
loop_
_atom_site_type_symbol
_atom_site_label
_atom_site_fract_x
_atom_site_fract_y
_atom_site_fract_z
Si Si1 0.085355 0.890802 0.723809
Si Si2 0.644938 0.387443 0.881552
Si Si3 0.205484 0.038570 0.262726
Si Si4 0.257674 0.949153 0.429249
Si Si5 0.690998 0.305443 0.045123
Si Si6 0.801441 0.503247 0.429283
Si Si7 0.845094 0.080520 0.954171
O O1 0.177473 0.840515 0.845510
O O2 0.001443 0.651625 0.618582
O O3 0.802664 0.895178 0.556185
O O4 0.378799 0.175809 0.884755
O O5 0.329443 0.334572 0.669153
O O6 0.774942 0.296137 0.908758
O O7 0.614729 0.246156 0.924272
O O8 0.906549 0.716366 0.063511
O O9 0.316478 0.096953 0.403449
O O10 0.473419 0.071189 0.391767
O O11 0.090313 0.198078 0.166224
O O12 0.944392 0.634551 0.220226
O O13 0.493127 0.199743 0.246841
O O14 0.000000 0.500000 0.500000
O O15 0.000000 0.000000 0.000000
#
# Coordination Sequence:
#
# PCOD9008587 Si02
#       7
#     2   2   2   2   2   2   2
#     4  11  24  39  65  94 129 162 220 268 316 377
#     4  10  23  45  68  89 134 174 207 266 331 375
#     4   9  22  40  62  96 128 164 215 261 317 393
#     4  10  21  39  65  91 127 169 209 263 323 380
#     4  10  23  41  63  95 123 171 212 268 317 382
#     4  11  27  45  65  97 132 172 222 264 320 394
#     4  11  25  40  66  97 132 170 219 266 320 386
#
# _framework density 24.208825999999998
#
# number of rings (size 3 to 8) (size 9 to 14) (size 15 to 20)
#    0.000    1.714    0.000    2.143    6.000   10.286 
#    0.000    4.286    0.000    0.000    0.000    0.000 
#    0.000    0.000    0.000    0.000    0.000    0.000 
#
# Total GULP energy -78309.442570 kJ/mol
# GULP energy per Si atom -5593.531612 kJ/mol
# Density = 2.415373 g / cm^3
# Si number density = 24.208826 Si / 1000 Ang^3
#
#
#
# Elastic Constant Matrix: (Units=GPa)
#
#
# Indices 1 2 3 4 5 6 
#
# 1 99.1726 34.5649 30.2459 -17.1275 22.2461 -4.3859
# 2 34.5649 41.8915 14.2507 -25.0649 10.6949 -11.0205
# 3 30.2459 14.2507 86.4082 -24.9486 10.2000 -0.8494
# 4 -17.1275 -25.0649 -24.9486 42.0520 -8.3978 11.2047
# 5 22.2461 10.6949 10.2000 -8.3978 37.1495 -13.5635
# 6 -4.3859 -11.0205 -0.8494 11.2047 -13.5635 30.9225
#
#
#
# Elastic Compliance Matrix: (Units=1/GPa)
#
#
# Indices 1 2 3 4 5 6 
#
# 1 0.017195 -0.014768 -0.004014 -0.004464 -0.007660 -0.004677
# 2 -0.014768 0.051488 0.003833 0.025145 0.001547 0.007928
# 3 -0.004014 0.003833 0.015529 0.010388 -0.001837 -0.003347
# 4 -0.004464 0.025145 0.010388 0.045175 -0.000045 -0.007775
# 5 -0.007660 0.001547 -0.001837 -0.000045 0.037324 0.015802
# 6 -0.004677 0.007928 -0.003347 -0.007775 0.015802 0.044157
#
#
# Mechanical properties :
#
#
# Convention : Reuss Voigt Hill
#
# Bulk Modulus (GPa) = 18.41120 42.84392 30.62756
# Shear Modulus (GPa) = 19.31466 31.91887 25.61676
#
# Velocity S-wave (km/s) = 2.82766 3.63503 3.25646
# Velocity P-wave (km/s) = 4.27581 5.94592 5.17864
#
# Compressibility (1/GPa) = 0.05431475
#
# Stress axis : x y z
#
# Youngs Moduli (GPa) = 58.15565 19.42203 64.39541
#
# Poissons Ratio (x) = 0.28682 0.25848
# Poissons Ratio (y) = 0.85884 -0.24684
# Poissons Ratio (z) = 0.23343 -0.07445
#
# Static dielectric constant tensor:
#      x y z
#    x 1.974680 0.043030 -0.018280 
#    y 0.043030 1.979030 -0.022270 
#    z -0.018280 -0.022270 1.879260 
# 
# From -- ./inp_files/85054.got.cif
#   From: 2010.05.17/outbox.cif.g08.bks.cpg/sg2_43_cif.got.tgz:85054.got - 2010.06.03 11:33:40.
