data_PCOD9008776
_publ_section_title
;
Structure prediction by ZEFSAII (Michael W. Deem and Ramdas Pophale) SiO2 
 PCOD9008776
Probable space group: P -1
;
_chemical_formula_sum "Si O2"
_cell_formula_units_Z 12
_cell_length_a 7.811747
_cell_length_b 12.086019
_cell_length_c 7.634250
_cell_angle_alpha 105.323296
_cell_angle_beta 51.570571
_cell_angle_gamma 75.667277
_cell_volume 456.558779
_symmetry_space_group_name_H-M "P -1"
_symmetry_group_IT_number 2
_symmetry_cell_setting 'triclinic'
loop_
_space_group_symop_operation_xyz
x,y,z
-x,-y,-z
loop_
_atom_site_type_symbol
_atom_site_label
_atom_site_fract_x
_atom_site_fract_y
_atom_site_fract_z
Si Si1 0.116755 0.457690 0.606006
Si Si2 0.874037 0.886436 0.783411
Si Si3 0.993814 0.344384 0.940701
Si Si4 0.437864 0.795519 0.339737
Si Si5 0.114216 0.072282 0.838491
Si Si6 0.497342 0.804200 0.908220
O O1 0.937922 0.424730 0.827727
O O2 0.404690 0.322160 0.335480
O O3 0.000000 0.500000 0.500000
O O4 0.131842 0.565591 0.766001
O O5 0.718693 0.838812 0.749794
O O6 0.184638 0.788549 0.535160
O O7 0.781764 0.888281 0.041139
O O8 0.767409 0.044638 0.869903
O O9 0.302421 0.285480 0.745994
O O10 0.960337 0.217045 0.899331
O O11 0.314036 0.954721 0.534708
O O12 0.506318 0.757298 0.079443
O O13 0.000000 0.000000 0.000000
#
# Coordination Sequence:
#
# PCOD9008776 Si02
#       6
#     2   2   2   2   2   2
#     4  11  23  43  70  98 137 188 232 270 338 414
#     4  10  22  37  63 103 133 174 224 281 348 402
#     4  11  23  41  72 100 134 189 225 277 345 406
#     4  11  21  38  67 101 134 172 227 284 350 401
#     4  10  21  39  65  97 134 169 227 284 338 405
#     4  11  22  39  65  96 138 179 221 283 337 404
#
# _framework density 26.283583
#
# number of rings (size 3 to 8) (size 9 to 14) (size 15 to 20)
#    0.000    1.333    3.333    2.000    4.667    0.000 
#    0.000    0.833    3.667   17.000    0.000    0.000 
#    0.000    0.000    0.000    0.000    0.000    0.000 
#
# Total GULP energy -66979.538283 kJ/mol
# GULP energy per Si atom -5581.628190 kJ/mol
# Density = 2.622376 g / cm^3
# Si number density = 26.283583 Si / 1000 Ang^3
#
#
#
# Elastic Constant Matrix: (Units=GPa)
#
#
# Indices 1 2 3 4 5 6 
#
# 1 61.1793 16.4645 39.1536 -11.1445 -8.3887 -11.3381
# 2 16.4645 126.3476 49.4245 -7.8552 18.3319 -4.0781
# 3 39.1536 49.4245 188.2868 4.6234 20.1072 14.4131
# 4 -11.1445 -7.8552 4.6234 44.8903 -0.0725 13.8816
# 5 -8.3887 18.3319 20.1072 -0.0725 58.3451 -8.8273
# 6 -11.3381 -4.0781 14.4131 13.8816 -8.8273 38.0640
#
#
#
# Elastic Compliance Matrix: (Units=1/GPa)
#
#
# Indices 1 2 3 4 5 6 
#
# 1 0.024291 -0.001234 -0.006393 0.003375 0.007609 0.010058
# 2 -0.001234 0.009296 -0.001990 0.001424 -0.002363 0.000314
# 3 -0.006393 -0.001990 0.008044 -0.001005 -0.003931 -0.005708
# 4 0.003375 0.001424 -0.001005 0.025978 -0.000813 -0.008124
# 5 0.007609 -0.002363 -0.003931 -0.000813 0.021664 0.008822
# 6 0.010058 0.000314 -0.005708 -0.008124 0.008822 0.036471
#
#
# Mechanical properties :
#
#
# Convention : Reuss Voigt Hill
#
# Bulk Modulus (GPa) = 44.64961 65.09990 54.87475
# Shear Modulus (GPa) = 32.79910 46.31130 39.55520
#
# Velocity S-wave (km/s) = 3.53639 4.20216 3.88356
# Velocity P-wave (km/s) = 5.80510 6.95458 6.40568
#
# Compressibility (1/GPa) = 0.02239661
#
# Stress axis : x y z
#
# Youngs Moduli (GPa) = 41.16802 107.57877 124.31369
#
# Poissons Ratio (x) = 0.13278 0.79468
# Poissons Ratio (y) = 0.05081 0.24739
# Poissons Ratio (z) = 0.26317 0.21409
#
# Static dielectric constant tensor:
#      x y z
#    x 2.327900 0.058150 -0.045990 
#    y 0.058150 2.164630 0.037490 
#    z -0.045990 0.037490 2.035560 
# 
# From -- ./inp_files/180987.got.cif
#   From: 2010.05.17/outbox.cif.g08.bks.cpg/sg2_91_cif.got.tgz:180987.got - 2010.06.03 11:33:40.
