data_PCOD9008969
_publ_section_title
;
Structure prediction by ZEFSAII (Michael W. Deem and Ramdas Pophale) SiO2 
 PCOD9008969
Probable space group: P -1
;
_chemical_formula_sum "Si O2"
_cell_formula_units_Z 15
_cell_length_a 15.429221
_cell_length_b 7.387006
_cell_length_c 11.957337
_cell_angle_alpha 82.110644
_cell_angle_beta 137.022061
_cell_angle_gamma 128.635658
_cell_volume 580.554472
_symmetry_space_group_name_H-M "P -1"
_symmetry_group_IT_number 2
_symmetry_cell_setting 'triclinic'
loop_
_space_group_symop_operation_xyz
x,y,z
-x,-y,-z
loop_
_atom_site_type_symbol
_atom_site_label
_atom_site_fract_x
_atom_site_fract_y
_atom_site_fract_z
Si Si1 0.704321 0.707117 0.877859
Si Si2 0.625696 0.163933 0.439220
Si Si3 0.241893 0.281673 0.441045
Si Si4 0.349397 0.197830 0.945764
Si Si5 0.787700 0.169590 0.809533
Si Si6 0.050972 0.865135 0.501896
Si Si7 0.000000 0.000000 0.000000
Si Si8 0.360069 0.787155 0.785264
O O1 0.474647 0.475969 0.649032
O O2 0.824721 0.996505 0.891616
O O3 0.740817 0.796079 0.033895
O O4 0.824330 0.677850 0.939799
O O5 0.754263 0.498001 0.537869
O O6 0.711100 0.121990 0.616643
O O7 0.656956 0.111185 0.350233
O O8 0.397889 0.964652 0.278156
O O9 0.146303 0.174396 0.238747
O O10 0.134569 0.027269 0.449446
O O11 0.205508 0.958830 0.733328
O O12 0.500000 0.500000 0.000000
O O13 0.501125 0.218874 0.135869
O O14 0.000000 0.500000 0.000000
O O15 0.851138 0.521335 0.342917
O O16 0.000000 0.000000 0.500000
O O17 0.500000 0.000000 0.000000
#
# Coordination Sequence:
#
# PCOD9008969 Si02
#       8
#     2   2   2   2   2   2   1   2
#     4  11  23  44  66 102 142 176 242 294 352 418
#     4  10  21  44  69  92 141 183 228 285 354 421
#     4  11  22  44  67 104 138 179 236 297 344 431
#     4  12  22  45  80 104 140 192 235 295 366 433
#     4  10  21  39  66  95 125 187 227 270 347 429
#     4  12  22  42  79 108 133 192 243 280 372 439
#     4  12  26  38  68 100 138 182 230 302 340 400
#     4  12  27  47  70 113 147 180 239 304 356 425
#
# _framework density 25.837368999999999
#
# number of rings (size 3 to 8) (size 9 to 14) (size 15 to 20)
#    0.000    0.800    6.667    2.000    1.867    0.533 
#   12.000    0.000    0.000    0.000    0.000    0.000 
#    0.000    0.000    0.000    0.000    0.000    0.000 
#
# Total GULP energy -83802.572349 kJ/mol
# GULP energy per Si atom -5586.838157 kJ/mol
# Density = 2.577856 g / cm^3
# Si number density = 25.837369 Si / 1000 Ang^3
#
#
#
# Elastic Constant Matrix: (Units=GPa)
#
#
# Indices 1 2 3 4 5 6 
#
# 1 105.8087 64.9106 56.8709 -2.7286 -18.2706 38.4097
# 2 64.9106 140.3114 81.7472 -2.5493 -15.4184 39.9132
# 3 56.8709 81.7472 223.5570 11.3477 -22.0668 33.1257
# 4 -2.7286 -2.5493 11.3477 36.9736 8.9525 0.2503
# 5 -18.2706 -15.4184 -22.0668 8.9525 54.1726 -18.1265
# 6 38.4097 39.9132 33.1257 0.2503 -18.1265 62.0645
#
#
#
# Elastic Compliance Matrix: (Units=1/GPa)
#
#
# Indices 1 2 3 4 5 6 
#
# 1 0.015151 -0.004559 -0.001308 0.000918 0.001334 -0.005361
# 2 -0.004559 0.011804 -0.002788 0.001536 -0.000740 -0.003504
# 3 -0.001308 -0.002788 0.006145 -0.002568 0.001629 -0.000191
# 4 0.000918 0.001536 -0.002568 0.029435 -0.005836 -0.002009
# 5 0.001334 -0.000740 0.001629 -0.005836 0.022085 0.005255
# 6 -0.005361 -0.003504 -0.000191 -0.002009 0.005255 0.023328
#
#
# Mechanical properties :
#
#
# Convention : Reuss Voigt Hill
#
# Bulk Modulus (GPa) = 63.33417 97.41492 80.37455
# Shear Modulus (GPa) = 38.30836 48.38536 43.34686
#
# Velocity S-wave (km/s) = 3.85473 4.33215 4.10039
# Velocity P-wave (km/s) = 6.66166 7.92517 7.32073
#
# Compressibility (1/GPa) = 0.01578927
#
# Stress axis : x y z
#
# Youngs Moduli (GPa) = 66.00367 84.71830 162.73734
#
# Poissons Ratio (x) = 0.38622 0.21283
# Poissons Ratio (y) = 0.30090 0.45377
# Poissons Ratio (z) = 0.08632 0.23623
#
# Static dielectric constant tensor:
#      x y z
#    x 2.555070 -0.112010 0.136520 
#    y -0.112010 2.035610 0.020520 
#    z 0.136520 0.020520 1.959800 
# 
# From -- ./inp_files/461259.got.cif
#   From: 2010.05.17/outbox.cif.g08.bks.cpg/sg2_231_cif.got.tgz:461259.got - 2010.06.03 11:33:40.
