data_PCOD9008895
_publ_section_title
;
Structure prediction by ZEFSAII (Michael W. Deem and Ramdas Pophale) SiO2 
 PCOD9008895
Probable space group: P -1
;
_chemical_formula_sum "Si O2"
_cell_formula_units_Z 16
_cell_length_a 15.466094
_cell_length_b 5.259709
_cell_length_c 9.109693
_cell_angle_alpha 108.047515
_cell_angle_beta 92.358895
_cell_angle_gamma 85.532224
_cell_volume 702.333656
_symmetry_space_group_name_H-M "P -1"
_symmetry_group_IT_number 2
_symmetry_cell_setting 'triclinic'
loop_
_space_group_symop_operation_xyz
x,y,z
-x,-y,-z
loop_
_atom_site_type_symbol
_atom_site_label
_atom_site_fract_x
_atom_site_fract_y
_atom_site_fract_z
Si Si1 0.723805 0.154029 0.621575
Si Si2 0.581049 0.075225 0.816663
Si Si3 0.167620 0.657376 0.882398
Si Si4 0.905666 0.255077 0.782915
Si Si5 0.554484 0.487130 0.648844
Si Si6 0.349914 0.803890 0.855031
Si Si7 0.004606 0.670936 0.680376
Si Si8 0.303201 0.242844 0.712588
O O1 0.677790 0.053875 0.747839
O O2 0.722618 0.923518 0.459195
O O3 0.817300 0.246026 0.681859
O O4 0.655489 0.394388 0.608148
O O5 0.549084 0.781092 0.768809
O O6 0.531825 0.264462 0.726589
O O7 0.590206 0.197640 0.998834
O O8 0.217024 0.363756 0.812647
O O9 0.101630 0.701688 0.751155
O O10 0.249414 0.839207 0.909214
O O11 0.119690 0.698614 0.040578
O O12 0.958822 0.494774 0.768094
O O13 0.957585 0.966373 0.715832
O O14 0.500000 0.500000 0.500000
O O15 0.359514 0.044172 0.787339
O O16 0.351071 0.511700 0.729204
O O17 0.000000 0.500000 0.500000
#
# Coordination Sequence:
#
# PCOD9008895 Si02
#       8
#     2   2   2   2   2   2   2   2
#     4  10  24  38  66  94 123 160 214 259 308 373
#     4  10  21  39  66  91 126 159 215 245 308 368
#     4  10  24  41  61  87 122 167 213 257 315 363
#     4  12  26  40  65  88 119 166 215 256 313 374
#     4  10  22  38  68  99 129 159 203 256 310 369
#     4  10  22  38  63  89 124 164 211 251 311 362
#     4  12  28  42  61  87 130 161 210 266 323 358
#     4  10  23  35  63  88 127 154 214 255 316 349
#
# _framework density 22.781193999999999
#
# number of rings (size 3 to 8) (size 9 to 14) (size 15 to 20)
#    1.500    0.000    1.250    3.000   10.500    0.000 
#    0.000    0.000    0.000    4.500    0.000    0.000 
#    0.000    0.000    0.000    0.000    0.000    0.000 
#
# Total GULP energy -89435.360373 kJ/mol
# GULP energy per Si atom -5589.710023 kJ/mol
# Density = 2.272934 g / cm^3
# Si number density = 22.781194 Si / 1000 Ang^3
#
#
#
# Elastic Constant Matrix: (Units=GPa)
#
#
# Indices 1 2 3 4 5 6 
#
# 1 68.5442 38.4276 26.6767 0.7427 2.7996 -19.5245
# 2 38.4276 121.5516 31.0404 -11.3656 13.0015 -9.0255
# 3 26.6767 31.0404 134.0729 1.9312 25.9690 -12.5431
# 4 0.7427 -11.3656 1.9312 28.4488 -0.7477 -0.6689
# 5 2.7996 13.0015 25.9690 -0.7477 29.1057 -12.0203
# 6 -19.5245 -9.0255 -12.5431 -0.6689 -12.0203 41.0616
#
#
#
# Elastic Compliance Matrix: (Units=1/GPa)
#
#
# Indices 1 2 3 4 5 6 
#
# 1 0.022231 -0.006461 -0.003486 -0.002467 0.008096 0.010415
# 2 -0.006461 0.011197 -0.000694 0.004522 -0.004498 -0.002066
# 3 -0.003486 -0.000694 0.009902 -0.001122 -0.008787 -0.001376
# 4 -0.002467 0.004522 -0.001122 0.037108 0.000234 0.000151
# 5 0.008096 -0.004498 -0.008787 0.000234 0.049492 0.014669
# 6 0.010415 -0.002066 -0.001376 0.000151 0.014669 0.032728
#
#
# Mechanical properties :
#
#
# Convention : Reuss Voigt Hill
#
# Bulk Modulus (GPa) = 45.35369 57.38424 51.36897
# Shear Modulus (GPa) = 26.13831 34.92483 30.53157
#
# Velocity S-wave (km/s) = 3.39095 3.91967 3.66486
# Velocity P-wave (km/s) = 5.93995 6.76233 6.36444
#
# Compressibility (1/GPa) = 0.02204892
#
# Stress axis : x y z
#
# Youngs Moduli (GPa) = 44.98234 89.30581 100.98751
#
# Poissons Ratio (x) = 0.57703 0.35200
# Poissons Ratio (y) = 0.29065 0.07008
# Poissons Ratio (z) = 0.15679 0.06197
#
# Static dielectric constant tensor:
#      x y z
#    x 1.910930 -0.000350 -0.017260 
#    y -0.000350 1.808200 -0.002950 
#    z -0.017260 -0.002950 1.791250 
# 
# From -- ./inp_files/322929.got.cif
#   From: 2010.05.17/outbox.cif.g08.bks.cpg/sg2_162_cif.got.tgz:322929.got - 2010.06.03 11:33:40.
