data_PCOD9008206
_publ_section_title
;
Structure prediction by ZEFSAII (Michael W. Deem and Ramdas Pophale) SiO2 
 PCOD9008206
Probable space group: P -1
;
_chemical_formula_sum "Si O2"
_cell_formula_units_Z 14
_cell_length_a 12.180767
_cell_length_b 13.327141
_cell_length_c 8.404601
_cell_angle_alpha 119.172598
_cell_angle_beta 75.215815
_cell_angle_gamma 55.560163
_cell_volume 663.867445
_symmetry_space_group_name_H-M "P -1"
_symmetry_group_IT_number 2
_symmetry_cell_setting 'triclinic'
loop_
_space_group_symop_operation_xyz
x,y,z
-x,-y,-z
loop_
_atom_site_type_symbol
_atom_site_label
_atom_site_fract_x
_atom_site_fract_y
_atom_site_fract_z
Si Si1 0.228948 0.298525 0.313557
Si Si2 0.891720 0.512564 0.179983
Si Si3 0.267437 0.718505 0.530805
Si Si4 0.458460 0.318313 0.087962
Si Si5 0.780700 0.895188 0.057584
Si Si6 0.171133 0.922359 0.031159
Si Si7 0.480778 0.279520 0.677631
O O1 0.217858 0.313171 0.518928
O O2 0.354015 0.303084 0.211200
O O3 0.000000 0.500000 0.500000
O O4 0.298937 0.127279 0.063479
O O5 0.734603 0.559938 0.191396
O O6 0.047148 0.308792 0.064921
O O7 0.000000 0.500000 0.000000
O O8 0.326313 0.541208 0.330400
O O9 0.424603 0.675930 0.365629
O O10 0.255323 0.754602 0.752623
O O11 0.046337 0.928030 0.712933
O O12 0.670516 0.174945 0.971371
O O13 0.474325 0.270810 0.861888
O O14 0.618011 0.073072 0.378969
O O15 0.853535 0.946448 0.973745
#
# Coordination Sequence:
#
# PCOD9008206 Si02
#       7
#     2   2   2   2   2   2   2
#     4  10  21  39  64  90 121 164 205 251 309 365
#     4  11  24  42  65  93 127 163 203 257 315 370
#     4  10  22  42  62  90 126 161 213 259 304 369
#     4  12  24  40  64  93 128 166 209 255 309 372
#     4  10  23  43  63  92 129 160 211 258 303 374
#     4  10  23  40  66  92 118 168 211 257 313 361
#     4  11  25  40  63  96 126 168 205 254 317 360
#
# _framework density 21.088546000000001
#
# number of rings (size 3 to 8) (size 9 to 14) (size 15 to 20)
#    0.000    1.429    0.000    6.000    0.000   10.857 
#    0.000    0.000    0.000    0.000    0.000    0.000 
#    0.000    0.000    0.000    0.000    0.000    0.000 
#
# Total GULP energy -78318.361382 kJ/mol
# GULP energy per Si atom -5594.168670 kJ/mol
# Density = 2.104055 g / cm^3
# Si number density = 21.088546 Si / 1000 Ang^3
#
#
#
# Elastic Constant Matrix: (Units=GPa)
#
#
# Indices 1 2 3 4 5 6 
#
# 1 93.7898 -2.4240 68.7581 -15.9241 1.3047 -16.5155
# 2 -2.4240 44.4793 46.3870 -9.7140 7.7548 -23.3148
# 3 68.7581 46.3870 109.3365 -21.0982 7.3366 11.1192
# 4 -15.9241 -9.7140 -21.0982 34.9344 -3.8398 2.6412
# 5 1.3047 7.7548 7.3366 -3.8398 47.8460 8.2181
# 6 -16.5155 -23.3148 11.1192 2.6412 8.2181 35.8812
#
#
#
# Elastic Compliance Matrix: (Units=1/GPa)
#
#
# Indices 1 2 3 4 5 6 
#
# 1 0.000308 -0.019377 0.009905 0.002519 0.004698 -0.016780
# 2 -0.019377 -0.013117 0.020430 0.002172 0.003963 -0.024841
# 3 0.009905 0.020430 -0.006739 0.003898 -0.005837 0.020972
# 4 0.002519 0.002172 0.003898 0.033053 0.001892 -0.001504
# 5 0.004698 0.003963 -0.005837 0.001892 0.020899 0.001620
# 6 -0.016780 -0.024841 0.020972 -0.001504 0.001620 -0.002754
#
#
# Mechanical properties :
#
#
# Convention : Reuss Voigt Hill
#
# Bulk Modulus (GPa) = 422.47584 52.56086 237.51835
# Shear Modulus (GPa) = 475.11220 32.72462 253.91841
#
# Velocity S-wave (km/s) = 15.02608 3.94353 10.98486
# Velocity P-wave (km/s) = 22.40119 6.76115 16.54579
#
# Compressibility (1/GPa) = 0.00236700
#
# Stress axis : x y z
#
# Youngs Moduli (GPa) = 3248.57294 -76.23685 -148.39016
#
# Poissons Ratio (x) = -1.47724 1.46974
# Poissons Ratio (y) = 62.94732 3.03160
# Poissons Ratio (z) = -32.17564 1.55752
#
# Static dielectric constant tensor:
#      x y z
#    x 1.753680 -0.012140 0.004230 
#    y -0.012140 1.748920 0.031780 
#    z 0.004230 0.031780 1.771290 
# 
# From -- ./inp_files/274048.got.cif
#   From: 2010.05.17/outbox.cif.g08.bks.cpg/sg2_138_cif.got.tgz:274048.got - 2010.06.03 11:33:40.
