data_PCOD9008653
_publ_section_title
;
Structure prediction by ZEFSAII (Michael W. Deem and Ramdas Pophale) SiO2 
 PCOD9008653
Probable space group: P -1
;
_chemical_formula_sum "Si O2"
_cell_formula_units_Z 14
_cell_length_a 13.997022
_cell_length_b 7.886762
_cell_length_c 8.899945
_cell_angle_alpha 45.714960
_cell_angle_beta 57.115907
_cell_angle_gamma 79.999353
_cell_volume 555.078393
_symmetry_space_group_name_H-M "P -1"
_symmetry_group_IT_number 2
_symmetry_cell_setting 'triclinic'
loop_
_space_group_symop_operation_xyz
x,y,z
-x,-y,-z
loop_
_atom_site_type_symbol
_atom_site_label
_atom_site_fract_x
_atom_site_fract_y
_atom_site_fract_z
Si Si1 0.632262 0.198725 0.578042
Si Si2 0.251513 0.158039 0.436156
Si Si3 0.309077 0.355375 0.958694
Si Si4 0.938358 0.564368 0.868552
Si Si5 0.364661 0.884296 0.058137
Si Si6 0.991318 0.223285 0.616329
Si Si7 0.795633 0.084381 0.085553
O O1 0.618277 0.395963 0.348255
O O2 0.504288 0.973002 0.838970
O O3 0.732868 0.089598 0.499533
O O4 0.661385 0.298622 0.662140
O O5 0.117691 0.174503 0.546368
O O6 0.281785 0.134294 0.600235
O O7 0.324836 0.360095 0.123174
O O8 0.340088 0.128023 0.997737
O O9 0.169004 0.329021 0.069768
O O10 0.031680 0.752913 0.555663
O O11 0.872218 0.309684 0.988961
O O12 0.000000 0.500000 0.000000
O O13 0.282786 0.815063 0.024555
O O14 0.000000 0.500000 0.500000
O O15 0.892683 0.029522 0.926731
#
# Coordination Sequence:
#
# PCOD9008653 Si02
#       7
#     2   2   2   2   2   2   2
#     4  10  21  45  67  88 128 170 213 262 313 381
#     4  10  21  39  65  93 126 167 211 253 322 375
#     4  10  21  42  64  92 126 166 216 257 315 385
#     4  10  22  39  65  94 128 171 207 254 323 385
#     4  10  24  40  68  95 122 168 218 260 319 367
#     4   9  21  38  62  91 131 164 207 259 315 377
#     4  11  22  41  60  98 134 159 212 269 305 379
#
# _framework density 25.221664000000001
#
# number of rings (size 3 to 8) (size 9 to 14) (size 15 to 20)
#    0.000    2.000    1.429    0.857    2.000    4.000 
#    5.143    4.286    0.000    0.000    0.000    0.000 
#    0.000    0.000    0.000    0.000    0.000    0.000 
#
# Total GULP energy -78240.963879 kJ/mol
# GULP energy per Si atom -5588.640277 kJ/mol
# Density = 2.516426 g / cm^3
# Si number density = 25.221664 Si / 1000 Ang^3
#
#
#
# Elastic Constant Matrix: (Units=GPa)
#
#
# Indices 1 2 3 4 5 6 
#
# 1 110.0405 25.1484 34.7263 30.1920 12.8323 3.7449
# 2 25.1484 103.5256 29.1523 13.9912 -10.2145 -12.7086
# 3 34.7263 29.1523 181.0064 42.5537 40.1159 10.0629
# 4 30.1920 13.9912 42.5537 33.7947 2.3741 6.6741
# 5 12.8323 -10.2145 40.1159 2.3741 38.1806 12.1552
# 6 3.7449 -12.7086 10.0629 6.6741 12.1552 31.0595
#
#
#
# Elastic Compliance Matrix: (Units=1/GPa)
#
#
# Indices 1 2 3 4 5 6 
#
# 1 0.013730 -0.002662 0.003027 -0.014934 -0.008469 0.002798
# 2 -0.002662 0.012252 -0.002998 -0.000127 0.006071 0.003957
# 3 0.003027 -0.002998 0.012588 -0.017023 -0.015246 0.003954
# 4 -0.014934 -0.000127 -0.017023 0.065953 0.023954 -0.016283
# 5 -0.008469 0.006071 -0.015246 0.023954 0.050424 -0.016436
# 6 0.002798 0.003957 0.003954 -0.016283 -0.016436 0.042128
#
#
# Mechanical properties :
#
#
# Convention : Reuss Voigt Hill
#
# Bulk Modulus (GPa) = 30.02575 63.62517 46.82546
# Shear Modulus (GPa) = 23.42544 40.97667 32.20105
#
# Velocity S-wave (km/s) = 3.05090 4.03508 3.57700
# Velocity P-wave (km/s) = 4.93368 6.85495 5.97208
#
# Compressibility (1/GPa) = 0.03330475
#
# Stress axis : x y z
#
# Youngs Moduli (GPa) = 72.83090 81.61798 79.44063
#
# Poissons Ratio (x) = 0.21723 -0.24045
# Poissons Ratio (y) = 0.19385 0.23817
# Poissons Ratio (z) = -0.22044 0.24470
#
# Static dielectric constant tensor:
#      x y z
#    x 1.987420 0.029620 0.034820 
#    y 0.029620 2.020290 -0.057840 
#    z 0.034820 -0.057840 2.114000 
# 
# From -- ./inp_files/291498.got.cif
#   From: 2010.05.17/outbox.cif.g08.bks.cpg/sg2_146_cif.got.tgz:291498.got - 2010.06.03 11:33:40.
