data_PCOD9008711
_publ_section_title
;
Structure prediction by ZEFSAII (Michael W. Deem and Ramdas Pophale) SiO2 
 PCOD9008711
Probable space group: P -1
;
_chemical_formula_sum "Si O2"
_cell_formula_units_Z 14
_cell_length_a 12.013898
_cell_length_b 14.777867
_cell_length_c 7.651875
_cell_angle_alpha 83.927707
_cell_angle_beta 83.802520
_cell_angle_gamma 152.633685
_cell_volume 557.114980
_symmetry_space_group_name_H-M "P -1"
_symmetry_group_IT_number 2
_symmetry_cell_setting 'triclinic'
loop_
_space_group_symop_operation_xyz
x,y,z
-x,-y,-z
loop_
_atom_site_type_symbol
_atom_site_label
_atom_site_fract_x
_atom_site_fract_y
_atom_site_fract_z
Si Si1 0.213093 0.691384 0.281017
Si Si2 0.740508 0.394793 0.210176
Si Si3 0.781469 0.113270 0.602913
Si Si4 0.371845 0.363171 0.874152
Si Si5 0.729392 0.452540 0.804675
Si Si6 0.972893 0.066157 0.742496
Si Si7 0.580128 0.690841 0.605443
O O1 0.305101 0.859808 0.282487
O O2 0.385880 0.728847 0.213656
O O3 0.000000 0.500000 0.500000
O O4 0.031234 0.570174 0.166046
O O5 0.659725 0.414966 0.358034
O O6 0.505757 0.147086 0.336066
O O7 0.759031 0.453792 0.004780
O O8 0.987468 0.302877 0.379412
O O9 0.937383 0.144152 0.665407
O O10 0.516388 0.374354 0.827887
O O11 0.055602 0.130943 0.920153
O O12 0.475081 0.512864 0.688124
O O13 0.500000 0.500000 0.000000
O O14 0.196393 0.161115 0.607718
O O15 0.720564 0.832822 0.731221
#
# Coordination Sequence:
#
# PCOD9008711 Si02
#       7
#     2   2   2   2   2   2   2
#     4  10  24  43  67  94 127 171 220 267 323 389
#     4  11  23  44  67  94 131 167 217 273 323 388
#     4  10  23  44  68  93 127 174 216 266 329 379
#     4  12  23  39  63  96 135 172 209 270 334 380
#     4  11  24  42  64 100 127 169 221 263 325 391
#     4  10  22  39  65  95 130 170 220 265 321 399
#     4  10  21  39  65  95 125 174 215 264 328 385
#
# _framework density 25.129463999999999
#
# number of rings (size 3 to 8) (size 9 to 14) (size 15 to 20)
#    0.000    1.429    2.857    1.714    4.000    3.429 
#    0.000    4.286    0.000    0.000    0.000    0.000 
#    0.000    0.000    0.000    0.000    0.000    0.000 
#
# Total GULP energy -78036.005720 kJ/mol
# GULP energy per Si atom -5574.000409 kJ/mol
# Density = 2.507227 g / cm^3
# Si number density = 25.129464 Si / 1000 Ang^3
#
#
#
# Elastic Constant Matrix: (Units=GPa)
#
#
# Indices 1 2 3 4 5 6 
#
# 1 212.3520 45.8772 21.0729 3.3020 -9.1892 -45.5932
# 2 45.8772 104.5383 36.7085 5.9609 5.1690 -26.6040
# 3 21.0729 36.7085 64.6633 -5.3606 14.3727 -12.5797
# 4 3.3020 5.9609 -5.3606 28.3866 -4.0972 2.1114
# 5 -9.1892 5.1690 14.3727 -4.0972 31.1952 -1.0437
# 6 -45.5932 -26.6040 -12.5797 2.1114 -1.0437 39.8104
#
#
#
# Elastic Compliance Matrix: (Units=1/GPa)
#
#
# Indices 1 2 3 4 5 6 
#
# 1 0.006576 -0.000911 -0.000978 -0.000877 0.002649 0.006730
# 2 -0.000911 0.014362 -0.007003 -0.004697 0.000182 0.006595
# 3 -0.000978 -0.007003 0.022222 0.004461 -0.008755 0.000756
# 4 -0.000877 -0.004697 0.004461 0.037981 0.003297 -0.004661
# 5 0.002649 0.000182 -0.008755 0.003297 0.037313 0.001192
# 6 0.006730 0.006595 0.000756 -0.004661 0.001192 0.037751
#
#
# Mechanical properties :
#
#
# Convention : Reuss Voigt Hill
#
# Bulk Modulus (GPa) = 39.40788 65.43008 52.41898
# Shear Modulus (GPa) = 27.40513 38.40478 32.90495
#
# Velocity S-wave (km/s) = 3.30594 3.91356 3.62251
# Velocity P-wave (km/s) = 5.50348 6.82019 6.19691
#
# Compressibility (1/GPa) = 0.02537564
#
# Stress axis : x y z
#
# Youngs Moduli (GPa) = 152.06494 69.62815 45.00091
#
# Poissons Ratio (x) = 0.06342 0.04402
# Poissons Ratio (y) = 0.13851 0.31514
# Poissons Ratio (z) = 0.14876 0.48761
#
# Static dielectric constant tensor:
#      x y z
#    x 2.009310 0.045750 0.021220 
#    y 0.045750 2.109990 0.074540 
#    z 0.021220 0.074540 2.125310 
# 
# From -- ./inp_files/272919.got.cif
#   From: 2010.05.17/outbox.cif.g08.bks.cpg/sg2_137_cif.got.tgz:272919.got - 2010.06.03 11:33:40.
