data_PCOD9008053
_publ_section_title
;
Structure prediction by ZEFSAII (Michael W. Deem and Ramdas Pophale) SiO2 
 PCOD9008053
Probable space group: P -1
;
_chemical_formula_sum "Si O2"
_cell_formula_units_Z 16
_cell_length_a 5.470966
_cell_length_b 12.652314
_cell_length_c 10.543800
_cell_angle_alpha 80.054035
_cell_angle_beta 89.157162
_cell_angle_gamma 120.135272
_cell_volume 617.293064
_symmetry_space_group_name_H-M "P -1"
_symmetry_group_IT_number 2
_symmetry_cell_setting 'triclinic'
loop_
_space_group_symop_operation_xyz
x,y,z
-x,-y,-z
loop_
_atom_site_type_symbol
_atom_site_label
_atom_site_fract_x
_atom_site_fract_y
_atom_site_fract_z
Si Si1 0.288302 0.109284 0.143497
Si Si2 0.862274 0.348450 0.455987
Si Si3 0.709965 0.915536 0.270575
Si Si4 0.857038 0.698775 0.905872
Si Si5 0.653171 0.661139 0.388560
Si Si6 0.738612 0.472140 0.797501
Si Si7 0.332416 0.879684 0.661335
Si Si8 0.276380 0.783257 0.096474
O O1 0.354240 0.250956 0.127909
O O2 0.370346 0.073262 0.282260
O O3 0.485876 0.121266 0.023795
O O4 0.956227 0.010490 0.152548
O O5 0.626966 0.368957 0.520997
O O6 0.712272 0.205948 0.438858
O O7 0.117686 0.360327 0.538520
O O8 0.999495 0.440968 0.316326
O O9 0.769289 0.805726 0.325253
O O10 0.401006 0.848685 0.216924
O O11 0.721284 0.005721 0.364085
O O12 0.749944 0.558283 0.895030
O O13 0.108921 0.782660 0.787148
O O14 0.980201 0.743224 0.037266
O O15 0.536323 0.577326 0.280828
O O16 0.736040 0.348717 0.865606
#
# Coordination Sequence:
#
# PCOD9008053 Si02
#       8
#     2   2   2   2   2   2   2   2
#     4  10  21  39  63  95 128 175 212 269 329 392
#     4  11  25  46  69  96 134 172 225 274 334 381
#     4  10  23  40  63  95 133 170 219 269 327 393
#     4   9  20  39  62  93 131 167 216 266 330 393
#     4  11  26  45  68 101 129 176 223 274 331 389
#     4  10  22  44  65  95 131 171 218 276 327 395
#     4   9  22  39  65  91 130 171 214 272 326 395
#     4  10  21  40  61  98 130 170 218 262 333 396
#
# _framework density 25.919618
#
# number of rings (size 3 to 8) (size 9 to 14) (size 15 to 20)
#    0.000    2.000    0.000    1.500    7.000    7.000 
#   13.500    0.000    0.000    0.000    0.000    0.000 
#    0.000    0.000    0.000    0.000    0.000    0.000 
#
# Total GULP energy -89512.905824 kJ/mol
# GULP energy per Si atom -5594.556614 kJ/mol
# Density = 2.586062 g / cm^3
# Si number density = 25.919618 Si / 1000 Ang^3
#
#
#
# Elastic Constant Matrix: (Units=GPa)
#
#
# Indices 1 2 3 4 5 6 
#
# 1 78.9538 22.5909 34.7319 1.4142 -8.3833 16.9641
# 2 22.5909 175.8780 31.0385 4.0695 -8.9695 -2.8923
# 3 34.7319 31.0385 57.7350 -12.5357 -4.9239 17.8488
# 4 1.4142 4.0695 -12.5357 43.5076 4.3590 -0.5799
# 5 -8.3833 -8.9695 -4.9239 4.3590 28.7195 -2.4805
# 6 16.9641 -2.8923 17.8488 -0.5799 -2.4805 12.8471
#
#
#
# Elastic Compliance Matrix: (Units=1/GPa)
#
#
# Indices 1 2 3 4 5 6 
#
# 1 0.019989 -0.001593 -0.005922 -0.002767 0.003184 -0.018036
# 2 -0.001593 0.007952 -0.008991 -0.003302 0.002421 0.016703
# 3 -0.005922 -0.008991 0.046791 0.014103 -0.003777 -0.059305
# 4 -0.002767 -0.003302 0.014103 0.027734 -0.005048 -0.016407
# 5 0.003184 0.002421 -0.003777 -0.005048 0.037364 0.008574
# 6 -0.018036 0.016703 -0.059305 -0.016407 0.008574 0.188724
#
#
# Mechanical properties :
#
#
# Convention : Reuss Voigt Hill
#
# Bulk Modulus (GPa) = 23.96922 54.36549 39.16735
# Shear Modulus (GPa) = 13.31655 31.96186 22.63920
#
# Velocity S-wave (km/s) = 2.26909 3.51538 2.95861
# Velocity P-wave (km/s) = 4.01655 6.12351 5.17832
#
# Compressibility (1/GPa) = 0.04172018
#
# Stress axis : x y z
#
# Youngs Moduli (GPa) = 50.02656 125.76067 21.37158
#
# Poissons Ratio (x) = 0.20029 0.12657
# Poissons Ratio (y) = 0.07967 0.19215
# Poissons Ratio (z) = 0.29627 1.13073
#
# Static dielectric constant tensor:
#      x y z
#    x 2.043620 0.029320 -0.011370 
#    y 0.029320 2.023480 -0.005890 
#    z -0.011370 -0.005890 2.051400 
# 
# From -- ./inp_files/69358.got.cif
#   From: 2010.05.17/outbox.cif.g08.bks.cpg/sg2_35_cif.got.tgz:69358.got - 2010.06.03 11:33:40.
