data_PCOD9008662
_publ_section_title
;
Structure prediction by ZEFSAII (Michael W. Deem and Ramdas Pophale) SiO2 
 PCOD9008662
Probable space group: P -1
;
_chemical_formula_sum "Si O2"
_cell_formula_units_Z 16
_cell_length_a 11.771531
_cell_length_b 14.801217
_cell_length_c 9.443570
_cell_angle_alpha 40.383941
_cell_angle_beta 75.952779
_cell_angle_gamma 50.025568
_cell_volume 709.025204
_symmetry_space_group_name_H-M "P -1"
_symmetry_group_IT_number 2
_symmetry_cell_setting 'triclinic'
loop_
_space_group_symop_operation_xyz
x,y,z
-x,-y,-z
loop_
_atom_site_type_symbol
_atom_site_label
_atom_site_fract_x
_atom_site_fract_y
_atom_site_fract_z
Si Si1 0.281348 0.270606 0.659853
Si Si2 0.212549 0.736251 0.012504
Si Si3 0.156847 0.765334 0.688159
Si Si4 0.589907 0.379865 0.446879
Si Si5 0.513896 0.730982 0.173716
Si Si6 0.388857 0.059716 0.597677
Si Si7 0.927993 0.831406 0.462915
Si Si8 0.025662 0.255258 0.775770
O O1 0.392357 0.240794 0.786379
O O2 0.375555 0.180090 0.588210
O O3 0.118243 0.511183 0.408451
O O4 0.203668 0.185222 0.822476
O O5 0.388062 0.551193 0.262763
O O6 0.038825 0.825777 0.026908
O O7 0.234467 0.654411 0.946543
O O8 0.179123 0.930771 0.782010
O O9 0.293778 0.729173 0.595789
O O10 0.074635 0.718346 0.670380
O O11 0.000000 0.000000 0.500000
O O12 0.620434 0.505188 0.356662
O O13 0.622608 0.232598 0.729183
O O14 0.455055 0.865263 0.893570
O O15 0.199364 0.185811 0.452205
O O16 0.500000 0.000000 0.500000
O O17 0.989970 0.759727 0.368899
#
# Coordination Sequence:
#
# PCOD9008662 Si02
#       8
#     2   2   2   2   2   2   2   2
#     4  10  22  40  62  94 130 174 222 260 324 392
#     4  11  21  40  67 101 129 173 215 277 333 380
#     4  10  24  38  60  96 135 169 205 264 334 392
#     4  11  23  41  71 100 131 167 224 273 330 387
#     4  11  23  42  68  98 126 176 221 275 322 387
#     4  11  25  42  65  95 134 175 218 271 328 388
#     4  10  22  42  63  95 135 169 219 274 330 387
#     4  10  21  39  65  93 130 172 218 272 321 393
#
# _framework density 22.566195
#
# number of rings (size 3 to 8) (size 9 to 14) (size 15 to 20)
#    0.000    1.500    2.500    1.875    1.750    8.000 
#    0.000    0.000    0.000    6.000    0.000    0.000 
#    0.000    0.000    0.000    0.000    0.000    0.000 
#
# Total GULP energy -89359.582010 kJ/mol
# GULP energy per Si atom -5584.973876 kJ/mol
# Density = 2.251483 g / cm^3
# Si number density = 22.566195 Si / 1000 Ang^3
#
#
#
# Elastic Constant Matrix: (Units=GPa)
#
#
# Indices 1 2 3 4 5 6 
#
# 1 137.2442 49.8506 33.8452 31.2048 10.5257 13.6792
# 2 49.8506 149.5133 44.7213 42.7082 -5.7272 -5.6572
# 3 33.8452 44.7213 68.4764 18.1708 4.9416 8.1366
# 4 31.2048 42.7082 18.1708 45.8104 2.6139 -7.8562
# 5 10.5257 -5.7272 4.9416 2.6139 14.5752 0.9331
# 6 13.6792 -5.6572 8.1366 -7.8562 0.9331 41.6383
#
#
#
# Elastic Compliance Matrix: (Units=1/GPa)
#
#
# Indices 1 2 3 4 5 6 
#
# 1 0.010461 -0.002018 -0.001556 -0.004967 -0.006661 -0.004195
# 2 -0.002018 0.011512 -0.005396 -0.007446 0.009038 0.001674
# 3 -0.001556 -0.005396 0.020611 -0.002451 -0.007254 -0.004550
# 4 -0.004967 -0.007446 -0.002451 0.034759 -0.005239 0.007775
# 5 -0.006661 0.009038 -0.007254 -0.005239 0.080239 0.002047
# 6 -0.004195 0.001674 -0.004550 0.007775 0.002047 0.027932
#
#
# Mechanical properties :
#
#
# Convention : Reuss Voigt Hill
#
# Bulk Modulus (GPa) = 40.57612 68.00758 54.29185
# Shear Modulus (GPa) = 23.62191 35.52589 29.57390
#
# Velocity S-wave (km/s) = 3.23891 3.97205 3.62407
# Velocity P-wave (km/s) = 5.65751 7.15811 6.45159
#
# Compressibility (1/GPa) = 0.02464504
#
# Stress axis : x y z
#
# Youngs Moduli (GPa) = 95.59288 86.86871 48.51707
#
# Poissons Ratio (x) = 0.17527 0.07548
# Poissons Ratio (y) = 0.19287 0.26181
# Poissons Ratio (z) = 0.14871 0.46876
#
# Static dielectric constant tensor:
#      x y z
#    x 1.886090 -0.008520 0.013760 
#    y -0.008520 1.842190 -0.028430 
#    z 0.013760 -0.028430 1.881170 
# 
# From -- ./inp_files/271503.got.cif
#   From: 2010.05.17/outbox.cif.g08.bks.cpg/sg2_136_cif.got.tgz:271503.got - 2010.06.03 11:33:40.
