data_PCOD9008080
_publ_section_title
;
Structure prediction by ZEFSAII (Michael W. Deem and Ramdas Pophale) SiO2 
 PCOD9008080
Probable space group: P -1
;
_chemical_formula_sum "Si O2"
_cell_formula_units_Z 16
_cell_length_a 17.771598
_cell_length_b 6.894490
_cell_length_c 5.256548
_cell_angle_alpha 74.039104
_cell_angle_beta 92.042905
_cell_angle_gamma 103.754985
_cell_volume 601.171635
_symmetry_space_group_name_H-M "P -1"
_symmetry_group_IT_number 2
_symmetry_cell_setting 'triclinic'
loop_
_space_group_symop_operation_xyz
x,y,z
-x,-y,-z
loop_
_atom_site_type_symbol
_atom_site_label
_atom_site_fract_x
_atom_site_fract_y
_atom_site_fract_z
Si Si1 0.171530 0.026533 0.903309
Si Si2 0.326882 0.488397 0.341664
Si Si3 0.424471 0.884027 0.890742
Si Si4 0.454393 0.550058 0.720618
Si Si5 0.059805 0.668710 0.687897
Si Si6 0.949923 0.788692 0.940902
Si Si7 0.790029 0.277707 0.624862
Si Si8 0.303729 0.071850 0.565176
O O1 0.134164 0.173646 0.022934
O O2 0.222674 0.909376 0.114431
O O3 0.229146 0.135045 0.656088
O O4 0.109613 0.833735 0.834427
O O5 0.376072 0.686050 0.119035
O O6 0.365448 0.472154 0.631586
O O7 0.242548 0.538240 0.336092
O O8 0.330517 0.264941 0.305709
O O9 0.453386 0.788003 0.678083
O O10 0.500000 0.000000 0.000000
O O11 0.373441 0.043776 0.757813
O O12 0.500000 0.500000 0.500000
O O13 0.500000 0.500000 0.000000
O O14 0.119654 0.686047 0.456037
O O15 0.980119 0.749679 0.673222
O O16 0.043668 0.426425 0.847368
O O17 0.000000 0.000000 0.000000
O O18 0.733312 0.166406 0.436398
#
# Coordination Sequence:
#
# PCOD9008080 Si02
#       8
#     2   2   2   2   2   2   2   2
#     4  10  21  39  63  96 135 182 239 295 360 437
#     4  12  26  46  72 104 144 191 246 309 387 452
#     4  12  27  49  77 107 148 192 255 316 386 469
#     4  12  26  48  75 108 144 193 246 311 388 460
#     4   9  20  38  63  92 138 184 233 293 358 425
#     4   9  18  38  63  94 136 185 231 294 353 426
#     4  11  23  42  66 101 140 185 245 300 366 446
#     4  11  25  44  69 102 141 189 242 309 373 449
#
# _framework density 26.614697
#
# number of rings (size 3 to 8) (size 9 to 14) (size 15 to 20)
#    0.000    1.250    3.750    1.500    0.000    4.000 
#    0.000    5.625    0.000    0.000    0.000    0.000 
#    0.000    0.000    0.000    0.000    0.000    0.000 
#
# Total GULP energy -89247.691902 kJ/mol
# GULP energy per Si atom -5577.980744 kJ/mol
# Density = 2.655412 g / cm^3
# Si number density = 26.614697 Si / 1000 Ang^3
#
#
#
# Elastic Constant Matrix: (Units=GPa)
#
#
# Indices 1 2 3 4 5 6 
#
# 1 94.7140 57.3492 17.6983 12.2507 -16.2413 -37.2583
# 2 57.3492 174.7033 39.3683 -19.9603 -14.0184 -27.0600
# 3 17.6983 39.3683 74.7217 -3.6552 -12.3309 -12.5904
# 4 12.2507 -19.9603 -3.6552 50.4182 2.8376 5.5056
# 5 -16.2413 -14.0184 -12.3309 2.8376 30.7560 1.2546
# 6 -37.2583 -27.0600 -12.5904 5.5056 1.2546 53.1380
#
#
#
# Elastic Compliance Matrix: (Units=1/GPa)
#
#
# Indices 1 2 3 4 5 6 
#
# 1 0.022084 -0.005721 0.001241 -0.009585 0.009880 0.013625
# 2 -0.005721 0.008685 -0.003257 0.004727 -0.000770 -0.000832
# 3 0.001241 -0.003257 0.016193 -0.001065 0.005638 0.003025
# 4 -0.009585 0.004727 -0.001065 0.025026 -0.005356 -0.007032
# 5 0.009880 -0.000770 0.005638 -0.005356 0.039830 0.007486
# 6 0.013625 -0.000832 0.003025 -0.007032 0.007486 0.029217
#
#
# Mechanical properties :
#
#
# Convention : Reuss Voigt Hill
#
# Bulk Modulus (GPa) = 31.75790 63.66342 47.71066
# Shear Modulus (GPa) = 29.93901 42.17732 36.05817
#
# Velocity S-wave (km/s) = 3.35760 3.98520 3.68478
# Velocity P-wave (km/s) = 5.19516 6.71923 6.00574
#
# Compressibility (1/GPa) = 0.03148823
#
# Stress axis : x y z
#
# Youngs Moduli (GPa) = 45.28172 115.13676 61.75451
#
# Poissons Ratio (x) = 0.65869 -0.07663
# Poissons Ratio (y) = 0.25905 0.20113
# Poissons Ratio (z) = -0.05619 0.37500
#
# Static dielectric constant tensor:
#      x y z
#    x 2.192030 0.077400 -0.085610 
#    y 0.077400 2.112410 0.065320 
#    z -0.085610 0.065320 2.295190 
# 
# From -- ./inp_files/114566.got.cif
#   From: 2010.05.17/outbox.cif.g08.bks.cpg/sg2_58_cif.got.tgz:114566.got - 2010.06.03 11:33:40.
