data_PCOD9008809
_publ_section_title
;
Structure prediction by ZEFSAII (Michael W. Deem and Ramdas Pophale) SiO2 
 PCOD9008809
Probable space group: P -1
;
_chemical_formula_sum "Si O2"
_cell_formula_units_Z 16
_cell_length_a 11.420823
_cell_length_b 13.522966
_cell_length_c 13.840322
_cell_angle_alpha 149.613742
_cell_angle_beta 40.900044
_cell_angle_gamma 135.491792
_cell_volume 695.763282
_symmetry_space_group_name_H-M "P -1"
_symmetry_group_IT_number 2
_symmetry_cell_setting 'triclinic'
loop_
_space_group_symop_operation_xyz
x,y,z
-x,-y,-z
loop_
_atom_site_type_symbol
_atom_site_label
_atom_site_fract_x
_atom_site_fract_y
_atom_site_fract_z
Si Si1 0.131855 0.143645 0.303690
Si Si2 0.530634 0.223563 0.129145
Si Si3 0.167451 0.943961 0.908747
Si Si4 0.007403 0.523761 0.629442
Si Si5 0.118610 0.454887 0.796143
Si Si6 0.830715 0.877574 0.377866
Si Si7 0.557207 0.172567 0.840197
Si Si8 0.796651 0.557388 0.960438
O O1 0.029145 0.003697 0.332947
O O2 0.330150 0.270508 0.312216
O O3 0.018060 0.304389 0.473615
O O4 0.152860 0.006667 0.082412
O O5 0.701095 0.379938 0.193687
O O6 0.500000 0.000000 0.000000
O O7 0.567095 0.212468 0.982776
O O8 0.169710 0.709506 0.704477
O O9 0.354046 0.067100 0.855808
O O10 0.000000 0.000000 0.000000
O O11 0.000000 0.500000 0.500000
O O12 0.846347 0.598318 0.852307
O O13 0.171459 0.251845 0.632107
O O14 0.973012 0.468609 0.815034
O O15 0.000000 0.500000 0.000000
O O16 0.693948 0.028361 0.603586
O O17 0.781091 0.733758 0.193734
O O18 0.622691 0.385494 0.931314
#
# Coordination Sequence:
#
# PCOD9008809 Si02
#       8
#     2   2   2   2   2   2   2   2
#     4  11  24  42  71 100 141 185 226 287 347 411
#     4  11  23  41  66 105 147 188 232 274 342 414
#     4  11  25  47  70  98 135 174 231 295 350 406
#     4  12  25  45  74  99 133 182 235 289 360 409
#     4  10  21  39  65  98 147 183 220 279 335 400
#     4  11  22  43  69 101 142 185 225 283 339 414
#     4  11  25  41  73 100 135 180 232 276 349 414
#     4  11  23  45  67 102 143 182 233 287 336 408
#
# _framework density 22.996326
#
# number of rings (size 3 to 8) (size 9 to 14) (size 15 to 20)
#    0.000    1.000    6.250    1.500    3.500    1.500 
#    0.000    4.375    0.000    0.000    0.000    0.000 
#    0.000    0.000    0.000    0.000    0.000    0.000 
#
# Total GULP energy -89432.056388 kJ/mol
# GULP energy per Si atom -5589.503524 kJ/mol
# Density = 2.294399 g / cm^3
# Si number density = 22.996326 Si / 1000 Ang^3
#
#
#
# Elastic Constant Matrix: (Units=GPa)
#
#
# Indices 1 2 3 4 5 6 
#
# 1 35.1635 30.4310 16.9487 -7.5624 10.1253 7.8304
# 2 30.4310 184.7058 29.8975 1.8833 9.9663 20.2940
# 3 16.9487 29.8975 94.8677 5.6290 19.4000 6.7784
# 4 -7.5624 1.8833 5.6290 40.3564 -0.5870 -2.0365
# 5 10.1253 9.9663 19.4000 -0.5870 32.0725 -0.4159
# 6 7.8304 20.2940 6.7784 -2.0365 -0.4159 42.5909
#
#
#
# Elastic Compliance Matrix: (Units=1/GPa)
#
#
# Indices 1 2 3 4 5 6 
#
# 1 0.039791 -0.005104 -0.003951 0.007922 -0.008493 -0.003959
# 2 -0.005104 0.006656 -0.000977 -0.001237 0.000084 -0.002136
# 3 -0.003951 -0.000977 0.013108 -0.002672 -0.006441 -0.001085
# 4 0.007922 -0.001237 -0.002672 0.026736 0.000000 0.000837
# 5 -0.008493 0.000084 -0.006441 0.000000 0.037768 0.002915
# 6 -0.003959 -0.002136 -0.001085 0.000837 0.002915 0.025466
#
#
# Mechanical properties :
#
#
# Convention : Reuss Voigt Hill
#
# Bulk Modulus (GPa) = 25.32202 52.14350 38.73276
# Shear Modulus (GPa) = 27.35961 38.83463 33.09712
#
# Velocity S-wave (km/s) = 3.45300 4.11388 3.79784
# Velocity P-wave (km/s) = 5.18969 6.72973 6.00925
#
# Compressibility (1/GPa) = 0.03949132
#
# Stress axis : x y z
#
# Youngs Moduli (GPa) = 25.13163 150.24561 76.29029
#
# Poissons Ratio (x) = 0.76681 0.30142
# Poissons Ratio (y) = 0.12826 0.07452
# Poissons Ratio (z) = 0.09929 0.14676
#
# Static dielectric constant tensor:
#      x y z
#    x 1.608890 -0.153380 -0.092940 
#    y -0.153380 1.820310 -0.041830 
#    z -0.092940 -0.041830 1.848200 
# 
# From -- ./inp_files/521866.got.cif
#   From: 2010.05.17/outbox.cif.g08.bks.cpg/sg2_261_cif.got.tgz:521866.got - 2010.06.03 11:33:40.
