data_PCOD9008640
_publ_section_title
;
Structure prediction by ZEFSAII (Michael W. Deem and Ramdas Pophale) SiO2 
 PCOD9008640
Probable space group: P -1
;
_chemical_formula_sum "Si O2"
_cell_formula_units_Z 14
_cell_length_a 11.446938
_cell_length_b 12.484010
_cell_length_c 11.183779
_cell_angle_alpha 34.242541
_cell_angle_beta 55.454597
_cell_angle_gamma 45.386517
_cell_volume 639.814807
_symmetry_space_group_name_H-M "P -1"
_symmetry_group_IT_number 2
_symmetry_cell_setting 'triclinic'
loop_
_space_group_symop_operation_xyz
x,y,z
-x,-y,-z
loop_
_atom_site_type_symbol
_atom_site_label
_atom_site_fract_x
_atom_site_fract_y
_atom_site_fract_z
Si Si1 0.539658 0.548769 0.301256
Si Si2 0.816300 0.198330 0.809098
Si Si3 0.313550 0.192413 0.923869
Si Si4 0.874178 0.274229 0.964482
Si Si5 0.939845 0.509802 0.387650
Si Si6 0.067491 0.239884 0.206161
Si Si7 0.223320 0.837551 0.634525
O O1 0.500000 0.500000 0.500000
O O2 0.363034 0.741972 0.182458
O O3 0.673536 0.621658 0.177805
O O4 0.611227 0.338791 0.366183
O O5 0.788101 0.302934 0.861148
O O6 0.904578 0.309162 0.581749
O O7 0.948313 0.942047 0.964700
O O8 0.231519 0.292803 0.750541
O O9 0.195152 0.134075 0.119976
O O10 0.500000 0.000000 0.000000
O O11 0.919776 0.464338 0.787693
O O12 0.781314 0.223349 0.168787
O O13 0.000000 0.500000 0.500000
O O14 0.917096 0.202428 0.302912
O O15 0.166005 0.089978 0.401741
O O16 0.000000 0.500000 0.000000
#
# Coordination Sequence:
#
# PCOD9008640 Si02
#       7
#     2   2   2   2   2   2   2
#     4  12  24  39  62  97 132 165 210 269 330 375
#     4  10  23  41  65  93 129 166 214 263 318 389
#     4  12  23  39  67  95 133 164 212 274 324 383
#     4  10  22  42  67  91 123 172 215 261 320 386
#     4  10  21  39  65  93 123 168 214 258 315 383
#     4  11  24  41  59  92 128 166 210 263 323 384
#     4  11  25  39  64  93 127 169 215 265 321 384
#
# _framework density 21.881330999999999
#
# number of rings (size 3 to 8) (size 9 to 14) (size 15 to 20)
#    0.000    1.143    4.286    1.714    6.000    0.571 
#    0.000    0.000    0.000    0.857    0.000    0.000 
#    0.000    0.000    0.000    0.000    0.000    0.000 
#
# Total GULP energy -78056.257283 kJ/mol
# GULP energy per Si atom -5575.446949 kJ/mol
# Density = 2.183153 g / cm^3
# Si number density = 21.881331 Si / 1000 Ang^3
#
#
#
# Elastic Constant Matrix: (Units=GPa)
#
#
# Indices 1 2 3 4 5 6 
#
# 1 89.1023 13.0525 18.5735 -7.6387 10.8494 -12.5621
# 2 13.0525 95.9155 22.7531 8.3896 12.0264 -5.3536
# 3 18.5735 22.7531 104.8208 0.4684 7.7348 5.1608
# 4 -7.6387 8.3896 0.4684 29.7840 5.4676 1.5430
# 5 10.8494 12.0264 7.7348 5.4676 39.5333 -5.4899
# 6 -12.5621 -5.3536 5.1608 1.5430 -5.4899 27.2533
#
#
#
# Elastic Compliance Matrix: (Units=1/GPa)
#
#
# Indices 1 2 3 4 5 6 
#
# 1 0.013282 -0.000971 -0.002238 0.003917 -0.002677 0.005594
# 2 -0.000971 0.011772 -0.002313 -0.003245 -0.002128 0.002058
# 3 -0.002238 -0.002313 0.010725 0.000356 -0.001359 -0.003811
# 4 0.003917 -0.003245 0.000356 0.036607 -0.005509 -0.002082
# 5 -0.002677 -0.002128 -0.001359 -0.005509 0.028347 0.004628
# 6 0.005594 0.002058 -0.003811 -0.002082 0.004628 0.041448
#
#
# Mechanical properties :
#
#
# Convention : Reuss Voigt Hill
#
# Bulk Modulus (GPa) = 40.42928 44.28853 42.35891
# Shear Modulus (GPa) = 30.96519 35.01141 32.98830
#
# Velocity S-wave (km/s) = 3.76592 4.00441 3.88700
# Velocity P-wave (km/s) = 6.11770 6.45482 6.28852
#
# Compressibility (1/GPa) = 0.02473455
#
# Stress axis : x y z
#
# Youngs Moduli (GPa) = 75.28814 84.94607 93.23942
#
# Poissons Ratio (x) = 0.08251 0.20868
# Poissons Ratio (y) = 0.07313 0.21567
# Poissons Ratio (z) = 0.16850 0.19649
#
# Static dielectric constant tensor:
#      x y z
#    x 1.993910 -0.010180 -0.096730 
#    y -0.010180 1.870280 0.015980 
#    z -0.096730 0.015980 1.917730 
# 
# From -- ./inp_files/432212.got.cif
#   From: 2010.05.17/outbox.cif.g08.bks.cpg/sg2_217_cif.got.tgz:432212.got - 2010.06.03 11:33:40.
