data_PCOD9008105
_publ_section_title
;
Structure prediction by ZEFSAII (Michael W. Deem and Ramdas Pophale) SiO2 
 PCOD9008105
Probable space group: P -1
;
_chemical_formula_sum "Si O2"
_cell_formula_units_Z 14
_cell_length_a 5.231564
_cell_length_b 12.671031
_cell_length_c 10.004336
_cell_angle_alpha 117.946012
_cell_angle_beta 103.619134
_cell_angle_gamma 85.441641
_cell_volume 569.005889
_symmetry_space_group_name_H-M "P -1"
_symmetry_group_IT_number 2
_symmetry_cell_setting 'triclinic'
loop_
_space_group_symop_operation_xyz
x,y,z
-x,-y,-z
loop_
_atom_site_type_symbol
_atom_site_label
_atom_site_fract_x
_atom_site_fract_y
_atom_site_fract_z
Si Si1 0.478818 0.875923 0.243014
Si Si2 0.204315 0.350984 0.833932
Si Si3 0.255459 0.352044 0.316190
Si Si4 0.917209 0.136073 0.055174
Si Si5 0.195427 0.731620 0.622946
Si Si6 0.341712 0.531932 0.198450
Si Si7 0.785084 0.093554 0.489776
O O1 0.714478 0.784111 0.209324
O O2 0.357497 0.865947 0.370332
O O3 0.578635 0.013884 0.328349
O O4 0.263701 0.848593 0.087141
O O5 0.381936 0.401843 0.762687
O O6 0.901237 0.381205 0.797563
O O7 0.302038 0.429160 0.019913
O O8 0.523456 0.319385 0.401161
O O9 0.311389 0.463090 0.293026
O O10 0.154839 0.236507 0.146153
O O11 0.019691 0.361154 0.398102
O O12 0.769201 0.174030 0.194623
O O13 0.000000 0.000000 0.000000
O O14 0.096049 0.801660 0.524671
O O15 0.000000 0.000000 0.500000
#
# Coordination Sequence:
#
# PCOD9008105 Si02
#       7
#     2   2   2   2   2   2   2
#     4  11  25  41  65  98 133 175 219 273 326 389
#     4  10  23  37  64  96 135 168 214 271 329 386
#     4  10  22  39  66  93 130 168 208 268 328 388
#     4  10  22  37  64  97 129 167 212 270 325 390
#     4  10  23  40  65  93 128 171 214 262 328 389
#     4  10  21  39  63  99 131 168 213 271 333 383
#     4  11  26  43  66  92 135 181 221 264 328 399
#
# _framework density 24.604315
#
# number of rings (size 3 to 8) (size 9 to 14) (size 15 to 20)
#    0.857    0.857    0.000    3.429   12.000    4.571 
#    0.000    0.000    0.000    5.143    0.000    0.000 
#    0.000    0.000    0.000    0.000    0.000    0.000 
#
# Total GULP energy -78408.966791 kJ/mol
# GULP energy per Si atom -5600.640485 kJ/mol
# Density = 2.454831 g / cm^3
# Si number density = 24.604315 Si / 1000 Ang^3
#
#
#
# Elastic Constant Matrix: (Units=GPa)
#
#
# Indices 1 2 3 4 5 6 
#
# 1 91.2064 10.7867 33.8134 1.9283 -5.3582 3.2037
# 2 10.7867 105.4377 60.6385 5.2458 1.0189 2.5484
# 3 33.8134 60.6385 104.4483 8.3305 -4.4090 2.1980
# 4 1.9283 5.2458 8.3305 48.8809 0.2080 -3.4624
# 5 -5.3582 1.0189 -4.4090 0.2080 29.6250 -6.8868
# 6 3.2037 2.5484 2.1980 -3.4624 -6.8868 50.4581
#
#
#
# Elastic Compliance Matrix: (Units=1/GPa)
#
#
# Indices 1 2 3 4 5 6 
#
# 1 0.012713 0.001537 -0.004950 0.000138 0.001400 -0.000469
# 2 0.001537 0.014532 -0.008982 -0.000131 -0.001717 -0.000684
# 3 -0.004950 -0.008982 0.016602 -0.001665 0.001942 0.000196
# 4 0.000138 -0.000131 -0.001665 0.020856 -0.000016 0.001499
# 5 0.001400 -0.001717 0.001942 -0.000016 0.035461 0.004752
# 6 -0.000469 -0.000684 0.000196 0.001499 0.004752 0.020626
#
#
# Mechanical properties :
#
#
# Convention : Reuss Voigt Hill
#
# Bulk Modulus (GPa) = 52.47341 56.84108 54.65725
# Shear Modulus (GPa) = 32.90898 38.84970 35.87934
#
# Velocity S-wave (km/s) = 3.66119 3.97795 3.82285
# Velocity P-wave (km/s) = 6.26463 6.65214 6.46129
#
# Compressibility (1/GPa) = 0.01905727
#
# Stress axis : x y z
#
# Youngs Moduli (GPa) = 78.65739 68.81166 60.23355
#
# Poissons Ratio (x) = -0.10578 0.29817
# Poissons Ratio (y) = -0.12092 0.54103
# Poissons Ratio (z) = 0.38938 0.61809
#
# Static dielectric constant tensor:
#      x y z
#    x 1.938380 0.026490 0.029120 
#    y 0.026490 1.927940 0.037100 
#    z 0.029120 0.037100 1.968630 
# 
# From -- ./inp_files/134506.got.cif
#   From: 2010.05.17/outbox.cif.g08.bks.cpg/sg2_68_cif.got.tgz:134506.got - 2010.06.03 11:33:40.
