data_PCOD9008616
_publ_section_title
;
Structure prediction by ZEFSAII (Michael W. Deem and Ramdas Pophale) SiO2 
 PCOD9008616
Probable space group: P -1
;
_chemical_formula_sum "Si O2"
_cell_formula_units_Z 14
_cell_length_a 9.325425
_cell_length_b 7.653237
_cell_length_c 10.740208
_cell_angle_alpha 88.648190
_cell_angle_beta 86.149726
_cell_angle_gamma 128.649868
_cell_volume 595.171706
_symmetry_space_group_name_H-M "P -1"
_symmetry_group_IT_number 2
_symmetry_cell_setting 'triclinic'
loop_
_space_group_symop_operation_xyz
x,y,z
-x,-y,-z
loop_
_atom_site_type_symbol
_atom_site_label
_atom_site_fract_x
_atom_site_fract_y
_atom_site_fract_z
Si Si1 0.541612 0.945929 0.725619
Si Si2 0.464790 0.680390 0.987221
Si Si3 0.803700 0.865424 0.670174
Si Si4 0.143111 0.981066 0.054708
Si Si5 0.097124 0.310770 0.522850
Si Si6 0.855183 0.389370 0.844054
Si Si7 0.824741 0.284570 0.356149
O O1 0.458685 0.776527 0.852804
O O2 0.639764 0.870345 0.641147
O O3 0.378315 0.923079 0.669034
O O4 0.711139 0.197191 0.754962
O O5 0.660483 0.899303 0.027566
O O6 0.500000 0.500000 0.000000
O O7 0.278534 0.591863 0.068307
O O8 0.806555 0.885036 0.818837
O O9 0.780919 0.671725 0.597049
O O10 0.006531 0.090363 0.615436
O O11 0.073189 0.731778 0.089502
O O12 0.000000 0.000000 0.000000
O O13 0.186990 0.522645 0.602054
O O14 0.921624 0.262203 0.464621
O O15 0.027514 0.613067 0.766130
#
# Coordination Sequence:
#
# PCOD9008616 Si02
#       7
#     2   2   2   2   2   2   2
#     4  10  22  41  60  89 123 162 203 253 313 368
#     4  10  23  39  61  90 126 161 206 256 309 372
#     4   9  20  41  61  86 133 157 201 259 306 358
#     4  10  21  39  65  92 125 165 202 251 318 368
#     4  10  21  40  61  90 122 164 204 258 301 364
#     4  10  22  44  58  90 134 158 201 264 302 371
#     4  11  23  38  66  89 117 162 214 246 313 363
#
# _framework density 23.522621999999998
#
# number of rings (size 3 to 8) (size 9 to 14) (size 15 to 20)
#    0.000    2.286    2.857    1.714    6.000    4.000 
#    0.000    1.429    0.000    0.000    0.000    0.000 
#    0.000    0.000    0.000    0.000    0.000    0.000 
#
# Total GULP energy -78148.300526 kJ/mol
# GULP energy per Si atom -5582.021466 kJ/mol
# Density = 2.346908 g / cm^3
# Si number density = 23.522622 Si / 1000 Ang^3
#
#
#
# Elastic Constant Matrix: (Units=GPa)
#
#
# Indices 1 2 3 4 5 6 
#
# 1 99.3541 11.7442 36.2992 9.3859 -16.2752 18.1787
# 2 11.7442 25.7182 0.7857 -5.5780 -0.0736 9.4917
# 3 36.2992 0.7857 58.3953 -3.5066 -24.1694 5.0219
# 4 9.3859 -5.5780 -3.5066 19.9782 -6.7752 3.0305
# 5 -16.2752 -0.0736 -24.1694 -6.7752 44.6586 8.1272
# 6 18.1787 9.4917 5.0219 3.0305 8.1272 37.3251
#
#
#
# Elastic Compliance Matrix: (Units=1/GPa)
#
#
# Indices 1 2 3 4 5 6 
#
# 1 0.016758 -0.008837 -0.011326 -0.012313 -0.001341 -0.003099
# 2 -0.008837 0.054247 0.012026 0.027282 0.010351 -0.015578
# 3 -0.011326 0.012026 0.033963 0.022358 0.019138 -0.008094
# 4 -0.012313 0.027282 0.022358 0.077154 0.022097 -0.015025
# 5 -0.001341 0.010351 0.019138 0.022097 0.038303 -0.014688
# 6 -0.003099 -0.015578 -0.008094 -0.015025 -0.014688 0.037769
#
#
# Mechanical properties :
#
#
# Convention : Reuss Voigt Hill
#
# Bulk Modulus (GPa) = 11.27492 31.23621 21.25556
# Shear Modulus (GPa) = 16.44550 29.36828 22.90689
#
# Velocity S-wave (km/s) = 2.64699 3.53726 3.12400
# Velocity P-wave (km/s) = 3.76107 5.47641 4.69770
#
# Compressibility (1/GPa) = 0.08869246
#
# Stress axis : x y z
#
# Youngs Moduli (GPa) = 59.67224 18.43413 29.44386
#
# Poissons Ratio (x) = 0.16291 0.33349
# Poissons Ratio (y) = 0.52734 -0.35408
# Poissons Ratio (z) = 0.67586 -0.22168
#
# Static dielectric constant tensor:
#      x y z
#    x 1.908180 -0.042800 -0.010230 
#    y -0.042800 1.945860 -0.001880 
#    z -0.010230 -0.001880 1.964890 
# 
# From -- ./inp_files/178189.got.cif
#   From: 2010.05.17/outbox.cif.g08.bks.cpg/sg2_90_cif.got.tgz:178189.got - 2010.06.03 11:33:40.
