data_PCOD9008287
_publ_section_title
;
Structure prediction by ZEFSAII (Michael W. Deem and Ramdas Pophale) SiO2 
 PCOD9008287
Probable space group: P -1
;
_chemical_formula_sum "Si O2"
_cell_formula_units_Z 16
_cell_length_a 14.173922
_cell_length_b 8.989310
_cell_length_c 9.650264
_cell_angle_alpha 77.453177
_cell_angle_beta 77.955774
_cell_angle_gamma 134.573376
_cell_volume 730.625545
_symmetry_space_group_name_H-M "P -1"
_symmetry_group_IT_number 2
_symmetry_cell_setting 'triclinic'
loop_
_space_group_symop_operation_xyz
x,y,z
-x,-y,-z
loop_
_atom_site_type_symbol
_atom_site_label
_atom_site_fract_x
_atom_site_fract_y
_atom_site_fract_z
Si Si1 0.486896 0.084170 0.848413
Si Si2 0.332025 0.619504 0.861903
Si Si3 0.349484 0.004854 0.475293
Si Si4 0.398459 0.258478 0.677428
Si Si5 0.069882 0.851515 0.479525
Si Si6 0.875739 0.785823 0.780423
Si Si7 0.834711 0.769548 0.228506
Si Si8 0.229965 0.563305 0.497599
O O1 0.453684 0.222634 0.798685
O O2 0.658929 0.277653 0.696976
O O3 0.360432 0.829090 0.852191
O O4 0.500000 0.000000 0.000000
O O5 0.199297 0.401893 0.839781
O O6 0.493514 0.772917 0.705850
O O7 0.279701 0.468511 0.049665
O O8 0.206337 0.907164 0.462452
O O9 0.306293 0.773597 0.539830
O O10 0.358758 0.086475 0.606866
O O11 0.500000 0.500000 0.500000
O O12 0.256391 0.188971 0.784122
O O13 0.971739 0.781790 0.659622
O O14 0.946697 0.630703 0.452919
O O15 0.142560 0.093696 0.340623
O O16 0.991067 0.983738 0.828019
O O17 0.760719 0.598643 0.422228
#
# Coordination Sequence:
#
# PCOD9008287 Si02
#       8
#     2   2   2   2   2   2   2   2
#     4  11  24  42  63  94 134 169 206 266 333 380
#     4  11  23  40  63  93 131 162 209 272 326 365
#     4  11  22  38  64  97 125 162 220 267 313 378
#     4  12  22  40  69  96 125 168 222 263 313 387
#     4  10  21  39  64  92 127 177 217 255 315 389
#     4  10  22  39  64  91 132 173 211 262 323 379
#     4  11  21  41  66  94 123 170 222 262 311 383
#     4  10  21  39  65  91 127 171 217 261 315 382
#
# _framework density 21.899042999999999
#
# number of rings (size 3 to 8) (size 9 to 14) (size 15 to 20)
#    0.000    1.250    3.750    2.250    0.000    3.500 
#    4.500    0.625    5.500    0.000    0.000    0.000 
#    0.000    0.000    0.000    0.000    0.000    0.000 
#
# Total GULP energy -89183.883695 kJ/mol
# GULP energy per Si atom -5573.992731 kJ/mol
# Density = 2.184920 g / cm^3
# Si number density = 21.899043 Si / 1000 Ang^3
#
#
#
# Elastic Constant Matrix: (Units=GPa)
#
#
# Indices 1 2 3 4 5 6 
#
# 1 83.7162 19.3441 28.0214 -11.0359 25.7280 -6.6324
# 2 19.3441 96.0883 27.2361 -14.6788 7.8639 4.0129
# 3 28.0214 27.2361 111.7123 -28.6454 23.2154 -3.3290
# 4 -11.0359 -14.6788 -28.6454 30.0185 2.2552 6.9993
# 5 25.7280 7.8639 23.2154 2.2552 24.9469 -1.3346
# 6 -6.6324 4.0129 -3.3290 6.9993 -1.3346 18.6742
#
#
#
# Elastic Compliance Matrix: (Units=1/GPa)
#
#
# Indices 1 2 3 4 5 6 
#
# 1 0.020359 -0.001388 0.003285 0.011287 -0.024523 0.002132
# 2 -0.001388 0.012329 -0.000553 0.006584 -0.002852 -0.005912
# 3 0.003285 -0.000553 0.018153 0.021095 -0.022280 -0.004977
# 4 0.011287 0.006584 0.021095 0.069114 -0.040796 -0.022466
# 5 -0.024523 -0.002852 -0.022280 -0.040796 0.091218 0.009741
# 6 0.002132 -0.005912 -0.004977 -0.022466 0.009741 0.063807
#
#
# Mechanical properties :
#
#
# Convention : Reuss Voigt Hill
#
# Bulk Modulus (GPa) = 18.68082 48.96889 33.82485
# Shear Modulus (GPa) = 17.23329 29.18892 23.21111
#
# Velocity S-wave (km/s) = 2.80829 3.65483 3.25916
# Velocity P-wave (km/s) = 4.36627 6.34193 5.44447
#
# Compressibility (1/GPa) = 0.05353085
#
# Stress axis : x y z
#
# Youngs Moduli (GPa) = 49.11740 81.10717 55.08654
#
# Poissons Ratio (x) = 0.11256 -0.18098
# Poissons Ratio (y) = 0.06816 0.03047
# Poissons Ratio (z) = -0.16137 0.04486
#
# Static dielectric constant tensor:
#      x y z
#    x 1.806380 -0.002140 0.031830 
#    y -0.002140 1.892520 0.028790 
#    z 0.031830 0.028790 1.884020 
# 
# From -- ./inp_files/297879.got.cif
#   From: 2010.05.17/outbox.cif.g08.bks.cpg/sg2_149_cif.got.tgz:297879.got - 2010.06.03 11:33:40.
