data_PCOD9008191
_publ_section_title
;
Structure prediction by ZEFSAII (Michael W. Deem and Ramdas Pophale) SiO2 
 PCOD9008191
Probable space group: P -1
;
_chemical_formula_sum "Si O2"
_cell_formula_units_Z 16
_cell_length_a 7.322644
_cell_length_b 11.351380
_cell_length_c 12.976523
_cell_angle_alpha 138.002473
_cell_angle_beta 107.747825
_cell_angle_gamma 74.553698
_cell_volume 686.023967
_symmetry_space_group_name_H-M "P -1"
_symmetry_group_IT_number 2
_symmetry_cell_setting 'triclinic'
loop_
_space_group_symop_operation_xyz
x,y,z
-x,-y,-z
loop_
_atom_site_type_symbol
_atom_site_label
_atom_site_fract_x
_atom_site_fract_y
_atom_site_fract_z
Si Si1 0.114600 0.323145 0.366671
Si Si2 0.194744 0.233677 0.860185
Si Si3 0.531505 0.214263 0.752193
Si Si4 0.957476 0.207273 0.606429
Si Si5 0.603753 0.745917 0.806478
Si Si6 0.216662 0.939024 0.830171
Si Si7 0.673265 0.478989 0.806820
Si Si8 0.258273 0.146196 0.465244
O O1 0.233509 0.345945 0.297773
O O2 0.958994 0.171705 0.233655
O O3 0.273949 0.250400 0.430301
O O4 0.000000 0.500000 0.500000
O O5 0.408725 0.211102 0.832958
O O6 0.065344 0.283273 0.772456
O O7 0.157793 0.051242 0.791259
O O8 0.174773 0.383684 0.040280
O O9 0.598867 0.401898 0.850720
O O10 0.395537 0.173710 0.604617
O O11 0.703194 0.062206 0.685709
O O12 0.056815 0.229197 0.529250
O O13 0.750876 0.306337 0.644783
O O14 0.000000 0.000000 0.500000
O O15 0.407249 0.812892 0.761097
O O16 0.545290 0.608743 0.796000
O O17 0.704974 0.915008 0.982440
#
# Coordination Sequence:
#
# PCOD9008191 Si02
#       8
#     2   2   2   2   2   2   2   2
#     4  12  25  42  66  97 128 168 219 266 317 378
#     4  10  22  39  63  95 121 159 214 257 317 379
#     4  10  21  39  64  89 128 164 202 261 319 376
#     4  11  20  37  59  86 125 159 197 252 313 376
#     4  10  24  45  65  95 127 172 218 261 320 377
#     4  10  23  45  69  90 129 171 214 269 319 376
#     4  11  22  39  63  92 125 163 208 261 313 373
#     4  10  22  39  58  92 122 161 212 248 317 380
#
# _framework density 23.322800999999998
#
# number of rings (size 3 to 8) (size 9 to 14) (size 15 to 20)
#    0.000    1.500    1.250    3.375    1.750    0.500 
#    2.250    0.000    0.000    0.000    0.000    0.000 
#    0.000    0.000    0.000    0.000    0.000    0.000 
#
# Total GULP energy -89261.128445 kJ/mol
# GULP energy per Si atom -5578.820528 kJ/mol
# Density = 2.326972 g / cm^3
# Si number density = 23.322801 Si / 1000 Ang^3
#
#
#
# Elastic Constant Matrix: (Units=GPa)
#
#
# Indices 1 2 3 4 5 6 
#
# 1 62.1057 10.3766 10.5348 8.4473 -18.1304 -4.3064
# 2 10.3766 92.7007 19.4679 18.8919 -5.5749 1.0753
# 3 10.5348 19.4679 64.1428 16.3784 -12.9513 -16.8707
# 4 8.4473 18.8919 16.3784 33.4189 0.8379 -0.5615
# 5 -18.1304 -5.5749 -12.9513 0.8379 30.7931 4.3576
# 6 -4.3064 1.0753 -16.8707 -0.5615 4.3576 23.8336
#
#
#
# Elastic Compliance Matrix: (Units=1/GPa)
#
#
# Indices 1 2 3 4 5 6 
#
# 1 0.020542 -0.000708 0.001437 -0.005768 0.012394 0.002359
# 2 -0.000708 0.012742 -0.002844 -0.005714 0.001286 -0.003085
# 3 0.001437 -0.002844 0.025102 -0.011007 0.008886 0.016272
# 4 -0.005768 -0.005714 -0.011007 0.040140 -0.009314 -0.005927
# 5 0.012394 0.001286 0.008886 -0.009314 0.043966 0.000213
# 6 0.002359 -0.003085 0.016272 -0.005927 0.000213 0.053863
#
#
# Mechanical properties :
#
#
# Convention : Reuss Voigt Hill
#
# Bulk Modulus (GPa) = 18.46502 33.30087 25.88295
# Shear Modulus (GPa) = 22.86906 29.51378 26.19142
#
# Velocity S-wave (km/s) = 3.13476 3.56117 3.35475
# Velocity P-wave (km/s) = 4.58657 5.58735 5.11151
#
# Compressibility (1/GPa) = 0.05415644
#
# Stress axis : x y z
#
# Youngs Moduli (GPa) = 48.67974 78.48368 39.83741
#
# Poissons Ratio (x) = 0.05554 -0.05723
# Poissons Ratio (y) = 0.03445 0.11328
# Poissons Ratio (z) = -0.06993 0.22318
#
# Static dielectric constant tensor:
#      x y z
#    x 1.946060 0.024680 0.032720 
#    y 0.024680 1.865660 0.027260 
#    z 0.032720 0.027260 1.933440 
# 
# From -- ./inp_files/444502.got.cif
#   From: 2010.05.17/outbox.cif.g08.bks.cpg/sg2_223_cif.got.tgz:444502.got - 2010.06.03 11:33:40.
