data_PCOD9008304
_publ_section_title
;
Structure prediction by ZEFSAII (Michael W. Deem and Ramdas Pophale) SiO2 
 PCOD9008304
Probable space group: P -1
;
_chemical_formula_sum "Si O2"
_cell_formula_units_Z 16
_cell_length_a 18.628603
_cell_length_b 14.185049
_cell_length_c 21.118328
_cell_angle_alpha 147.686302
_cell_angle_beta 160.734409
_cell_angle_gamma 23.633930
_cell_volume 729.924277
_symmetry_space_group_name_H-M "P -1"
_symmetry_group_IT_number 2
_symmetry_cell_setting 'triclinic'
loop_
_space_group_symop_operation_xyz
x,y,z
-x,-y,-z
loop_
_atom_site_type_symbol
_atom_site_label
_atom_site_fract_x
_atom_site_fract_y
_atom_site_fract_z
Si Si1 0.898234 0.128513 0.132718
Si Si2 0.444521 0.025685 0.891343
Si Si3 0.409367 0.435391 0.810046
Si Si4 0.940934 0.389355 0.810446
Si Si5 0.216286 0.619220 0.136595
Si Si6 0.640475 0.305550 0.415280
Si Si7 0.689664 0.993857 0.706369
Si Si8 0.213918 0.521411 0.938358
O O1 0.892383 0.311318 0.273143
O O2 0.071090 0.042831 0.160922
O O3 0.569008 0.284875 0.921689
O O4 0.020167 0.897583 0.140878
O O5 0.279179 0.281234 0.869075
O O6 0.293405 0.928691 0.685763
O O7 0.500000 0.000000 0.000000
O O8 0.790040 0.833531 0.050763
O O9 0.477503 0.239938 0.707736
O O10 0.575744 0.508540 0.956118
O O11 0.871268 0.298803 0.641614
O O12 0.641784 0.560310 0.697369
O O13 0.048068 0.526728 0.958381
O O14 0.506726 0.472710 0.337337
O O15 0.293375 0.565101 0.096431
O O16 0.882972 0.758836 0.778303
O O17 0.500000 0.000000 0.500000
#
# Coordination Sequence:
#
# PCOD9008304 Si02
#       8
#     2   2   2   2   2   2   2   2
#     4  10  21  39  64  93 119 165 212 260 314 383
#     4  11  21  39  61  90 124 165 211 261 313 377
#     4  10  21  40  65  87 125 163 210 261 312 385
#     4  10  23  41  60  90 130 170 205 266 311 381
#     4  11  19  39  65  90 123 171 214 254 325 378
#     4  10  23  41  59  91 133 162 215 260 318 376
#     4  11  23  43  63  92 135 164 206 274 323 380
#     4  11  21  40  62  89 120 165 220 254 317 389
#
# _framework density 21.920081
#
# number of rings (size 3 to 8) (size 9 to 14) (size 15 to 20)
#    0.000    1.500    5.000    2.250    3.500    2.000 
#    2.250    0.000    0.000    0.000    0.000    0.000 
#    0.000    0.000    0.000    0.000    0.000    0.000 
#
# Total GULP energy -89231.007730 kJ/mol
# GULP energy per Si atom -5576.937983 kJ/mol
# Density = 2.187019 g / cm^3
# Si number density = 21.920081 Si / 1000 Ang^3
#
#
#
# Elastic Constant Matrix: (Units=GPa)
#
#
# Indices 1 2 3 4 5 6 
#
# 1 92.3126 43.1218 20.2034 6.7297 -23.1271 -10.4830
# 2 43.1218 212.2570 47.6501 21.5310 -23.9268 5.5642
# 3 20.2034 47.6501 103.4462 12.0802 -28.4304 2.6084
# 4 6.7297 21.5310 12.0802 14.6981 -9.3601 -11.2651
# 5 -23.1271 -23.9268 -28.4304 -9.3601 37.3055 1.9728
# 6 -10.4830 5.5642 2.6084 -11.2651 1.9728 47.1517
#
#
#
# Elastic Compliance Matrix: (Units=1/GPa)
#
#
# Indices 1 2 3 4 5 6 
#
# 1 0.014293 -0.002711 -0.000103 0.006475 0.008419 0.004698
# 2 -0.002711 0.006691 -0.001458 -0.011028 -0.001061 -0.003902
# 3 -0.000103 -0.001458 0.013189 -0.005349 0.007826 -0.002186
# 4 0.006475 -0.011028 -0.005349 0.124209 0.022349 0.031776
# 5 0.008419 -0.001061 0.007826 0.022349 0.042645 0.005119
# 6 0.004698 -0.003902 -0.002186 0.031776 0.005119 0.030212
#
#
# Mechanical properties :
#
#
# Convention : Reuss Voigt Hill
#
# Bulk Modulus (GPa) = 39.02064 69.99627 54.50846
# Shear Modulus (GPa) = 20.13493 39.63377 29.88435
#
# Velocity S-wave (km/s) = 3.03407 4.25679 3.69634
# Velocity P-wave (km/s) = 5.48763 7.49414 6.56796
#
# Compressibility (1/GPa) = 0.02562746
#
# Stress axis : x y z
#
# Youngs Moduli (GPa) = 69.96643 149.46157 75.82034
#
# Poissons Ratio (x) = 0.40525 0.00783
# Poissons Ratio (y) = 0.18971 0.11053
# Poissons Ratio (z) = 0.00722 0.21789
#
# Static dielectric constant tensor:
#      x y z
#    x 1.845110 -0.070270 -0.100960 
#    y -0.070270 1.867570 0.015560 
#    z -0.100960 0.015560 1.307980 
# 
# From -- ./inp_files/613806.got.cif
#   From: 2010.05.17/outbox.cif.g08.bks.cpg/sg2_307_cif.got.tgz:613806.got - 2010.06.03 11:33:40.
