data_PCOD9008261
_publ_section_title
;
Structure prediction by ZEFSAII (Michael W. Deem and Ramdas Pophale) SiO2 
 PCOD9008261
Probable space group: P -1
;
_chemical_formula_sum "Si O2"
_cell_formula_units_Z 16
_cell_length_a 20.004830
_cell_length_b 5.661032
_cell_length_c 7.503063
_cell_angle_alpha 120.472730
_cell_angle_beta 98.021587
_cell_angle_gamma 109.524725
_cell_volume 638.324895
_symmetry_space_group_name_H-M "P -1"
_symmetry_group_IT_number 2
_symmetry_cell_setting 'triclinic'
loop_
_space_group_symop_operation_xyz
x,y,z
-x,-y,-z
loop_
_atom_site_type_symbol
_atom_site_label
_atom_site_fract_x
_atom_site_fract_y
_atom_site_fract_z
Si Si1 0.174684 0.708744 0.554813
Si Si2 0.441306 0.625689 0.998280
Si Si3 0.207262 0.756072 0.999131
Si Si4 0.719945 0.615626 0.192957
Si Si5 0.460551 0.711918 0.614126
Si Si6 0.287228 0.461643 0.414608
Si Si7 0.997959 0.616457 0.762310
Si Si8 0.049813 0.231860 0.843597
O O1 0.237809 0.645427 0.448675
O O2 0.089392 0.509242 0.377247
O O3 0.202720 0.072695 0.688265
O O4 0.180543 0.659170 0.748087
O O5 0.354096 0.376093 0.910222
O O6 0.444145 0.693558 0.814193
O O7 0.500000 0.500000 0.000000
O O8 0.473891 0.933575 0.247347
O O9 0.238449 0.118688 0.182025
O O10 0.275662 0.669641 0.008958
O O11 0.135130 0.523657 0.001462
O O12 0.712587 0.580381 0.388072
O O13 0.500000 0.500000 0.500000
O O14 0.377630 0.617995 0.458291
O O15 0.018279 0.336157 0.698341
O O16 0.005110 0.765000 0.017105
O O17 0.048467 0.902894 0.758130
#
# Coordination Sequence:
#
# PCOD9008261 Si02
#       8
#     2   2   2   2   2   2   2   2
#     4  11  25  41  68  95 132 174 224 279 337 404
#     4  10  21  39  64  91 130 169 216 274 334 398
#     4  11  25  41  68  96 131 173 227 278 335 407
#     4  10  23  42  61  95 131 172 218 275 341 406
#     4  10  21  39  64  93 128 170 218 273 332 400
#     4  10  23  42  63  93 132 174 216 276 343 403
#     4  10  24  43  70 100 138 182 228 283 345 411
#     4  10  24  43  70 101 136 183 229 281 347 408
#
# _framework density 25.065608999999998
#
# number of rings (size 3 to 8) (size 9 to 14) (size 15 to 20)
#    0.000    1.750    0.000    2.250   10.500    5.500 
#    0.000    0.000    0.000    0.000    0.000    0.000 
#    0.000    0.000    0.000    0.000    0.000    0.000 
#
# Total GULP energy -89424.770669 kJ/mol
# GULP energy per Si atom -5589.048167 kJ/mol
# Density = 2.500856 g / cm^3
# Si number density = 25.065609 Si / 1000 Ang^3
#
#
#
# Elastic Constant Matrix: (Units=GPa)
#
#
# Indices 1 2 3 4 5 6 
#
# 1 112.8500 16.8459 51.8025 8.8641 13.2936 -4.9658
# 2 16.8459 87.5035 31.5219 13.0155 0.7308 -2.4023
# 3 51.8025 31.5219 101.5150 17.4244 2.0308 -0.5973
# 4 8.8641 13.0155 17.4244 38.7700 -0.7315 -2.5776
# 5 13.2936 0.7308 2.0308 -0.7315 45.6197 5.2239
# 6 -4.9658 -2.4023 -0.5973 -2.5776 5.2239 45.0227
#
#
#
# Elastic Compliance Matrix: (Units=1/GPa)
#
#
# Indices 1 2 3 4 5 6 
#
# 1 0.012153 -0.000071 -0.006107 0.000035 -0.003458 0.001659
# 2 -0.000071 0.013153 -0.003568 -0.002765 -0.000133 0.000504
# 3 -0.006107 -0.003568 0.014744 -0.004079 0.001235 -0.001045
# 4 0.000035 -0.002765 -0.004079 0.028648 0.000517 0.001382
# 5 -0.003458 -0.000133 0.001235 0.000517 0.023231 -0.003038
# 6 0.001659 0.000504 -0.001045 0.001382 -0.003038 0.022839
#
#
# Mechanical properties :
#
#
# Convention : Reuss Voigt Hill
#
# Bulk Modulus (GPa) = 48.63895 55.80102 52.21998
# Shear Modulus (GPa) = 35.43301 39.32902 37.38101
#
# Velocity S-wave (km/s) = 3.76388 3.96541 3.86596
# Velocity P-wave (km/s) = 6.19159 6.57847 6.38796
#
# Compressibility (1/GPa) = 0.02055965
#
# Stress axis : x y z
#
# Youngs Moduli (GPa) = 82.28723 76.02683 67.82399
#
# Poissons Ratio (x) = 0.00536 0.41417
# Poissons Ratio (y) = 0.00580 0.24200
# Poissons Ratio (z) = 0.50249 0.27127
#
# Static dielectric constant tensor:
#      x y z
#    x 1.997080 -0.014530 -0.018420 
#    y -0.014530 2.033610 0.013050 
#    z -0.018420 0.013050 2.027390 
# 
# From -- ./inp_files/340673.got.cif
#   From: 2010.05.17/outbox.cif.g08.bks.cpg/sg2_171_cif.got.tgz:340673.got - 2010.06.03 11:33:40.
