data_PCOD9008832
_publ_section_title
;
Structure prediction by ZEFSAII (Michael W. Deem and Ramdas Pophale) SiO2 
 PCOD9008832
Probable space group: P -1
;
_chemical_formula_sum "Si O2"
_cell_formula_units_Z 16
_cell_length_a 11.804568
_cell_length_b 14.542318
_cell_length_c 12.045394
_cell_angle_alpha 104.166069
_cell_angle_beta 122.926268
_cell_angle_gamma 29.840721
_cell_volume 725.269245
_symmetry_space_group_name_H-M "P -1"
_symmetry_group_IT_number 2
_symmetry_cell_setting 'triclinic'
loop_
_space_group_symop_operation_xyz
x,y,z
-x,-y,-z
loop_
_atom_site_type_symbol
_atom_site_label
_atom_site_fract_x
_atom_site_fract_y
_atom_site_fract_z
Si Si1 0.120240 0.741713 0.862799
Si Si2 0.604122 0.320020 0.626433
Si Si3 0.109001 0.580086 0.110624
Si Si4 0.262417 0.719900 0.558295
Si Si5 0.874154 0.936635 0.020934
Si Si6 0.182449 0.392826 0.882278
Si Si7 0.276479 0.192211 0.345575
Si Si8 0.747183 0.038158 0.535914
O O1 0.953776 0.900659 0.923275
O O2 0.962222 0.738942 0.792043
O O3 0.500000 0.500000 0.000000
O O4 0.994128 0.856015 0.710597
O O5 0.330680 0.566529 0.584507
O O6 0.750722 0.270873 0.577792
O O7 0.535870 0.254961 0.541146
O O8 0.874515 0.157186 0.811713
O O9 0.444106 0.403843 0.281615
O O10 0.932063 0.633170 0.129247
O O11 0.148177 0.487919 0.996311
O O12 0.942258 0.783407 0.045080
O O13 0.948607 0.950000 0.517784
O O14 0.530270 0.173457 0.953994
O O15 0.967881 0.564883 0.715893
O O16 0.553520 0.072433 0.394225
O O17 0.500000 0.000000 0.500000
#
# Coordination Sequence:
#
# PCOD9008832 Si02
#       8
#     2   2   2   2   2   2   2   2
#     4  11  24  46  71  91 136 176 222 283 330 398
#     4  10  22  38  63 101 130 169 225 265 332 398
#     4  10  21  39  66 101 138 176 222 275 338 400
#     4  10  21  41  64  95 137 172 215 277 327 396
#     4  11  23  41  65 105 135 172 230 277 336 403
#     4  11  22  40  68  96 136 180 222 276 345 400
#     4  10  24  46  65  94 130 178 228 277 335 390
#     4  11  23  43  67  92 129 178 223 267 333 392
#
# _framework density 22.060773999999999
#
# number of rings (size 3 to 8) (size 9 to 14) (size 15 to 20)
#    0.000    1.500    1.250    3.750    1.750    2.500 
#   13.500    1.250    0.000    0.000    0.000    0.000 
#    0.000    0.000    0.000    0.000    0.000    0.000 
#
# Total GULP energy -89112.521443 kJ/mol
# GULP energy per Si atom -5569.532590 kJ/mol
# Density = 2.201056 g / cm^3
# Si number density = 22.060774 Si / 1000 Ang^3
#
#
#
# Elastic Constant Matrix: (Units=GPa)
#
#
# Indices 1 2 3 4 5 6 
#
# 1 82.8388 23.9361 33.9858 13.2651 5.2313 1.1777
# 2 23.9361 80.3262 26.3729 -2.4669 3.5372 -7.4785
# 3 33.9858 26.3729 62.1548 -6.1346 7.7966 -1.8327
# 4 13.2651 -2.4669 -6.1346 23.8375 7.8494 0.1135
# 5 5.2313 3.5372 7.7966 7.8494 40.8274 0.4824
# 6 1.1777 -7.4785 -1.8327 0.1135 0.4824 30.9542
#
#
#
# Elastic Compliance Matrix: (Units=1/GPa)
#
#
# Indices 1 2 3 4 5 6 
#
# 1 0.020004 -0.002941 -0.011634 -0.015373 0.002894 -0.002149
# 2 -0.002941 0.015208 -0.004450 0.002233 -0.000562 0.003523
# 3 -0.011634 -0.004450 0.026594 0.014851 -0.006069 0.000982
# 4 -0.015373 0.002233 0.014851 0.058617 -0.012353 0.001981
# 5 0.002894 -0.000562 -0.006069 -0.012353 0.027717 -0.000992
# 6 -0.002149 0.003523 0.000982 0.001981 -0.000992 0.033305
#
#
# Mechanical properties :
#
#
# Convention : Reuss Voigt Hill
#
# Bulk Modulus (GPa) = 42.09318 43.76771 42.93045
# Shear Modulus (GPa) = 21.98643 28.52549 25.25596
#
# Velocity S-wave (km/s) = 3.16037 3.59979 3.38721
# Velocity P-wave (km/s) = 5.69554 6.09595 5.89915
#
# Compressibility (1/GPa) = 0.02375682
#
# Stress axis : x y z
#
# Youngs Moduli (GPa) = 49.99063 65.75493 37.60186
#
# Poissons Ratio (x) = 0.19338 0.43745
# Poissons Ratio (y) = 0.14702 0.16733
# Poissons Ratio (z) = 0.58158 0.29261
#
# Static dielectric constant tensor:
#      x y z
#    x 1.864050 0.098410 -0.041440 
#    y 0.098410 1.870470 0.023210 
#    z -0.041440 0.023210 1.884330 
# 
# From -- ./inp_files/434145.got.cif
#   From: 2010.05.17/outbox.cif.g08.bks.cpg/sg2_218_cif.got.tgz:434145.got - 2010.06.03 11:33:40.
