data_PCOD9008646
_publ_section_title
;
Structure prediction by ZEFSAII (Michael W. Deem and Ramdas Pophale) SiO2 
 PCOD9008646
Probable space group: P -1
;
_chemical_formula_sum "Si O2"
_cell_formula_units_Z 14
_cell_length_a 12.423218
_cell_length_b 11.805650
_cell_length_c 15.034821
_cell_angle_alpha 153.464146
_cell_angle_beta 131.355583
_cell_angle_gamma 37.167230
_cell_volume 583.924852
_symmetry_space_group_name_H-M "P -1"
_symmetry_group_IT_number 2
_symmetry_cell_setting 'triclinic'
loop_
_space_group_symop_operation_xyz
x,y,z
-x,-y,-z
loop_
_atom_site_type_symbol
_atom_site_label
_atom_site_fract_x
_atom_site_fract_y
_atom_site_fract_z
Si Si1 0.047409 0.050438 0.184332
Si Si2 0.666432 0.574444 0.586043
Si Si3 0.711539 0.064057 0.024337
Si Si4 0.435702 0.447765 0.283769
Si Si5 0.177755 0.260654 0.553659
Si Si6 0.048522 0.008811 0.430450
Si Si7 0.626106 0.502414 0.139315
O O1 0.161896 0.040643 0.322715
O O2 0.905220 0.987016 0.091727
O O3 0.940296 0.400486 0.325995
O O4 0.179507 0.790030 0.000845
O O5 0.519016 0.640567 0.481372
O O6 0.595065 0.604034 0.667915
O O7 0.849992 0.207517 0.415731
O O8 0.715254 0.818149 0.787924
O O9 0.594150 0.133948 0.096726
O O10 0.599859 0.401681 0.149017
O O11 0.239706 0.653627 0.272924
O O12 0.103593 0.231936 0.586139
O O13 0.361662 0.210537 0.641361
O O14 0.000000 0.000000 0.500000
O O15 0.500000 0.500000 0.000000
#
# Coordination Sequence:
#
# PCOD9008646 Si02
#       7
#     2   2   2   2   2   2   2
#     4  10  22  41  64  88 118 169 209 251 325 368
#     4  10  21  42  64  89 132 168 206 263 316 375
#     4  11  22  40  65  89 124 164 213 260 312 378
#     4  10  23  39  63  97 124 168 215 256 316 378
#     4  10  21  41  64  86 124 162 208 255 308 380
#     4  10  21  39  65  93 125 165 208 256 315 375
#     4  11  25  38  58  94 124 160 207 259 313 371
#
# _framework density 23.975688000000002
#
# number of rings (size 3 to 8) (size 9 to 14) (size 15 to 20)
#    0.000    1.714    0.000    4.714    4.000    2.857 
#    0.000    0.000    0.000    9.429    0.000    0.000 
#    0.000    0.000    0.000    0.000    0.000    0.000 
#
# Total GULP energy -78015.977614 kJ/mol
# GULP energy per Si atom -5572.569830 kJ/mol
# Density = 2.392112 g / cm^3
# Si number density = 23.975688 Si / 1000 Ang^3
#
#
#
# Elastic Constant Matrix: (Units=GPa)
#
#
# Indices 1 2 3 4 5 6 
#
# 1 92.2096 21.0953 23.9654 -5.0619 4.1652 -3.0789
# 2 21.0953 64.8167 25.6669 -16.1630 0.0658 -10.4278
# 3 23.9654 25.6669 110.2008 -27.0676 8.8170 -13.2220
# 4 -5.0619 -16.1630 -27.0676 38.2847 -13.6513 -0.0009
# 5 4.1652 0.0658 8.8170 -13.6513 36.6133 7.4203
# 6 -3.0789 -10.4278 -13.2220 -0.0009 7.4203 35.3565
#
#
#
# Elastic Compliance Matrix: (Units=1/GPa)
#
#
# Indices 1 2 3 4 5 6 
#
# 1 0.012209 -0.003685 -0.002251 -0.002067 -0.001499 -0.000551
# 2 -0.003685 0.019905 -0.001630 0.007757 0.002785 0.004356
# 3 -0.002251 -0.001630 0.012327 0.007460 -0.000758 0.004093
# 4 -0.002067 0.007757 0.007460 0.038832 0.012440 0.002288
# 5 -0.001499 0.002785 -0.000758 0.012440 0.033647 -0.006654
# 6 -0.000551 0.004356 0.004093 0.002288 -0.006654 0.032447
#
#
# Mechanical properties :
#
#
# Convention : Reuss Voigt Hill
#
# Bulk Modulus (GPa) = 34.11699 45.40916 39.76307
# Shear Modulus (GPa) = 28.69156 35.15086 31.92121
#
# Velocity S-wave (km/s) = 3.46308 3.83313 3.65279
# Velocity P-wave (km/s) = 5.50012 6.21058 5.86611
#
# Compressibility (1/GPa) = 0.02931091
#
# Stress axis : x y z
#
# Youngs Moduli (GPa) = 81.90901 50.23837 81.12085
#
# Poissons Ratio (x) = 0.18512 0.18258
# Poissons Ratio (y) = 0.30182 0.13219
# Poissons Ratio (z) = 0.18435 0.08187
#
# Static dielectric constant tensor:
#      x y z
#    x 1.985850 -0.036630 0.003780 
#    y -0.036630 1.996970 -0.013100 
#    z 0.003780 -0.013100 1.968800 
# 
# From -- ./inp_files/426393.got.cif
#   From: 2010.05.17/outbox.cif.g08.bks.cpg/sg2_214_cif.got.tgz:426393.got - 2010.06.03 11:33:40.
