data_PCOD9008552
_publ_section_title
;
Structure prediction by ZEFSAII (Michael W. Deem and Ramdas Pophale) SiO2 
 PCOD9008552
Probable space group: P -1
;
_chemical_formula_sum "Si O2"
_cell_formula_units_Z 16
_cell_length_a 16.093981
_cell_length_b 16.804969
_cell_length_c 15.395149
_cell_angle_alpha 17.128843
_cell_angle_beta 143.999899
_cell_angle_gamma 145.377204
_cell_volume 690.369817
_symmetry_space_group_name_H-M "P -1"
_symmetry_group_IT_number 2
_symmetry_cell_setting 'triclinic'
loop_
_space_group_symop_operation_xyz
x,y,z
-x,-y,-z
loop_
_atom_site_type_symbol
_atom_site_label
_atom_site_fract_x
_atom_site_fract_y
_atom_site_fract_z
Si Si1 0.513191 0.303166 0.913357
Si Si2 0.442038 0.109697 0.750172
Si Si3 0.998031 0.552664 0.304212
Si Si4 0.699050 0.532864 0.305569
Si Si5 0.463643 0.204615 0.326147
Si Si6 0.845551 0.504001 0.041475
Si Si7 0.886523 0.076763 0.389622
Si Si8 0.840226 0.950993 0.831086
O O1 0.533677 0.559432 0.593014
O O2 0.384903 0.325951 0.844442
O O3 0.668666 0.355745 0.041927
O O4 0.486453 0.015692 0.138179
O O5 0.266926 0.963466 0.748118
O O6 0.500000 0.000000 0.000000
O O7 0.166828 0.560051 0.443750
O O8 0.902097 0.279730 0.562183
O O9 0.928244 0.488332 0.216752
O O10 0.967162 0.831631 0.024187
O O11 0.572872 0.271198 0.429831
O O12 0.769023 0.759741 0.052281
O O13 0.288127 0.100585 0.296836
O O14 0.500000 0.000000 0.500000
O O15 0.500000 0.500000 0.000000
O O16 0.860484 0.829522 0.696505
O O17 0.917174 0.367063 0.166340
O O18 0.000000 0.000000 0.500000
#
# Coordination Sequence:
#
# PCOD9008552 Si02
#       8
#     2   2   2   2   2   2   2   2
#     4  10  23  40  63  91 126 166 204 257 310 373
#     4  10  22  40  63  92 126 160 201 253 314 370
#     4  12  25  41  64  91 128 169 208 269 321 365
#     4  11  25  42  65  96 125 162 222 270 313 372
#     4  10  22  40  62  86 116 160 208 254 307 375
#     4  10  22  41  59  90 126 162 204 249 312 375
#     4  10  21  39  65  90 120 160 203 249 304 378
#     4  11  24  43  62  88 126 171 211 261 323 376
#
# _framework density 23.175984
#
# number of rings (size 3 to 8) (size 9 to 14) (size 15 to 20)
#    0.000    1.500    0.000    4.500    0.000   11.000 
#    0.000    0.000    0.000    0.000    0.000    0.000 
#    0.000    0.000    0.000    0.000    0.000    0.000 
#
# Total GULP energy -89592.446076 kJ/mol
# GULP energy per Si atom -5599.527880 kJ/mol
# Density = 2.312323 g / cm^3
# Si number density = 23.175984 Si / 1000 Ang^3
#
#
#
# Elastic Constant Matrix: (Units=GPa)
#
#
# Indices 1 2 3 4 5 6 
#
# 1 96.3345 34.0975 14.1695 30.1513 27.2197 -3.2607
# 2 34.0975 118.0200 47.1899 42.7493 -1.7007 0.3747
# 3 14.1695 47.1899 115.1427 11.8936 16.2393 -7.7494
# 4 30.1513 42.7493 11.8936 51.6143 -1.0189 0.9897
# 5 27.2197 -1.7007 16.2393 -1.0189 40.3486 7.9725
# 6 -3.2607 0.3747 -7.7494 0.9897 7.9725 25.0420
#
#
#
# Elastic Compliance Matrix: (Units=1/GPa)
#
#
# Indices 1 2 3 4 5 6 
#
# 1 0.018990 -0.003557 0.002966 -0.009321 -0.016159 0.008957
# 2 -0.003557 0.015259 -0.006021 -0.008974 0.006055 -0.004128
# 3 0.002966 -0.006021 0.012482 0.000071 -0.008679 0.007099
# 4 -0.009321 -0.008974 0.000071 0.032479 0.007645 -0.004775
# 5 -0.016159 0.006055 -0.008679 0.007645 0.043380 -0.018993
# 6 0.008957 -0.004128 0.007099 -0.004775 -0.018993 0.049593
#
#
# Mechanical properties :
#
#
# Convention : Reuss Voigt Hill
#
# Bulk Modulus (GPa) = 29.84513 57.82343 43.83428
# Shear Modulus (GPa) = 25.43540 39.00369 32.21954
#
# Velocity S-wave (km/s) = 3.31643 4.10681 3.73260
# Velocity P-wave (km/s) = 5.25076 6.89142 6.12627
#
# Compressibility (1/GPa) = 0.03350630
#
# Stress axis : x y z
#
# Youngs Moduli (GPa) = 52.65997 65.53339 80.11458
#
# Poissons Ratio (x) = 0.23312 -0.23759
# Poissons Ratio (y) = 0.18732 0.48237
# Poissons Ratio (z) = -0.15617 0.39457
#
# Static dielectric constant tensor:
#      x y z
#    x 1.876230 0.005370 -0.030180 
#    y 0.005370 1.871210 0.016480 
#    z -0.030180 0.016480 1.862050 
# 
# From -- ./inp_files/534024.got.cif
#   From: 2010.05.17/outbox.cif.g08.bks.cpg/sg2_268_cif.got.tgz:534024.got - 2010.06.03 11:33:40.
