data_PCOD9008554
_publ_section_title
;
Structure prediction by ZEFSAII (Michael W. Deem and Ramdas Pophale) SiO2 
 PCOD9008554
Probable space group: P -1
;
_chemical_formula_sum "Si O2"
_cell_formula_units_Z 16
_cell_length_a 12.805393
_cell_length_b 11.834671
_cell_length_c 5.664789
_cell_angle_alpha 70.434440
_cell_angle_beta 66.279197
_cell_angle_gamma 77.232358
_cell_volume 736.862012
_symmetry_space_group_name_H-M "P -1"
_symmetry_group_IT_number 2
_symmetry_cell_setting 'triclinic'
loop_
_space_group_symop_operation_xyz
x,y,z
-x,-y,-z
loop_
_atom_site_type_symbol
_atom_site_label
_atom_site_fract_x
_atom_site_fract_y
_atom_site_fract_z
Si Si1 0.299752 0.840288 0.749916
Si Si2 0.224281 0.621292 0.207994
Si Si3 0.225303 0.979918 0.124370
Si Si4 0.456850 0.872958 0.190315
Si Si5 0.228682 0.360745 0.498571
Si Si6 0.009273 0.614205 0.078902
Si Si7 0.895655 0.201946 0.420167
Si Si8 0.298619 0.235588 0.024747
O O1 0.419404 0.858443 0.504780
O O2 0.195907 0.819009 0.683550
O O3 0.309461 0.713376 0.968628
O O4 0.249038 0.964502 0.836646
O O5 0.274636 0.491546 0.341630
O O6 0.132019 0.599302 0.104467
O O7 0.153854 0.693420 0.429745
O O8 0.333549 0.884072 0.170229
O O9 0.109053 0.921741 0.339554
O O10 0.247990 0.105939 0.126765
O O11 0.562362 0.780805 0.083841
O O12 0.500000 0.000000 0.000000
O O13 0.268145 0.303375 0.756214
O O14 0.091014 0.379262 0.643016
O O15 0.257097 0.291555 0.274749
O O16 0.002178 0.739470 0.846591
O O17 0.000000 0.500000 0.000000
#
# Coordination Sequence:
#
# PCOD9008554 Si02
#       8
#     2   2   2   2   2   2   2   2
#     4   9  19  36  68  90 118 155 222 268 298 359
#     4  10  21  39  65  90 122 159 214 263 311 369
#     4   9  20  40  66  90 121 165 215 259 307 372
#     4   9  20  38  65  91 119 165 222 252 305 370
#     4  12  26  41  60  96 134 166 202 263 321 377
#     4  11  21  38  68  92 120 163 220 256 307 374
#     4   9  19  36  65  94 115 154 222 265 302 356
#     4  11  27  40  62  93 136 166 204 258 326 375
#
# _framework density 21.713699999999999
#
# number of rings (size 3 to 8) (size 9 to 14) (size 15 to 20)
#    0.000    2.000    1.250    1.125   10.500    1.000 
#    0.000    2.500    0.000    0.000    0.000    0.000 
#    0.000    0.000    0.000    0.000    0.000    0.000 
#
# Total GULP energy -89078.123380 kJ/mol
# GULP energy per Si atom -5567.382711 kJ/mol
# Density = 2.166428 g / cm^3
# Si number density = 21.713700 Si / 1000 Ang^3
#
#
#
# Elastic Constant Matrix: (Units=GPa)
#
#
# Indices 1 2 3 4 5 6 
#
# 1 40.1138 19.1993 12.0608 7.1636 3.0970 -0.3214
# 2 19.1993 73.2956 52.9052 15.6543 -2.0208 6.7189
# 3 12.0608 52.9052 146.7808 8.0513 -23.4758 1.3735
# 4 7.1636 15.6543 8.0513 36.8050 4.6900 4.2649
# 5 3.0970 -2.0208 -23.4758 4.6900 39.0979 0.7393
# 6 -0.3214 6.7189 1.3735 4.2649 0.7393 24.7649
#
#
#
# Elastic Compliance Matrix: (Units=1/GPa)
#
#
# Indices 1 2 3 4 5 6 
#
# 1 0.029149 -0.007430 0.000005 -0.002540 -0.002440 0.002904
# 2 -0.007430 0.022603 -0.007492 -0.005726 -0.001965 -0.004769
# 3 0.000005 -0.007492 0.010437 0.000009 0.005854 0.001278
# 4 -0.002540 -0.005726 0.000009 0.031004 -0.003739 -0.003708
# 5 -0.002440 -0.001965 0.005854 -0.003739 0.029633 -0.000064
# 6 0.002904 -0.004769 0.001278 -0.003708 -0.000064 0.042281
#
#
# Mechanical properties :
#
#
# Convention : Reuss Voigt Hill
#
# Bulk Modulus (GPa) = 30.90746 47.61339 39.26043
# Shear Modulus (GPa) = 24.30414 31.86855 28.08635
#
# Velocity S-wave (km/s) = 3.34922 3.83517 3.60041
# Velocity P-wave (km/s) = 5.40568 6.44879 5.95014
#
# Compressibility (1/GPa) = 0.03235464
#
# Stress axis : x y z
#
# Youngs Moduli (GPa) = 34.30651 44.24142 95.81539
#
# Poissons Ratio (x) = 0.32870 -0.00045
# Poissons Ratio (y) = 0.25489 0.71786
# Poissons Ratio (z) = -0.00016 0.33146
#
# Static dielectric constant tensor:
#      x y z
#    x 1.857140 -0.031050 0.088760 
#    y -0.031050 1.815190 -0.015010 
#    z 0.088760 -0.015010 2.066630 
# 
# From -- ./inp_files/94546.got.cif
#   From: 2010.05.17/outbox.cif.g08.bks.cpg/sg2_48_cif.got.tgz:94546.got - 2010.06.03 11:33:40.
