data_PCOD9008873
_publ_section_title
;
Structure prediction by ZEFSAII (Michael W. Deem and Ramdas Pophale) SiO2 
 PCOD9008873
Probable space group: P -1
;
_chemical_formula_sum "Si O2"
_cell_formula_units_Z 15
_cell_length_a 8.390212
_cell_length_b 14.762538
_cell_length_c 5.764782
_cell_angle_alpha 84.674004
_cell_angle_beta 88.670539
_cell_angle_gamma 74.599077
_cell_volume 685.417829
_symmetry_space_group_name_H-M "P -1"
_symmetry_group_IT_number 2
_symmetry_cell_setting 'triclinic'
loop_
_space_group_symop_operation_xyz
x,y,z
-x,-y,-z
loop_
_atom_site_type_symbol
_atom_site_label
_atom_site_fract_x
_atom_site_fract_y
_atom_site_fract_z
Si Si1 0.949934 0.805707 0.398416
Si Si2 0.882408 0.364699 0.880095
Si Si3 0.371464 0.982683 0.316913
Si Si4 0.000000 0.000000 0.500000
Si Si5 0.619325 0.439050 0.200707
Si Si6 0.821334 0.696909 0.796528
Si Si7 0.629718 0.847378 0.071332
Si Si8 0.293602 0.449112 0.447348
O O1 0.909692 0.770592 0.660812
O O2 0.780465 0.825814 0.252510
O O3 0.077382 0.720719 0.281455
O O4 0.009930 0.898804 0.394620
O O5 0.801876 0.461891 0.726940
O O6 0.750360 0.357366 0.084403
O O7 0.050956 0.363492 0.008853
O O8 0.459203 0.884860 0.206249
O O9 0.500000 0.000000 0.500000
O O10 0.196810 0.989217 0.435413
O O11 0.352257 0.065803 0.109121
O O12 0.490147 0.414433 0.389816
O O13 0.714705 0.507231 0.307901
O O14 0.500000 0.500000 0.000000
O O15 0.782804 0.634756 0.602755
O O16 0.660374 0.756044 0.926420
#
# Coordination Sequence:
#
# PCOD9008873 Si02
#       8
#     2   2   2   1   2   2   2   2
#     4  11  24  42  63  96 133 170 228 277 337 406
#     4  10  22  39  62  95 130 169 222 274 330 408
#     4  11  22  45  70  97 132 174 227 283 341 407
#     4  12  24  44  72  94 134 178 218 290 344 388
#     4   9  20  39  60  89 125 171 224 268 330 399
#     4  11  22  40  64  98 134 171 221 275 335 403
#     4  10  22  43  67  94 137 174 220 282 336 412
#     4  10  21  39  66  89 132 175 215 276 334 395
#
# _framework density 21.884459
#
# number of rings (size 3 to 8) (size 9 to 14) (size 15 to 20)
#    0.000    1.600    2.667    1.200    0.000    8.000 
#    0.000    9.333    0.000    0.000    0.000    0.000 
#    0.000    0.000    0.000    0.000    0.000    0.000 
#
# Total GULP energy -83542.332169 kJ/mol
# GULP energy per Si atom -5569.488811 kJ/mol
# Density = 2.183465 g / cm^3
# Si number density = 21.884459 Si / 1000 Ang^3
#
#
#
# Elastic Constant Matrix: (Units=GPa)
#
#
# Indices 1 2 3 4 5 6 
#
# 1 107.4564 38.6295 29.0379 14.7757 -14.8592 -20.4451
# 2 38.6295 86.5135 26.0557 25.9211 -1.5576 -21.0827
# 3 29.0379 26.0557 77.4715 14.1334 5.4983 -12.7948
# 4 14.7757 25.9211 14.1334 39.0388 -16.2377 -2.5976
# 5 -14.8592 -1.5576 5.4983 -16.2377 34.5080 19.9616
# 6 -20.4451 -21.0827 -12.7948 -2.5976 19.9616 40.6299
#
#
#
# Elastic Compliance Matrix: (Units=1/GPa)
#
#
# Indices 1 2 3 4 5 6 
#
# 1 0.013108 -0.006532 -0.004947 0.005307 0.010456 -0.003149
# 2 -0.006532 0.027111 0.004815 -0.028187 -0.030303 0.025383
# 3 -0.004947 0.004815 0.020690 -0.017275 -0.023014 0.016727
# 4 0.005307 -0.028187 -0.017275 0.071794 0.062805 -0.043662
# 5 0.010456 -0.030303 -0.023014 0.062805 0.102340 -0.063974
# 6 -0.003149 0.025383 0.016727 -0.043662 -0.063974 0.070105
#
#
# Mechanical properties :
#
#
# Convention : Reuss Voigt Hill
#
# Bulk Modulus (GPa) = 21.01645 50.98752 36.00198
# Shear Modulus (GPa) = 14.95502 34.68322 24.81912
#
# Velocity S-wave (km/s) = 2.61696 3.98532 3.37129
# Velocity P-wave (km/s) = 4.33076 6.67279 5.62501
#
# Compressibility (1/GPa) = 0.04758178
#
# Stress axis : x y z
#
# Youngs Moduli (GPa) = 76.28819 36.88577 48.33251
#
# Poissons Ratio (x) = 0.24095 0.23908
# Poissons Ratio (y) = 0.49834 -0.23274
# Poissons Ratio (z) = 0.37736 -0.17762
#
# Static dielectric constant tensor:
#      x y z
#    x 1.802420 -0.014340 -0.035450 
#    y -0.014340 1.808860 -0.000980 
#    z -0.035450 -0.000980 1.849140 
# 
# From -- ./inp_files/38753.got.cif
#   From: 2010.05.17/outbox.cif.g08.bks.cpg/sg2_20_cif.got.tgz:38753.got - 2010.06.03 11:33:40.
