data_PCOD9008760
_publ_section_title
;
Structure prediction by ZEFSAII (Michael W. Deem and Ramdas Pophale) SiO2 
 PCOD9008760
Probable space group: P -1
;
_chemical_formula_sum "Si O2"
_cell_formula_units_Z 15
_cell_length_a 15.120236
_cell_length_b 19.647363
_cell_length_c 11.605651
_cell_angle_alpha 149.612550
_cell_angle_beta 40.358143
_cell_angle_gamma 160.284945
_cell_volume 562.457557
_symmetry_space_group_name_H-M "P -1"
_symmetry_group_IT_number 2
_symmetry_cell_setting 'triclinic'
loop_
_space_group_symop_operation_xyz
x,y,z
-x,-y,-z
loop_
_atom_site_type_symbol
_atom_site_label
_atom_site_fract_x
_atom_site_fract_y
_atom_site_fract_z
Si Si1 0.091696 0.715527 0.943834
Si Si2 0.500000 0.500000 0.500000
Si Si3 0.508795 0.906191 0.688007
Si Si4 0.711125 0.788713 0.264484
Si Si5 0.105182 0.887656 0.731898
Si Si6 0.463371 0.438846 0.189198
Si Si7 0.820506 0.997720 0.912867
Si Si8 0.706220 0.201882 0.696026
O O1 0.205370 0.689220 0.713211
O O2 0.847477 0.459830 0.894861
O O3 0.044412 0.792447 0.010630
O O4 0.320809 0.947187 0.148649
O O5 0.546186 0.484921 0.303329
O O6 0.540557 0.697064 0.705177
O O7 0.579053 0.821990 0.440972
O O8 0.599026 0.090987 0.769998
O O9 0.698099 0.726097 0.316743
O O10 0.018065 0.011418 0.243613
O O11 0.500000 0.500000 0.000000
O O12 0.090794 0.749177 0.459935
O O13 0.813065 0.709360 0.758957
O O14 0.167171 0.921191 0.856244
O O15 0.344904 0.195662 0.902330
O O16 0.500000 0.000000 0.500000
#
# Coordination Sequence:
#
# PCOD9008760 Si02
#       8
#     2   1   2   2   2   2   2   2
#     4  11  27  51  73 103 150 192 240 295 364 430
#     4  10  24  42  64 102 138 184 226 286 358 428
#     4  11  27  50  73 104 144 197 239 297 362 426
#     4  12  24  43  75 109 140 180 243 299 353 428
#     4  10  22  42  65 101 139 185 228 287 354 418
#     4  10  21  39  65  96 141 179 227 286 356 417
#     4  11  25  46  72 107 142 187 235 298 364 421
#     4  12  27  44  73 107 139 191 243 295 349 432
#
# _framework density 26.668678
#
# number of rings (size 3 to 8) (size 9 to 14) (size 15 to 20)
#    0.000    1.067    1.333    3.600    7.467    4.267 
#    4.800    0.000    0.000    0.000    0.000    0.000 
#    0.000    0.000    0.000    0.000    0.000    0.000 
#
# Total GULP energy -83634.222263 kJ/mol
# GULP energy per Si atom -5575.614818 kJ/mol
# Density = 2.660798 g / cm^3
# Si number density = 26.668678 Si / 1000 Ang^3
#
#
#
# Elastic Constant Matrix: (Units=GPa)
#
#
# Indices 1 2 3 4 5 6 
#
# 1 91.9767 25.0297 15.7095 -6.6548 -12.7293 -15.2455
# 2 25.0297 80.7651 4.1834 -15.9444 -20.0423 -34.6294
# 3 15.7095 4.1834 77.6047 -18.4866 -4.8943 -0.6655
# 4 -6.6548 -15.9444 -18.4866 39.3618 -5.3867 -9.5974
# 5 -12.7293 -20.0423 -4.8943 -5.3867 37.6620 -1.9847
# 6 -15.2455 -34.6294 -0.6655 -9.5974 -1.9847 54.7004
#
#
#
# Elastic Compliance Matrix: (Units=1/GPa)
#
#
# Indices 1 2 3 4 5 6 
#
# 1 0.012733 -0.000701 -0.001619 0.002596 0.004286 0.003696
# 2 -0.000701 0.036867 0.006881 0.028716 0.025923 0.029207
# 3 -0.001619 0.006881 0.016434 0.012867 0.007440 0.006632
# 4 0.002596 0.028716 0.012867 0.054456 0.027180 0.029600
# 5 0.004286 0.025923 0.007440 0.027180 0.047926 0.024204
# 6 0.003696 0.029207 0.006632 0.029600 0.024204 0.043954
#
#
# Mechanical properties :
#
#
# Convention : Reuss Voigt Hill
#
# Bulk Modulus (GPa) = 13.30600 37.79907 25.55253
# Shear Modulus (GPa) = 21.90075 40.03976 30.97026
#
# Velocity S-wave (km/s) = 2.86880 3.87897 3.41148
# Velocity P-wave (km/s) = 3.99669 5.85373 5.01197
#
# Compressibility (1/GPa) = 0.07515408
#
# Stress axis : x y z
#
# Youngs Moduli (GPa) = 78.53336 27.12419 60.84983
#
# Poissons Ratio (x) = 0.01903 0.09854
# Poissons Ratio (y) = 0.05509 -0.41868
# Poissons Ratio (z) = 0.12718 -0.18663
#
# Static dielectric constant tensor:
#      x y z
#    x 2.062230 -0.094080 -0.156470 
#    y -0.094080 2.253670 -0.171410 
#    z -0.156470 -0.171410 2.133570 
# 
# From -- ./inp_files/467177.got.cif
#   From: 2010.05.17/outbox.cif.g08.bks.cpg/sg2_234_cif.got.tgz:467177.got - 2010.06.03 11:33:40.
