data_PCOD9008002
_publ_section_title
;
Structure prediction by ZEFSAII (Michael W. Deem and Ramdas Pophale) SiO2 
 PCOD9008002
Probable space group: P -1
;
_chemical_formula_sum "Si O2"
_cell_formula_units_Z 16
_cell_length_a 5.020302
_cell_length_b 19.824642
_cell_length_c 7.941054
_cell_angle_alpha 96.476919
_cell_angle_beta 120.652747
_cell_angle_gamma 69.721292
_cell_volume 635.762433
_symmetry_space_group_name_H-M "P -1"
_symmetry_group_IT_number 2
_symmetry_cell_setting 'triclinic'
loop_
_space_group_symop_operation_xyz
x,y,z
-x,-y,-z
loop_
_atom_site_type_symbol
_atom_site_label
_atom_site_fract_x
_atom_site_fract_y
_atom_site_fract_z
Si Si1 0.474235 0.805179 0.303791
Si Si2 0.412614 0.267239 0.319639
Si Si3 0.807825 0.127734 0.252101
Si Si4 0.657260 0.455674 0.870328
Si Si5 0.508877 0.039694 0.337299
Si Si6 0.265691 0.106366 0.822522
Si Si7 0.405480 0.403951 0.220115
Si Si8 0.291924 0.686090 0.029850
O O1 0.590535 0.766332 0.508023
O O2 0.701537 0.847277 0.316398
O O3 0.105804 0.862916 0.221753
O O4 0.456044 0.744211 0.149433
O O5 0.711932 0.209807 0.301561
O O6 0.429648 0.347658 0.359961
O O7 0.098518 0.274995 0.101653
O O8 0.769566 0.080216 0.390045
O O9 0.142270 0.098040 0.245544
O O10 0.516276 0.120154 0.040238
O O11 0.547822 0.519266 0.715253
O O12 0.500000 0.500000 0.000000
O O13 0.586968 0.381102 0.819015
O O14 0.045860 0.427127 0.024625
O O15 0.500000 0.000000 0.500000
O O16 0.590137 0.976926 0.207602
O O17 0.632047 0.353997 0.136177
#
# Coordination Sequence:
#
# PCOD9008002 Si02
#       8
#     2   2   2   2   2   2   2   2
#     4  12  26  42  66  96 133 171 221 269 326 384
#     4  11  24  39  63  95 128 171 214 274 323 387
#     4  12  24  42  68  93 129 173 218 266 331 384
#     4   8  16  34  61  95 123 169 212 262 315 387
#     4  12  25  43  66  96 129 170 219 271 326 389
#     4  12  25  46  64  95 130 172 223 269 325 392
#     4   9  18  35  65  90 129 167 216 260 324 381
#     4  10  21  39  63  93 129 170 217 263 327 384
#
# _framework density 25.166637000000001
#
# number of rings (size 3 to 8) (size 9 to 14) (size 15 to 20)
#    0.000    1.250    1.250    4.875    5.250    0.000 
#    0.000    0.625    0.000   25.500    0.000    0.000 
#    0.000    0.000    0.000    0.000    0.000    0.000 
#
# Total GULP energy -89500.179093 kJ/mol
# GULP energy per Si atom -5593.761193 kJ/mol
# Density = 2.510936 g / cm^3
# Si number density = 25.166637 Si / 1000 Ang^3
#
#
#
# Elastic Constant Matrix: (Units=GPa)
#
#
# Indices 1 2 3 4 5 6 
#
# 1 119.2011 51.6767 1.5078 -8.8631 3.7207 -8.5515
# 2 51.6767 121.4318 35.1058 -30.2510 -4.4496 -1.2605
# 3 1.5078 35.1058 72.3439 -5.4975 -16.1538 2.0565
# 4 -8.8631 -30.2510 -5.4975 22.9362 7.7576 -7.5372
# 5 3.7207 -4.4496 -16.1538 7.7576 29.4380 -14.2213
# 6 -8.5515 -1.2605 2.0565 -7.5372 -14.2213 44.0564
#
#
#
# Elastic Compliance Matrix: (Units=1/GPa)
#
#
# Indices 1 2 3 4 5 6 
#
# 1 0.010852 -0.006039 0.002583 -0.002863 0.000624 0.001525
# 2 -0.006039 0.018922 -0.008795 0.023268 -0.006537 0.001650
# 3 0.002583 -0.008795 0.020111 -0.009502 0.012755 0.001803
# 4 -0.002863 0.023268 -0.009502 0.079839 -0.018375 0.008281
# 5 0.000624 -0.006537 0.012755 -0.018375 0.050833 0.012604
# 6 0.001525 0.001650 0.001803 0.008281 0.012604 0.028442
#
#
# Mechanical properties :
#
#
# Convention : Reuss Voigt Hill
#
# Bulk Modulus (GPa) = 39.39645 54.39526 46.89585
# Shear Modulus (GPa) = 20.66436 34.26524 27.46480
#
# Velocity S-wave (km/s) = 2.86860 3.69390 3.30709
# Velocity P-wave (km/s) = 5.16333 6.31301 5.76690
#
# Compressibility (1/GPa) = 0.02538300
#
# Stress axis : x y z
#
# Youngs Moduli (GPa) = 92.15113 52.84945 49.72295
#
# Poissons Ratio (x) = 0.31917 -0.12843
# Poissons Ratio (y) = 0.55653 0.43729
# Poissons Ratio (z) = -0.23802 0.46478
#
# Static dielectric constant tensor:
#      x y z
#    x 1.403250 0.684710 -0.234910 
#    y 0.684710 1.405330 0.097200 
#    z -0.234910 0.097200 2.008350 
# 
# From -- ./inp_files/56483.got.cif
#   From: 2010.05.17/outbox.cif.g08.bks.cpg/sg2_29_cif.got.tgz:56483.got - 2010.06.03 11:33:40.
