data_PCOD9008507
_publ_section_title
;
Structure prediction by ZEFSAII (Michael W. Deem and Ramdas Pophale) SiO2 
 PCOD9008507
Probable space group: P -1
;
_chemical_formula_sum "Si O2"
_cell_formula_units_Z 16
_cell_length_a 8.475333
_cell_length_b 14.310942
_cell_length_c 7.826047
_cell_angle_alpha 69.101459
_cell_angle_beta 93.009640
_cell_angle_gamma 137.955660
_cell_volume 558.607591
_symmetry_space_group_name_H-M "P -1"
_symmetry_group_IT_number 2
_symmetry_cell_setting 'triclinic'
loop_
_space_group_symop_operation_xyz
x,y,z
-x,-y,-z
loop_
_atom_site_type_symbol
_atom_site_label
_atom_site_fract_x
_atom_site_fract_y
_atom_site_fract_z
Si Si1 0.204634 0.775849 0.235739
Si Si2 0.118663 0.541926 0.689020
Si Si3 0.405653 0.044813 0.289351
Si Si4 0.008472 0.362604 0.136822
Si Si5 0.724930 0.675236 0.636495
Si Si6 0.339747 0.135916 0.916268
Si Si7 0.771793 0.686356 0.225340
Si Si8 0.688566 0.881430 0.451917
O O1 0.412474 0.812347 0.128228
O O2 0.994687 0.588990 0.370856
O O3 0.046663 0.782784 0.117912
O O4 0.335665 0.901274 0.310979
O O5 0.952817 0.550668 0.747879
O O6 0.388056 0.710616 0.533226
O O7 0.125466 0.479460 0.907455
O O8 0.706119 0.206847 0.205462
O O9 0.298305 0.020189 0.483296
O O10 0.268833 0.055396 0.146750
O O11 0.137411 0.322639 0.216006
O O12 0.798799 0.693199 0.429811
O O13 0.439860 0.494042 0.732996
O O14 0.767912 0.813899 0.579994
O O15 0.323467 0.248116 0.860502
O O16 0.214576 0.057915 0.774134
#
# Coordination Sequence:
#
# PCOD9008507 Si02
#       8
#     2   2   2   2   2   2   2   2
#     4  12  24  45  70 102 143 191 231 285 357 423
#     4  10  21  39  65 105 130 182 236 280 360 405
#     4  11  26  47  68 106 142 187 240 277 355 430
#     4  10  22  40  67 102 141 181 232 297 346 417
#     4  10  21  43  67 102 147 174 235 304 344 416
#     4  11  25  47  71  99 150 183 231 300 339 424
#     4  10  24  42  68 110 134 189 238 285 360 412
#     4  10  24  45  69 104 137 186 236 287 360 405
#
# _framework density 28.642645000000002
#
# number of rings (size 3 to 8) (size 9 to 14) (size 15 to 20)
#    0.000    1.500    2.500    1.125    7.000    3.000 
#    2.250    1.250    0.000    0.000    0.000    0.000 
#    0.000    0.000    0.000    0.000    0.000    0.000 
#
# Total GULP energy -89627.714352 kJ/mol
# GULP energy per Si atom -5601.732147 kJ/mol
# Density = 2.857745 g / cm^3
# Si number density = 28.642645 Si / 1000 Ang^3
#
#
#
# Elastic Constant Matrix: (Units=GPa)
#
#
# Indices 1 2 3 4 5 6 
#
# 1 188.9689 43.4910 37.3639 -5.3203 18.4732 2.1945
# 2 43.4910 141.6301 34.0497 -0.5224 -8.1148 -23.1820
# 3 37.3639 34.0497 132.5296 7.5682 29.6236 1.6785
# 4 -5.3203 -0.5224 7.5682 37.6038 -1.5261 -2.7060
# 5 18.4732 -8.1148 29.6236 -1.5261 51.4763 -4.2251
# 6 2.1945 -23.1820 1.6785 -2.7060 -4.2251 60.8900
#
#
#
# Elastic Compliance Matrix: (Units=1/GPa)
#
#
# Indices 1 2 3 4 5 6 
#
# 1 0.006150 -0.001996 -0.000777 0.000835 -0.002138 -0.001072
# 2 -0.001996 0.009256 -0.002848 0.000876 0.004169 0.004002
# 3 -0.000777 -0.002848 0.010048 -0.002558 -0.006182 -0.001876
# 4 0.000835 0.000876 -0.002558 0.027456 0.002268 0.001752
# 5 -0.002138 0.004169 -0.006182 0.002268 0.024776 0.003655
# 6 -0.001072 0.004002 -0.001876 0.001752 0.003655 0.018369
#
#
# Mechanical properties :
#
#
# Convention : Reuss Voigt Hill
#
# Bulk Modulus (GPa) = 70.36912 76.99309 73.68110
# Shear Modulus (GPa) = 44.62959 53.20896 48.91927
#
# Velocity S-wave (km/s) = 3.95163 4.31476 4.13718
# Velocity P-wave (km/s) = 6.74105 7.19457 6.97150
#
# Compressibility (1/GPa) = 0.01421078
#
# Stress axis : x y z
#
# Youngs Moduli (GPa) = 162.60294 108.04374 99.52326
#
# Poissons Ratio (x) = 0.21570 0.07735
# Poissons Ratio (y) = 0.32462 0.28341
# Poissons Ratio (z) = 0.12638 0.30767
#
# Static dielectric constant tensor:
#      x y z
#    x 2.311030 0.055530 0.022850 
#    y 0.055530 2.240820 -0.004550 
#    z 0.022850 -0.004550 2.249190 
# 
# From -- ./inp_files/206458.got.cif
#   From: 2010.05.17/outbox.cif.g08.bks.cpg/sg2_104_cif.got.tgz:206458.got - 2010.06.03 11:33:40.
