data_PCOD9008759
_publ_section_title
;
Structure prediction by ZEFSAII (Michael W. Deem and Ramdas Pophale) SiO2 
 PCOD9008759
Probable space group: P -1
;
_chemical_formula_sum "Si O2"
_cell_formula_units_Z 16
_cell_length_a 16.380556
_cell_length_b 11.850965
_cell_length_c 9.058249
_cell_angle_alpha 86.374876
_cell_angle_beta 137.639642
_cell_angle_gamma 126.323339
_cell_volume 691.129651
_symmetry_space_group_name_H-M "P -1"
_symmetry_group_IT_number 2
_symmetry_cell_setting 'triclinic'
loop_
_space_group_symop_operation_xyz
x,y,z
-x,-y,-z
loop_
_atom_site_type_symbol
_atom_site_label
_atom_site_fract_x
_atom_site_fract_y
_atom_site_fract_z
Si Si1 0.768801 0.411470 0.288098
Si Si2 0.213879 0.666011 0.362563
Si Si3 0.642883 0.986263 0.388060
Si Si4 0.638355 0.441382 0.592890
Si Si5 0.160421 0.129301 0.829998
Si Si6 0.580173 0.466338 0.220607
Si Si7 0.055126 0.306250 0.749066
Si Si8 0.195982 0.087475 0.175800
O O1 0.836163 0.393674 0.525259
O O2 0.692434 0.465852 0.264967
O O3 0.916415 0.576631 0.347267
O O4 0.580616 0.208913 0.964950
O O5 0.332404 0.875256 0.508109
O O6 0.351271 0.672327 0.467948
O O7 0.000000 0.500000 0.000000
O O8 0.813484 0.110286 0.476326
O O9 0.721453 0.949911 0.609280
O O10 0.691239 0.570549 0.519589
O O11 0.422367 0.309200 0.400401
O O12 0.819371 0.568891 0.944772
O O13 0.152733 0.256272 0.851004
O O14 0.373896 0.257231 0.031184
O O15 0.104089 0.001761 0.896507
O O16 0.000000 0.000000 0.500000
O O17 0.500000 0.500000 0.000000
O O18 0.000000 0.000000 0.000000
#
# Coordination Sequence:
#
# PCOD9008759 Si02
#       8
#     2   2   2   2   2   2   2   2
#     4  11  25  46  73 106 142 187 243 302 361 427
#     4  11  25  50  75 103 143 189 248 300 362 432
#     4  12  25  45  74 106 144 191 242 300 361 423
#     4  10  24  44  68 102 140 186 243 290 361 424
#     4  11  24  39  62 100 140 184 232 285 350 431
#     4  10  21  39  65  96 138 187 225 283 356 424
#     4  12  23  43  72 102 139 190 238 294 360 431
#     4  11  24  44  69 105 144 187 235 294 355 436
#
# _framework density 23.150501999999999
#
# number of rings (size 3 to 8) (size 9 to 14) (size 15 to 20)
#    0.000    1.000    5.000    1.125    0.000    6.000 
#    0.000    0.000    0.000    0.000    0.000    0.000 
#    0.000    0.000    0.000    0.000    0.000    0.000 
#
# Total GULP energy -89199.405290 kJ/mol
# GULP energy per Si atom -5574.962831 kJ/mol
# Density = 2.309781 g / cm^3
# Si number density = 23.150502 Si / 1000 Ang^3
#
#
#
# Elastic Constant Matrix: (Units=GPa)
#
#
# Indices 1 2 3 4 5 6 
#
# 1 102.5243 39.1660 34.7477 -2.0799 -5.1962 13.8966
# 2 39.1660 134.5299 62.7239 -22.2171 -20.0996 26.4439
# 3 34.7477 62.7239 113.4788 -24.0645 -24.7880 3.8117
# 4 -2.0799 -22.2171 -24.0645 38.2332 13.7833 1.1958
# 5 -5.1962 -20.0996 -24.7880 13.7833 42.9006 -6.3158
# 6 13.8966 26.4439 3.8117 1.1958 -6.3158 39.5546
#
#
#
# Elastic Compliance Matrix: (Units=1/GPa)
#
#
# Indices 1 2 3 4 5 6 
#
# 1 0.011817 -0.001960 -0.003092 -0.001990 -0.001024 -0.002646
# 2 -0.001960 0.012563 -0.005176 0.004063 0.000279 -0.007290
# 3 -0.003092 -0.005176 0.014393 0.004042 0.004778 0.003800
# 4 -0.001990 0.004063 0.004042 0.033819 -0.007550 -0.004634
# 5 -0.001024 0.000279 0.004778 -0.007550 0.029180 0.004600
# 6 -0.002646 -0.007290 0.003800 -0.004634 0.004600 0.031593
#
#
# Mechanical properties :
#
#
# Convention : Reuss Voigt Hill
#
# Bulk Modulus (GPa) = 54.59571 69.31202 61.95387
# Shear Modulus (GPa) = 31.26430 38.39738 34.83084
#
# Velocity S-wave (km/s) = 3.67888 4.07701 3.88305
# Velocity P-wave (km/s) = 6.45598 7.22270 6.85007
#
# Compressibility (1/GPa) = 0.01831646
#
# Stress axis : x y z
#
# Youngs Moduli (GPa) = 84.62447 79.59876 69.47741
#
# Poissons Ratio (x) = 0.15603 0.21480
# Poissons Ratio (y) = 0.16588 0.35964
# Poissons Ratio (z) = 0.26163 0.41203
#
# Static dielectric constant tensor:
#      x y z
#    x 1.783620 0.020390 -0.016550 
#    y 0.020390 1.964550 -0.099660 
#    z -0.016550 -0.099660 1.942310 
# 
# From -- ./inp_files/333308.got.cif
#   From: 2010.05.17/outbox.cif.g08.bks.cpg/sg2_167_cif.got.tgz:333308.got - 2010.06.03 11:33:40.
