data_PCOD9008939
_publ_section_title
;
Structure prediction by ZEFSAII (Michael W. Deem and Ramdas Pophale) SiO2 
 PCOD9008939
Probable space group: P -1
;
_chemical_formula_sum "Si O2"
_cell_formula_units_Z 15
_cell_length_a 11.434339
_cell_length_b 8.108927
_cell_length_c 16.128174
_cell_angle_alpha 137.165379
_cell_angle_beta 132.388282
_cell_angle_gamma 40.431572
_cell_volume 636.161381
_symmetry_space_group_name_H-M "P -1"
_symmetry_group_IT_number 2
_symmetry_cell_setting 'triclinic'
loop_
_space_group_symop_operation_xyz
x,y,z
-x,-y,-z
loop_
_atom_site_type_symbol
_atom_site_label
_atom_site_fract_x
_atom_site_fract_y
_atom_site_fract_z
Si Si1 0.071978 0.825779 0.690733
Si Si2 0.578401 0.210097 0.879222
Si Si3 0.125254 0.635031 0.098997
Si Si4 0.439842 0.318268 0.505463
Si Si5 0.000000 0.000000 0.000000
Si Si6 0.021173 0.572116 0.404550
Si Si7 0.345154 0.949473 0.650974
Si Si8 0.491869 0.483675 0.760353
O O1 0.027461 0.738641 0.549792
O O2 0.281822 0.754120 0.760935
O O3 0.060525 0.619502 0.677140
O O4 0.932085 0.141811 0.770592
O O5 0.525004 0.313969 0.797961
O O6 0.469461 0.053123 0.791620
O O7 0.500000 0.500000 0.000000
O O8 0.799434 0.023351 0.925677
O O9 0.080823 0.803664 0.052708
O O10 0.349509 0.441372 0.141792
O O11 0.000000 0.500000 0.000000
O O12 0.237220 0.366520 0.406792
O O13 0.399167 0.638351 0.590222
O O14 0.596450 0.101096 0.437232
O O15 0.499354 0.276313 0.614052
O O16 0.874135 0.808200 0.357650
#
# Coordination Sequence:
#
# PCOD9008939 Si02
#       8
#     2   2   2   2   1   2   2   2
#     4  10  21  40  66  95 126 164 214 265 321 386
#     4  11  24  43  65  91 126 170 219 265 319 389
#     4  11  25  44  66  96 131 170 219 271 320 388
#     4  10  24  40  64  98 130 165 212 268 332 381
#     4  10  26  44  62  94 126 178 220 256 328 374
#     4  10  21  39  66  94 124 166 214 263 319 389
#     4  11  23  41  64  95 132 168 210 270 324 387
#     4  10  22  44  64  94 123 171 214 263 326 380
#
# _framework density 23.578923
#
# number of rings (size 3 to 8) (size 9 to 14) (size 15 to 20)
#    0.000    1.600    1.333    2.000    5.600    1.067 
#    9.600    0.000    0.000    0.000    0.000    0.000 
#    0.000    0.000    0.000    0.000    0.000    0.000 
#
# Total GULP energy -83688.896576 kJ/mol
# GULP energy per Si atom -5579.259772 kJ/mol
# Density = 2.352526 g / cm^3
# Si number density = 23.578923 Si / 1000 Ang^3
#
#
#
# Elastic Constant Matrix: (Units=GPa)
#
#
# Indices 1 2 3 4 5 6 
#
# 1 80.9601 20.7674 34.7479 -9.2320 23.7744 -12.5256
# 2 20.7674 53.3055 34.0934 -24.8673 14.9079 -20.6259
# 3 34.7479 34.0934 81.4717 -9.4810 26.8596 -9.1198
# 4 -9.2320 -24.8673 -9.4810 41.8410 -7.4668 13.5484
# 5 23.7744 14.9079 26.8596 -7.4668 50.4412 -16.3711
# 6 -12.5256 -20.6259 -9.1198 13.5484 -16.3711 30.4677
#
#
#
# Elastic Compliance Matrix: (Units=1/GPa)
#
#
# Indices 1 2 3 4 5 6 
#
# 1 0.016279 -0.001045 -0.004897 0.000444 -0.003983 0.002182
# 2 -0.001045 0.042160 -0.014634 0.016174 0.004345 0.018873
# 3 -0.004897 -0.014634 0.021849 -0.003647 -0.008189 -0.008159
# 4 0.000444 0.016174 -0.003647 0.034503 0.000410 -0.005082
# 5 -0.003983 0.004345 -0.008189 0.000410 0.029563 0.014555
# 6 0.002182 0.018873 -0.008159 -0.005082 0.014555 0.054134
#
#
# Mechanical properties :
#
#
# Convention : Reuss Voigt Hill
#
# Bulk Modulus (GPa) = 25.55238 43.88384 34.71811
# Shear Modulus (GPa) = 19.78735 32.95857 26.37296
#
# Velocity S-wave (km/s) = 2.90003 3.74277 3.34802
# Velocity P-wave (km/s) = 4.69830 6.10980 5.44994
#
# Compressibility (1/GPa) = 0.03913530
#
# Stress axis : x y z
#
# Youngs Moduli (GPa) = 61.42770 23.71919 45.76891
#
# Poissons Ratio (x) = 0.02479 0.22413
# Poissons Ratio (y) = 0.06420 0.66980
# Poissons Ratio (z) = 0.30081 0.34712
#
# Static dielectric constant tensor:
#      x y z
#    x 1.941930 0.102670 0.066070 
#    y 0.102670 2.234930 0.376160 
#    z 0.066070 0.376160 2.275900 
# 
# From -- ./inp_files/282333.got.cif
#   From: 2010.05.17/outbox.cif.g08.bks.cpg/sg2_142_cif.got.tgz:282333.got - 2010.06.03 11:33:40.
