data_PCOD9008147
_publ_section_title
;
Structure prediction by ZEFSAII (Michael W. Deem and Ramdas Pophale) SiO2 
 PCOD9008147
Probable space group: P -1
;
_chemical_formula_sum "Si O2"
_cell_formula_units_Z 16
_cell_length_a 16.317998
_cell_length_b 19.098630
_cell_length_c 9.087702
_cell_angle_alpha 119.477171
_cell_angle_beta 50.422412
_cell_angle_gamma 157.512532
_cell_volume 788.839425
_symmetry_space_group_name_H-M "P -1"
_symmetry_group_IT_number 2
_symmetry_cell_setting 'triclinic'
loop_
_space_group_symop_operation_xyz
x,y,z
-x,-y,-z
loop_
_atom_site_type_symbol
_atom_site_label
_atom_site_fract_x
_atom_site_fract_y
_atom_site_fract_z
Si Si1 0.898409 0.514338 0.197453
Si Si2 0.622539 0.672363 0.046983
Si Si3 0.709485 0.086788 0.928279
Si Si4 0.612475 0.270120 0.523755
Si Si5 0.372857 0.157247 0.260244
Si Si6 0.826343 0.924166 0.312101
Si Si7 0.282195 0.834978 0.698944
Si Si8 0.676346 0.400185 0.865349
O O1 0.855386 0.480286 0.385824
O O2 0.623908 0.332881 0.253510
O O3 0.040430 0.692395 0.174503
O O4 0.000000 0.500000 0.000000
O O5 0.704738 0.760050 0.207085
O O6 0.421528 0.595251 0.122681
O O7 0.500000 0.500000 0.000000
O O8 0.885835 0.863381 0.852078
O O9 0.710708 0.993613 0.797130
O O10 0.682897 0.076276 0.122287
O O11 0.500000 0.000000 0.000000
O O12 0.349636 0.128242 0.619832
O O13 0.640264 0.198901 0.363007
O O14 0.642361 0.299287 0.694144
O O15 0.185320 0.079233 0.500599
O O16 0.482459 0.259122 0.080533
O O17 0.978096 0.619722 0.784779
O O18 0.500000 0.000000 0.500000
#
# Coordination Sequence:
#
# PCOD9008147 Si02
#       8
#     2   2   2   2   2   2   2   2
#     4  11  19  38  56  85 128 165 217 257 298 373
#     4  10  23  46  72  93 121 165 218 266 318 387
#     4  12  23  36  62  90 126 182 212 249 308 387
#     4  10  21  39  64  86 130 174 202 263 315 378
#     4  11  22  40  61  92 131 160 210 264 321 370
#     4   9  22  43  68  96 120 163 215 264 315 379
#     4  12  25  37  57  97 133 169 215 256 314 381
#     4  11  24  42  62  92 134 169 206 274 325 368
#
# _framework density 20.282962999999999
#
# number of rings (size 3 to 8) (size 9 to 14) (size 15 to 20)
#    0.000    1.250    3.750    1.875    3.500    3.500 
#    2.250    0.625    0.000    0.000    0.000    0.000 
#    0.000    0.000    0.000    0.000    0.000    0.000 
#
# Total GULP energy -89150.043426 kJ/mol
# GULP energy per Si atom -5571.877714 kJ/mol
# Density = 2.023680 g / cm^3
# Si number density = 20.282963 Si / 1000 Ang^3
#
#
#
# Elastic Constant Matrix: (Units=GPa)
#
#
# Indices 1 2 3 4 5 6 
#
# 1 37.7609 22.6720 14.0904 -0.1100 1.4843 -9.0927
# 2 22.6720 114.3908 41.8554 7.7288 -1.0048 -21.4505
# 3 14.0904 41.8554 125.6210 8.1296 26.0512 -7.2513
# 4 -0.1100 7.7288 8.1296 33.9232 3.9380 -0.9187
# 5 1.4843 -1.0048 26.0512 3.9380 38.5743 -4.0947
# 6 -9.0927 -21.4505 -7.2513 -0.9187 -4.0947 37.5664
#
#
#
# Elastic Compliance Matrix: (Units=1/GPa)
#
#
# Indices 1 2 3 4 5 6 
#
# 1 0.031103 -0.004778 -0.001786 0.001718 0.000189 0.004518
# 2 -0.004778 0.012349 -0.003943 -0.002197 0.003978 0.005514
# 3 -0.001786 -0.003943 0.011014 -0.000911 -0.007528 -0.001401
# 4 0.001718 -0.002197 -0.000911 0.030499 -0.002681 -0.000561
# 5 0.000189 0.003978 -0.007528 -0.002681 0.031831 0.004268
# 6 0.004518 0.005514 -0.001401 -0.000561 0.004268 0.031042
#
#
# Mechanical properties :
#
#
# Convention : Reuss Voigt Hill
#
# Bulk Modulus (GPa) = 29.89469 48.33426 39.11448
# Shear Modulus (GPa) = 27.77716 35.28979 31.53347
#
# Velocity S-wave (km/s) = 3.70467 4.17570 3.94722
# Velocity P-wave (km/s) = 5.75067 6.86516 6.33248
#
# Compressibility (1/GPa) = 0.03345076
#
# Stress axis : x y z
#
# Youngs Moduli (GPa) = 32.15095 80.97806 90.79479
#
# Poissons Ratio (x) = 0.38693 0.16219
# Poissons Ratio (y) = 0.15362 0.35802
# Poissons Ratio (z) = 0.05743 0.31931
#
# Static dielectric constant tensor:
#      x y z
#    x 1.740480 0.004080 0.018320 
#    y 0.004080 1.791310 -0.170650 
#    z 0.018320 -0.170650 2.232500 
# 
# From -- ./inp_files/337748.got.cif
#   From: 2010.05.17/outbox.cif.g08.bks.cpg/sg2_169_cif.got.tgz:337748.got - 2010.06.03 11:33:40.
