data_PCOD9008406
_publ_section_title
;
Structure prediction by ZEFSAII (Michael W. Deem and Ramdas Pophale) SiO2 
 PCOD9008406
Probable space group: P -1
;
_chemical_formula_sum "Si O2"
_cell_formula_units_Z 12
_cell_length_a 6.957769
_cell_length_b 17.742870
_cell_length_c 5.010293
_cell_angle_alpha 91.659086
_cell_angle_beta 132.726351
_cell_angle_gamma 83.685305
_cell_volume 450.728553
_symmetry_space_group_name_H-M "P -1"
_symmetry_group_IT_number 2
_symmetry_cell_setting 'triclinic'
loop_
_space_group_symop_operation_xyz
x,y,z
-x,-y,-z
loop_
_atom_site_type_symbol
_atom_site_label
_atom_site_fract_x
_atom_site_fract_y
_atom_site_fract_z
Si Si1 0.078266 0.281574 0.284329
Si Si2 0.313759 0.547981 0.542707
Si Si3 0.785282 0.590101 0.194332
Si Si4 0.969537 0.856516 0.404814
Si Si5 0.600866 0.214330 0.556216
Si Si6 0.334978 0.080000 0.408084
O O1 0.109535 0.358025 0.476996
O O2 0.120974 0.218029 0.550568
O O3 0.316754 0.263703 0.298463
O O4 0.808036 0.264579 0.890435
O O5 0.500000 0.500000 0.500000
O O6 0.255703 0.490282 0.716575
O O7 0.016126 0.580718 0.188634
O O8 0.487942 0.612283 0.812700
O O9 0.874327 0.918732 0.547706
O O10 0.264674 0.824439 0.585810
O O11 0.824836 0.887247 0.000890
O O12 0.545527 0.139596 0.663452
O O13 0.500000 0.000000 0.500000
#
# Coordination Sequence:
#
# PCOD9008406 Si02
#       6
#     2   2   2   2   2   2
#     4  11  25  43  70  98 141 180 233 280 352 400
#     4  10  21  39  64  95 138 169 228 272 330 401
#     4  10  22  40  63  98 128 178 221 277 332 404
#     4  11  24  46  67 104 137 178 230 287 335 421
#     4  11  24  45  66  99 136 176 227 289 333 421
#     4  11  26  47  74 102 138 182 229 285 349 407
#
# _framework density 26.623563999999998
#
# number of rings (size 3 to 8) (size 9 to 14) (size 15 to 20)
#    0.000    1.333    3.333    2.000    4.667    4.000 
#    0.000    0.000    0.000    0.000    0.000    0.000 
#    0.000    0.000    0.000    0.000    0.000    0.000 
#
# Total GULP energy -67100.790815 kJ/mol
# GULP energy per Si atom -5591.732568 kJ/mol
# Density = 2.656297 g / cm^3
# Si number density = 26.623564 Si / 1000 Ang^3
#
#
#
# Elastic Constant Matrix: (Units=GPa)
#
#
# Indices 1 2 3 4 5 6 
#
# 1 213.4447 11.1120 54.3277 2.9372 24.8976 -27.4069
# 2 11.1120 63.7716 0.7039 10.2268 16.5645 -6.5763
# 3 54.3277 0.7039 113.4741 3.4248 16.5921 1.0976
# 4 2.9372 10.2268 3.4248 33.7047 7.8713 -1.6260
# 5 24.8976 16.5645 16.5921 7.8713 62.3655 0.8915
# 6 -27.4069 -6.5763 1.0976 -1.6260 0.8915 47.0763
#
#
#
# Elastic Compliance Matrix: (Units=1/GPa)
#
#
# Indices 1 2 3 4 5 6 
#
# 1 0.006039 -0.000269 -0.002684 0.000405 -0.001728 0.003587
# 2 -0.000269 0.017761 0.000756 -0.004331 -0.004296 0.002239
# 3 -0.002684 0.000756 0.010391 -0.000717 -0.001779 -0.001690
# 4 0.000405 -0.004331 -0.000717 0.031722 -0.002835 0.000797
# 5 -0.001728 -0.004296 -0.001779 -0.002835 0.018725 -0.002017
# 6 0.003587 0.002239 -0.001690 0.000797 -0.002017 0.023748
#
#
# Mechanical properties :
#
#
# Convention : Reuss Voigt Hill
#
# Bulk Modulus (GPa) = 33.56035 58.10861 45.83448
# Shear Modulus (GPa) = 40.74578 50.26576 45.50577
#
# Velocity S-wave (km/s) = 3.91633 4.34985 4.13877
# Velocity P-wave (km/s) = 5.75179 6.86306 6.33185
#
# Compressibility (1/GPa) = 0.02979706
#
# Stress axis : x y z
#
# Youngs Moduli (GPa) = 165.59767 56.30357 96.23778
#
# Poissons Ratio (x) = 0.01513 0.25828
# Poissons Ratio (y) = 0.04451 -0.07274
# Poissons Ratio (z) = 0.44442 -0.04255
#
# Static dielectric constant tensor:
#      x y z
#    x 2.099890 -0.043250 0.010700 
#    y -0.043250 2.122340 -0.043870 
#    z 0.010700 -0.043870 2.205200 
# 
# From -- ./inp_files/9802.got.cif
#   From: 2010.05.17/outbox.cif.g08.bks.cpg/sg2_5_cif.got.tgz:9802.got - 2010.06.03 11:33:40.
