data_PCOD9008881
_publ_section_title
;
Structure prediction by ZEFSAII (Michael W. Deem and Ramdas Pophale) SiO2 
 PCOD9008881
Probable space group: P -1
;
_chemical_formula_sum "Si O2"
_cell_formula_units_Z 16
_cell_length_a 8.928600
_cell_length_b 12.071311
_cell_length_c 11.077232
_cell_angle_alpha 73.200799
_cell_angle_beta 130.380781
_cell_angle_gamma 127.356919
_cell_volume 712.143113
_symmetry_space_group_name_H-M "P -1"
_symmetry_group_IT_number 2
_symmetry_cell_setting 'triclinic'
loop_
_space_group_symop_operation_xyz
x,y,z
-x,-y,-z
loop_
_atom_site_type_symbol
_atom_site_label
_atom_site_fract_x
_atom_site_fract_y
_atom_site_fract_z
Si Si1 0.940442 0.716635 0.305206
Si Si2 0.394639 0.039429 0.739091
Si Si3 0.828741 0.141888 0.106851
Si Si4 0.011412 0.973489 0.152762
Si Si5 0.270127 0.573553 0.670525
Si Si6 0.328894 0.403782 0.296538
Si Si7 0.551408 0.135532 0.368394
Si Si8 0.666395 0.710190 0.400818
O O1 0.784068 0.554215 0.233474
O O2 0.848085 0.725776 0.387244
O O3 0.907805 0.812982 0.171723
O O4 0.225421 0.790224 0.446110
O O5 0.319362 0.145425 0.634834
O O6 0.213470 0.890999 0.762113
O O7 0.464042 0.988689 0.674093
O O8 0.610346 0.119430 0.923591
O O9 0.067336 0.288996 0.145282
O O10 0.861734 0.019465 0.126576
O O11 0.290245 0.070482 0.308104
O O12 0.000000 0.000000 0.000000
O O13 0.459337 0.594360 0.661708
O O14 0.377733 0.730772 0.721457
O O15 0.000000 0.500000 0.500000
O O16 0.407749 0.564531 0.278289
O O17 0.304021 0.342448 0.437825
#
# Coordination Sequence:
#
# PCOD9008881 Si02
#       8
#     2   2   2   2   2   2   2   2
#     4  10  22  40  64  91 123 162 204 255 310 363
#     4  11  24  39  63  92 125 165 208 250 303 367
#     4  11  23  41  61  88 128 169 203 251 306 361
#     4  12  23  41  62  91 126 162 205 257 305 368
#     4   9  20  39  61  89 127 156 198 253 312 363
#     4  10  21  39  66  90 125 162 203 254 308 361
#     4  11  22  38  65  96 119 157 208 256 310 362
#     4  10  22  40  63  95 123 161 206 255 303 366
#
# _framework density 22.467393999999999
#
# number of rings (size 3 to 8) (size 9 to 14) (size 15 to 20)
#    0.000    1.500    3.750    1.125    1.750    4.500 
#    0.000    0.625    5.500    0.000    0.000    0.000 
#    0.000    0.000    0.000    0.000    0.000    0.000 
#
# Total GULP energy -89269.361288 kJ/mol
# GULP energy per Si atom -5579.335081 kJ/mol
# Density = 2.241626 g / cm^3
# Si number density = 22.467394 Si / 1000 Ang^3
#
#
#
# Elastic Constant Matrix: (Units=GPa)
#
#
# Indices 1 2 3 4 5 6 
#
# 1 61.8054 13.4918 8.8420 -2.4282 10.1878 9.6903
# 2 13.4918 140.2785 19.1221 -0.9280 3.9688 3.6664
# 3 8.8420 19.1221 30.1783 -6.6683 3.3178 15.0392
# 4 -2.4282 -0.9280 -6.6683 22.5129 12.5530 4.5112
# 5 10.1878 3.9688 3.3178 12.5530 22.4431 3.7296
# 6 9.6903 3.6664 15.0392 4.5112 3.7296 41.3957
#
#
#
# Elastic Compliance Matrix: (Units=1/GPa)
#
#
# Indices 1 2 3 4 5 6 
#
# 1 0.020005 -0.001567 0.002101 0.012158 -0.015038 -0.005278
# 2 -0.001567 0.008061 -0.006681 -0.003217 0.001694 0.002278
# 3 0.002101 -0.006681 0.058760 0.035664 -0.024598 -0.022918
# 4 0.012158 -0.003217 0.035664 0.093086 -0.058905 -0.020355
# 5 -0.015038 0.001694 -0.024598 -0.058905 0.085841 0.010992
# 6 -0.005278 0.002278 -0.022918 -0.020355 0.010992 0.034745
#
#
# Mechanical properties :
#
#
# Convention : Reuss Voigt Hill
#
# Bulk Modulus (GPa) = 13.41674 35.01934 24.21804
# Shear Modulus (GPa) = 14.80886 29.99075 22.39981
#
# Velocity S-wave (km/s) = 2.57013 3.65753 3.16094
# Velocity P-wave (km/s) = 3.84604 5.78423 4.91169
#
# Compressibility (1/GPa) = 0.07453375
#
# Stress axis : x y z
#
# Youngs Moduli (GPa) = 49.98703 124.04863 17.01834
#
# Poissons Ratio (x) = 0.19434 -0.03576
# Poissons Ratio (y) = 0.07831 0.11370
# Poissons Ratio (z) = -0.10504 0.82878
#
# Static dielectric constant tensor:
#      x y z
#    x 2.597350 0.293960 -0.288130 
#    y 0.293960 2.008820 -0.112280 
#    z -0.288130 -0.112280 1.987940 
# 
# From -- ./inp_files/190900.got.cif
#   From: 2010.05.17/outbox.cif.g08.bks.cpg/sg2_96_cif.got.tgz:190900.got - 2010.06.03 11:33:40.
