data_PCOD9008619
_publ_section_title
;
Structure prediction by ZEFSAII (Michael W. Deem and Ramdas Pophale) SiO2 
 PCOD9008619
Probable space group: P -1
;
_chemical_formula_sum "Si O2"
_cell_formula_units_Z 16
_cell_length_a 6.835641
_cell_length_b 8.667506
_cell_length_c 17.735531
_cell_angle_alpha 51.041789
_cell_angle_beta 49.937904
_cell_angle_gamma 60.521788
_cell_volume 618.584324
_symmetry_space_group_name_H-M "P -1"
_symmetry_group_IT_number 2
_symmetry_cell_setting 'triclinic'
loop_
_space_group_symop_operation_xyz
x,y,z
-x,-y,-z
loop_
_atom_site_type_symbol
_atom_site_label
_atom_site_fract_x
_atom_site_fract_y
_atom_site_fract_z
Si Si1 0.958105 0.017278 0.127918
Si Si2 0.755314 0.466600 0.221569
Si Si3 0.736129 0.657776 0.018621
Si Si4 0.090849 0.265254 0.382143
Si Si5 0.962788 0.059126 0.615793
Si Si6 0.214108 0.576325 0.367238
Si Si7 0.342722 0.955096 0.667453
Si Si8 0.230905 0.689366 0.046853
O O1 0.773544 0.941517 0.259314
O O2 0.791947 0.187130 0.064034
O O3 0.100533 0.850464 0.090155
O O4 0.182761 0.124886 0.076056
O O5 0.640666 0.628976 0.136062
O O6 0.515632 0.481774 0.334564
O O7 0.780651 0.250794 0.243181
O O8 0.033440 0.528020 0.150143
O O9 0.520604 0.618397 0.024996
O O10 0.000000 0.500000 0.000000
O O11 0.134495 0.486345 0.332759
O O12 0.362131 0.127371 0.373765
O O13 0.905514 0.190219 0.514130
O O14 0.030931 0.170387 0.345164
O O15 0.794491 0.186641 0.683499
O O16 0.241617 0.067618 0.582601
O O17 0.000000 0.500000 0.500000
#
# Coordination Sequence:
#
# PCOD9008619 Si02
#       8
#     2   2   2   2   2   2   2   2
#     4  10  23  42  60  98 124 175 216 272 334 397
#     4  10  23  40  60  95 128 168 222 272 328 397
#     4  11  22  43  64  91 127 171 220 273 335 392
#     4   9  21  41  62  91 132 167 218 272 331 399
#     4  10  21  39  65  92 125 178 214 273 335 388
#     4   9  20  41  66  95 134 172 219 275 327 398
#     4  11  22  39  60  94 127 164 226 267 330 395
#     4  10  24  42  66  88 135 170 222 276 329 401
#
# _framework density 25.865511999999999
#
# number of rings (size 3 to 8) (size 9 to 14) (size 15 to 20)
#    0.000    2.000    1.250    0.750    3.500    5.000 
#    0.000    0.000    0.000    9.000    0.000    0.000 
#    0.000    0.000    0.000    0.000    0.000    0.000 
#
# Total GULP energy -89205.642378 kJ/mol
# GULP energy per Si atom -5575.352649 kJ/mol
# Density = 2.580664 g / cm^3
# Si number density = 25.865512 Si / 1000 Ang^3
#
#
#
# Elastic Constant Matrix: (Units=GPa)
#
#
# Indices 1 2 3 4 5 6 
#
# 1 140.7585 31.9980 27.5705 10.3158 -7.3513 8.5696
# 2 31.9980 124.0194 16.2464 18.2362 -1.6365 26.6138
# 3 27.5705 16.2464 82.6437 7.3814 -2.4405 2.0268
# 4 10.3158 18.2362 7.3814 36.6246 2.3811 -2.4728
# 5 -7.3513 -1.6365 -2.4405 2.3811 32.8131 1.0332
# 6 8.5696 26.6138 2.0268 -2.4728 1.0332 46.2156
#
#
#
# Elastic Compliance Matrix: (Units=1/GPa)
#
#
# Indices 1 2 3 4 5 6 
#
# 1 0.008092 -0.001441 -0.002237 -0.001267 0.001688 -0.000678
# 2 -0.001441 0.010641 -0.000980 -0.005153 0.000701 -0.006109
# 3 -0.002237 -0.000980 0.013186 -0.001553 0.000534 0.000306
# 4 -0.001267 -0.005153 -0.001553 0.031077 -0.003069 0.005002
# 5 0.001688 0.000701 0.000534 -0.003069 0.031202 -0.001602
# 6 -0.000678 -0.006109 0.000306 0.005002 -0.001602 0.025572
#
#
# Mechanical properties :
#
#
# Convention : Reuss Voigt Hill
#
# Bulk Modulus (GPa) = 44.24053 55.45014 49.84534
# Shear Modulus (GPa) = 36.59768 41.23780 38.91774
#
# Velocity S-wave (km/s) = 3.76563 3.99722 3.88315
# Velocity P-wave (km/s) = 6.00398 6.54126 6.27837
#
# Compressibility (1/GPa) = 0.02260371
#
# Stress axis : x y z
#
# Youngs Moduli (GPa) = 123.57433 93.97226 75.83750
#
# Poissons Ratio (x) = 0.13539 0.16963
# Poissons Ratio (y) = 0.17804 0.07436
# Poissons Ratio (z) = 0.27641 0.09214
#
# Static dielectric constant tensor:
#      x y z
#    x 2.078840 0.022440 0.040420 
#    y 0.022440 2.109740 0.010240 
#    z 0.040420 0.010240 2.137990 
# 
# From -- ./inp_files/547858.got.cif
#   From: 2010.05.17/outbox.cif.g08.bks.cpg/sg2_274_cif.got.tgz:547858.got - 2010.06.03 11:33:40.
