data_PCOD9008706
_publ_section_title
;
Structure prediction by ZEFSAII (Michael W. Deem and Ramdas Pophale) SiO2 
 PCOD9008706
Probable space group: P -1
;
_chemical_formula_sum "Si O2"
_cell_formula_units_Z 14
_cell_length_a 9.459738
_cell_length_b 11.994595
_cell_length_c 9.789232
_cell_angle_alpha 54.660282
_cell_angle_beta 44.178338
_cell_angle_gamma 57.338772
_cell_volume 616.023270
_symmetry_space_group_name_H-M "P -1"
_symmetry_group_IT_number 2
_symmetry_cell_setting 'triclinic'
loop_
_space_group_symop_operation_xyz
x,y,z
-x,-y,-z
loop_
_atom_site_type_symbol
_atom_site_label
_atom_site_fract_x
_atom_site_fract_y
_atom_site_fract_z
Si Si1 0.745513 0.993832 0.842113
Si Si2 0.095127 0.361198 0.619381
Si Si3 0.152706 0.800806 0.602174
Si Si4 0.312646 0.255842 0.286649
Si Si5 0.206194 0.857031 0.016707
Si Si6 0.961411 0.461487 0.209662
Si Si7 0.290367 0.972948 0.600931
O O1 0.800318 0.103671 0.619946
O O2 0.791783 0.047365 0.920441
O O3 0.914538 0.851521 0.788618
O O4 0.500000 0.000000 0.000000
O O5 0.289570 0.297889 0.432935
O O6 0.000000 0.500000 0.500000
O O7 0.122073 0.409544 0.721064
O O8 0.942934 0.252645 0.796997
O O9 0.189388 0.645385 0.629654
O O10 0.291117 0.838939 0.602391
O O11 0.551924 0.228932 0.098363
O O12 0.166022 0.369954 0.210993
O O13 0.228511 0.110538 0.449511
O O14 0.171809 0.948052 0.837694
O O15 0.000000 0.500000 0.000000
O O16 0.500000 0.000000 0.500000
#
# Coordination Sequence:
#
# PCOD9008706 Si02
#       7
#     2   2   2   2   2   2   2
#     4  11  22  38  66  98 124 158 201 252 322 380
#     4  10  22  40  62  88 123 167 212 248 293 361
#     4  11  22  40  61  89 132 162 193 261 317 354
#     4  10  22  42  63  90 124 157 202 261 309 359
#     4  11  22  39  66  92 121 162 206 252 308 368
#     4  11  23  40  63  89 121 167 213 247 298 370
#     4  10  21  39  65  95 123 156 202 256 315 374
#
# _framework density 22.726413999999998
#
# number of rings (size 3 to 8) (size 9 to 14) (size 15 to 20)
#    0.000    1.429    0.000    7.714    0.000    5.714 
#    0.000    4.286    0.000   14.571    0.000    0.000 
#    0.000    0.000    0.000    0.000    0.000    0.000 
#
# Total GULP energy -78175.221497 kJ/mol
# GULP energy per Si atom -5583.944393 kJ/mol
# Density = 2.267469 g / cm^3
# Si number density = 22.726414 Si / 1000 Ang^3
#
#
#
# Elastic Constant Matrix: (Units=GPa)
#
#
# Indices 1 2 3 4 5 6 
#
# 1 155.6196 49.6589 54.2083 16.4328 6.7408 27.8396
# 2 49.6589 89.0158 25.0341 9.9535 -1.7388 30.8695
# 3 54.2083 25.0341 99.3389 9.7288 6.2236 1.9698
# 4 16.4328 9.9535 9.7288 45.2525 4.2665 9.2810
# 5 6.7408 -1.7388 6.2236 4.2665 43.3346 4.3186
# 6 27.8396 30.8695 1.9698 9.2810 4.3186 48.7635
#
#
#
# Elastic Compliance Matrix: (Units=1/GPa)
#
#
# Indices 1 2 3 4 5 6 
#
# 1 0.009559 -0.002912 -0.004266 -0.001213 -0.000557 -0.003162
# 2 -0.002912 0.016802 -0.002574 -0.000470 0.002440 -0.008997
# 3 -0.004266 -0.002574 0.013200 -0.001380 -0.001592 0.003935
# 4 -0.001213 -0.000470 -0.001380 0.023777 -0.001641 -0.003335
# 5 -0.000557 0.002440 -0.001592 -0.001641 0.023947 -0.002971
# 6 -0.003162 -0.008997 0.003935 -0.003335 -0.002971 0.028747
#
#
# Mechanical properties :
#
#
# Convention : Reuss Voigt Hill
#
# Bulk Modulus (GPa) = 49.85564 66.86411 58.35988
# Shear Modulus (GPa) = 35.15657 41.80832 38.48244
#
# Velocity S-wave (km/s) = 3.93739 4.29375 4.11943
# Velocity P-wave (km/s) = 6.53113 7.35302 6.95423
#
# Compressibility (1/GPa) = 0.02005791
#
# Stress axis : x y z
#
# Youngs Moduli (GPa) = 104.61502 59.51538 75.75787
#
# Poissons Ratio (x) = 0.17329 0.32319
# Poissons Ratio (y) = 0.30460 0.19499
# Poissons Ratio (z) = 0.44630 0.15319
#
# Static dielectric constant tensor:
#      x y z
#    x 1.879010 -0.046640 -0.007980 
#    y -0.046640 1.969280 0.043110 
#    z -0.007980 0.043110 1.865040 
# 
# From -- ./inp_files/184678.got.cif
#   From: 2010.05.17/outbox.cif.g08.bks.cpg/sg2_93_cif.got.tgz:184678.got - 2010.06.03 11:33:40.
