data_PCOD9008307
_publ_section_title
;
Structure prediction by ZEFSAII (Michael W. Deem and Ramdas Pophale) SiO2 
 PCOD9008307
Probable space group: P -1
;
_chemical_formula_sum "Si O2"
_cell_formula_units_Z 16
_cell_length_a 8.636505
_cell_length_b 27.740426
_cell_length_c 15.176046
_cell_angle_alpha 21.776814
_cell_angle_beta 33.215228
_cell_angle_gamma 40.326439
_cell_volume 737.004125
_symmetry_space_group_name_H-M "P -1"
_symmetry_group_IT_number 2
_symmetry_cell_setting 'triclinic'
loop_
_space_group_symop_operation_xyz
x,y,z
-x,-y,-z
loop_
_atom_site_type_symbol
_atom_site_label
_atom_site_fract_x
_atom_site_fract_y
_atom_site_fract_z
Si Si1 0.378483 0.598323 0.291556
Si Si2 0.078649 0.383824 0.883369
Si Si3 0.700670 0.875963 0.272211
Si Si4 0.375637 0.139015 0.314805
Si Si5 0.051211 0.883549 0.610162
Si Si6 0.016884 0.841111 0.365688
Si Si7 0.301320 0.576081 0.704158
Si Si8 0.533845 0.385256 0.248257
O O1 0.093430 0.520799 0.593484
O O2 0.602233 0.621364 0.225947
O O3 0.531318 0.502826 0.313875
O O4 0.376285 0.745073 0.009255
O O5 0.994561 0.257025 0.081287
O O6 0.864372 0.364189 0.101102
O O7 0.375385 0.902798 0.395913
O O8 0.667790 0.743560 0.456335
O O9 0.853179 0.842759 0.347611
O O10 0.845988 0.011259 0.937555
O O11 0.163698 0.124779 0.355901
O O12 0.197842 0.178776 0.416949
O O13 0.500000 0.000000 0.500000
O O14 0.000000 0.000000 0.500000
O O15 0.227853 0.723774 0.463390
O O16 0.474676 0.578319 0.708427
O O17 0.000000 0.500000 0.000000
O O18 0.500000 0.500000 0.000000
#
# Coordination Sequence:
#
# PCOD9008307 Si02
#       8
#     2   2   2   2   2   2   2   2
#     4  10  21  39  64  93 121 162 214 256 307 378
#     4   9  20  39  61  89 121 163 205 253 309 375
#     4  10  24  41  62  93 125 162 210 268 317 379
#     4  11  23  40  64  90 127 171 209 258 311 382
#     4  10  21  40  61  89 126 163 203 257 324 368
#     4  11  23  42  66  93 122 165 220 260 323 383
#     4  12  21  39  67  94 126 167 213 262 315 381
#     4  11  23  40  63  92 130 168 205 264 322 374
#
# _framework density 21.709513999999999
#
# number of rings (size 3 to 8) (size 9 to 14) (size 15 to 20)
#    0.000    1.500    2.500    3.000    1.750    3.000 
#    4.500    0.625    0.000    0.000    0.000    0.000 
#    0.000    0.000    0.000    0.000    0.000    0.000 
#
# Total GULP energy -89278.927843 kJ/mol
# GULP energy per Si atom -5579.932990 kJ/mol
# Density = 2.166010 g / cm^3
# Si number density = 21.709514 Si / 1000 Ang^3
#
#
#
# Elastic Constant Matrix: (Units=GPa)
#
#
# Indices 1 2 3 4 5 6 
#
# 1 72.0191 2.1005 26.5666 -6.8303 2.4780 2.1156
# 2 2.1005 56.0035 12.2949 -17.0689 5.7778 9.0498
# 3 26.5666 12.2949 146.9401 -9.6259 -2.8953 12.8986
# 4 -6.8303 -17.0689 -9.6259 30.6632 -6.5745 1.4027
# 5 2.4780 5.7778 -2.8953 -6.5745 32.4619 -9.4184
# 6 2.1156 9.0498 12.8986 1.4027 -9.4184 30.9671
#
#
#
# Elastic Compliance Matrix: (Units=1/GPa)
#
#
# Indices 1 2 3 4 5 6 
#
# 1 0.015158 0.001168 -0.002596 0.002985 -0.001225 -0.000803
# 2 0.001168 0.023660 -0.000690 0.012688 -0.004283 -0.008584
# 3 -0.002596 -0.000690 0.007695 0.001698 0.000558 -0.002733
# 4 0.002985 0.012688 0.001698 0.042118 0.004718 -0.005092
# 5 -0.001225 -0.004283 0.000558 0.004718 0.036111 0.011872
# 6 -0.000803 -0.008584 -0.002733 -0.005092 0.011872 0.039835
#
#
# Mechanical properties :
#
#
# Convention : Reuss Voigt Hill
#
# Bulk Modulus (GPa) = 23.65522 39.65406 31.65464
# Shear Modulus (GPa) = 27.33640 34.41847 30.87744
#
# Velocity S-wave (km/s) = 3.55236 3.98604 3.77543
# Velocity P-wave (km/s) = 5.26740 6.28411 5.79809
#
# Compressibility (1/GPa) = 0.04227397
#
# Stress axis : x y z
#
# Youngs Moduli (GPa) = 65.97290 42.26564 129.95814
#
# Poissons Ratio (x) = -0.04935 0.33740
# Poissons Ratio (y) = -0.07702 0.08973
# Poissons Ratio (z) = 0.17128 0.02918
#
# Static dielectric constant tensor:
#      x y z
#    x 1.811230 -0.040590 0.055500 
#    y -0.040590 1.836620 -0.010460 
#    z 0.055500 -0.010460 1.873880 
# 
# From -- ./inp_files/508951.got.cif
#   From: 2010.05.17/outbox.cif.g08.bks.cpg/sg2_255_cif.got.tgz:508951.got - 2010.06.03 11:33:40.
