data_PCOD9008369
_publ_section_title
;
Structure prediction by ZEFSAII (Michael W. Deem and Ramdas Pophale) SiO2 
 PCOD9008369
Probable space group: P -1
;
_chemical_formula_sum "Si O2"
_cell_formula_units_Z 16
_cell_length_a 8.206577
_cell_length_b 21.406653
_cell_length_c 9.359907
_cell_angle_alpha 152.835364
_cell_angle_beta 96.484304
_cell_angle_gamma 83.465394
_cell_volume 745.581112
_symmetry_space_group_name_H-M "P -1"
_symmetry_group_IT_number 2
_symmetry_cell_setting 'triclinic'
loop_
_space_group_symop_operation_xyz
x,y,z
-x,-y,-z
loop_
_atom_site_type_symbol
_atom_site_label
_atom_site_fract_x
_atom_site_fract_y
_atom_site_fract_z
Si Si1 0.653670 0.641857 0.684443
Si Si2 0.356664 0.689621 0.372842
Si Si3 0.678509 0.955315 0.384910
Si Si4 0.718727 0.614593 0.316406
Si Si5 0.269686 0.604241 0.620953
Si Si6 0.033201 0.018311 0.367802
Si Si7 0.054431 0.744633 0.645471
Si Si8 0.230972 0.794838 0.282215
O O1 0.725188 0.587244 0.431430
O O2 0.455286 0.631158 0.640776
O O3 0.723860 0.550238 0.634760
O O4 0.697955 0.798463 0.024189
O O5 0.547956 0.702826 0.459382
O O6 0.211365 0.766439 0.603003
O O7 0.334818 0.733267 0.295280
O O8 0.312017 0.529181 0.056709
O O9 0.500000 0.000000 0.500000
O O10 0.773523 0.977082 0.587158
O O11 0.717754 0.055179 0.460278
O O12 0.892580 0.679560 0.428151
O O13 0.133803 0.646287 0.576939
O O14 0.239350 0.700090 0.951469
O O15 0.996141 0.886807 0.003375
O O16 0.000000 0.000000 0.500000
O O17 0.953745 0.161896 0.602087
#
# Coordination Sequence:
#
# PCOD9008369 Si02
#       8
#     2   2   2   2   2   2   2   2
#     4  11  22  39  67 106 130 176 231 276 341 402
#     4  11  26  46  64  97 144 181 224 276 336 405
#     4  11  21  39  66  99 136 170 217 279 341 392
#     4  11  24  42  70  96 138 182 225 279 338 404
#     4  11  22  40  71 100 136 171 227 294 334 389
#     4  10  21  39  64  94 134 166 218 282 333 393
#     4  12  23  45  70  99 138 179 224 280 346 396
#     4  11  22  44  65  96 137 178 215 286 338 390
#
# _framework density 21.459771
#
# number of rings (size 3 to 8) (size 9 to 14) (size 15 to 20)
#    0.000    1.000    6.250    1.875    0.000    2.000 
#    2.250    2.500    0.000    0.000    0.000    0.000 
#    0.000    0.000    0.000    0.000    0.000    0.000 
#
# Total GULP energy -89259.298765 kJ/mol
# GULP energy per Si atom -5578.706173 kJ/mol
# Density = 2.141093 g / cm^3
# Si number density = 21.459771 Si / 1000 Ang^3
#
#
#
# Elastic Constant Matrix: (Units=GPa)
#
#
# Indices 1 2 3 4 5 6 
#
# 1 77.6532 10.9787 0.6494 -0.3368 -2.3556 -10.6360
# 2 10.9787 59.4681 -3.3214 0.9598 5.5495 -4.8025
# 3 0.6494 -3.3214 76.6208 11.6449 -5.6040 12.9387
# 4 -0.3368 0.9598 11.6449 25.9267 -0.7387 1.4884
# 5 -2.3556 5.5495 -5.6040 -0.7387 30.9594 -3.1695
# 6 -10.6360 -4.8025 12.9387 1.4884 -3.1695 18.8313
#
#
#
# Elastic Compliance Matrix: (Units=1/GPa)
#
#
# Indices 1 2 3 4 5 6 
#
# 1 0.014525 -0.002250 -0.001688 0.000568 0.002149 0.009106
# 2 -0.002250 0.017762 0.000280 -0.001051 -0.003060 0.002635
# 3 -0.001688 0.000280 0.016065 -0.006566 0.001430 -0.011160
# 4 0.000568 -0.001051 -0.006566 0.041495 0.000168 0.001313
# 5 0.002149 -0.003060 0.001430 0.000168 0.033800 0.005126
# 6 0.009106 0.002635 -0.011160 0.001313 0.005126 0.067345
#
#
# Mechanical properties :
#
#
# Convention : Reuss Voigt Hill
#
# Bulk Modulus (GPa) = 24.36853 25.59508 24.98181
# Shear Modulus (GPa) = 23.58645 28.83917 26.21281
#
# Velocity S-wave (km/s) = 3.31887 3.66986 3.49877
# Velocity P-wave (km/s) = 5.10555 5.46901 5.29040
#
# Compressibility (1/GPa) = 0.04103653
#
# Stress axis : x y z
#
# Youngs Moduli (GPa) = 68.84733 56.29985 62.24781
#
# Poissons Ratio (x) = 0.12668 0.10505
# Poissons Ratio (y) = 0.15491 -0.01743
# Poissons Ratio (z) = 0.11619 -0.01577
#
# Static dielectric constant tensor:
#      x y z
#    x 2.047530 0.008660 -0.049210 
#    y 0.008660 1.765800 0.019380 
#    z -0.049210 0.019380 1.873720 
# 
# From -- ./inp_files/224382.got.cif
#   From: 2010.05.17/outbox.cif.g08.bks.cpg/sg2_113_cif.got.tgz:224382.got - 2010.06.03 11:33:40.
