data_PCOD9008248
_publ_section_title
;
Structure prediction by ZEFSAII (Michael W. Deem and Ramdas Pophale) SiO2 
 PCOD9008248
Probable space group: P -1
;
_chemical_formula_sum "Si O2"
_cell_formula_units_Z 16
_cell_length_a 14.466473
_cell_length_b 22.320507
_cell_length_c 6.865000
_cell_angle_alpha 75.957244
_cell_angle_beta 104.676579
_cell_angle_gamma 158.892616
_cell_volume 772.099988
_symmetry_space_group_name_H-M "P -1"
_symmetry_group_IT_number 2
_symmetry_cell_setting 'triclinic'
loop_
_space_group_symop_operation_xyz
x,y,z
-x,-y,-z
loop_
_atom_site_type_symbol
_atom_site_label
_atom_site_fract_x
_atom_site_fract_y
_atom_site_fract_z
Si Si1 0.272297 0.952061 0.900330
Si Si2 0.629445 0.256322 0.621418
Si Si3 0.504678 0.368382 0.478984
Si Si4 0.017369 0.414880 0.444650
Si Si5 0.712183 0.671175 0.887831
Si Si6 0.303201 0.229837 0.882697
Si Si7 0.274256 0.125262 0.286448
Si Si8 0.615213 0.092618 0.285448
O O1 0.280012 0.903928 0.776780
O O2 0.987376 0.805434 0.901326
O O3 0.454698 0.117856 0.796491
O O4 0.394181 0.992759 0.121140
O O5 0.797597 0.416814 0.650118
O O6 0.436964 0.164954 0.419434
O O7 0.832396 0.330068 0.580717
O O8 0.788079 0.521835 0.431118
O O9 0.393003 0.364753 0.342830
O O10 0.505046 0.364450 0.714858
O O11 0.328532 0.209213 0.414416
O O12 0.837353 0.276185 0.297116
O O13 0.500000 0.500000 0.000000
O O14 0.727767 0.736964 0.996145
O O15 0.363354 0.204695 0.060420
O O16 0.029509 0.063961 0.756378
O O17 0.500000 0.000000 0.500000
#
# Coordination Sequence:
#
# PCOD9008248 Si02
#       8
#     2   2   2   2   2   2   2   2
#     4  11  26  45  70  97 130 175 224 268 327 391
#     4  10  21  44  68 102 131 166 221 280 318 389
#     4  10  22  42  62  93 132 168 210 268 329 387
#     4  10  23  42  68  98 135 173 211 275 328 383
#     4  11  27  42  63  96 131 169 224 277 310 389
#     4  10  21  39  64  91 126 178 207 262 338 379
#     4   9  20  39  64  93 131 162 215 271 324 387
#     4  11  25  46  69  96 134 180 215 268 330 393
#
# _framework density 20.722705999999999
#
# number of rings (size 3 to 8) (size 9 to 14) (size 15 to 20)
#    0.000    1.750    1.250    1.125    5.250    7.000 
#    6.750    0.000    0.000    0.000    0.000    0.000 
#    0.000    0.000    0.000    0.000    0.000    0.000 
#
# Total GULP energy -89364.017694 kJ/mol
# GULP energy per Si atom -5585.251106 kJ/mol
# Density = 2.067554 g / cm^3
# Si number density = 20.722706 Si / 1000 Ang^3
#
#
#
# Elastic Constant Matrix: (Units=GPa)
#
#
# Indices 1 2 3 4 5 6 
#
# 1 77.9047 48.1221 40.8410 -0.8037 9.1518 21.5631
# 2 48.1221 92.7004 40.0454 -15.0578 2.3936 10.7688
# 3 40.8410 40.0454 109.6618 -11.2563 5.8069 13.3075
# 4 -0.8037 -15.0578 -11.2563 29.1653 -6.3374 -2.6865
# 5 9.1518 2.3936 5.8069 -6.3374 18.3159 5.3509
# 6 21.5631 10.7688 13.3075 -2.6865 5.3509 30.1098
#
#
#
# Elastic Compliance Matrix: (Units=1/GPa)
#
#
# Indices 1 2 3 4 5 6 
#
# 1 0.027465 -0.012248 -0.004821 -0.010898 -0.010798 -0.012211
# 2 -0.012248 0.019295 -0.002074 0.010617 0.007213 0.002453
# 3 -0.004821 -0.002074 0.012121 0.003455 0.000298 -0.000907
# 4 -0.010898 0.010617 0.003455 0.044920 0.017519 0.003375
# 5 -0.010798 0.007213 0.000298 0.017519 0.066549 -0.005242
# 6 -0.012211 0.002453 -0.000907 0.003375 -0.005242 0.042713
#
#
# Mechanical properties :
#
#
# Convention : Reuss Voigt Hill
#
# Bulk Modulus (GPa) = 48.55710 59.80931 54.18321
# Shear Modulus (GPa) = 19.36373 25.60209 22.48291
#
# Velocity S-wave (km/s) = 3.06015 3.51873 3.29742
# Velocity P-wave (km/s) = 5.99739 6.74040 6.37972
#
# Compressibility (1/GPa) = 0.02059431
#
# Stress axis : x y z
#
# Youngs Moduli (GPa) = 36.40967 51.82704 82.50142
#
# Poissons Ratio (x) = 0.63477 0.39776
# Poissons Ratio (y) = 0.44594 0.17114
# Poissons Ratio (z) = 0.17554 0.10751
#
# Static dielectric constant tensor:
#      x y z
#    x 1.767000 -0.027950 0.007380 
#    y -0.027950 1.766590 -0.015440 
#    z 0.007380 -0.015440 1.736940 
# 
# From -- ./inp_files/101092.got.cif
#   From: 2010.05.17/outbox.cif.g08.bks.cpg/sg2_51_cif.got.tgz:101092.got - 2010.06.03 11:33:40.
