data_PCOD9008526
_publ_section_title
;
Structure prediction by ZEFSAII (Michael W. Deem and Ramdas Pophale) SiO2 
 PCOD9008526
Probable space group: P -1
;
_chemical_formula_sum "Si O2"
_cell_formula_units_Z 16
_cell_length_a 12.121180
_cell_length_b 11.129591
_cell_length_c 8.705548
_cell_angle_alpha 49.418578
_cell_angle_beta 54.380152
_cell_angle_gamma 54.076711
_cell_volume 682.743490
_symmetry_space_group_name_H-M "P -1"
_symmetry_group_IT_number 2
_symmetry_cell_setting 'triclinic'
loop_
_space_group_symop_operation_xyz
x,y,z
-x,-y,-z
loop_
_atom_site_type_symbol
_atom_site_label
_atom_site_fract_x
_atom_site_fract_y
_atom_site_fract_z
Si Si1 0.857832 0.755909 0.746443
Si Si2 0.490005 0.686415 0.813477
Si Si3 0.561275 0.998137 0.276643
Si Si4 0.683633 0.109540 0.482661
Si Si5 0.222008 0.485200 0.429151
Si Si6 0.179161 0.758665 0.463586
Si Si7 0.846803 0.894707 0.959186
Si Si8 0.061560 0.597032 0.170668
O O1 0.798036 0.811137 0.919447
O O2 0.024936 0.740603 0.637113
O O3 0.854778 0.575717 0.843920
O O4 0.787256 0.913598 0.557965
O O5 0.480682 0.800633 0.875571
O O6 0.355839 0.784101 0.730661
O O7 0.638069 0.660099 0.622133
O O8 0.500000 0.500000 0.000000
O O9 0.500000 0.000000 0.500000
O O10 0.466442 0.915035 0.324293
O O11 0.727881 0.922946 0.164253
O O12 0.743220 0.207444 0.476941
O O13 0.262638 0.593450 0.437124
O O14 0.089857 0.427391 0.637785
O O15 0.153132 0.602083 0.241708
O O16 0.150146 0.926105 0.246722
O O17 0.003679 0.771192 0.983562
#
# Coordination Sequence:
#
# PCOD9008526 Si02
#       8
#     2   2   2   2   2   2   2   2
#     4  10  22  40  61  91 125 159 200 248 309 369
#     4  11  23  39  61  90 120 158 208 251 296 362
#     4  10  22  39  62  88 121 160 203 249 300 362
#     4  10  21  40  61  83 125 166 193 247 310 354
#     4  10  22  40  58  87 121 158 203 249 307 361
#     4  10  23  40  61  90 125 160 200 249 308 369
#     4  11  21  38  63  93 119 156 206 250 301 367
#     4  10  21  39  65  88 118 157 201 256 302 353
#
# _framework density 23.434864000000001
#
# number of rings (size 3 to 8) (size 9 to 14) (size 15 to 20)
#    0.000    1.750    0.000    4.875    0.000   10.000 
#    0.000    6.250    0.000    0.000    0.000    0.000 
#    0.000    0.000    0.000    0.000    0.000    0.000 
#
# Total GULP energy -89374.207694 kJ/mol
# GULP energy per Si atom -5585.887981 kJ/mol
# Density = 2.338153 g / cm^3
# Si number density = 23.434864 Si / 1000 Ang^3
#
#
#
# Elastic Constant Matrix: (Units=GPa)
#
#
# Indices 1 2 3 4 5 6 
#
# 1 87.7206 18.6565 8.4947 -5.9563 3.4114 2.8637
# 2 18.6565 127.5499 18.6004 4.7179 3.2292 -3.4067
# 3 8.4947 18.6004 55.3543 5.0856 7.6447 1.1370
# 4 -5.9563 4.7179 5.0856 28.6751 -6.1418 1.8786
# 5 3.4114 3.2292 7.6447 -6.1418 21.3391 -12.5283
# 6 2.8637 -3.4067 1.1370 1.8786 -12.5283 29.2460
#
#
#
# Elastic Compliance Matrix: (Units=1/GPa)
#
#
# Indices 1 2 3 4 5 6 
#
# 1 0.012224 -0.001724 -0.001263 0.002817 -0.001774 -0.002290
# 2 -0.001724 0.008547 -0.002577 -0.001317 0.000425 0.001531
# 3 -0.001263 -0.002577 0.021478 -0.005886 -0.012249 -0.005881
# 4 0.002817 -0.001317 -0.005886 0.039808 0.015626 0.003937
# 5 -0.001774 0.000425 -0.012249 0.015626 0.074534 0.031624
# 6 -0.002290 0.001531 -0.005881 0.003937 0.031624 0.048118
#
#
# Mechanical properties :
#
#
# Convention : Reuss Voigt Hill
#
# Bulk Modulus (GPa) = 32.13260 40.23643 36.18452
# Shear Modulus (GPa) = 22.10326 30.84362 26.47344
#
# Velocity S-wave (km/s) = 3.07445 3.63180 3.36469
# Velocity P-wave (km/s) = 5.13266 5.89859 5.52891
#
# Compressibility (1/GPa) = 0.03112104
#
# Stress axis : x y z
#
# Youngs Moduli (GPa) = 81.80720 117.00244 46.55842
#
# Poissons Ratio (x) = 0.20173 0.05881
# Poissons Ratio (y) = 0.14105 0.11996
# Poissons Ratio (z) = 0.10334 0.30147
#
# Static dielectric constant tensor:
#      x y z
#    x 1.899520 0.020420 -0.004000 
#    y 0.020420 1.909460 -0.031720 
#    z -0.004000 -0.031720 2.008970 
# 
# From -- ./inp_files/261467.got.cif
#   From: 2010.05.17/outbox.cif.g08.bks.cpg/sg2_131_cif.got.tgz:261467.got - 2010.06.03 11:33:40.
