data_PCOD9008612
_publ_section_title
;
Structure prediction by ZEFSAII (Michael W. Deem and Ramdas Pophale) SiO2 
 PCOD9008612
Probable space group: P -1
;
_chemical_formula_sum "Si O2"
_cell_formula_units_Z 15
_cell_length_a 9.241365
_cell_length_b 7.844786
_cell_length_c 12.386813
_cell_angle_alpha 81.504279
_cell_angle_beta 59.886809
_cell_angle_gamma 63.760474
_cell_volume 693.573080
_symmetry_space_group_name_H-M "P -1"
_symmetry_group_IT_number 2
_symmetry_cell_setting 'triclinic'
loop_
_space_group_symop_operation_xyz
x,y,z
-x,-y,-z
loop_
_atom_site_type_symbol
_atom_site_label
_atom_site_fract_x
_atom_site_fract_y
_atom_site_fract_z
Si Si1 0.000000 0.500000 0.500000
Si Si2 0.893032 0.782639 0.074205
Si Si3 0.126529 0.931416 0.624579
Si Si4 0.003007 0.641680 0.275441
Si Si5 0.762440 0.213721 0.174794
Si Si6 0.427714 0.533517 0.146094
Si Si7 0.487116 0.114922 0.884589
Si Si8 0.783697 0.922677 0.628981
O O1 0.923586 0.539595 0.397640
O O2 0.135806 0.280508 0.438858
O O3 0.727365 0.767253 0.074256
O O4 0.956210 0.647990 0.167666
O O5 0.809284 0.003308 0.127554
O O6 0.068368 0.746416 0.937805
O O7 0.230183 0.793614 0.697404
O O8 0.941260 0.919892 0.653010
O O9 0.237902 0.927147 0.473532
O O10 0.062165 0.140222 0.682701
O O11 0.223456 0.544363 0.225308
O O12 0.572126 0.370944 0.183211
O O13 0.420246 0.738753 0.157357
O O14 0.500000 0.500000 0.000000
O O15 0.597381 0.973683 0.760047
O O16 0.500000 0.000000 0.000000
#
# Coordination Sequence:
#
# PCOD9008612 Si02
#       8
#     1   2   2   2   2   2   2   2
#     4  10  24  38  68  94 124 170 212 262 312 380
#     4  10  22  40  64  90 132 168 210 265 320 378
#     4   9  19  41  65  86 124 175 205 254 321 388
#     4  10  21  43  63  93 127 171 211 258 321 374
#     4  10  21  39  65  92 124 171 215 257 326 373
#     4  12  24  41  65  96 130 166 217 267 313 378
#     4  12  26  40  65 100 129 166 213 269 320 376
#     4  10  21  41  64  93 129 165 216 258 319 376
#
# _framework density 21.627136
#
# number of rings (size 3 to 8) (size 9 to 14) (size 15 to 20)
#    0.000    1.600    2.667    1.600    5.600    1.600 
#    2.400    2.667    0.000    0.000    0.000    0.000 
#    0.000    0.000    0.000    0.000    0.000    0.000 
#
# Total GULP energy -83547.097341 kJ/mol
# GULP energy per Si atom -5569.806489 kJ/mol
# Density = 2.157791 g / cm^3
# Si number density = 21.627136 Si / 1000 Ang^3
#
#
#
# Elastic Constant Matrix: (Units=GPa)
#
#
# Indices 1 2 3 4 5 6 
#
# 1 77.5644 18.1170 36.2059 -15.6193 13.7309 -35.2512
# 2 18.1170 80.9346 38.0799 -14.1680 18.0991 -30.4881
# 3 36.2059 38.0799 80.6220 -27.0154 27.6730 -28.0298
# 4 -15.6193 -14.1680 -27.0154 35.3911 -10.8561 18.8387
# 5 13.7309 18.0991 27.6730 -10.8561 26.8559 -9.4886
# 6 -35.2512 -30.4881 -28.0298 18.8387 -9.4886 38.7898
#
#
#
# Elastic Compliance Matrix: (Units=1/GPa)
#
#
# Indices 1 2 3 4 5 6 
#
# 1 0.025582 0.006959 -0.006088 -0.005853 -0.004670 0.026019
# 2 0.006959 0.021792 -0.005692 -0.005622 -0.007503 0.020234
# 3 -0.006088 -0.005692 0.027240 0.010417 -0.016723 0.000528
# 4 -0.005853 -0.005622 0.010417 0.045419 0.006384 -0.022707
# 5 -0.004670 -0.007503 -0.016723 0.006384 0.060799 -0.010453
# 6 0.026019 0.020234 0.000528 -0.022707 -0.010453 0.074181
#
#
# Mechanical properties :
#
#
# Convention : Reuss Voigt Hill
#
# Bulk Modulus (GPa) = 15.39111 47.10295 31.24703
# Shear Modulus (GPa) = 17.46354 29.98858 23.72606
#
# Velocity S-wave (km/s) = 2.84471 3.72777 3.31577
# Velocity P-wave (km/s) = 4.23342 6.35258 5.39801
#
# Compressibility (1/GPa) = 0.06497258
#
# Stress axis : x y z
#
# Youngs Moduli (GPa) = 39.09049 45.88897 36.71058
#
# Poissons Ratio (x) = -0.31933 0.22348
# Poissons Ratio (y) = -0.27202 0.20894
# Poissons Ratio (z) = 0.23797 0.26118
#
# Static dielectric constant tensor:
#      x y z
#    x 1.778420 0.062290 -0.026650 
#    y 0.062290 1.887510 0.037890 
#    z -0.026650 0.037890 2.006960 
# 
# From -- ./inp_files/175901.got.cif
#   From: 2010.05.17/outbox.cif.g08.bks.cpg/sg2_88_cif.got.tgz:175901.got - 2010.06.03 11:33:40.
