data_PCOD9008035
_publ_section_title
;
Structure prediction by ZEFSAII (Michael W. Deem and Ramdas Pophale) SiO2 
 PCOD9008035
Probable space group: P -1
;
_chemical_formula_sum "Si O2"
_cell_formula_units_Z 16
_cell_length_a 8.671785
_cell_length_b 9.425167
_cell_length_c 14.562225
_cell_angle_alpha 49.291836
_cell_angle_beta 85.603288
_cell_angle_gamma 114.824342
_cell_volume 704.646117
_symmetry_space_group_name_H-M "P -1"
_symmetry_group_IT_number 2
_symmetry_cell_setting 'triclinic'
loop_
_space_group_symop_operation_xyz
x,y,z
-x,-y,-z
loop_
_atom_site_type_symbol
_atom_site_label
_atom_site_fract_x
_atom_site_fract_y
_atom_site_fract_z
Si Si1 0.954282 0.776732 0.868204
Si Si2 0.026436 0.813465 0.237459
Si Si3 0.721573 0.247659 0.884248
Si Si4 0.928179 0.763947 0.662142
Si Si5 0.693110 0.090402 0.663651
Si Si6 0.337555 0.035103 0.482759
Si Si7 0.581191 0.417231 0.455463
Si Si8 0.724091 0.244046 0.097866
O O1 0.899995 0.783683 0.762507
O O2 0.180764 0.872862 0.816250
O O3 0.915839 0.926150 0.868913
O O4 0.829149 0.506016 0.022669
O O5 0.139575 0.779711 0.170786
O O6 0.104972 0.785263 0.342616
O O7 0.791246 0.638615 0.312000
O O8 0.757870 0.493361 0.750279
O O9 0.781522 0.285911 0.971366
O O10 0.500000 0.000000 0.000000
O O11 0.000000 0.000000 0.500000
O O12 0.131653 0.800460 0.628269
O O13 0.643958 0.265136 0.561557
O O14 0.683776 0.956202 0.629220
O O15 0.508078 0.906597 0.815044
O O16 0.418811 0.260273 0.449382
O O17 0.500000 0.000000 0.500000
O O18 0.500000 0.500000 0.500000
#
# Coordination Sequence:
#
# PCOD9008035 Si02
#       8
#     2   2   2   2   2   2   2   2
#     4  10  23  42  68  96 135 182 234 282 350 429
#     4  12  24  42  68 101 138 177 237 294 357 415
#     4  11  24  46  69 100 143 183 232 293 358 411
#     4  11  23  44  70  99 135 182 233 284 351 424
#     4  11  22  40  65  94 134 178 232 278 351 413
#     4  10  21  39  63  94 129 178 224 274 337 414
#     4  11  24  41  66 101 140 175 228 295 353 411
#     4  10  22  45  68  93 137 193 229 283 347 432
#
# _framework density 22.706434999999999
#
# number of rings (size 3 to 8) (size 9 to 14) (size 15 to 20)
#    0.000    1.250    1.250    5.625    0.000    5.000 
#    4.500    0.000    0.000    0.000    0.000    0.000 
#    0.000    0.000    0.000    0.000    0.000    0.000 
#
# Total GULP energy -89342.275807 kJ/mol
# GULP energy per Si atom -5583.892238 kJ/mol
# Density = 2.265475 g / cm^3
# Si number density = 22.706435 Si / 1000 Ang^3
#
#
#
# Elastic Constant Matrix: (Units=GPa)
#
#
# Indices 1 2 3 4 5 6 
#
# 1 64.8247 29.2628 23.6115 -12.8058 -3.0663 -3.1678
# 2 29.2628 153.4198 53.8477 -4.4733 -7.7117 -19.9264
# 3 23.6115 53.8477 71.2740 -12.1613 -1.8849 -11.2994
# 4 -12.8058 -4.4733 -12.1613 41.0421 -2.6733 -4.0876
# 5 -3.0663 -7.7117 -1.8849 -2.6733 41.6737 -3.0794
# 6 -3.1678 -19.9264 -11.2994 -4.0876 -3.0794 36.0491
#
#
#
# Elastic Compliance Matrix: (Units=1/GPa)
#
#
# Indices 1 2 3 4 5 6 
#
# 1 0.018696 -0.002031 -0.003871 0.004529 0.001109 -0.000085
# 2 -0.002031 0.009522 -0.006150 -0.001004 0.001505 0.003172
# 3 -0.003871 -0.006150 0.021336 0.004800 0.000109 0.003502
# 4 0.004529 -0.001004 0.004800 0.027722 0.002490 0.004704
# 5 0.001109 0.001505 0.000109 0.002490 0.024769 0.003361
# 6 -0.000085 0.003172 0.003502 0.004704 0.003361 0.031404
#
#
# Mechanical properties :
#
#
# Convention : Reuss Voigt Hill
#
# Bulk Modulus (GPa) = 39.29073 55.88474 47.58774
# Shear Modulus (GPa) = 30.11409 35.93940 33.02674
#
# Velocity S-wave (km/s) = 3.64570 3.98274 3.81794
# Velocity P-wave (km/s) = 5.92139 6.76867 6.35916
#
# Compressibility (1/GPa) = 0.02545130
#
# Stress axis : x y z
#
# Youngs Moduli (GPa) = 53.48825 105.01687 46.86908
#
# Poissons Ratio (x) = 0.21325 0.18141
# Poissons Ratio (y) = 0.10861 0.28825
# Poissons Ratio (z) = 0.20704 0.64586
#
# Static dielectric constant tensor:
#      x y z
#    x 1.938700 0.035730 0.006040 
#    y 0.035730 1.912660 -0.059130 
#    z 0.006040 -0.059130 1.907270 
# 
# From -- ./inp_files/494386.got.cif
#   From: 2010.05.17/outbox.cif.g08.bks.cpg/sg2_248_cif.got.tgz:494386.got - 2010.06.03 11:33:40.
