data_PCOD9008270
_publ_section_title
;
Structure prediction by ZEFSAII (Michael W. Deem and Ramdas Pophale) SiO2 
 PCOD9008270
Probable space group: P -1
;
_chemical_formula_sum "Si O2"
_cell_formula_units_Z 16
_cell_length_a 14.293713
_cell_length_b 7.312434
_cell_length_c 16.769375
_cell_angle_alpha 90.192938
_cell_angle_beta 148.707563
_cell_angle_gamma 110.744914
_cell_volume 661.119863
_symmetry_space_group_name_H-M "P -1"
_symmetry_group_IT_number 2
_symmetry_cell_setting 'triclinic'
loop_
_space_group_symop_operation_xyz
x,y,z
-x,-y,-z
loop_
_atom_site_type_symbol
_atom_site_label
_atom_site_fract_x
_atom_site_fract_y
_atom_site_fract_z
Si Si1 0.341974 0.099969 0.257711
Si Si2 0.220967 0.265362 0.707388
Si Si3 0.741970 0.059320 0.195131
Si Si4 0.177779 0.347162 0.203911
Si Si5 0.416282 0.112907 0.580975
Si Si6 0.484359 0.324614 0.199179
Si Si7 0.200762 0.807884 0.578989
Si Si8 0.026344 0.154267 0.256014
O O1 0.265888 0.194335 0.268590
O O2 0.431973 0.303757 0.254254
O O3 0.525305 0.056464 0.406495
O O4 0.088397 0.837731 0.035179
O O5 0.320069 0.199528 0.845895
O O6 0.416311 0.444657 0.782022
O O7 0.083052 0.340441 0.647427
O O8 0.000000 0.000000 0.500000
O O9 0.790113 0.152754 0.320289
O O10 0.958653 0.215198 0.287640
O O11 0.500000 0.000000 0.000000
O O12 0.356353 0.609350 0.287566
O O13 0.154776 0.368625 0.281842
O O14 0.180270 0.076012 0.385733
O O15 0.373603 0.046709 0.644932
O O16 0.698939 0.323868 0.355379
O O17 0.236808 0.078673 0.976483
#
# Coordination Sequence:
#
# PCOD9008270 Si02
#       8
#     2   2   2   2   2   2   2   2
#     4   9  22  41  66  97 124 169 223 270 327 388
#     4  10  22  38  62  91 119 167 217 259 318 389
#     4  11  22  41  60  89 133 166 213 263 322 397
#     4  10  22  42  67  94 131 170 215 275 326 382
#     4  11  22  41  68  97 131 171 220 270 322 392
#     4  10  21  40  63  89 131 162 211 276 321 383
#     4  10  21  39  64  92 121 168 219 263 320 389
#     4  11  23  41  61  95 133 172 215 264 331 386
#
# _framework density 24.201359
#
# number of rings (size 3 to 8) (size 9 to 14) (size 15 to 20)
#    0.000    1.750    2.500    1.125    3.500    1.000 
#    0.000    2.500    0.000    0.000    0.000    0.000 
#    0.000    0.000    0.000    0.000    0.000    0.000 
#
# Total GULP energy -89278.329665 kJ/mol
# GULP energy per Si atom -5579.895604 kJ/mol
# Density = 2.414628 g / cm^3
# Si number density = 24.201359 Si / 1000 Ang^3
#
#
#
# Elastic Constant Matrix: (Units=GPa)
#
#
# Indices 1 2 3 4 5 6 
#
# 1 139.9505 54.3588 24.0586 -5.1236 13.2947 26.4580
# 2 54.3588 115.2544 48.9254 2.2110 7.4721 32.2544
# 3 24.0586 48.9254 101.2137 -18.2055 23.1780 -4.8550
# 4 -5.1236 2.2110 -18.2055 42.8866 -4.2598 18.5612
# 5 13.2947 7.4721 23.1780 -4.2598 27.7940 -6.6086
# 6 26.4580 32.2544 -4.8550 18.5612 -6.6086 47.0882
#
#
#
# Elastic Compliance Matrix: (Units=1/GPa)
#
#
# Indices 1 2 3 4 5 6 
#
# 1 0.009912 -0.003218 0.000776 0.003494 -0.005272 -0.005403
# 2 -0.003218 0.016215 -0.007896 -0.000171 0.001396 -0.009850
# 3 0.000776 -0.007896 0.017138 0.005346 -0.010986 0.003091
# 4 0.003494 -0.000171 0.005346 0.031823 -0.004652 -0.014492
# 5 -0.005272 0.001396 -0.010986 -0.004652 0.048848 0.009562
# 6 -0.005403 -0.009850 0.003091 -0.014492 0.009562 0.038393
#
#
# Mechanical properties :
#
#
# Convention : Reuss Voigt Hill
#
# Bulk Modulus (GPa) = 44.26837 67.90046 56.08442
# Shear Modulus (GPa) = 26.24189 38.82547 32.53368
#
# Velocity S-wave (km/s) = 3.29647 4.00968 3.67044
# Velocity P-wave (km/s) = 5.72890 7.03946 6.41772
#
# Compressibility (1/GPa) = 0.02258949
#
# Stress axis : x y z
#
# Youngs Moduli (GPa) = 100.88937 61.66981 58.34845
#
# Poissons Ratio (x) = 0.19842 -0.04527
# Poissons Ratio (y) = 0.32461 0.46075
# Poissons Ratio (z) = -0.07828 0.48697
#
# Static dielectric constant tensor:
#      x y z
#    x 2.072990 -0.094960 0.095950 
#    y -0.094960 2.013400 -0.013470 
#    z 0.095950 -0.013470 1.931670 
# 
# From -- ./inp_files/572627.got.cif
#   From: 2010.05.17/outbox.cif.g08.bks.cpg/sg2_287_cif.got.tgz:572627.got - 2010.06.03 11:33:40.
