data_PCOD9008493
_publ_section_title
;
Structure prediction by ZEFSAII (Michael W. Deem and Ramdas Pophale) SiO2 
 PCOD9008493
Probable space group: P -1
;
_chemical_formula_sum "Si O2"
_cell_formula_units_Z 14
_cell_length_a 14.897407
_cell_length_b 13.826697
_cell_length_c 8.554854
_cell_angle_alpha 138.241091
_cell_angle_beta 136.975378
_cell_angle_gamma 32.487120
_cell_volume 604.259269
_symmetry_space_group_name_H-M "P -1"
_symmetry_group_IT_number 2
_symmetry_cell_setting 'triclinic'
loop_
_space_group_symop_operation_xyz
x,y,z
-x,-y,-z
loop_
_atom_site_type_symbol
_atom_site_label
_atom_site_fract_x
_atom_site_fract_y
_atom_site_fract_z
Si Si1 0.797143 0.038934 0.872727
Si Si2 0.990677 0.335446 0.809916
Si Si3 0.112352 0.694742 0.690168
Si Si4 0.384666 0.014078 0.006150
Si Si5 0.064590 0.848542 0.262067
Si Si6 0.422364 0.271010 0.547982
Si Si7 0.440742 0.682137 0.545122
O O1 0.594455 0.153704 0.732020
O O2 0.817996 0.195326 0.049542
O O3 0.914622 0.845264 0.683621
O O4 0.902534 0.951649 0.063668
O O5 0.908907 0.318258 0.535885
O O6 0.895226 0.340019 0.844726
O O7 0.189024 0.146728 0.855912
O O8 0.000000 0.500000 0.000000
O O9 0.253693 0.471611 0.650700
O O10 0.388631 0.127137 0.287336
O O11 0.500000 0.000000 0.000000
O O12 0.445455 0.804807 0.831211
O O13 0.244654 0.788340 0.363149
O O14 0.000000 0.000000 0.500000
O O15 0.462794 0.327979 0.502048
O O16 0.500000 0.500000 0.500000
#
# Coordination Sequence:
#
# PCOD9008493 Si02
#       7
#     2   2   2   2   2   2   2
#     4  11  24  42  67 101 145 176 233 286 340 416
#     4  12  23  42  73  96 130 179 232 282 341 410
#     4  11  21  41  71 102 136 184 228 281 344 409
#     4  10  21  39  65 101 137 176 225 279 342 403
#     4  12  24  44  69  99 131 178 229 290 340 398
#     4  11  23  42  71 100 142 189 222 277 353 412
#     4  11  23  40  69 109 136 173 236 289 334 403
#
# _framework density 23.168863000000002
#
# number of rings (size 3 to 8) (size 9 to 14) (size 15 to 20)
#    0.000    0.857    4.286    4.714    2.000    0.000 
#    0.000    1.429    3.143    0.000    0.000    0.000 
#    0.000    0.000    0.000    0.000    0.000    0.000 
#
# Total GULP energy -78177.847526 kJ/mol
# GULP energy per Si atom -5584.131966 kJ/mol
# Density = 2.311613 g / cm^3
# Si number density = 23.168863 Si / 1000 Ang^3
#
#
#
# Elastic Constant Matrix: (Units=GPa)
#
#
# Indices 1 2 3 4 5 6 
#
# 1 38.0890 7.3128 21.1352 12.2515 9.8643 9.4267
# 2 7.3128 113.5983 73.5241 11.0665 7.3856 2.3951
# 3 21.1352 73.5241 128.6990 -0.5277 9.3929 15.6631
# 4 12.2515 11.0665 -0.5277 57.6946 9.6742 11.4322
# 5 9.8643 7.3856 9.3929 9.6742 36.1635 -2.4200
# 6 9.4267 2.3951 15.6631 11.4322 -2.4200 38.6736
#
#
#
# Elastic Compliance Matrix: (Units=1/GPa)
#
#
# Indices 1 2 3 4 5 6 
#
# 1 0.033950 0.002934 -0.006189 -0.005717 -0.007037 -0.004701
# 2 0.002934 0.015168 -0.009590 -0.004311 -0.000020 0.003503
# 3 -0.006189 -0.009590 0.015095 0.004705 -0.001902 -0.005521
# 4 -0.005717 -0.004311 0.004705 0.021640 -0.005037 -0.006957
# 5 -0.007037 -0.000020 -0.001902 -0.005037 0.031816 0.005967
# 6 -0.004701 0.003503 -0.005521 -0.006957 0.005967 0.031452
#
#
# Mechanical properties :
#
#
# Convention : Reuss Voigt Hill
#
# Bulk Modulus (GPa) = 25.95829 53.81449 39.88639
# Shear Modulus (GPa) = 26.64494 38.40060 32.52277
#
# Velocity S-wave (km/s) = 3.39489 4.07556 3.75070
# Velocity P-wave (km/s) = 5.15707 6.73977 6.00082
#
# Compressibility (1/GPa) = 0.03852334
#
# Stress axis : x y z
#
# Youngs Moduli (GPa) = 29.45489 65.92730 66.24723
#
# Poissons Ratio (x) = -0.19343 0.41002
# Poissons Ratio (y) = -0.08642 0.63529
# Poissons Ratio (z) = 0.18230 0.63223
#
# Static dielectric constant tensor:
#      x y z
#    x 2.902420 -0.053210 0.281070 
#    y -0.053210 1.912870 0.012850 
#    z 0.281070 0.012850 1.942770 
# 
# From -- ./inp_files/149966.got.cif
#   From: 2010.05.17/outbox.cif.g08.bks.cpg/sg2_75_cif.got.tgz:149966.got - 2010.06.03 11:33:40.
