data_PCOD9008830
_publ_section_title
;
Structure prediction by ZEFSAII (Michael W. Deem and Ramdas Pophale) SiO2 
 PCOD9008830
Probable space group: P -1
;
_chemical_formula_sum "Si O2"
_cell_formula_units_Z 16
_cell_length_a 15.019439
_cell_length_b 7.227210
_cell_length_c 14.289872
_cell_angle_alpha 107.545568
_cell_angle_beta 136.271087
_cell_angle_gamma 42.015755
_cell_volume 617.834772
_symmetry_space_group_name_H-M "P -1"
_symmetry_group_IT_number 2
_symmetry_cell_setting 'triclinic'
loop_
_space_group_symop_operation_xyz
x,y,z
-x,-y,-z
loop_
_atom_site_type_symbol
_atom_site_label
_atom_site_fract_x
_atom_site_fract_y
_atom_site_fract_z
Si Si1 0.772477 0.785234 0.470814
Si Si2 0.905325 0.304368 0.253460
Si Si3 0.019242 0.458155 0.117475
Si Si4 0.507516 0.329414 0.063844
Si Si5 0.160609 0.721375 0.256175
Si Si6 0.651621 0.610346 0.859501
Si Si7 0.027295 0.122718 0.620624
Si Si8 0.577058 0.127295 0.565978
O O1 0.163873 0.500602 0.485870
O O2 0.986001 0.655280 0.598288
O O3 0.579940 0.025149 0.289175
O O4 0.684678 0.000285 0.527804
O O5 0.013882 0.086889 0.207971
O O6 0.950828 0.053616 0.306075
O O7 0.654999 0.634639 0.096442
O O8 0.054407 0.643393 0.197541
O O9 0.235866 0.081104 0.248464
O O10 0.000000 0.500000 0.000000
O O11 0.806290 0.601597 0.008811
O O12 0.402805 0.478781 0.112299
O O13 0.756280 0.010847 0.227155
O O14 0.500000 0.500000 0.000000
O O15 0.243858 0.592496 0.191170
O O16 0.363839 0.505634 0.447427
O O17 0.000000 0.000000 0.500000
O O18 0.500000 0.000000 0.500000
#
# Coordination Sequence:
#
# PCOD9008830 Si02
#       8
#     2   2   2   2   2   2   2   2
#     4  11  24  42  68  97 130 174 224 274 331 396
#     4  11  24  43  67  97 133 175 221 273 333 399
#     4   9  17  32  57  93 134 172 214 266 321 385
#     4  10  24  44  65  95 131 174 227 278 330 388
#     4   9  20  37  62  97 135 173 217 269 332 401
#     4  10  21  39  66 101 135 175 222 272 335 401
#     4  11  25  46  69  95 130 173 225 281 332 391
#     4   9  17  34  59  91 132 174 213 261 324 394
#
# _framework density 25.896892000000001
#
# number of rings (size 3 to 8) (size 9 to 14) (size 15 to 20)
#    0.000    2.000    0.000    3.750    0.000    6.000 
#    0.000    8.750    0.000    0.000    0.000    0.000 
#    0.000    0.000    0.000    0.000    0.000    0.125 
#
# Total GULP energy -89158.053384 kJ/mol
# GULP energy per Si atom -5572.378336 kJ/mol
# Density = 2.583795 g / cm^3
# Si number density = 25.896892 Si / 1000 Ang^3
#
#
#
# Elastic Constant Matrix: (Units=GPa)
#
#
# Indices 1 2 3 4 5 6 
#
# 1 151.4537 19.0971 41.7736 -0.1041 -6.6032 13.9723
# 2 19.0971 78.2244 48.1510 -7.3838 4.9132 18.9959
# 3 41.7736 48.1510 208.2302 -19.7620 8.2091 10.5920
# 4 -0.1041 -7.3838 -19.7620 31.2927 5.8441 0.4238
# 5 -6.6032 4.9132 8.2091 5.8441 42.9224 7.1323
# 6 13.9723 18.9959 10.5920 0.4238 7.1323 32.7975
#
#
#
# Elastic Compliance Matrix: (Units=1/GPa)
#
#
# Indices 1 2 3 4 5 6 
#
# 1 0.007418 -0.000492 -0.001442 -0.001362 0.002133 -0.002856
# 2 -0.000492 0.017223 -0.003222 0.002199 -0.000286 -0.008692
# 3 -0.001442 -0.003222 0.006187 0.003437 -0.001636 0.000794
# 4 -0.001362 0.002199 0.003437 0.035741 -0.005819 -0.001000
# 5 0.002133 -0.000286 -0.001636 -0.005819 0.025716 -0.005732
# 6 -0.002856 -0.008692 0.000794 -0.001000 -0.005732 0.037744
#
#
# Mechanical properties :
#
#
# Convention : Reuss Voigt Hill
#
# Bulk Modulus (GPa) = 48.74389 72.88353 60.81371
# Shear Modulus (GPa) = 33.97158 43.32828 38.64993
#
# Velocity S-wave (km/s) = 3.62581 4.09480 3.86742
# Velocity P-wave (km/s) = 6.03256 7.11065 6.59368
#
# Compressibility (1/GPa) = 0.02051539
#
# Stress axis : x y z
#
# Youngs Moduli (GPa) = 134.80489 58.06089 161.62653
#
# Poissons Ratio (x) = 0.02858 0.23314
# Poissons Ratio (y) = 0.06635 0.52074
# Poissons Ratio (z) = 0.19445 0.18707
#
# Static dielectric constant tensor:
#      x y z
#    x 2.559210 -0.010720 0.114890 
#    y -0.010720 2.223320 0.167830 
#    z 0.114890 0.167830 2.581170 
# 
# From -- ./inp_files/179079.got.cif
#   From: 2010.05.17/outbox.cif.g08.bks.cpg/sg2_90_cif.got.tgz:179079.got - 2010.06.03 11:33:40.
