data_PCOD9008980
_publ_section_title
;
Structure prediction by ZEFSAII (Michael W. Deem and Ramdas Pophale) SiO2 
 PCOD9008980
Probable space group: P -1
;
_chemical_formula_sum "Si O2"
_cell_formula_units_Z 13
_cell_length_a 16.134214
_cell_length_b 7.486090
_cell_length_c 15.331934
_cell_angle_alpha 96.395036
_cell_angle_beta 18.287397
_cell_angle_gamma 104.118554
_cell_volume 517.674285
_symmetry_space_group_name_H-M "P -1"
_symmetry_group_IT_number 2
_symmetry_cell_setting 'triclinic'
loop_
_space_group_symop_operation_xyz
x,y,z
-x,-y,-z
loop_
_atom_site_type_symbol
_atom_site_label
_atom_site_fract_x
_atom_site_fract_y
_atom_site_fract_z
Si Si1 0.740225 0.834676 0.583315
Si Si2 0.329933 0.727297 0.447069
Si Si3 0.734253 0.609509 0.925750
Si Si4 0.477993 0.884275 0.604939
Si Si5 0.000000 0.500000 0.500000
Si Si6 0.827422 0.669228 0.308676
Si Si7 0.282108 0.896215 0.132763
O O1 0.850565 0.804122 0.378249
O O2 0.022078 0.949098 0.368379
O O3 0.541122 0.609171 0.802189
O O4 0.506992 0.923385 0.830561
O O5 0.307645 0.557630 0.531930
O O6 0.012882 0.648158 0.711497
O O7 0.401541 0.933713 0.435700
O O8 0.574986 0.737118 0.132505
O O9 0.848459 0.625907 0.713600
O O10 0.646251 0.744365 0.429446
O O11 0.500000 0.000000 0.500000
O O12 0.145864 0.734855 0.954269
O O13 0.110684 0.665773 0.321231
O O14 0.500000 0.000000 0.000000
#
# Coordination Sequence:
#
# PCOD9008980 Si02
#       7
#     2   2   2   2   1   2   2
#     4  10  21  41  61  87 123 167 220 263 316 392
#     4  11  24  44  68  98 132 178 231 268 331 414
#     4  10  21  39  66  95 130 177 227 276 328 392
#     4  12  27  44  69 106 135 167 223 278 337 415
#     4  10  22  38  60  92 130 168 216 278 326 366
#     4  11  23  44  70  92 133 179 211 278 339 385
#     4  11  23  37  58  88 125 166 215 267 321 381
#
# _framework density 25.112314999999999
#
# number of rings (size 3 to 8) (size 9 to 14) (size 15 to 20)
#    0.000    1.231    0.000    8.308    0.000   10.462 
#    0.000    1.538    0.000    0.000    0.000    0.000 
#    0.000    0.000    0.000    0.000    0.000    0.000 
#
# Total GULP energy -72486.836421 kJ/mol
# GULP energy per Si atom -5575.910494 kJ/mol
# Density = 2.505516 g / cm^3
# Si number density = 25.112315 Si / 1000 Ang^3
#
#
#
# Elastic Constant Matrix: (Units=GPa)
#
#
# Indices 1 2 3 4 5 6 
#
# 1 68.0107 0.1363 38.5845 -3.9766 -3.6101 -3.6352
# 2 0.1363 117.5023 26.4861 -2.2761 -16.3521 -21.8957
# 3 38.5845 26.4861 99.5470 -18.1329 -29.5989 -12.3746
# 4 -3.9766 -2.2761 -18.1329 2.9875 -27.4521 6.7850
# 5 -3.6101 -16.3521 -29.5989 -27.4521 32.9016 10.0777
# 6 -3.6352 -21.8957 -12.3746 6.7850 10.0777 33.5023
#
#
#
# Elastic Compliance Matrix: (Units=1/GPa)
#
#
# Indices 1 2 3 4 5 6 
#
# 1 0.018622 0.001581 -0.006304 0.005130 0.001690 -0.000822
# 2 0.001581 0.010265 -0.002131 0.000068 0.001710 0.005565
# 3 -0.006304 -0.002131 0.009837 -0.012833 -0.005377 0.005773
# 4 0.005130 0.000068 -0.012833 -0.018230 -0.028662 0.008175
# 5 0.001690 0.001710 -0.005377 -0.028662 0.001221 0.004753
# 6 -0.000822 0.005565 0.005773 0.008175 0.004753 0.032444
#
#
# Mechanical properties :
#
#
# Convention : Reuss Voigt Hill
#
# Bulk Modulus (GPa) = 39.97375 46.16374 43.06874
# Shear Modulus (GPa) = 65.61061 28.53514 47.07287
#
# Velocity S-wave (km/s) = 5.11699 3.37456 4.33424
# Velocity P-wave (km/s) = 7.13190 5.79710 6.49886
#
# Compressibility (1/GPa) = 0.02501642
#
# Stress axis : x y z
#
# Youngs Moduli (GPa) = 53.69854 97.41470 101.65689
#
# Poissons Ratio (x) = -0.15399 0.64082
# Poissons Ratio (y) = -0.08488 0.21665
# Poissons Ratio (z) = 0.33850 0.20761
#
# Static dielectric constant tensor:
#      x y z
#    x 2.030100 0.022830 -0.063670 
#    y 0.022830 2.180570 -0.032940 
#    z -0.063670 -0.032940 1.951010 
# 
# From -- ./inp_files/528558.got.cif
#   From: 2010.05.17/outbox.cif.g08.bks.cpg/sg2_265_cif.got.tgz:528558.got - 2010.06.03 11:33:40.
