data_PCOD9008185
_publ_section_title
;
Structure prediction by ZEFSAII (Michael W. Deem and Ramdas Pophale) SiO2 
 PCOD9008185
Probable space group: P -1
;
_chemical_formula_sum "Si O2"
_cell_formula_units_Z 16
_cell_length_a 12.066019
_cell_length_b 15.990723
_cell_length_c 21.765500
_cell_angle_alpha 24.887645
_cell_angle_beta 158.180326
_cell_angle_gamma 153.031879
_cell_volume 623.674142
_symmetry_space_group_name_H-M "P -1"
_symmetry_group_IT_number 2
_symmetry_cell_setting 'triclinic'
loop_
_space_group_symop_operation_xyz
x,y,z
-x,-y,-z
loop_
_atom_site_type_symbol
_atom_site_label
_atom_site_fract_x
_atom_site_fract_y
_atom_site_fract_z
Si Si1 0.979760 0.796926 0.164442
Si Si2 0.022007 0.645072 0.703559
Si Si3 0.335269 0.653296 0.742402
Si Si4 0.756995 0.269882 0.538613
Si Si5 0.047780 0.108419 0.686971
Si Si6 0.670745 0.212046 0.109438
Si Si7 0.474046 0.242000 0.716820
Si Si8 0.193859 0.337856 0.129726
O O1 0.919118 0.577309 0.244900
O O2 0.257106 0.812977 0.344445
O O3 0.669075 0.766457 0.065013
O O4 0.000000 0.000000 0.000000
O O5 0.817910 0.406201 0.775236
O O6 0.768826 0.707197 0.490074
O O7 0.326877 0.672216 0.798901
O O8 0.146654 0.786882 0.732959
O O9 0.630552 0.651685 0.853617
O O10 0.211655 0.834217 0.528631
O O11 0.439056 0.291552 0.334456
O O12 0.000000 0.500000 0.500000
O O13 0.914725 0.138573 0.664208
O O14 0.358099 0.260708 0.713981
O O15 0.080181 0.878591 0.860884
O O16 0.591356 0.001927 0.169751
O O17 0.855707 0.443386 0.026085
#
# Coordination Sequence:
#
# PCOD9008185 Si02
#       8
#     2   2   2   2   2   2   2   2
#     4  11  23  36  64 101 131 163 211 275 328 388
#     4  10  22  42  66  89 128 177 216 272 326 380
#     4   9  18  37  60  90 124 159 211 263 325 381
#     4  11  19  42  65  90 131 167 207 263 332 392
#     4  10  21  39  64  89 123 172 218 264 314 392
#     4  11  23  41  61  94 132 168 220 272 319 383
#     4  10  23  44  63  91 129 175 226 264 317 387
#     4  10  22  38  63  93 126 167 214 267 328 393
#
# _framework density 25.654423000000001
#
# number of rings (size 3 to 8) (size 9 to 14) (size 15 to 20)
#    0.000    1.750    3.750    2.625    0.000    7.500 
#    2.250    2.500    0.000    0.000    0.000    0.000 
#    0.000    0.000    0.000    0.000    0.000    0.000 
#
# Total GULP energy -89381.315859 kJ/mol
# GULP energy per Si atom -5586.332241 kJ/mol
# Density = 2.559603 g / cm^3
# Si number density = 25.654423 Si / 1000 Ang^3
#
#
#
# Elastic Constant Matrix: (Units=GPa)
#
#
# Indices 1 2 3 4 5 6 
#
# 1 73.4200 17.3774 2.7314 -5.2204 -20.1154 9.1996
# 2 17.3774 83.8714 24.5252 -25.2218 -6.3109 -0.1045
# 3 2.7314 24.5252 106.2050 -7.0845 -9.3475 4.0623
# 4 -5.2204 -25.2218 -7.0845 63.5831 -0.6410 -4.5209
# 5 -20.1154 -6.3109 -9.3475 -0.6410 30.3477 -6.8258
# 6 9.1996 -0.1045 4.0623 -4.5209 -6.8258 24.3561
#
#
#
# Elastic Compliance Matrix: (Units=1/GPa)
#
#
# Indices 1 2 3 4 5 6 
#
# 1 0.017756 -0.003244 0.001390 0.000153 0.010639 -0.003942
# 2 -0.003244 0.015283 -0.003107 0.005680 0.000891 0.003113
# 3 0.001390 -0.003107 0.010429 -0.000024 0.003173 -0.001393
# 4 0.000153 0.005680 -0.000024 0.018308 0.002582 0.004092
# 5 0.010639 0.000891 0.003173 0.002582 0.043018 0.007991
# 6 -0.003942 0.003113 -0.001393 0.004092 0.007991 0.045791
#
#
# Mechanical properties :
#
#
# Convention : Reuss Voigt Hill
#
# Bulk Modulus (GPa) = 29.81090 39.19602 34.50346
# Shear Modulus (GPa) = 29.12247 38.24823 33.68535
#
# Velocity S-wave (km/s) = 3.37290 3.86541 3.62752
# Velocity P-wave (km/s) = 5.17823 5.93578 5.56990
#
# Compressibility (1/GPa) = 0.03354478
#
# Stress axis : x y z
#
# Youngs Moduli (GPa) = 56.31877 65.43308 95.89023
#
# Poissons Ratio (x) = 0.21224 -0.13327
# Poissons Ratio (y) = 0.18268 0.29798
# Poissons Ratio (z) = -0.07827 0.20333
#
# Static dielectric constant tensor:
#      x y z
#    x 2.051430 -0.065050 -0.025970 
#    y -0.065050 2.114190 -0.002760 
#    z -0.025970 -0.002760 2.074330 
# 
# From -- ./inp_files/595490.got.cif
#   From: 2010.05.17/outbox.cif.g08.bks.cpg/sg2_298_cif.got.tgz:595490.got - 2010.06.03 11:33:40.
