data_PCOD9008274
_publ_section_title
;
Structure prediction by ZEFSAII (Michael W. Deem and Ramdas Pophale) SiO2 
 PCOD9008274
Probable space group: P -1
;
_chemical_formula_sum "Si O2"
_cell_formula_units_Z 15
_cell_length_a 9.144162
_cell_length_b 12.745269
_cell_length_c 10.114908
_cell_angle_alpha 146.553294
_cell_angle_beta 65.373586
_cell_angle_gamma 118.565806
_cell_volume 570.255697
_symmetry_space_group_name_H-M "P -1"
_symmetry_group_IT_number 2
_symmetry_cell_setting 'triclinic'
loop_
_space_group_symop_operation_xyz
x,y,z
-x,-y,-z
loop_
_atom_site_type_symbol
_atom_site_label
_atom_site_fract_x
_atom_site_fract_y
_atom_site_fract_z
Si Si1 0.000000 0.500000 0.000000
Si Si2 0.642293 0.450421 0.170564
Si Si3 0.372876 0.084802 0.811169
Si Si4 0.428431 0.151934 0.382217
Si Si5 0.857349 0.517934 0.395804
Si Si6 0.098256 0.329945 0.187880
Si Si7 0.118186 0.032332 0.207578
Si Si8 0.180230 0.945761 0.485920
O O1 0.896109 0.268562 0.769694
O O2 0.178778 0.447760 0.850480
O O3 0.538744 0.613274 0.391735
O O4 0.700432 0.407754 0.252415
O O5 0.542871 0.259895 0.929841
O O6 0.417259 0.939942 0.750878
O O7 0.298087 0.949598 0.573431
O O8 0.243112 0.218907 0.013632
O O9 0.305026 0.057987 0.211470
O O10 0.305667 0.085767 0.485189
O O11 0.847591 0.510898 0.549234
O O12 0.022249 0.443403 0.218455
O O13 0.890013 0.750810 0.604519
O O14 0.939647 0.138269 0.057689
O O15 0.977376 0.978845 0.320366
#
# Coordination Sequence:
#
# PCOD9008274 Si02
#       8
#     1   2   2   2   2   2   2   2
#     4  12  22  40  68  92 124 176 214 258 304 378
#     4  11  25  41  66  93 130 172 208 265 311 381
#     4  11  25  42  59  97 133 163 213 262 324 367
#     4  11  22  40  61  93 132 169 207 255 317 383
#     4  10  21  43  64  94 120 162 224 252 316 376
#     4  10  23  39  67  90 124 166 206 275 310 370
#     4  10  21  39  64  92 122 165 213 259 307 377
#     4  11  23  40  63  94 129 167 215 256 305 382
#
# _framework density 26.303991
#
# number of rings (size 3 to 8) (size 9 to 14) (size 15 to 20)
#    0.000    1.333    4.000    2.000    0.000    4.267 
#    0.000    2.667    0.000    0.000    0.000    0.000 
#    0.000    0.000    0.000    0.000    0.000    0.000 
#
# Total GULP energy -83557.454616 kJ/mol
# GULP energy per Si atom -5570.496974 kJ/mol
# Density = 2.624412 g / cm^3
# Si number density = 26.303991 Si / 1000 Ang^3
#
#
#
# Elastic Constant Matrix: (Units=GPa)
#
#
# Indices 1 2 3 4 5 6 
#
# 1 192.3257 41.1635 63.0285 21.1501 -6.6698 -23.6276
# 2 41.1635 28.7688 16.7640 13.9168 -3.4252 -9.4131
# 3 63.0285 16.7640 139.5078 20.9734 9.1033 -11.9631
# 4 21.1501 13.9168 20.9734 34.4525 -5.8747 -10.3804
# 5 -6.6698 -3.4252 9.1033 -5.8747 53.5352 14.0647
# 6 -23.6276 -9.4131 -11.9631 -10.3804 14.0647 37.1466
#
#
#
# Elastic Compliance Matrix: (Units=1/GPa)
#
#
# Indices 1 2 3 4 5 6 
#
# 1 0.008405 -0.010428 -0.002593 0.001330 0.000420 0.002081
# 2 -0.010428 0.058582 0.000519 -0.016468 -0.000487 0.003962
# 3 -0.002593 0.000519 0.009204 -0.004296 -0.002655 0.001251
# 4 0.001330 -0.016468 -0.004296 0.039544 0.002795 0.005281
# 5 0.000420 -0.000487 -0.002655 0.002795 0.021588 -0.008104
# 6 0.002081 0.003962 0.001251 0.005281 -0.008104 0.034195
#
#
# Mechanical properties :
#
#
# Convention : Reuss Voigt Hill
#
# Bulk Modulus (GPa) = 19.53610 66.94604 43.24107
# Shear Modulus (GPa) = 23.40988 41.00327 32.20657
#
# Velocity S-wave (km/s) = 2.98648 3.95248 3.50294
# Velocity P-wave (km/s) = 4.39719 6.80702 5.73022
#
# Compressibility (1/GPa) = 0.05118730
#
# Stress axis : x y z
#
# Youngs Moduli (GPa) = 118.97398 17.06998 108.65171
#
# Poissons Ratio (x) = 0.17800 0.28176
# Poissons Ratio (y) = 1.24061 -0.05637
# Poissons Ratio (z) = 0.30852 -0.00886
#
# Static dielectric constant tensor:
#      x y z
#    x 2.026320 -0.013220 -0.054600 
#    y -0.013220 2.159940 -0.165710 
#    z -0.054600 -0.165710 2.144280 
# 
# From -- ./inp_files/396748.got.cif
#   From: 2010.05.17/outbox.cif.g08.bks.cpg/sg2_199_cif.got.tgz:396748.got - 2010.06.03 11:33:40.
