data_PCOD9008346
_publ_section_title
;
Structure prediction by ZEFSAII (Michael W. Deem and Ramdas Pophale) SiO2 
 PCOD9008346
Probable space group: P -1
;
_chemical_formula_sum "Si O2"
_cell_formula_units_Z 16
_cell_length_a 8.644807
_cell_length_b 11.551835
_cell_length_c 15.279820
_cell_angle_alpha 69.992654
_cell_angle_beta 61.371121
_cell_angle_gamma 118.177442
_cell_volume 801.023047
_symmetry_space_group_name_H-M "P -1"
_symmetry_group_IT_number 2
_symmetry_cell_setting 'triclinic'
loop_
_space_group_symop_operation_xyz
x,y,z
-x,-y,-z
loop_
_atom_site_type_symbol
_atom_site_label
_atom_site_fract_x
_atom_site_fract_y
_atom_site_fract_z
Si Si1 0.813573 0.689748 0.959131
Si Si2 0.006251 0.054879 0.820517
Si Si3 0.444128 0.765026 0.305368
Si Si4 0.966542 0.653723 0.557474
Si Si5 0.701974 0.079506 0.004624
Si Si6 0.205969 0.301093 0.245991
Si Si7 0.138162 0.987502 0.330989
Si Si8 0.211945 0.716382 0.921338
O O1 0.816557 0.683305 0.855023
O O2 0.809725 0.830945 0.949567
O O3 0.537486 0.478749 0.126318
O O4 0.090575 0.773812 0.894843
O O5 0.309463 0.164155 0.725253
O O6 0.934079 0.057371 0.741151
O O7 0.947427 0.130592 0.885315
O O8 0.274166 0.564150 0.356496
O O9 0.244647 0.733437 0.432384
O O10 0.546949 0.912870 0.162709
O O11 0.930881 0.669207 0.664484
O O12 0.971263 0.789729 0.474412
O O13 0.800952 0.257405 0.979049
O O14 0.500000 0.000000 0.000000
O O15 0.083703 0.098731 0.346013
O O16 0.466454 0.140465 0.218462
O O17 0.000000 0.500000 0.000000
#
# Coordination Sequence:
#
# PCOD9008346 Si02
#       8
#     2   2   2   2   2   2   2   2
#     4  10  21  39  64  94 123 158 211 272 313 379
#     4  11  22  40  66  93 124 161 219 264 323 365
#     4  11  24  39  65  89 127 169 212 269 306 381
#     4  11  23  42  60  89 127 172 218 251 320 382
#     4  12  23  41  68  98 127 164 210 270 326 375
#     4  10  22  38  64  90 123 168 207 260 323 378
#     4  11  22  42  60  91 131 167 207 269 316 378
#     4  12  23  39  64  96 133 161 205 270 323 370
#
# _framework density 19.974457999999998
#
# number of rings (size 3 to 8) (size 9 to 14) (size 15 to 20)
#    0.000    1.000    5.000    1.500    1.750    1.500 
#    0.000    6.875    0.000    0.000    0.000    0.000 
#    0.000    0.000    0.000    0.000    0.000    0.000 
#
# Total GULP energy -89338.278740 kJ/mol
# GULP energy per Si atom -5583.642421 kJ/mol
# Density = 1.992900 g / cm^3
# Si number density = 19.974458 Si / 1000 Ang^3
#
#
#
# Elastic Constant Matrix: (Units=GPa)
#
#
# Indices 1 2 3 4 5 6 
#
# 1 73.3828 14.7799 17.7887 0.3619 -7.8940 18.8290
# 2 14.7799 142.1965 36.3055 5.5314 -3.0421 -7.7162
# 3 17.7887 36.3055 51.3282 -3.6397 -1.5268 0.9577
# 4 0.3619 5.5314 -3.6397 30.5366 -9.5877 -6.3897
# 5 -7.8940 -3.0421 -1.5268 -9.5877 20.5636 -5.9379
# 6 18.8290 -7.7162 0.9577 -6.3897 -5.9379 32.3675
#
#
#
# Elastic Compliance Matrix: (Units=1/GPa)
#
#
# Indices 1 2 3 4 5 6 
#
# 1 0.018135 -0.000914 -0.005527 -0.002198 0.002327 -0.010611
# 2 -0.000914 0.008909 -0.006134 -0.001630 0.000505 0.002608
# 3 -0.005527 -0.006134 0.026145 0.005495 0.002186 0.002465
# 4 -0.002198 -0.001630 0.005495 0.044113 0.023880 0.013816
# 5 0.002327 0.000505 0.002186 0.023880 0.065342 0.015403
# 6 -0.010611 0.002608 0.002465 0.013816 0.015403 0.043170
#
#
# Mechanical properties :
#
#
# Convention : Reuss Voigt Hill
#
# Bulk Modulus (GPa) = 35.66463 44.96174 40.31319
# Shear Modulus (GPa) = 20.80636 29.89577 25.35106
#
# Velocity S-wave (km/s) = 3.23096 3.87292 3.56641
# Velocity P-wave (km/s) = 5.64027 6.52363 6.09797
#
# Compressibility (1/GPa) = 0.02803898
#
# Stress axis : x y z
#
# Youngs Moduli (GPa) = 55.14237 112.24008 38.24758
#
# Poissons Ratio (x) = 0.10262 0.21139
# Poissons Ratio (y) = 0.05042 0.23462
# Poissons Ratio (z) = 0.30476 0.68850
#
# Static dielectric constant tensor:
#      x y z
#    x 1.700980 -0.023190 0.001680 
#    y -0.023190 1.755590 -0.015380 
#    z 0.001680 -0.015380 1.702020 
# 
# From -- ./inp_files/273473.got.cif
#   From: 2010.05.17/outbox.cif.g08.bks.cpg/sg2_137_cif.got.tgz:273473.got - 2010.06.03 11:33:40.
