data_PCOD9008796
_publ_section_title
;
Structure prediction by ZEFSAII (Michael W. Deem and Ramdas Pophale) SiO2 
 PCOD9008796
Probable space group: P -1
;
_chemical_formula_sum "Si O2"
_cell_formula_units_Z 14
_cell_length_a 8.864682
_cell_length_b 9.010906
_cell_length_c 11.979649
_cell_angle_alpha 106.773696
_cell_angle_beta 133.648382
_cell_angle_gamma 70.173085
_cell_volume 649.282159
_symmetry_space_group_name_H-M "P -1"
_symmetry_group_IT_number 2
_symmetry_cell_setting 'triclinic'
loop_
_space_group_symop_operation_xyz
x,y,z
-x,-y,-z
loop_
_atom_site_type_symbol
_atom_site_label
_atom_site_fract_x
_atom_site_fract_y
_atom_site_fract_z
Si Si1 0.785971 0.352129 0.242246
Si Si2 0.637128 0.398956 0.639994
Si Si3 0.334370 0.160759 0.442814
Si Si4 0.929248 0.626070 0.253632
Si Si5 0.958329 0.839598 0.495445
Si Si6 0.312420 0.515265 0.079711
Si Si7 0.962636 0.164808 0.088479
O O1 0.944341 0.462618 0.297617
O O2 0.557132 0.471101 0.153589
O O3 0.814841 0.205686 0.135967
O O4 0.836433 0.285348 0.378611
O O5 0.500000 0.500000 0.500000
O O6 0.480595 0.285990 0.572407
O O7 0.688501 0.500913 0.792160
O O8 0.856147 0.328798 0.673746
O O9 0.175205 0.145380 0.457522
O O10 0.195026 0.179016 0.260998
O O11 0.500000 0.000000 0.500000
O O12 0.836810 0.760369 0.322604
O O13 0.795632 0.602881 0.072477
O O14 0.000000 0.000000 0.500000
O O15 0.166679 0.689862 0.020227
O O16 0.000000 0.000000 0.000000
#
# Coordination Sequence:
#
# PCOD9008796 Si02
#       7
#     2   2   2   2   2   2   2
#     4  10  22  43  68  97 130 176 222 272 335 398
#     4  12  23  39  62  93 128 169 216 266 321 394
#     4  11  24  41  63  93 132 177 216 264 332 395
#     4  11  22  39  64  95 130 171 221 273 325 392
#     4  11  23  42  65  96 132 172 220 278 334 397
#     4  11  23  41  67  98 131 175 224 276 333 394
#     4  10  21  39  65  98 133 170 220 277 329 388
#
# _framework density 21.562273999999999
#
# number of rings (size 3 to 8) (size 9 to 14) (size 15 to 20)
#    0.000    1.143    0.000    8.571    0.000    2.286 
#    0.000    0.714    0.000    1.714    0.000    0.000 
#    0.000    0.000    0.000    0.000    0.000    0.000 
#
# Total GULP energy -77968.123451 kJ/mol
# GULP energy per Si atom -5569.151675 kJ/mol
# Density = 2.151320 g / cm^3
# Si number density = 21.562274 Si / 1000 Ang^3
#
#
#
# Elastic Constant Matrix: (Units=GPa)
#
#
# Indices 1 2 3 4 5 6 
#
# 1 75.6432 31.3525 34.4349 -2.6295 -3.5418 1.9363
# 2 31.3525 98.0923 55.6849 8.1543 -5.3910 -5.5684
# 3 34.4349 55.6849 132.5172 -4.5126 -18.4306 -1.9621
# 4 -2.6295 8.1543 -4.5126 36.9589 -8.0866 -0.3723
# 5 -3.5418 -5.3910 -18.4306 -8.0866 48.0918 0.1170
# 6 1.9363 -5.5684 -1.9621 -0.3723 0.1170 44.4182
#
#
#
# Elastic Compliance Matrix: (Units=1/GPa)
#
#
# Indices 1 2 3 4 5 6 
#
# 1 0.016077 -0.003950 -0.002466 0.001721 0.000089 -0.001291
# 2 -0.003950 0.015064 -0.005650 -0.004615 -0.001548 0.001776
# 3 -0.002466 -0.005650 0.011236 0.003328 0.004051 -0.000087
# 4 0.001721 -0.004615 0.003328 0.029895 0.005912 -0.000272
# 5 0.000089 -0.001548 0.004051 0.005912 0.023173 -0.000030
# 6 -0.001291 0.001776 -0.000087 -0.000272 -0.000030 0.022786
#
#
# Mechanical properties :
#
#
# Convention : Reuss Voigt Hill
#
# Bulk Modulus (GPa) = 54.80740 61.02193 57.91466
# Shear Modulus (GPa) = 33.68265 38.21247 35.94756
#
# Velocity S-wave (km/s) = 3.95664 4.21431 4.08751
# Velocity P-wave (km/s) = 6.80784 7.21403 7.01388
#
# Compressibility (1/GPa) = 0.01824571
#
# Stress axis : x y z
#
# Youngs Moduli (GPa) = 62.20168 66.38534 88.99616
#
# Poissons Ratio (x) = 0.26223 0.21946
# Poissons Ratio (y) = 0.24570 0.50279
# Poissons Ratio (z) = 0.15338 0.37505
#
# Static dielectric constant tensor:
#      x y z
#    x 1.806260 0.002490 -0.091860 
#    y 0.002490 1.732680 0.117170 
#    z -0.091860 0.117170 1.571540 
# 
# From -- ./inp_files/382797.got.cif
#   From: 2010.05.17/outbox.cif.g08.bks.cpg/sg2_192_cif.got.tgz:382797.got - 2010.06.03 11:33:40.
