data_PCOD9008203
_publ_section_title
;
Structure prediction by ZEFSAII (Michael W. Deem and Ramdas Pophale) SiO2 
 PCOD9008203
Probable space group: P -1
;
_chemical_formula_sum "Si O2"
_cell_formula_units_Z 16
_cell_length_a 8.123145
_cell_length_b 19.581898
_cell_length_c 21.060338
_cell_angle_alpha 18.693416
_cell_angle_beta 135.874469
_cell_angle_gamma 135.749901
_cell_volume 737.550749
_symmetry_space_group_name_H-M "P -1"
_symmetry_group_IT_number 2
_symmetry_cell_setting 'triclinic'
loop_
_space_group_symop_operation_xyz
x,y,z
-x,-y,-z
loop_
_atom_site_type_symbol
_atom_site_label
_atom_site_fract_x
_atom_site_fract_y
_atom_site_fract_z
Si Si1 0.664755 0.002509 0.459976
Si Si2 0.682527 0.717215 0.837537
Si Si3 0.058886 0.551757 0.659699
Si Si4 0.203929 0.876089 0.087077
Si Si5 0.685750 0.710408 0.320945
Si Si6 0.021645 0.428585 0.229731
Si Si7 0.241595 0.667030 0.405777
Si Si8 0.523617 0.722267 0.559925
O O1 0.409676 0.086439 0.324505
O O2 0.858362 0.210629 0.348987
O O3 0.681054 0.805258 0.687306
O O4 0.675160 0.925630 0.458637
O O5 0.500000 0.500000 0.000000
O O6 0.930553 0.644210 0.989404
O O7 0.017984 0.583905 0.694407
O O8 0.326139 0.626601 0.641688
O O9 0.991807 0.299872 0.845737
O O10 0.874822 0.665055 0.466479
O O11 0.458021 0.804701 0.200756
O O12 0.191407 0.846438 0.184723
O O13 0.191644 0.109284 0.852254
O O14 0.608842 0.490946 0.453011
O O15 0.289444 0.425938 0.282231
O O16 0.374827 0.761909 0.421563
O O17 0.000000 0.500000 0.500000
#
# Coordination Sequence:
#
# PCOD9008203 Si02
#       8
#     2   2   2   2   2   2   2   2
#     4  10  22  42  66  93 134 169 215 267 324 389
#     4   9  19  41  67  93 128 171 211 267 325 381
#     4  11  22  41  63  93 131 170 209 269 326 384
#     4  10  21  39  64  90 120 168 218 267 322 385
#     4  10  21  40  64  89 123 166 218 267 323 384
#     4  11  24  42  67  96 134 168 217 269 323 390
#     4  11  21  42  60  87 130 165 206 270 318 374
#     4  12  23  41  67  97 128 176 217 265 330 386
#
# _framework density 21.693422000000002
#
# number of rings (size 3 to 8) (size 9 to 14) (size 15 to 20)
#    0.000    1.500    2.500    5.625    0.000    3.000 
#    0.000    6.250    0.000    0.000    0.000    0.000 
#    0.000    0.000    0.000    0.000    0.000    0.000 
#
# Total GULP energy -89345.249382 kJ/mol
# GULP energy per Si atom -5584.078086 kJ/mol
# Density = 2.164405 g / cm^3
# Si number density = 21.693422 Si / 1000 Ang^3
#
#
#
# Elastic Constant Matrix: (Units=GPa)
#
#
# Indices 1 2 3 4 5 6 
#
# 1 118.0951 39.5442 38.3768 20.7610 4.7423 -7.9903
# 2 39.5442 95.4172 48.8421 20.7360 -9.4752 -27.7817
# 3 38.3768 48.8421 136.7014 -0.9740 -17.5464 -20.9371
# 4 20.7610 20.7360 -0.9740 16.8663 3.5903 -11.8212
# 5 4.7423 -9.4752 -17.5464 3.5903 25.5209 2.7668
# 6 -7.9903 -27.7817 -20.9371 -11.8212 2.7668 37.7442
#
#
#
# Elastic Compliance Matrix: (Units=1/GPa)
#
#
# Indices 1 2 3 4 5 6 
#
# 1 0.013556 -0.000966 -0.004971 -0.019819 -0.002792 -0.006601
# 2 -0.000966 0.020773 -0.005831 -0.023261 0.006714 0.004074
# 3 -0.004971 -0.005831 0.012507 0.018002 0.004074 0.006933
# 4 -0.019819 -0.023261 0.018002 0.140436 -0.016000 0.033825
# 5 -0.002792 0.006714 0.004074 -0.016000 0.047450 -0.001879
# 6 -0.006601 0.004074 0.006933 0.033825 -0.001879 0.042673
#
#
# Mechanical properties :
#
#
# Convention : Reuss Voigt Hill
#
# Bulk Modulus (GPa) = 42.91702 67.08221 54.99961
# Shear Modulus (GPa) = 16.19703 30.92300 23.56001
#
# Velocity S-wave (km/s) = 2.73542 3.77962 3.29909
# Velocity P-wave (km/s) = 5.45922 7.07370 6.31824
#
# Compressibility (1/GPa) = 0.02330078
#
# Stress axis : x y z
#
# Youngs Moduli (GPa) = 73.76727 48.13885 79.95395
#
# Poissons Ratio (x) = 0.04649 0.39747
# Poissons Ratio (y) = 0.07124 0.46621
# Poissons Ratio (z) = 0.36671 0.28070
#
# Static dielectric constant tensor:
#      x y z
#    x 1.882630 0.035560 0.008140 
#    y 0.035560 1.807740 -0.000990 
#    z 0.008140 -0.000990 1.769220 
# 
# From -- ./inp_files/591771.got.cif
#   From: 2010.05.17/outbox.cif.g08.bks.cpg/sg2_296_cif.got.tgz:591771.got - 2010.06.03 11:33:40.
