data_PCOD9008545
_publ_section_title
;
Structure prediction by ZEFSAII (Michael W. Deem and Ramdas Pophale) SiO2 
 PCOD9008545
Probable space group: P -1
;
_chemical_formula_sum "Si O2"
_cell_formula_units_Z 15
_cell_length_a 5.560001
_cell_length_b 8.513958
_cell_length_c 13.179595
_cell_angle_alpha 100.096928
_cell_angle_beta 75.394932
_cell_angle_gamma 84.412789
_cell_volume 587.781719
_symmetry_space_group_name_H-M "P -1"
_symmetry_group_IT_number 2
_symmetry_cell_setting 'triclinic'
loop_
_space_group_symop_operation_xyz
x,y,z
-x,-y,-z
loop_
_atom_site_type_symbol
_atom_site_label
_atom_site_fract_x
_atom_site_fract_y
_atom_site_fract_z
Si Si1 0.000000 0.500000 0.500000
Si Si2 0.774416 0.994968 0.103589
Si Si3 0.615464 0.626529 0.373489
Si Si4 0.966103 0.862309 0.285178
Si Si5 0.370356 0.697755 0.744544
Si Si6 0.793037 0.414367 0.063772
Si Si7 0.820739 0.180288 0.438792
Si Si8 0.571366 0.268167 0.888043
O O1 0.787300 0.539628 0.436026
O O2 0.018729 0.302215 0.452565
O O3 0.894452 0.948800 0.195506
O O4 0.623512 0.850366 0.076626
O O5 0.572783 0.158033 0.170335
O O6 0.000000 0.000000 0.000000
O O7 0.804452 0.716469 0.297527
O O8 0.482936 0.480072 0.321401
O O9 0.399627 0.763341 0.451959
O O10 0.258015 0.798206 0.231878
O O11 0.918117 0.990779 0.395530
O O12 0.149587 0.646348 0.835046
O O13 0.297934 0.775275 0.654144
O O14 0.553541 0.552935 0.108132
O O15 0.731063 0.286624 0.973813
O O16 0.000000 0.500000 0.000000
#
# Coordination Sequence:
#
# PCOD9008545 Si02
#       8
#     1   2   2   2   2   2   2   2
#     4  10  22  40  64  92 122 160 218 268 316 382
#     4  11  24  43  65  96 136 170 210 269 327 389
#     4  11  23  43  66  92 128 172 217 271 327 382
#     4  11  25  42  65  97 130 170 219 266 326 390
#     4  10  21  39  65  89 123 169 211 259 322 381
#     4  11  23  43  66  95 132 169 214 268 325 391
#     4  10  24  43  64  92 129 172 215 270 329 382
#     4  11  24  40  67  98 128 171 216 263 323 389
#
# _framework density 25.519676
#
# number of rings (size 3 to 8) (size 9 to 14) (size 15 to 20)
#    0.000    1.333    0.000    6.000    0.000   10.133 
#    0.000    8.000    0.000    0.000    0.000    0.000 
#    0.000    0.000    0.000    0.000    0.000    0.000 
#
# Total GULP energy -83559.317759 kJ/mol
# GULP energy per Si atom -5570.621184 kJ/mol
# Density = 2.546159 g / cm^3
# Si number density = 25.519676 Si / 1000 Ang^3
#
#
#
# Elastic Constant Matrix: (Units=GPa)
#
#
# Indices 1 2 3 4 5 6 
#
# 1 41.8762 12.5472 24.7843 8.3432 -6.4643 2.9045
# 2 12.5472 99.5752 41.3032 34.1785 -12.8107 6.5980
# 3 24.7843 41.3032 122.3712 11.1913 -8.0961 0.1091
# 4 8.3432 34.1785 11.1913 70.5447 -0.5075 1.4747
# 5 -6.4643 -12.8107 -8.0961 -0.5075 30.2060 5.4097
# 6 2.9045 6.5980 0.1091 1.4747 5.4097 39.7923
#
#
#
# Elastic Compliance Matrix: (Units=1/GPa)
#
#
# Indices 1 2 3 4 5 6 
#
# 1 0.028424 0.000366 -0.005291 -0.002605 0.005267 -0.002740
# 2 0.000366 0.014866 -0.004118 -0.006489 0.005711 -0.003016
# 3 -0.005291 -0.004118 0.010533 0.000927 -0.000226 0.001037
# 4 -0.002605 -0.006489 0.000927 0.017438 -0.002950 0.001018
# 5 0.005267 0.005711 -0.000226 -0.002950 0.037681 -0.006344
# 6 -0.002740 -0.003016 0.001037 0.001018 -0.006344 0.026653
#
#
# Mechanical properties :
#
#
# Convention : Reuss Voigt Hill
#
# Bulk Modulus (GPa) = 27.98213 46.78800 37.38506
# Shear Modulus (GPa) = 30.19455 40.45447 35.32451
#
# Velocity S-wave (km/s) = 3.44348 3.98581 3.72453
# Velocity P-wave (km/s) = 5.17676 6.28937 5.75999
#
# Compressibility (1/GPa) = 0.03573710
#
# Stress axis : x y z
#
# Youngs Moduli (GPa) = 35.18177 67.26589 94.94109
#
# Poissons Ratio (x) = -0.02465 0.50237
# Poissons Ratio (y) = -0.01289 0.39097
# Poissons Ratio (z) = 0.18616 0.27700
#
# Static dielectric constant tensor:
#      x y z
#    x 2.032300 -0.042500 -0.031870 
#    y -0.042500 2.103770 0.049120 
#    z -0.031870 0.049120 1.951650 
# 
# From -- ./inp_files/90294.got.cif
#   From: 2010.05.17/outbox.cif.g08.bks.cpg/sg2_46_cif.got.tgz:90294.got - 2010.06.03 11:33:40.
