data_PCOD9008674
_publ_section_title
;
Structure prediction by ZEFSAII (Michael W. Deem and Ramdas Pophale) SiO2 
 PCOD9008674
Probable space group: P -1
;
_chemical_formula_sum "Si O2"
_cell_formula_units_Z 16
_cell_length_a 8.990989
_cell_length_b 9.351454
_cell_length_c 18.604900
_cell_angle_alpha 58.358911
_cell_angle_beta 40.050783
_cell_angle_gamma 46.843551
_cell_volume 734.272644
_symmetry_space_group_name_H-M "P -1"
_symmetry_group_IT_number 2
_symmetry_cell_setting 'triclinic'
loop_
_space_group_symop_operation_xyz
x,y,z
-x,-y,-z
loop_
_atom_site_type_symbol
_atom_site_label
_atom_site_fract_x
_atom_site_fract_y
_atom_site_fract_z
Si Si1 0.692096 0.052782 0.117855
Si Si2 0.179228 0.236818 0.161862
Si Si3 0.726914 0.662682 0.216423
Si Si4 0.388703 0.676792 0.804060
Si Si5 0.711315 0.451003 0.599927
Si Si6 0.337618 0.318790 0.935501
Si Si7 0.766147 0.789310 0.448243
Si Si8 0.038736 0.971513 0.222442
O O1 0.480909 0.122024 0.111304
O O2 0.531772 0.238394 0.181188
O O3 0.713913 0.858518 0.195082
O O4 0.000000 0.000000 0.000000
O O5 0.983895 0.459052 0.201488
O O6 0.039071 0.105797 0.253554
O O7 0.192492 0.266504 0.063535
O O8 0.467525 0.641124 0.331858
O O9 0.732017 0.681156 0.122202
O O10 0.585480 0.561522 0.694511
O O11 0.300509 0.530581 0.905990
O O12 0.147202 0.876240 0.808038
O O13 0.697789 0.618921 0.509748
O O14 0.022001 0.288354 0.542985
O O15 0.649794 0.163520 0.873080
O O16 0.928860 0.828507 0.317499
O O17 0.500000 0.000000 0.500000
#
# Coordination Sequence:
#
# PCOD9008674 Si02
#       8
#     2   2   2   2   2   2   2   2
#     4  12  27  40  57  91 134 170 206 252 307 363
#     4  12  23  38  64  88 124 173 209 247 307 369
#     4  11  22  41  61  90 123 166 208 254 304 364
#     4  11  23  40  58  92 128 157 208 255 307 359
#     4  10  21  39  65  94 120 158 202 268 305 361
#     4  11  22  37  63  89 122 160 214 254 295 363
#     4  11  19  35  65  99 120 144 210 266 315 353
#     4  12  21  37  66  95 116 164 208 254 304 368
#
# _framework density 21.790272000000002
#
# number of rings (size 3 to 8) (size 9 to 14) (size 15 to 20)
#    0.000    0.750    7.500    2.250    1.750    3.000 
#    0.000    0.000    0.000    7.500    0.000    0.000 
#    0.000    0.000    0.000    0.000    0.000    0.000 
#
# Total GULP energy -89273.185256 kJ/mol
# GULP energy per Si atom -5579.574078 kJ/mol
# Density = 2.174068 g / cm^3
# Si number density = 21.790272 Si / 1000 Ang^3
#
#
#
# Elastic Constant Matrix: (Units=GPa)
#
#
# Indices 1 2 3 4 5 6 
#
# 1 56.2394 23.2696 8.5588 -6.7798 -14.8588 -10.7480
# 2 23.2696 128.1866 27.3037 -25.2218 -14.3223 -16.9152
# 3 8.5588 27.3037 59.3040 -19.6101 -20.8051 6.2110
# 4 -6.7798 -25.2218 -19.6101 42.6402 -2.7386 -14.4627
# 5 -14.8588 -14.3223 -20.8051 -2.7386 23.9009 4.8951
# 6 -10.7480 -16.9152 6.2110 -14.4627 4.8951 52.1597
#
#
#
# Elastic Compliance Matrix: (Units=1/GPa)
#
#
# Indices 1 2 3 4 5 6 
#
# 1 0.024679 -0.001223 0.006829 0.009190 0.020689 0.004482
# 2 -0.001223 0.011027 -0.001255 0.007812 0.004583 0.005209
# 3 0.006829 -0.001255 0.035820 0.018669 0.037136 -0.001574
# 4 0.009190 0.007812 0.018669 0.043950 0.029297 0.011641
# 5 0.020689 0.004583 0.037136 0.029297 0.092982 0.000725
# 6 0.004482 0.005209 -0.001574 0.011641 0.000725 0.025132
#
#
# Mechanical properties :
#
#
# Convention : Reuss Voigt Hill
#
# Bulk Modulus (GPa) = 12.46444 40.22158 26.34301
# Shear Modulus (GPa) = 19.87039 36.04668 27.95853
#
# Velocity S-wave (km/s) = 3.02303 4.07167 3.58589
# Velocity P-wave (km/s) = 4.23291 6.37206 5.40929
#
# Compressibility (1/GPa) = 0.08022826
#
# Stress axis : x y z
#
# Youngs Moduli (GPa) = 40.52108 90.68549 27.91705
#
# Poissons Ratio (x) = 0.11094 -0.19065
# Poissons Ratio (y) = 0.04957 0.03503
# Poissons Ratio (z) = -0.27672 0.11378
#
# Static dielectric constant tensor:
#      x y z
#    x 1.814800 0.003200 -0.005500 
#    y 0.003200 1.884790 -0.008760 
#    z -0.005500 -0.008760 1.861290 
# 
# From -- ./inp_files/338139.got.cif
#   From: 2010.05.17/outbox.cif.g08.bks.cpg/sg2_170_cif.got.tgz:338139.got - 2010.06.03 11:33:40.
