data_PCOD9008591
_publ_section_title
;
Structure prediction by ZEFSAII (Michael W. Deem and Ramdas Pophale) SiO2 
 PCOD9008591
Probable space group: P -1
;
_chemical_formula_sum "Si O2"
_cell_formula_units_Z 16
_cell_length_a 12.918698
_cell_length_b 5.456823
_cell_length_c 9.968019
_cell_angle_alpha 93.186359
_cell_angle_beta 62.915868
_cell_angle_gamma 79.749646
_cell_volume 608.122770
_symmetry_space_group_name_H-M "P -1"
_symmetry_group_IT_number 2
_symmetry_cell_setting 'triclinic'
loop_
_space_group_symop_operation_xyz
x,y,z
-x,-y,-z
loop_
_atom_site_type_symbol
_atom_site_label
_atom_site_fract_x
_atom_site_fract_y
_atom_site_fract_z
Si Si1 0.924217 0.357058 0.632515
Si Si2 0.685783 0.286511 0.639389
Si Si3 0.376201 0.911213 0.065154
Si Si4 0.734861 0.560676 0.969721
Si Si5 0.105160 0.636702 0.919701
Si Si6 0.047138 0.031673 0.772769
Si Si7 0.695352 0.967241 0.364293
Si Si8 0.477627 0.312766 0.392909
O O1 0.810438 0.335847 0.612522
O O2 0.856987 0.497366 0.807684
O O3 0.000000 0.500000 0.500000
O O4 0.005454 0.109166 0.649164
O O5 0.659950 0.088336 0.756763
O O6 0.574975 0.531458 0.703441
O O7 0.698578 0.178612 0.480738
O O8 0.346727 0.638760 0.030777
O O9 0.305160 0.143938 0.026958
O O10 0.500000 0.000000 0.000000
O O11 0.767129 0.506893 0.104836
O O12 0.093540 0.743410 0.780805
O O13 0.000000 0.500000 0.000000
O O14 0.065665 0.868873 0.058155
O O15 0.163991 0.138813 0.746094
O O16 0.628317 0.792701 0.482612
O O17 0.600820 0.096569 0.308930
O O18 0.500000 0.500000 0.500000
#
# Coordination Sequence:
#
# PCOD9008591 Si02
#       8
#     2   2   2   2   2   2   2   2
#     4  10  22  41  66 100 137 174 219 277 349 416
#     4  10  23  38  66  92 135 171 215 280 336 410
#     4  11  25  46  70 100 136 179 232 286 346 407
#     4  10  25  45  69 102 137 179 234 283 340 411
#     4  10  24  43  66  88 136 176 223 284 329 406
#     4  10  23  40  63  98 126 171 226 266 347 396
#     4  10  21  39  65  91 129 165 219 275 330 408
#     4   9  20  40  57  89 126 168 212 266 333 387
#
# _framework density 26.310478
#
# number of rings (size 3 to 8) (size 9 to 14) (size 15 to 20)
#    0.000    2.000    0.000    1.125   12.250    5.500 
#    6.750    0.000    0.000    0.000    0.000    0.000 
#    0.000    0.000    0.000    0.000    0.000    0.000 
#
# Total GULP energy -89340.255538 kJ/mol
# GULP energy per Si atom -5583.765971 kJ/mol
# Density = 2.625059 g / cm^3
# Si number density = 26.310478 Si / 1000 Ang^3
#
#
#
# Elastic Constant Matrix: (Units=GPa)
#
#
# Indices 1 2 3 4 5 6 
#
# 1 160.5670 53.6350 50.6603 -35.4483 -3.6674 -15.8688
# 2 53.6350 114.2207 48.5772 -49.4012 16.0987 -22.8907
# 3 50.6603 48.5772 102.8546 -31.7464 -12.7781 -6.3158
# 4 -35.4483 -49.4012 -31.7464 50.0000 -3.3851 4.3069
# 5 -3.6674 16.0987 -12.7781 -3.3851 41.3517 -12.4325
# 6 -15.8688 -22.8907 -6.3158 4.3069 -12.4325 50.2160
#
#
#
# Elastic Compliance Matrix: (Units=1/GPa)
#
#
# Indices 1 2 3 4 5 6 
#
# 1 0.008277 -0.001574 -0.002155 0.002892 0.001439 0.001735
# 2 -0.001574 0.019611 -0.004494 0.014536 -0.006461 0.005031
# 3 -0.002155 -0.004494 0.014982 0.003955 0.006651 0.000462
# 4 0.002892 0.014536 0.003955 0.038536 0.000429 0.004839
# 5 0.001439 -0.006461 0.006651 0.000429 0.030692 0.005908
# 6 0.001735 0.005031 0.000462 0.004839 0.005908 0.023861
#
#
# Mechanical properties :
#
#
# Convention : Reuss Voigt Hill
#
# Bulk Modulus (GPa) = 37.84564 75.93193 56.88879
# Shear Modulus (GPa) = 31.01491 43.29818 37.15654
#
# Velocity S-wave (km/s) = 3.43710 4.06108 3.76205
# Velocity P-wave (km/s) = 5.49245 7.13529 6.36708
#
# Compressibility (1/GPa) = 0.02642312
#
# Stress axis : x y z
#
# Youngs Moduli (GPa) = 120.82314 50.99127 66.74861
#
# Poissons Ratio (x) = 0.08027 0.14385
# Poissons Ratio (y) = 0.19020 0.29996
# Poissons Ratio (z) = 0.26038 0.22915
#
# Static dielectric constant tensor:
#      x y z
#    x 2.195570 -0.095850 0.051800 
#    y -0.095850 2.313400 0.155860 
#    z 0.051800 0.155860 2.080250 
# 
# From -- ./inp_files/410238.got.cif
#   From: 2010.05.17/outbox.cif.g08.bks.cpg/sg2_206_cif.got.tgz:410238.got - 2010.06.03 11:33:40.
