data_PCOD9008716
_publ_section_title
;
Structure prediction by ZEFSAII (Michael W. Deem and Ramdas Pophale) SiO2 
 PCOD9008716
Probable space group: P -1
;
_chemical_formula_sum "Si O2"
_cell_formula_units_Z 14
_cell_length_a 12.464455
_cell_length_b 7.305486
_cell_length_c 11.868671
_cell_angle_alpha 105.893414
_cell_angle_beta 143.431289
_cell_angle_gamma 86.476886
_cell_volume 595.121562
_symmetry_space_group_name_H-M "P -1"
_symmetry_group_IT_number 2
_symmetry_cell_setting 'triclinic'
loop_
_space_group_symop_operation_xyz
x,y,z
-x,-y,-z
loop_
_atom_site_type_symbol
_atom_site_label
_atom_site_fract_x
_atom_site_fract_y
_atom_site_fract_z
Si Si1 0.437040 0.166171 0.736062
Si Si2 0.164069 0.894645 0.636787
Si Si3 0.853786 0.359347 0.941123
Si Si4 0.470251 0.461847 0.230733
Si Si5 0.245886 0.006998 0.974341
Si Si6 0.146163 0.940120 0.284998
Si Si7 0.865930 0.420841 0.616242
O O1 0.334269 0.039430 0.733932
O O2 0.486369 0.402971 0.822440
O O3 0.619403 0.091068 0.858856
O O4 0.305200 0.114123 0.505590
O O5 0.112373 0.675776 0.502350
O O6 0.205088 0.893420 0.802362
O O7 0.000000 0.000000 0.500000
O O8 0.671076 0.439897 0.804986
O O9 0.816786 0.143630 0.817925
O O10 0.000000 0.500000 0.000000
O O11 0.965572 0.405455 0.161979
O O12 0.360306 0.233847 0.081227
O O13 0.665807 0.465525 0.455362
O O14 0.053648 0.017499 0.870215
O O15 0.140928 0.763518 0.338877
#
# Coordination Sequence:
#
# PCOD9008716 Si02
#       7
#     2   2   2   2   2   2   2
#     4  11  26  41  64 102 131 166 221 264 322 387
#     4  11  20  43  68  90 132 173 211 264 324 387
#     4  10  21  40  69  96 126 176 217 258 330 385
#     4  12  24  41  66  99 135 163 219 271 315 388
#     4  12  22  44  69  91 136 175 208 266 326 385
#     4  10  21  43  67  93 129 175 214 262 326 382
#     4  10  21  39  65  95 128 168 215 261 324 379
#
# _framework density 23.524605000000001
#
# number of rings (size 3 to 8) (size 9 to 14) (size 15 to 20)
#    0.000    1.143    8.571    0.429    0.000    5.714 
#    0.000    2.143    0.000    0.000    0.000    0.000 
#    0.000    0.000    0.000    0.000    0.000    0.000 
#
# Total GULP energy -78277.028261 kJ/mol
# GULP energy per Si atom -5591.216304 kJ/mol
# Density = 2.347106 g / cm^3
# Si number density = 23.524605 Si / 1000 Ang^3
#
#
#
# Elastic Constant Matrix: (Units=GPa)
#
#
# Indices 1 2 3 4 5 6 
#
# 1 59.1161 16.9170 21.2516 -10.8788 10.9484 -25.3669
# 2 16.9170 113.3934 41.5154 -14.9402 4.4880 -13.5430
# 3 21.2516 41.5154 96.3515 -15.1763 15.2850 -38.5438
# 4 -10.8788 -14.9402 -15.1763 44.6372 -18.8693 9.2891
# 5 10.9484 4.4880 15.2850 -18.8693 31.1751 -10.8517
# 6 -25.3669 -13.5430 -38.5438 9.2891 -10.8517 35.8788
#
#
#
# Elastic Compliance Matrix: (Units=1/GPa)
#
#
# Indices 1 2 3 4 5 6 
#
# 1 0.025779 -0.002700 0.004455 0.001398 -0.002764 0.020795
# 2 -0.002700 0.011138 -0.005647 0.003054 0.002653 -0.003760
# 3 0.004455 -0.005647 0.021699 0.000454 -0.003004 0.023303
# 4 0.001398 0.003054 0.000454 0.031499 0.017870 -0.000122
# 5 -0.002764 0.002653 -0.003004 0.017870 0.046818 0.005353
# 6 0.020795 -0.003760 0.023303 -0.000122 0.005353 0.067839
#
#
# Mechanical properties :
#
#
# Convention : Reuss Voigt Hill
#
# Bulk Modulus (GPa) = 19.67287 47.58101 33.62694
# Shear Modulus (GPa) = 21.78632 34.95004 28.36818
#
# Velocity S-wave (km/s) = 3.04650 3.85863 3.47637
# Velocity P-wave (km/s) = 4.55585 6.33420 5.51715
#
# Compressibility (1/GPa) = 0.05083141
#
# Stress axis : x y z
#
# Youngs Moduli (GPa) = 38.79071 89.78671 46.08420
#
# Poissons Ratio (x) = 0.24240 -0.20529
# Poissons Ratio (y) = 0.10472 0.26025
# Poissons Ratio (z) = -0.17280 0.50705
#
# Static dielectric constant tensor:
#      x y z
#    x 1.963870 0.020000 -0.001380 
#    y 0.020000 1.869230 0.052030 
#    z -0.001380 0.052030 1.931290 
# 
# From -- ./inp_files/528996.got.cif
#   From: 2010.05.17/outbox.cif.g08.bks.cpg/sg2_265_cif.got.tgz:528996.got - 2010.06.03 11:33:40.
