data_PCOD9008260
_publ_section_title
;
Structure prediction by ZEFSAII (Michael W. Deem and Ramdas Pophale) SiO2 
 PCOD9008260
Probable space group: P -1
;
_chemical_formula_sum "Si O2"
_cell_formula_units_Z 16
_cell_length_a 12.611249
_cell_length_b 12.969284
_cell_length_c 10.759493
_cell_angle_alpha 107.864142
_cell_angle_beta 120.241043
_cell_angle_gamma 28.694719
_cell_volume 690.215269
_symmetry_space_group_name_H-M "P -1"
_symmetry_group_IT_number 2
_symmetry_cell_setting 'triclinic'
loop_
_space_group_symop_operation_xyz
x,y,z
-x,-y,-z
loop_
_atom_site_type_symbol
_atom_site_label
_atom_site_fract_x
_atom_site_fract_y
_atom_site_fract_z
Si Si1 0.308465 0.279290 0.598661
Si Si2 0.173462 0.728916 0.362080
Si Si3 0.859120 0.615237 0.093181
Si Si4 0.704446 0.135905 0.857889
Si Si5 0.052613 0.927659 0.798100
Si Si6 0.609736 0.822880 0.653089
Si Si7 0.477763 0.514456 0.713901
Si Si8 0.650544 0.018519 0.184648
O O1 0.461177 0.245128 0.763007
O O2 0.390964 0.249554 0.496730
O O3 0.000000 0.500000 0.500000
O O4 0.445945 0.058085 0.621755
O O5 0.313199 0.605096 0.529190
O O6 0.320251 0.563959 0.268383
O O7 0.885392 0.915461 0.275040
O O8 0.149605 0.870196 0.348858
O O9 0.779271 0.799602 0.154894
O O10 0.084645 0.391714 0.228099
O O11 0.000000 0.500000 0.000000
O O12 0.579116 0.780453 0.973029
O O13 0.607806 0.319446 0.799419
O O14 0.842265 0.062631 0.039656
O O15 0.928689 0.930633 0.814116
O O16 0.291061 0.710306 0.775566
O O17 0.483209 0.872480 0.719567
#
# Coordination Sequence:
#
# PCOD9008260 Si02
#       8
#     2   2   2   2   2   2   2   2
#     4  11  25  42  63  95 130 168 217 274 323 390
#     4  10  23  38  63  98 128 163 216 262 326 388
#     4   9  20  38  58  89 126 164 212 257 313 380
#     4  10  24  42  67  91 127 170 220 266 321 393
#     4  10  22  44  64  94 127 169 215 268 325 385
#     4  10  23  40  62  92 128 172 218 262 326 384
#     4  10  22  41  65  97 128 165 211 273 324 388
#     4  10  21  39  64  91 129 172 210 268 320 390
#
# _framework density 23.181173000000001
#
# number of rings (size 3 to 8) (size 9 to 14) (size 15 to 20)
#    0.000    2.000    0.000    1.500    5.250    7.000 
#    0.000    5.000    0.000    0.000    0.000    0.000 
#    0.000    0.000    0.000    0.000    0.000    0.000 
#
# Total GULP energy -89168.164272 kJ/mol
# GULP energy per Si atom -5573.010267 kJ/mol
# Density = 2.312841 g / cm^3
# Si number density = 23.181173 Si / 1000 Ang^3
#
#
#
# Elastic Constant Matrix: (Units=GPa)
#
#
# Indices 1 2 3 4 5 6 
#
# 1 76.9551 33.8676 43.9054 -4.9706 -0.6543 -36.6419
# 2 33.8676 111.6424 41.0324 -22.9540 -3.6066 -31.3331
# 3 43.9054 41.0324 102.5589 -21.7924 -8.4647 -16.2577
# 4 -4.9706 -22.9540 -21.7924 45.5864 -17.3958 -5.4812
# 5 -0.6543 -3.6066 -8.4647 -17.3958 39.2172 -3.8876
# 6 -36.6419 -31.3331 -16.2577 -5.4812 -3.8876 38.9374
#
#
#
# Elastic Compliance Matrix: (Units=1/GPa)
#
#
# Indices 1 2 3 4 5 6 
#
# 1 0.030699 0.003619 -0.007925 0.006972 0.005200 0.029993
# 2 0.003619 0.017161 -0.001460 0.014372 0.009641 0.019591
# 3 -0.007925 -0.001460 0.016241 0.008932 0.007214 0.000126
# 4 0.006972 0.014372 0.008932 0.048716 0.028100 0.031519
# 5 0.005200 0.009641 0.007214 0.028100 0.042863 0.023899
# 6 0.029993 0.019591 0.000126 0.031519 0.023899 0.076548
#
#
# Mechanical properties :
#
#
# Convention : Reuss Voigt Hill
#
# Bulk Modulus (GPa) = 19.02273 58.75192 38.88733
# Shear Modulus (GPa) = 19.13643 36.23825 27.68734
#
# Velocity S-wave (km/s) = 2.87630 3.95810 3.45974
# Velocity P-wave (km/s) = 4.38802 6.80356 5.72465
#
# Compressibility (1/GPa) = 0.05256869
#
# Stress axis : x y z
#
# Youngs Moduli (GPa) = 32.57436 58.27318 61.57367
#
# Poissons Ratio (x) = -0.21090 0.48797
# Poissons Ratio (y) = -0.11789 0.08989
# Poissons Ratio (z) = 0.25815 0.08508
#
# Static dielectric constant tensor:
#      x y z
#    x 1.889720 -0.048940 -0.004090 
#    y -0.048940 2.024490 0.009150 
#    z -0.004090 0.009150 1.907420 
# 
# From -- ./inp_files/428576.got.cif
#   From: 2010.05.17/outbox.cif.g08.bks.cpg/sg2_215_cif.got.tgz:428576.got - 2010.06.03 11:33:40.
