data_PCOD9008022
_publ_section_title
;
Structure prediction by ZEFSAII (Michael W. Deem and Ramdas Pophale) SiO2 
 PCOD9008022
Probable space group: P -1
;
_chemical_formula_sum "Si O2"
_cell_formula_units_Z 16
_cell_length_a 20.251981
_cell_length_b 12.151489
_cell_length_c 8.881817
_cell_angle_alpha 101.949658
_cell_angle_beta 42.308903
_cell_angle_gamma 134.504719
_cell_volume 798.735438
_symmetry_space_group_name_H-M "P -1"
_symmetry_group_IT_number 2
_symmetry_cell_setting 'triclinic'
loop_
_space_group_symop_operation_xyz
x,y,z
-x,-y,-z
loop_
_atom_site_type_symbol
_atom_site_label
_atom_site_fract_x
_atom_site_fract_y
_atom_site_fract_z
Si Si1 0.673093 0.604814 0.172972
Si Si2 0.420899 0.102201 0.064116
Si Si3 0.150627 0.653947 0.912777
Si Si4 0.975503 0.046000 0.709094
Si Si5 0.440913 0.009363 0.299600
Si Si6 0.630425 0.531854 0.861649
Si Si7 0.246152 0.949215 0.012220
Si Si8 0.632490 0.325605 0.301978
O O1 0.500000 0.500000 0.500000
O O2 0.684067 0.498044 0.211477
O O3 0.646382 0.562731 0.025186
O O4 0.849233 0.847433 0.966633
O O5 0.362707 0.016968 0.307224
O O6 0.272194 0.982542 0.157050
O O7 0.512399 0.070974 0.857247
O O8 0.551766 0.332885 0.909132
O O9 0.305861 0.859866 0.616550
O O10 0.217771 0.597662 0.838601
O O11 0.140374 0.733740 0.088648
O O12 0.000000 0.500000 0.000000
O O13 0.174933 0.266698 0.481413
O O14 0.864779 0.052829 0.864482
O O15 0.000000 0.000000 0.500000
O O16 0.601440 0.224592 0.172324
O O17 0.500000 0.500000 0.000000
O O18 0.448353 0.148970 0.659894
#
# Coordination Sequence:
#
# PCOD9008022 Si02
#       8
#     2   2   2   2   2   2   2   2
#     4  11  22  43  70  97 130 178 226 272 334 399
#     4  11  20  38  67  93 123 168 218 263 334 392
#     4  11  24  42  61  97 134 171 223 272 331 395
#     4  10  23  42  62  97 132 170 222 273 330 395
#     4  10  21  39  63  94 125 165 215 265 321 404
#     4  11  25  43  67  94 136 174 222 277 337 394
#     4  11  21  40  71  88 129 179 214 273 336 397
#     4  11  20  43  67  92 133 175 220 268 336 393
#
# _framework density 20.031663999999999
#
# number of rings (size 3 to 8) (size 9 to 14) (size 15 to 20)
#    0.000    1.250    5.000    2.250    1.750    0.000 
#    6.750    1.250    0.000    0.000    0.000    0.000 
#    0.000    0.000    0.000    0.000    0.000    0.000 
#
# Total GULP energy -89237.801773 kJ/mol
# GULP energy per Si atom -5577.362611 kJ/mol
# Density = 1.998607 g / cm^3
# Si number density = 20.031664 Si / 1000 Ang^3
#
#
#
# Elastic Constant Matrix: (Units=GPa)
#
#
# Indices 1 2 3 4 5 6 
#
# 1 175.6218 68.7561 41.1125 -22.1939 -15.3075 -16.8166
# 2 68.7561 98.9231 31.8419 -12.7537 -16.4840 -25.6780
# 3 41.1125 31.8419 50.8484 -4.1309 -8.9212 -17.3980
# 4 -22.1939 -12.7537 -4.1309 17.1126 -1.7461 10.8383
# 5 -15.3075 -16.4840 -8.9212 -1.7461 31.5608 4.4001
# 6 -16.8166 -25.6780 -17.3980 10.8383 4.4001 34.4667
#
#
#
# Elastic Compliance Matrix: (Units=1/GPa)
#
#
# Indices 1 2 3 4 5 6 
#
# 1 0.010015 -0.004644 -0.005704 0.011838 0.002236 -0.005460
# 2 -0.004644 0.017561 -0.003553 0.001738 0.004917 0.007850
# 3 -0.005704 -0.003553 0.030381 -0.010870 0.001534 0.013128
# 4 0.011838 0.001738 -0.010870 0.092134 0.012719 -0.029012
# 5 0.002236 0.004917 0.001534 0.012719 0.036919 -0.003184
# 6 -0.005460 0.007850 0.013128 -0.029012 -0.003184 0.048354
#
#
# Mechanical properties :
#
#
# Convention : Reuss Voigt Hill
#
# Bulk Modulus (GPa) = 33.16028 67.64603 50.40316
# Shear Modulus (GPa) = 18.30050 28.87353 23.58702
#
# Velocity S-wave (km/s) = 3.02583 3.80069 3.43518
# Velocity P-wave (km/s) = 5.36632 7.28719 6.39924
#
# Compressibility (1/GPa) = 0.03015656
#
# Stress axis : x y z
#
# Youngs Moduli (GPa) = 99.84597 56.94430 32.91559
#
# Poissons Ratio (x) = 0.26443 0.18775
# Poissons Ratio (y) = 0.46365 0.11694
# Poissons Ratio (z) = 0.56953 0.20230
#
# Static dielectric constant tensor:
#      x y z
#    x 1.694390 -0.001990 0.031540 
#    y -0.001990 1.568810 0.057440 
#    z 0.031540 0.057440 1.715810 
# 
# From -- ./inp_files/215813.got.cif
#   From: 2010.05.17/outbox.cif.g08.bks.cpg/sg2_108_cif.got.tgz:215813.got - 2010.06.03 11:33:40.
