data_PCOD9008600
_publ_section_title
;
Structure prediction by ZEFSAII (Michael W. Deem and Ramdas Pophale) SiO2 
 PCOD9008600
Probable space group: P -1
;
_chemical_formula_sum "Si O2"
_cell_formula_units_Z 16
_cell_length_a 22.186053
_cell_length_b 19.671437
_cell_length_c 13.108440
_cell_angle_alpha 30.860501
_cell_angle_beta 19.676051
_cell_angle_gamma 21.594191
_cell_volume 702.132027
_symmetry_space_group_name_H-M "P -1"
_symmetry_group_IT_number 2
_symmetry_cell_setting 'triclinic'
loop_
_space_group_symop_operation_xyz
x,y,z
-x,-y,-z
loop_
_atom_site_type_symbol
_atom_site_label
_atom_site_fract_x
_atom_site_fract_y
_atom_site_fract_z
Si Si1 0.732960 0.247664 0.252154
Si Si2 0.126888 0.913628 0.558268
Si Si3 0.780419 0.530169 0.261999
Si Si4 0.223921 0.286945 0.512730
Si Si5 0.654070 0.580870 0.033345
Si Si6 0.105909 0.159683 0.130336
Si Si7 0.564508 0.075240 0.441627
Si Si8 0.574593 0.360141 0.150347
O O1 0.899993 0.087744 0.276447
O O2 0.488303 0.276533 0.596247
O O3 0.787448 0.259222 0.031988
O O4 0.649723 0.428854 0.204753
O O5 0.942419 0.905450 0.807047
O O6 0.064414 0.087926 0.385988
O O7 0.412200 0.736295 0.289292
O O8 0.674255 0.499646 0.563669
O O9 0.901689 0.380894 0.172886
O O10 0.000000 0.500000 0.000000
O O11 0.340738 0.332691 0.189275
O O12 0.403045 0.185274 0.455113
O O13 0.936123 0.465518 0.773208
O O14 0.223666 0.143274 0.642222
O O15 0.374599 0.088996 0.796854
O O16 0.612801 0.192105 0.262947
O O17 0.500000 0.500000 0.000000
#
# Coordination Sequence:
#
# PCOD9008600 Si02
#       8
#     2   2   2   2   2   2   2   2
#     4  10  22  38  62  89 123 160 208 254 308 371
#     4  11  22  36  64  93 125 159 206 263 311 367
#     4  10  21  39  65  92 119 166 210 253 310 379
#     4  10  24  35  63  89 123 161 203 258 306 378
#     4  11  20  40  57  91 126 159 201 251 321 366
#     4  11  21  38  64  94 121 162 208 263 313 364
#     4  11  21  41  60  90 122 162 213 254 311 368
#     4  10  22  40  66  85 124 166 205 255 311 378
#
# _framework density 22.787738000000001
#
# number of rings (size 3 to 8) (size 9 to 14) (size 15 to 20)
#    0.750    0.750    3.750    1.875    1.750    0.000 
#    4.500    3.125    5.500    0.000    0.000    0.000 
#    0.000    0.000    0.000    0.000    0.000    0.000 
#
# Total GULP energy -89175.448714 kJ/mol
# GULP energy per Si atom -5573.465545 kJ/mol
# Density = 2.273587 g / cm^3
# Si number density = 22.787738 Si / 1000 Ang^3
#
#
#
# Elastic Constant Matrix: (Units=GPa)
#
#
# Indices 1 2 3 4 5 6 
#
# 1 106.3349 19.3946 9.9652 -23.3231 4.6768 -22.1448
# 2 19.3946 45.4680 -0.7293 -3.4075 -5.2518 2.3018
# 3 9.9652 -0.7293 68.9652 -0.7727 3.0254 -0.1215
# 4 -23.3231 -3.4075 -0.7727 37.9713 -3.8190 11.6506
# 5 4.6768 -5.2518 3.0254 -3.8190 21.7088 1.1813
# 6 -22.1448 2.3018 -0.1215 11.6506 1.1813 31.8999
#
#
#
# Elastic Compliance Matrix: (Units=1/GPa)
#
#
# Indices 1 2 3 4 5 6 
#
# 1 0.013710 -0.006378 -0.001811 0.004868 -0.003841 0.008335
# 2 -0.006378 0.026150 0.000841 0.001469 0.008231 -0.007152
# 3 -0.001811 0.000841 0.014829 -0.000584 -0.001522 -0.000992
# 4 0.004868 0.001469 -0.000584 0.032741 0.005632 -0.008895
# 5 -0.003841 0.008231 -0.001522 0.005632 0.050477 -0.007192
# 6 0.008335 -0.007152 -0.000992 -0.008895 -0.007192 0.041162
#
#
# Mechanical properties :
#
#
# Convention : Reuss Voigt Hill
#
# Bulk Modulus (GPa) = 25.00386 30.89213 27.94799
# Shear Modulus (GPa) = 24.14344 31.12517 27.63431
#
# Velocity S-wave (km/s) = 3.25852 3.69978 3.48614
# Velocity P-wave (km/s) = 5.01533 5.64244 5.33810
#
# Compressibility (1/GPa) = 0.03999382
#
# Stress axis : x y z
#
# Youngs Moduli (GPa) = 72.94140 38.24053 67.43509
#
# Poissons Ratio (x) = 0.24389 0.12210
# Poissons Ratio (y) = 0.46520 -0.05670
# Poissons Ratio (z) = 0.13207 -0.03216
#
# Static dielectric constant tensor:
#      x y z
#    x 1.890990 -0.037130 -0.024710 
#    y -0.037130 1.882120 0.044360 
#    z -0.024710 0.044360 1.922220 
# 
# From -- ./inp_files/543222.got.cif
#   From: 2010.05.17/outbox.cif.g08.bks.cpg/sg2_272_cif.got.tgz:543222.got - 2010.06.03 11:33:40.
