data_PCOD9008907
_publ_section_title
;
Structure prediction by ZEFSAII (Michael W. Deem and Ramdas Pophale) SiO2 
 PCOD9008907
Probable space group: P -1
;
_chemical_formula_sum "Si O2"
_cell_formula_units_Z 16
_cell_length_a 14.338166
_cell_length_b 5.356429
_cell_length_c 28.154699
_cell_angle_alpha 57.523227
_cell_angle_beta 150.947105
_cell_angle_gamma 103.149265
_cell_volume 714.915219
_symmetry_space_group_name_H-M "P -1"
_symmetry_group_IT_number 2
_symmetry_cell_setting 'triclinic'
loop_
_space_group_symop_operation_xyz
x,y,z
-x,-y,-z
loop_
_atom_site_type_symbol
_atom_site_label
_atom_site_fract_x
_atom_site_fract_y
_atom_site_fract_z
Si Si1 0.115936 0.566569 0.588177
Si Si2 0.774137 0.847720 0.134224
Si Si3 0.087731 0.366316 0.411187
Si Si4 0.998741 0.281984 0.211094
Si Si5 0.428861 0.579446 0.514825
Si Si6 0.877385 0.303632 0.956939
Si Si7 0.177970 0.652429 0.212315
Si Si8 0.461421 0.570168 0.687632
O O1 0.380857 0.371998 0.705189
O O2 0.000000 0.500000 0.500000
O O3 0.066067 0.451510 0.627741
O O4 0.000000 0.000000 0.500000
O O5 0.851110 0.655042 0.137006
O O6 0.920871 0.553947 0.272123
O O7 0.850275 0.124664 0.146731
O O8 0.500000 0.000000 0.000000
O O9 0.305678 0.398300 0.499033
O O10 0.226977 0.931605 0.524155
O O11 0.114922 0.361171 0.211320
O O12 0.207855 0.004885 0.369673
O O13 0.500000 0.500000 0.500000
O O14 0.666288 0.452055 0.660670
O O15 0.611966 0.615370 0.789099
O O16 0.000000 0.500000 0.000000
O O17 0.000000 0.000000 0.000000
O O18 0.936301 0.053671 0.054855
O O19 0.363343 0.608584 0.260410
#
# Coordination Sequence:
#
# PCOD9008907 Si02
#       8
#     2   2   2   2   2   2   2   2
#     4  10  22  39  60  89 118 156 212 260 306 372
#     4  11  25  45  66  95 132 172 220 270 323 392
#     4  10  21  39  66  92 125 169 211 268 322 375
#     4  11  24  41  65  99 130 170 222 264 320 398
#     4  11  21  37  65  99 133 171 216 265 323 394
#     4  10  23  39  60  90 125 165 210 254 313 383
#     4  11  21  38  64  94 134 171 204 268 330 378
#     4  10  21  40  63  92 125 166 213 263 320 388
#
# _framework density 22.380278000000001
#
# number of rings (size 3 to 8) (size 9 to 14) (size 15 to 20)
#    0.000    1.500    0.000    5.250    0.000   10.000 
#    0.000    2.500    0.000    1.500    0.000    0.000 
#    0.000    0.000    0.000    0.000    0.000    0.000 
#
# Total GULP energy -89172.617606 kJ/mol
# GULP energy per Si atom -5573.288600 kJ/mol
# Density = 2.232934 g / cm^3
# Si number density = 22.380278 Si / 1000 Ang^3
#
#
#
# Elastic Constant Matrix: (Units=GPa)
#
#
# Indices 1 2 3 4 5 6 
#
# 1 137.3338 43.6851 6.0231 9.0215 6.0702 11.6610
# 2 43.6851 120.0262 44.4074 19.3344 -9.8551 2.5626
# 3 6.0231 44.4074 95.1498 24.7038 -9.1278 8.6171
# 4 9.0215 19.3344 24.7038 37.1700 2.7428 -0.5010
# 5 6.0702 -9.8551 -9.1278 2.7428 20.5980 -2.8132
# 6 11.6610 2.5626 8.6171 -0.5010 -2.8132 32.2123
#
#
#
# Elastic Compliance Matrix: (Units=1/GPa)
#
#
# Indices 1 2 3 4 5 6 
#
# 1 0.009039 -0.003957 0.001403 -0.000798 -0.004338 -0.003724
# 2 -0.003957 0.012287 -0.004355 -0.002936 0.005790 0.002080
# 3 0.001403 -0.004355 0.015607 -0.008875 0.005050 -0.004034
# 4 -0.000798 -0.002936 -0.008875 0.035255 -0.009439 0.002621
# 5 -0.004338 0.005790 0.005050 -0.009439 0.056715 0.004565
# 6 -0.003724 0.002080 -0.004034 0.002621 0.004565 0.033745
#
#
# Mechanical properties :
#
#
# Convention : Reuss Voigt Hill
#
# Bulk Modulus (GPa) = 43.26042 60.08233 51.67138
# Shear Modulus (GPa) = 27.14872 35.22234 31.18553
#
# Velocity S-wave (km/s) = 3.48669 3.97143 3.73693
# Velocity P-wave (km/s) = 5.96498 6.92345 6.46201
#
# Compressibility (1/GPa) = 0.02311582
#
# Stress axis : x y z
#
# Youngs Moduli (GPa) = 110.63087 81.38846 64.07248
#
# Poissons Ratio (x) = 0.32206 -0.08989
# Poissons Ratio (y) = 0.43777 0.27901
# Poissons Ratio (z) = -0.15521 0.35441
#
# Static dielectric constant tensor:
#      x y z
#    x 1.954520 0.043560 0.046070 
#    y 0.043560 1.812210 -0.083840 
#    z 0.046070 -0.083840 1.924640 
# 
# From -- ./inp_files/623324.got.cif
#   From: 2010.05.17/outbox.cif.g08.bks.cpg/sg2_312_cif.got.tgz:623324.got - 2010.06.03 11:33:40.
