data_PCOD9008246
_publ_section_title
;
Structure prediction by ZEFSAII (Michael W. Deem and Ramdas Pophale) SiO2 
 PCOD9008246
Probable space group: P -1
;
_chemical_formula_sum "Si O2"
_cell_formula_units_Z 14
_cell_length_a 11.260444
_cell_length_b 17.004965
_cell_length_c 17.677219
_cell_angle_alpha 147.354836
_cell_angle_beta 35.209174
_cell_angle_gamma 159.347246
_cell_volume 636.414392
_symmetry_space_group_name_H-M "P -1"
_symmetry_group_IT_number 2
_symmetry_cell_setting 'triclinic'
loop_
_space_group_symop_operation_xyz
x,y,z
-x,-y,-z
loop_
_atom_site_type_symbol
_atom_site_label
_atom_site_fract_x
_atom_site_fract_y
_atom_site_fract_z
Si Si1 0.634097 0.237020 0.140354
Si Si2 0.839569 0.652372 0.993673
Si Si3 0.502708 0.427067 0.755908
Si Si4 0.633639 0.712231 0.552352
Si Si5 0.792740 0.095826 0.146974
Si Si6 0.432348 0.164482 0.463343
Si Si7 0.636780 0.372016 0.089896
O O1 0.456661 0.203939 0.278597
O O2 0.542817 0.287071 0.156997
O O3 0.041149 0.434794 0.101925
O O4 0.500000 0.000000 0.000000
O O5 0.115632 0.813762 0.914111
O O6 0.500000 0.500000 0.000000
O O7 0.779449 0.728508 0.156674
O O8 0.579756 0.316916 0.587343
O O9 0.355167 0.453765 0.791660
O O10 0.850167 0.691699 0.822435
O O11 0.500000 0.500000 0.500000
O O12 0.482404 0.674048 0.518486
O O13 0.032570 0.924924 0.497402
O O14 0.559602 0.081078 0.299262
O O15 0.603566 0.838194 0.018858
O O16 0.000000 0.500000 0.000000
#
# Coordination Sequence:
#
# PCOD9008246 Si02
#       7
#     2   2   2   2   2   2   2
#     4  12  21  41  66  92 129 170 219 272 324 393
#     4  10  21  39  64  91 126 170 213 263 323 389
#     4  11  24  43  67  97 134 174 222 275 334 401
#     4  11  25  40  65 100 139 168 221 283 335 392
#     4  11  24  45  66  95 134 177 222 273 335 402
#     4  11  24  43  70  96 133 182 222 270 341 399
#     4  12  25  37  68 100 130 169 224 279 334 387
#
# _framework density 21.998245000000001
#
# number of rings (size 3 to 8) (size 9 to 14) (size 15 to 20)
#    0.000    0.857    4.286    2.571    6.000    0.000 
#    0.000    0.000    0.000    2.571    0.000    0.000 
#    0.000    0.000    0.000    0.000    0.000    0.000 
#
# Total GULP energy -77981.009034 kJ/mol
# GULP energy per Si atom -5570.072074 kJ/mol
# Density = 2.194818 g / cm^3
# Si number density = 21.998245 Si / 1000 Ang^3
#
#
#
# Elastic Constant Matrix: (Units=GPa)
#
#
# Indices 1 2 3 4 5 6 
#
# 1 87.3132 18.2723 32.3590 -6.2534 13.3769 -7.7929
# 2 18.2723 60.8428 30.6687 -19.5936 5.8466 -5.8506
# 3 32.3590 30.6687 175.8268 -35.2130 25.8456 -8.9077
# 4 -6.2534 -19.5936 -35.2130 38.6385 -2.9882 4.2722
# 5 13.3769 5.8466 25.8456 -2.9882 37.9972 -3.6622
# 6 -7.7929 -5.8506 -8.9077 4.2722 -3.6622 42.5440
#
#
#
# Elastic Compliance Matrix: (Units=1/GPa)
#
#
# Indices 1 2 3 4 5 6 
#
# 1 0.013218 -0.003143 -0.001633 -0.001344 -0.003018 0.001522
# 2 -0.003143 0.020995 -0.001165 0.008911 -0.000522 0.001128
# 3 -0.001633 -0.001165 0.008051 0.006128 -0.004216 0.000248
# 4 -0.001344 0.008911 0.006128 0.035751 -0.002403 -0.001535
# 5 -0.003018 -0.000522 -0.004216 -0.002403 0.030269 0.001339
# 6 0.001522 0.001128 0.000248 -0.001535 0.001339 0.024260
#
#
# Mechanical properties :
#
#
# Convention : Reuss Voigt Hill
#
# Bulk Modulus (GPa) = 32.91438 54.06478 43.48958
# Shear Modulus (GPa) = 32.35119 40.01478 36.18298
#
# Velocity S-wave (km/s) = 3.83903 4.26960 4.06003
# Velocity P-wave (km/s) = 5.88606 6.99544 6.46459
#
# Compressibility (1/GPa) = 0.03038186
#
# Stress axis : x y z
#
# Youngs Moduli (GPa) = 75.65491 47.62947 124.21064
#
# Poissons Ratio (x) = 0.14970 0.20282
# Poissons Ratio (y) = 0.23779 0.14473
# Poissons Ratio (z) = 0.12353 0.05550
#
# Static dielectric constant tensor:
#      x y z
#    x 1.902600 0.011690 0.003880 
#    y 0.011690 1.913700 0.018620 
#    z 0.003880 0.018620 1.770590 
# 
# From -- ./inp_files/567087.got.cif
#   From: 2010.05.17/outbox.cif.g08.bks.cpg/sg2_284_cif.got.tgz:567087.got - 2010.06.03 11:33:40.
