data_PCOD9008373
_publ_section_title
;
Structure prediction by ZEFSAII (Michael W. Deem and Ramdas Pophale) SiO2 
 PCOD9008373
Probable space group: P -1
;
_chemical_formula_sum "Si O2"
_cell_formula_units_Z 14
_cell_length_a 12.010578
_cell_length_b 20.367504
_cell_length_c 9.016376
_cell_angle_alpha 143.350257
_cell_angle_beta 128.924366
_cell_angle_gamma 31.110431
_cell_volume 667.871412
_symmetry_space_group_name_H-M "P -1"
_symmetry_group_IT_number 2
_symmetry_cell_setting 'triclinic'
loop_
_space_group_symop_operation_xyz
x,y,z
-x,-y,-z
loop_
_atom_site_type_symbol
_atom_site_label
_atom_site_fract_x
_atom_site_fract_y
_atom_site_fract_z
Si Si1 0.486220 0.074067 0.344505
Si Si2 0.155838 0.240117 0.113285
Si Si3 0.585262 0.227902 0.848190
Si Si4 0.829598 0.012059 0.939608
Si Si5 0.071402 0.525255 0.906088
Si Si6 0.125806 0.257785 0.590629
Si Si7 0.004778 0.907886 0.203702
O O1 0.277318 0.210184 0.308094
O O2 0.621345 0.104849 0.542968
O O3 0.374805 0.114178 0.480132
O O4 0.638612 0.897390 0.075017
O O5 0.989981 0.414598 0.204721
O O6 0.039682 0.190194 0.955601
O O7 0.327291 0.403011 0.931326
O O8 0.763572 0.212060 0.909738
O O9 0.628537 0.157873 0.924998
O O10 0.932556 0.831380 0.667940
O O11 0.818401 0.034004 0.147450
O O12 0.000000 0.000000 0.000000
O O13 0.022632 0.427757 0.737097
O O14 0.928925 0.688949 0.188382
O O15 0.000000 0.000000 0.500000
#
# Coordination Sequence:
#
# PCOD9008373 Si02
#       7
#     2   2   2   2   2   2   2
#     4  10  21  39  64  95 119 166 219 259 298 378
#     4  11  22  40  64  95 130 160 211 261 322 365
#     4  10  22  41  63  93 127 165 214 253 316 372
#     4  10  22  41  68  88 122 168 216 262 295 376
#     4  10  24  39  63  95 132 167 198 267 318 378
#     4  10  21  41  60  93 123 163 212 251 314 362
#     4  11  22  42  65  95 122 167 213 262 312 369
#
# _framework density 20.962118
#
# number of rings (size 3 to 8) (size 9 to 14) (size 15 to 20)
#    0.000    1.714    2.857    0.857    2.000    9.143 
#    0.000    4.286    0.000    0.000    0.000    0.000 
#    0.000    0.000    0.000    0.000    0.000    0.000 
#
# Total GULP energy -77951.582332 kJ/mol
# GULP energy per Si atom -5567.970167 kJ/mol
# Density = 2.091441 g / cm^3
# Si number density = 20.962118 Si / 1000 Ang^3
#
#
#
# Elastic Constant Matrix: (Units=GPa)
#
#
# Indices 1 2 3 4 5 6 
#
# 1 85.3524 46.5766 19.1105 -5.0740 14.6697 10.4108
# 2 46.5766 143.2791 37.7202 -29.7309 -8.1430 31.1364
# 3 19.1105 37.7202 71.1069 -11.9841 -11.1870 11.3643
# 4 -5.0740 -29.7309 -11.9841 30.8993 -4.0448 -11.7415
# 5 14.6697 -8.1430 -11.1870 -4.0448 44.3360 -1.0002
# 6 10.4108 31.1364 11.3643 -11.7415 -1.0002 37.4558
#
#
#
# Elastic Compliance Matrix: (Units=1/GPa)
#
#
# Indices 1 2 3 4 5 6 
#
# 1 0.016970 -0.006133 -0.003465 -0.005749 -0.008153 -0.000587
# 2 -0.006133 0.012825 -0.002044 0.009103 0.004579 -0.005361
# 3 -0.003465 -0.002044 0.017960 0.004741 0.005709 -0.001148
# 4 -0.005749 0.009103 0.004741 0.045964 0.009127 0.007245
# 5 -0.008153 0.004579 0.005709 0.009127 0.028375 0.000347
# 6 -0.000587 -0.005361 -0.001148 0.007245 0.000347 0.033946
#
#
# Mechanical properties :
#
#
# Convention : Reuss Voigt Hill
#
# Bulk Modulus (GPa) = 40.86538 56.28365 48.57452
# Shear Modulus (GPa) = 26.66935 35.62698 31.14817
#
# Velocity S-wave (km/s) = 3.57075 4.12708 3.85895
# Velocity P-wave (km/s) = 6.04463 7.04406 6.56340
#
# Compressibility (1/GPa) = 0.02447059
#
# Stress axis : x y z
#
# Youngs Moduli (GPa) = 58.92770 77.97161 55.68045
#
# Poissons Ratio (x) = 0.47820 0.19295
# Poissons Ratio (y) = 0.36140 0.11380
# Poissons Ratio (z) = 0.20420 0.15936
#
# Static dielectric constant tensor:
#      x y z
#    x 1.799210 -0.000100 0.023960 
#    y -0.000100 1.827170 -0.054740 
#    z 0.023960 -0.054740 1.815480 
# 
# From -- ./inp_files/282459.got.cif
#   From: 2010.05.17/outbox.cif.g08.bks.cpg/sg2_142_cif.got.tgz:282459.got - 2010.06.03 11:33:40.
