data_PCOD9008106
_publ_section_title
;
Structure prediction by ZEFSAII (Michael W. Deem and Ramdas Pophale) SiO2 
 PCOD9008106
Probable space group: P -1
;
_chemical_formula_sum "Si O2"
_cell_formula_units_Z 14
_cell_length_a 10.191515
_cell_length_b 14.851566
_cell_length_c 8.935817
_cell_angle_alpha 153.488195
_cell_angle_beta 90.586320
_cell_angle_gamma 75.679415
_cell_volume 510.569870
_symmetry_space_group_name_H-M "P -1"
_symmetry_group_IT_number 2
_symmetry_cell_setting 'triclinic'
loop_
_space_group_symop_operation_xyz
x,y,z
-x,-y,-z
loop_
_atom_site_type_symbol
_atom_site_label
_atom_site_fract_x
_atom_site_fract_y
_atom_site_fract_z
Si Si1 0.344916 0.677134 0.959470
Si Si2 0.663190 0.774192 0.214035
Si Si3 0.699574 0.404046 0.488746
Si Si4 0.910684 0.947391 0.258974
Si Si5 0.044705 0.265107 0.749208
Si Si6 0.605856 0.753551 0.493287
Si Si7 0.736373 0.960409 0.005735
O O1 0.516223 0.611202 0.813768
O O2 0.265854 0.686198 0.813627
O O3 0.387041 0.428803 0.661663
O O4 0.247444 0.855617 0.360576
O O5 0.769778 0.861629 0.416709
O O6 0.639123 0.652199 0.176429
O O7 0.500000 0.000000 0.500000
O O8 0.764717 0.563920 0.785308
O O9 0.734978 0.186337 0.271921
O O10 0.867390 0.854745 0.975652
O O11 0.981864 0.106129 0.446018
O O12 0.000311 0.747292 0.093090
O O13 0.000000 0.500000 0.000000
O O14 0.426533 0.967825 0.809361
O O15 0.726767 0.817798 0.653801
#
# Coordination Sequence:
#
# PCOD9008106 Si02
#       7
#     2   2   2   2   2   2   2
#     4  10  21  39  63  99 137 177 221 280 342 407
#     4  12  25  41  73 102 130 179 230 287 346 399
#     4  10  22  36  63 100 138 171 225 283 341 402
#     4  11  24  45  68  95 136 188 228 278 346 412
#     4  11  25  44  74 100 137 181 238 278 340 421
#     4  10  22  36  63 100 138 171 225 283 341 402
#     4  10  21  39  63  99 137 177 221 280 342 407
#
# _framework density 27.420338000000001
#
# number of rings (size 3 to 8) (size 9 to 14) (size 15 to 20)
#    0.000    1.429    0.000    5.143   12.000    2.286 
#    0.000    1.429    6.286    0.000    0.000    0.000 
#    0.000    0.000    0.000    0.000    0.000    0.000 
#
# Total GULP energy -78163.268816 kJ/mol
# GULP energy per Si atom -5583.090630 kJ/mol
# Density = 2.735793 g / cm^3
# Si number density = 27.420338 Si / 1000 Ang^3
#
#
#
# Elastic Constant Matrix: (Units=GPa)
#
#
# Indices 1 2 3 4 5 6 
#
# 1 96.2072 38.1756 18.0397 6.8077 2.0424 -5.2124
# 2 38.1756 161.1752 35.4309 3.3456 23.0303 -5.8897
# 3 18.0397 35.4309 78.8368 -14.7433 5.5313 6.7141
# 4 6.8077 3.3456 -14.7433 45.7036 -0.9083 8.5901
# 5 2.0424 23.0303 5.5313 -0.9083 48.8868 -2.2750
# 6 -5.2124 -5.8897 6.7141 8.5901 -2.2750 42.5408
#
#
#
# Elastic Compliance Matrix: (Units=1/GPa)
#
#
# Indices 1 2 3 4 5 6 
#
# 1 0.012076 -0.002301 -0.002508 -0.002831 0.000912 0.002177
# 2 -0.002301 0.008030 -0.003291 -0.001655 -0.003275 0.001508
# 3 -0.002508 -0.003291 0.016434 0.006802 -0.000299 -0.004746
# 4 -0.002831 -0.001655 0.006802 0.025914 0.000290 -0.006867
# 5 0.000912 -0.003275 -0.000299 0.000290 0.022038 0.000825
# 6 0.002177 0.001508 -0.004746 -0.006867 0.000825 0.026162
#
#
# Mechanical properties :
#
#
# Convention : Reuss Voigt Hill
#
# Bulk Modulus (GPa) = 49.15979 57.72351 53.44165
# Shear Modulus (GPa) = 37.41539 43.73110 40.57325
#
# Velocity S-wave (km/s) = 3.69794 3.99788 3.85083
# Velocity P-wave (km/s) = 6.01666 6.51212 6.26929
#
# Compressibility (1/GPa) = 0.02034183
#
# Stress axis : x y z
#
# Youngs Moduli (GPa) = 82.80559 124.52852 60.84777
#
# Poissons Ratio (x) = 0.28655 0.15261
# Poissons Ratio (y) = 0.19054 0.20023
# Poissons Ratio (z) = 0.20767 0.40978
#
# Static dielectric constant tensor:
#      x y z
#    x 2.359540 -0.066730 0.087240 
#    y -0.066730 2.158800 0.033100 
#    z 0.087240 0.033100 2.186920 
# 
# From -- ./inp_files/274886.got.cif
#   From: 2010.05.17/outbox.cif.g08.bks.cpg/sg2_138_cif.got.tgz:274886.got - 2010.06.03 11:33:40.
