data_PCOD9008651
_publ_section_title
;
Structure prediction by ZEFSAII (Michael W. Deem and Ramdas Pophale) SiO2 
 PCOD9008651
Probable space group: P -1
;
_chemical_formula_sum "Si O2"
_cell_formula_units_Z 16
_cell_length_a 7.065163
_cell_length_b 28.551152
_cell_length_c 8.980972
_cell_angle_alpha 138.007708
_cell_angle_beta 136.447459
_cell_angle_gamma 37.541855
_cell_volume 696.600790
_symmetry_space_group_name_H-M "P -1"
_symmetry_group_IT_number 2
_symmetry_cell_setting 'triclinic'
loop_
_space_group_symop_operation_xyz
x,y,z
-x,-y,-z
loop_
_atom_site_type_symbol
_atom_site_label
_atom_site_fract_x
_atom_site_fract_y
_atom_site_fract_z
Si Si1 0.642376 0.582804 0.502120
Si Si2 0.788415 0.749808 0.425525
Si Si3 0.308780 0.685152 0.307120
Si Si4 0.786099 0.352434 0.320258
Si Si5 0.244945 0.029317 0.554659
Si Si6 0.545807 0.069210 0.263262
Si Si7 0.094885 0.791580 0.152686
Si Si8 0.622569 0.529181 0.890644
O O1 0.600389 0.648737 0.509901
O O2 0.515946 0.628606 0.697224
O O3 0.415365 0.545464 0.254706
O O4 0.000000 0.500000 0.500000
O O5 0.751644 0.832853 0.672516
O O6 0.421949 0.780541 0.247495
O O7 0.009959 0.715827 0.325140
O O8 0.928911 0.678105 0.464997
O O9 0.186230 0.761375 0.304508
O O10 0.449006 0.603735 0.088792
O O11 0.604663 0.431913 0.295155
O O12 0.939188 0.274207 0.112517
O O13 0.879287 0.057415 0.361759
O O14 0.197149 0.112627 0.796568
O O15 0.500000 0.000000 0.500000
O O16 0.373041 0.957547 0.580772
O O17 0.500000 0.000000 0.000000
O O18 0.000000 0.500000 0.000000
#
# Coordination Sequence:
#
# PCOD9008651 Si02
#       8
#     2   2   2   2   2   2   2   2
#     4  11  24  38  61  92 121 157 212 259 304 364
#     4  10  22  40  62  89 123 162 206 252 308 366
#     4  10  23  38  61  84 120 161 203 255 301 366
#     4  10  23  38  61  84 122 161 201 256 302 367
#     4  10  21  39  65  93 126 163 206 248 304 372
#     4  10  21  39  65  93 127 161 205 254 301 365
#     4  10  22  40  62  88 124 163 203 254 310 362
#     4  11  24  40  65  88 121 167 208 253 315 366
#
# _framework density 22.968677
#
# number of rings (size 3 to 8) (size 9 to 14) (size 15 to 20)
#    0.000    1.750    0.000    3.000   10.500    0.500 
#    0.000    1.250    0.000    0.000    0.000    0.000 
#    0.000    0.000    0.000    0.000    0.000    0.000 
#
# Total GULP energy -89245.813999 kJ/mol
# GULP energy per Si atom -5577.863375 kJ/mol
# Density = 2.291640 g / cm^3
# Si number density = 22.968677 Si / 1000 Ang^3
#
#
#
# Elastic Constant Matrix: (Units=GPa)
#
#
# Indices 1 2 3 4 5 6 
#
# 1 115.1523 46.2845 31.1438 2.6718 -14.6893 -14.1263
# 2 46.2845 108.4096 9.7442 4.7205 -8.2195 -3.2689
# 3 31.1438 9.7442 51.2737 22.7869 1.1689 -13.1212
# 4 2.6718 4.7205 22.7869 30.8996 4.4648 -5.7026
# 5 -14.6893 -8.2195 1.1689 4.4648 33.6414 -1.1990
# 6 -14.1263 -3.2689 -13.1212 -5.7026 -1.1990 50.5703
#
#
#
# Elastic Compliance Matrix: (Units=1/GPa)
#
#
# Indices 1 2 3 4 5 6 
#
# 1 0.014112 -0.005005 -0.010288 0.006824 0.004456 0.001824
# 2 -0.005005 0.011360 0.002114 -0.003074 0.000909 -0.000440
# 3 -0.010288 0.002114 0.038310 -0.026684 -0.001617 0.004155
# 4 0.006824 -0.003074 -0.026684 0.052585 -0.003801 0.000624
# 5 0.004456 0.000909 -0.001617 -0.003801 0.032497 0.001226
# 6 0.001824 -0.000440 0.004155 0.000624 0.001226 0.021433
#
#
# Mechanical properties :
#
#
# Convention : Reuss Voigt Hill
#
# Bulk Modulus (GPa) = 26.72081 49.90895 38.31488
# Shear Modulus (GPa) = 23.90851 35.53314 29.72083
#
# Velocity S-wave (km/s) = 3.22983 3.93749 3.60108
# Velocity P-wave (km/s) = 5.05647 6.51522 5.83164
#
# Compressibility (1/GPa) = 0.03742402
#
# Stress axis : x y z
#
# Youngs Moduli (GPa) = 70.86124 88.02442 26.10308
#
# Poissons Ratio (x) = 0.44053 0.26855
# Poissons Ratio (y) = 0.35463 -0.05517
# Poissons Ratio (z) = 0.72903 -0.18605
#
# Static dielectric constant tensor:
#      x y z
#    x 1.858730 0.010890 0.013700 
#    y 0.010890 1.888770 -0.010440 
#    z 0.013700 -0.010440 1.967770 
# 
# From -- ./inp_files/143392.got.cif
#   From: 2010.05.17/outbox.cif.g08.bks.cpg/sg2_72_cif.got.tgz:143392.got - 2010.06.03 11:33:40.
