data_PCOD9008891
_publ_section_title
;
Structure prediction by ZEFSAII (Michael W. Deem and Ramdas Pophale) SiO2 
 PCOD9008891
Probable space group: P -1
;
_chemical_formula_sum "Si O2"
_cell_formula_units_Z 14
_cell_length_a 5.052863
_cell_length_b 5.721516
_cell_length_c 25.078655
_cell_angle_alpha 63.591285
_cell_angle_beta 58.348808
_cell_angle_gamma 81.618781
_cell_volume 549.113166
_symmetry_space_group_name_H-M "P -1"
_symmetry_group_IT_number 2
_symmetry_cell_setting 'triclinic'
loop_
_space_group_symop_operation_xyz
x,y,z
-x,-y,-z
loop_
_atom_site_type_symbol
_atom_site_label
_atom_site_fract_x
_atom_site_fract_y
_atom_site_fract_z
Si Si1 0.369092 0.045129 0.803967
Si Si2 0.731082 0.476185 0.074491
Si Si3 0.923944 0.372073 0.868298
Si Si4 0.052729 0.189511 0.263186
Si Si5 0.906107 0.079066 0.560392
Si Si6 0.297026 0.272246 0.598256
Si Si7 0.825338 0.559898 0.671628
O O1 0.565586 0.328497 0.741233
O O2 0.028781 0.146484 0.840757
O O3 0.370429 0.837264 0.874205
O O4 0.588408 0.877766 0.760592
O O5 0.438319 0.634944 0.076633
O O6 0.867804 0.595397 0.104137
O O7 0.000000 0.500000 0.000000
O O8 0.978435 0.648940 0.802823
O O9 0.988449 0.366741 0.301508
O O10 0.840679 0.916803 0.319429
O O11 0.667320 0.300105 0.561115
O O12 0.708704 0.821104 0.633550
O O13 0.187041 0.148574 0.565468
O O14 0.000000 0.000000 0.500000
O O15 0.085465 0.501722 0.606939
#
# Coordination Sequence:
#
# PCOD9008891 Si02
#       7
#     2   2   2   2   2   2   2
#     4  10  21  39  66  91 122 162 204 253 309 363
#     4  11  26  44  63  93 128 163 208 256 306 370
#     4  11  23  41  66  93 126 164 206 255 310 368
#     4   9  21  39  63  95 126 158 207 261 308 367
#     4  11  24  42  63  92 128 165 209 257 306 368
#     4  10  23  40  64  92 126 166 206 256 312 365
#     4  10  22  41  65  94 126 163 208 256 311 369
#
# _framework density 25.495652
#
# number of rings (size 3 to 8) (size 9 to 14) (size 15 to 20)
#    0.000    1.714    0.000    3.429    0.000   17.143 
#    0.000    0.000    0.000    0.000    0.000    0.000 
#    0.000    0.000    0.000    0.000    0.000    0.000 
#
# Total GULP energy -78045.406361 kJ/mol
# GULP energy per Si atom -5574.671883 kJ/mol
# Density = 2.543762 g / cm^3
# Si number density = 25.495652 Si / 1000 Ang^3
#
#
#
# Elastic Constant Matrix: (Units=GPa)
#
#
# Indices 1 2 3 4 5 6 
#
# 1 90.8552 13.3469 -5.4166 16.3893 -15.9794 -12.8723
# 2 13.3469 70.3195 15.3778 9.1331 -0.3738 -27.3624
# 3 -5.4166 15.3778 102.8007 2.6115 -3.9991 0.9068
# 4 16.3893 9.1331 2.6115 37.3827 -7.4420 -7.9994
# 5 -15.9794 -0.3738 -3.9991 -7.4420 31.0630 17.4649
# 6 -12.8723 -27.3624 0.9068 -7.9994 17.4649 34.3744
#
#
#
# Elastic Compliance Matrix: (Units=1/GPa)
#
#
# Indices 1 2 3 4 5 6 
#
# 1 0.013279 -0.003154 0.001580 -0.004198 0.007250 -0.002240
# 2 -0.003154 0.028333 -0.005397 -0.002497 -0.020080 0.031136
# 3 0.001580 -0.005397 0.010930 -0.000465 0.006088 -0.007194
# 4 -0.004198 -0.002497 -0.000465 0.030372 0.004267 0.001353
# 5 0.007250 -0.020080 0.006088 0.004267 0.062266 -0.044073
# 6 -0.002240 0.031136 -0.007194 0.001353 -0.044073 0.075934
#
#
# Mechanical properties :
#
#
# Convention : Reuss Voigt Hill
#
# Bulk Modulus (GPa) = 25.90643 34.51017 30.20830
# Shear Modulus (GPa) = 20.16758 36.60850 28.38804
#
# Velocity S-wave (km/s) = 2.81556 3.79340 3.34045
# Velocity P-wave (km/s) = 4.55555 5.72290 5.17226
#
# Compressibility (1/GPa) = 0.03860046
#
# Stress axis : x y z
#
# Youngs Moduli (GPa) = 75.30687 35.29502 91.48943
#
# Poissons Ratio (x) = 0.11131 -0.14454
# Poissons Ratio (y) = 0.23750 0.49375
# Poissons Ratio (z) = -0.11898 0.19048
#
# Static dielectric constant tensor:
#      x y z
#    x 2.047580 0.028540 -0.016740 
#    y 0.028540 2.084430 0.013070 
#    z -0.016740 0.013070 2.012620 
# 
# From -- ./inp_files/114302.got.cif
#   From: 2010.05.17/outbox.cif.g08.bks.cpg/sg2_58_cif.got.tgz:114302.got - 2010.06.03 11:33:40.
