data_PCOD9008332
_publ_section_title
;
Structure prediction by ZEFSAII (Michael W. Deem and Ramdas Pophale) SiO2 
 PCOD9008332
Probable space group: P -1
;
_chemical_formula_sum "Si O2"
_cell_formula_units_Z 16
_cell_length_a 8.281244
_cell_length_b 6.543639
_cell_length_c 24.478830
_cell_angle_alpha 60.071333
_cell_angle_beta 136.795713
_cell_angle_gamma 98.274365
_cell_volume 731.042480
_symmetry_space_group_name_H-M "P -1"
_symmetry_group_IT_number 2
_symmetry_cell_setting 'triclinic'
loop_
_space_group_symop_operation_xyz
x,y,z
-x,-y,-z
loop_
_atom_site_type_symbol
_atom_site_label
_atom_site_fract_x
_atom_site_fract_y
_atom_site_fract_z
Si Si1 0.389705 0.237632 0.762244
Si Si2 0.952591 0.118709 0.727532
Si Si3 0.529226 0.720792 0.724044
Si Si4 0.657180 0.438043 0.102646
Si Si5 0.080775 0.515704 0.244768
Si Si6 0.118919 0.210397 0.586129
Si Si7 0.721521 0.704800 0.894030
Si Si8 0.762816 0.994596 0.589248
O O1 0.179032 0.212749 0.754144
O O2 0.415278 0.505609 0.736845
O O3 0.277191 0.210691 0.679362
O O4 0.649764 0.988828 0.863442
O O5 0.838204 0.277103 0.731825
O O6 0.766079 0.143558 0.627033
O O7 0.105377 0.823528 0.814890
O O8 0.709711 0.620536 0.730518
O O9 0.677491 0.729725 0.814907
O O10 0.313980 0.997650 0.623859
O O11 0.483047 0.391704 0.113702
O O12 0.801704 0.620021 0.134311
O O13 0.500000 0.500000 0.000000
O O14 0.083688 0.297474 0.317414
O O15 0.000000 0.500000 0.500000
O O16 0.904617 0.103692 0.565785
O O17 0.000000 0.500000 0.000000
O O18 0.500000 0.000000 0.500000
#
# Coordination Sequence:
#
# PCOD9008332 Si02
#       8
#     2   2   2   2   2   2   2   2
#     4   9  20  39  63  89 122 170 213 264 327 382
#     4   9  20  41  63  88 127 171 214 268 328 395
#     4  11  23  40  65  93 130 171 216 273 328 399
#     4  10  21  39  64  93 129 171 218 272 328 388
#     4  11  23  40  62  94 131 170 216 271 333 390
#     4  10  23  44  68  92 127 168 221 270 331 396
#     4  10  21  39  64  94 129 170 219 270 326 395
#     4  10  23  44  66  95 126 169 218 275 331 391
#
# _framework density 21.886552999999999
#
# number of rings (size 3 to 8) (size 9 to 14) (size 15 to 20)
#    0.000    2.000    0.000    4.500    1.750    7.000 
#    4.500    0.000    0.000    0.000    0.000    0.000 
#    0.000    0.000    0.000    0.000    0.000    0.000 
#
# Total GULP energy -89361.611234 kJ/mol
# GULP energy per Si atom -5585.100702 kJ/mol
# Density = 2.183674 g / cm^3
# Si number density = 21.886553 Si / 1000 Ang^3
#
#
#
# Elastic Constant Matrix: (Units=GPa)
#
#
# Indices 1 2 3 4 5 6 
#
# 1 94.4775 38.6165 42.1946 -0.7219 4.0297 -21.2216
# 2 38.6165 98.2699 43.6886 1.2953 17.8835 -13.4109
# 3 42.1946 43.6886 119.7960 -1.3451 18.1748 -5.9150
# 4 -0.7219 1.2953 -1.3451 28.9335 3.9491 2.3511
# 5 4.0297 17.8835 18.1748 3.9491 16.3319 -7.3300
# 6 -21.2216 -13.4109 -5.9150 2.3511 -7.3300 39.0397
#
#
#
# Elastic Compliance Matrix: (Units=1/GPa)
#
#
# Indices 1 2 3 4 5 6 
#
# 1 0.016472 -0.005019 -0.005348 -0.001931 0.011776 0.008747
# 2 -0.005019 0.015420 -0.001711 0.001076 -0.014191 -0.000420
# 3 -0.005348 -0.001711 0.012731 0.002732 -0.013554 -0.004275
# 4 -0.001931 0.001076 0.002732 0.037088 -0.015105 -0.005336
# 5 0.011776 -0.014191 -0.013554 -0.015105 0.101308 0.019404
# 6 0.008747 -0.000420 -0.004275 -0.005336 0.019404 0.033542
#
#
# Mechanical properties :
#
#
# Convention : Reuss Voigt Hill
#
# Bulk Modulus (GPa) = 48.85971 62.39363 55.62667
# Shear Modulus (GPa) = 20.19868 29.39726 24.79797
#
# Velocity S-wave (km/s) = 3.04119 3.66890 3.36969
# Velocity P-wave (km/s) = 5.89104 6.82037 6.37266
#
# Compressibility (1/GPa) = 0.02046676
#
# Stress axis : x y z
#
# Youngs Moduli (GPa) = 60.70837 64.84922 78.54763
#
# Poissons Ratio (x) = 0.32550 0.42005
# Poissons Ratio (y) = 0.30472 0.13443
# Poissons Ratio (z) = 0.32465 0.11099
#
# Static dielectric constant tensor:
#      x y z
#    x 1.870970 0.013260 -0.003370 
#    y 0.013260 1.866720 0.006610 
#    z -0.003370 0.006610 1.821380 
# 
# From -- ./inp_files/616316.got.cif
#   From: 2010.05.17/outbox.cif.g08.bks.cpg/sg2_309_cif.got.tgz:616316.got - 2010.06.03 11:33:40.
