data_PCOD9008077
_publ_section_title
;
Structure prediction by ZEFSAII (Michael W. Deem and Ramdas Pophale) SiO2 
 PCOD9008077
Probable space group: P -1
;
_chemical_formula_sum "Si O2"
_cell_formula_units_Z 15
_cell_length_a 8.850023
_cell_length_b 7.056406
_cell_length_c 12.365947
_cell_angle_alpha 47.383970
_cell_angle_beta 78.033366
_cell_angle_gamma 91.816374
_cell_volume 539.835000
_symmetry_space_group_name_H-M "P -1"
_symmetry_group_IT_number 2
_symmetry_cell_setting 'triclinic'
loop_
_space_group_symop_operation_xyz
x,y,z
-x,-y,-z
loop_
_atom_site_type_symbol
_atom_site_label
_atom_site_fract_x
_atom_site_fract_y
_atom_site_fract_z
Si Si1 0.000000 0.500000 0.000000
Si Si2 0.288282 0.889976 0.190531
Si Si3 0.437996 0.025341 0.342580
Si Si4 0.200835 0.479990 0.119952
Si Si5 0.505466 0.369390 0.872441
Si Si6 0.029432 0.270726 0.826677
Si Si7 0.760578 0.896293 0.297935
Si Si8 0.177892 0.111279 0.468234
O O1 0.147332 0.797321 0.860798
O O2 0.858750 0.657120 0.928855
O O3 0.322102 0.980179 0.272685
O O4 0.408236 0.699544 0.221025
O O5 0.110821 0.747977 0.233675
O O6 0.353861 0.131198 0.004902
O O7 0.521909 0.337689 0.228922
O O8 0.576014 0.879038 0.354054
O O9 0.312778 0.946529 0.491321
O O10 0.375612 0.669007 0.029011
O O11 0.020183 0.541542 0.143192
O O12 0.222343 0.327133 0.283835
O O13 0.191277 0.290157 0.730018
O O14 0.000000 0.000000 0.000000
O O15 0.823751 0.820607 0.433235
O O16 0.000000 0.000000 0.500000
#
# Coordination Sequence:
#
# PCOD9008077 Si02
#       8
#     1   2   2   2   2   2   2   2
#     4  12  22  38  68 100 128 172 226 272 330 394
#     4  10  21  39  63  96 134 179 217 273 342 388
#     4  11  24  41  68  96 134 176 225 278 333 399
#     4  10  22  41  66 100 128 173 230 270 333 399
#     4   9  21  37  63  94 136 171 222 274 331 398
#     4  11  24  40  65 100 139 171 223 284 331 399
#     4  12  26  41  67 101 136 175 222 279 340 395
#     4  11  23  46  69  95 132 183 224 270 338 411
#
# _framework density 27.786266000000001
#
# number of rings (size 3 to 8) (size 9 to 14) (size 15 to 20)
#    0.000    1.333    2.667    2.400    7.467    0.533 
#    0.000    1.333    0.000    8.800    0.000    0.000 
#    0.000    0.000    0.000    0.000    0.000    0.000 
#
# Total GULP energy -83537.811004 kJ/mol
# GULP energy per Si atom -5569.187400 kJ/mol
# Density = 2.772302 g / cm^3
# Si number density = 27.786266 Si / 1000 Ang^3
#
#
#
# Elastic Constant Matrix: (Units=GPa)
#
#
# Indices 1 2 3 4 5 6 
#
# 1 131.5136 16.0873 16.8499 9.1382 -6.6298 -23.4450
# 2 16.0873 112.5967 14.6829 18.3277 -15.6555 -27.9393
# 3 16.8499 14.6829 43.7586 34.7131 2.6706 -10.4973
# 4 9.1382 18.3277 34.7131 33.4751 -6.4097 -10.0931
# 5 -6.6298 -15.6555 2.6706 -6.4097 52.0450 17.6786
# 6 -23.4450 -27.9393 -10.4973 -10.0931 17.6786 56.2951
#
#
#
# Elastic Compliance Matrix: (Units=1/GPa)
#
#
# Indices 1 2 3 4 5 6 
#
# 1 0.008938 -0.000633 -0.011161 0.010644 0.001940 0.002626
# 2 -0.000633 0.011070 0.006832 -0.011644 -0.000040 0.004429
# 3 -0.011161 0.006832 0.187395 -0.199187 -0.036745 0.009512
# 4 0.010644 -0.011644 -0.199187 0.245511 0.040783 -0.007278
# 5 0.001940 -0.000040 -0.036745 0.040783 0.029030 -0.007868
# 6 0.002626 0.004429 0.009512 -0.007278 -0.007868 0.023995
#
#
# Mechanical properties :
#
#
# Convention : Reuss Voigt Hill
#
# Bulk Modulus (GPa) = 5.06387 42.56768 23.81577
# Shear Modulus (GPa) = 8.59565 44.37962 26.48763
#
# Velocity S-wave (km/s) = 1.76074 4.00081 3.09085
# Velocity P-wave (km/s) = 2.44131 6.05763 4.61816
#
# Compressibility (1/GPa) = 0.19747746
#
# Stress axis : x y z
#
# Youngs Moduli (GPa) = 111.88745 90.33694 5.33632
#
# Poissons Ratio (x) = 0.05716 0.05956
# Poissons Ratio (y) = 0.07079 -0.03646
# Poissons Ratio (z) = 1.24882 -0.61715
#
# Static dielectric constant tensor:
#      x y z
#    x 7.227580 6.123730 5.624520 
#    y 6.123730 11.146510 7.964360 
#    z 5.624520 7.964360 9.945140 
# 
# From -- ./inp_files/381013.got.cif
#   From: 2010.05.17/outbox.cif.g08.bks.cpg/sg2_191_cif.got.tgz:381013.got - 2010.06.03 11:33:40.
