data_PCOD9008745
_publ_section_title
;
Structure prediction by ZEFSAII (Michael W. Deem and Ramdas Pophale) SiO2 
 PCOD9008745
Probable space group: P -1
;
_chemical_formula_sum "Si O2"
_cell_formula_units_Z 16
_cell_length_a 5.091827
_cell_length_b 18.520242
_cell_length_c 11.410367
_cell_angle_alpha 44.925102
_cell_angle_beta 99.468597
_cell_angle_gamma 109.620613
_cell_volume 711.392595
_symmetry_space_group_name_H-M "P -1"
_symmetry_group_IT_number 2
_symmetry_cell_setting 'triclinic'
loop_
_space_group_symop_operation_xyz
x,y,z
-x,-y,-z
loop_
_atom_site_type_symbol
_atom_site_label
_atom_site_fract_x
_atom_site_fract_y
_atom_site_fract_z
Si Si1 0.139738 0.611329 0.453309
Si Si2 0.209900 0.945878 0.972728
Si Si3 0.144346 0.373256 0.156254
Si Si4 0.075552 0.989176 0.324094
Si Si5 0.569486 0.169894 0.068315
Si Si6 0.247050 0.568745 0.776476
Si Si7 0.729401 0.750640 0.223577
Si Si8 0.039814 0.838990 0.702925
O O1 0.166152 0.578534 0.626628
O O2 0.447445 0.690891 0.345300
O O3 0.000000 0.500000 0.500000
O O4 0.927104 0.679270 0.343543
O O5 0.932497 0.877327 0.106132
O O6 0.245985 0.849081 0.003896
O O7 0.146237 0.026760 0.778974
O O8 0.500000 0.000000 0.000000
O O9 0.424496 0.417722 0.202455
O O10 0.876448 0.352321 0.245697
O O11 0.193861 0.271358 0.214041
O O12 0.109019 0.453915 0.960883
O O13 0.364084 0.049844 0.213238
O O14 0.025054 0.077095 0.309726
O O15 0.105079 0.895786 0.516521
O O16 0.727158 0.198814 0.168560
O O17 0.396322 0.244685 0.921777
#
# Coordination Sequence:
#
# PCOD9008745 Si02
#       8
#     2   2   2   2   2   2   2   2
#     4  12  26  46  72 102 140 181 225 294 344 397
#     4  10  22  43  66  96 142 186 221 278 347 405
#     4  10  23  44  71  93 134 180 217 280 352 395
#     4   9  21  38  62  99 135 166 235 281 325 422
#     4  10  21  41  64  93 137 170 231 280 328 415
#     4  10  24  46  63 102 134 168 232 280 330 425
#     4  11  24  44  66 105 132 180 233 273 337 416
#     4  10  21  39  65  96 128 176 222 284 344 396
#
# _framework density 22.491098999999998
#
# number of rings (size 3 to 8) (size 9 to 14) (size 15 to 20)
#    0.000    1.750    1.250    1.500    3.500    3.000 
#    9.000    0.000    0.000    0.000    0.000    0.000 
#    0.000    0.000    0.000    0.000    0.000    0.000 
#
# Total GULP energy -89162.328453 kJ/mol
# GULP energy per Si atom -5572.645528 kJ/mol
# Density = 2.243991 g / cm^3
# Si number density = 22.491099 Si / 1000 Ang^3
#
#
#
# Elastic Constant Matrix: (Units=GPa)
#
#
# Indices 1 2 3 4 5 6 
#
# 1 117.5887 22.3179 54.4077 19.2103 -5.1920 11.9573
# 2 22.3179 81.5693 78.8120 28.0494 4.5837 14.6664
# 3 54.4077 78.8120 165.4897 38.6855 15.8012 0.9941
# 4 19.2103 28.0494 38.6855 26.7005 5.2718 3.1396
# 5 -5.1920 4.5837 15.8012 5.2718 24.8221 -3.1078
# 6 11.9573 14.6664 0.9941 3.1396 -3.1078 18.5936
#
#
#
# Elastic Compliance Matrix: (Units=1/GPa)
#
#
# Indices 1 2 3 4 5 6 
#
# 1 0.012494 0.006279 -0.005968 -0.006744 0.005354 -0.010634
# 2 0.006279 0.036573 -0.015552 -0.018026 0.004756 -0.028216
# 3 -0.005968 -0.015552 0.016970 -0.004448 -0.006371 0.014884
# 4 -0.006744 -0.018026 -0.004448 0.068831 -0.009163 0.005639
# 5 0.005354 0.004756 -0.006371 -0.009163 0.046846 0.002523
# 6 -0.010634 -0.028216 0.014884 0.005639 0.002523 0.081551
#
#
# Mechanical properties :
#
#
# Convention : Reuss Voigt Hill
#
# Bulk Modulus (GPa) = 28.12775 75.08032 51.60404
# Shear Modulus (GPa) = 16.36133 27.96392 22.16262
#
# Velocity S-wave (km/s) = 2.70007 3.52992 3.14251
# Velocity P-wave (km/s) = 4.71739 7.07591 6.01341
#
# Compressibility (1/GPa) = 0.03555208
#
# Stress axis : x y z
#
# Youngs Moduli (GPa) = 80.04066 27.34279 58.92747
#
# Poissons Ratio (x) = -0.17167 0.35171
# Poissons Ratio (y) = -0.50254 0.91645
# Poissons Ratio (z) = 0.47772 0.42524
#
# Static dielectric constant tensor:
#      x y z
#    x 1.936450 -0.007290 -0.013340 
#    y -0.007290 1.868350 0.001220 
#    z -0.013340 0.001220 1.838300 
# 
# From -- ./inp_files/370358.got.cif
#   From: 2010.05.17/outbox.cif.g08.bks.cpg/sg2_186_cif.got.tgz:370358.got - 2010.06.03 11:33:40.
