data_PCOD9008141
_publ_section_title
;
Structure prediction by ZEFSAII (Michael W. Deem and Ramdas Pophale) SiO2 
 PCOD9008141
Probable space group: P -1
;
_chemical_formula_sum "Si O2"
_cell_formula_units_Z 16
_cell_length_a 8.720766
_cell_length_b 10.914856
_cell_length_c 11.664928
_cell_angle_alpha 39.396309
_cell_angle_beta 83.501255
_cell_angle_gamma 70.846622
_cell_volume 647.198319
_symmetry_space_group_name_H-M "P -1"
_symmetry_group_IT_number 2
_symmetry_cell_setting 'triclinic'
loop_
_space_group_symop_operation_xyz
x,y,z
-x,-y,-z
loop_
_atom_site_type_symbol
_atom_site_label
_atom_site_fract_x
_atom_site_fract_y
_atom_site_fract_z
Si Si1 0.474059 0.395603 0.900062
Si Si2 0.600077 0.020483 0.747798
Si Si3 0.352482 0.114960 0.517699
Si Si4 0.075847 0.995568 0.371487
Si Si5 0.927412 0.771890 0.238100
Si Si6 0.980305 0.626660 0.589633
Si Si7 0.286570 0.804695 0.162404
Si Si8 0.742388 0.281302 0.147490
O O1 0.557113 0.371609 0.785651
O O2 0.316971 0.588452 0.824205
O O3 0.429526 0.191213 0.069817
O O4 0.622786 0.399817 0.968782
O O5 0.752375 0.979403 0.676809
O O6 0.440968 0.165361 0.584115
O O7 0.647618 0.118503 0.785547
O O8 0.180704 0.305190 0.363143
O O9 0.500000 0.000000 0.500000
O O10 0.288820 0.931705 0.685401
O O11 0.939114 0.191138 0.174891
O O12 0.000000 0.000000 0.500000
O O13 0.085713 0.770492 0.490782
O O14 0.915921 0.617458 0.250832
O O15 0.118404 0.760455 0.229280
O O16 0.902601 0.690487 0.422803
O O17 0.789907 0.999085 0.060826
#
# Coordination Sequence:
#
# PCOD9008141 Si02
#       8
#     2   2   2   2   2   2   2   2
#     4  10  22  39  63  88 124 159 203 249 309 371
#     4  11  22  38  62  94 124 160 205 264 312 358
#     4  10  21  39  64  86 121 164 204 252 309 368
#     4  11  22  40  61  87 126 157 203 260 307 363
#     4  10  22  39  66  89 120 169 209 250 308 371
#     4  10  21  42  63  88 121 167 213 247 301 382
#     4  11  22  39  64  93 127 162 204 264 314 360
#     4   9  21  40  59  86 120 161 205 242 296 376
#
# _framework density 24.721943
#
# number of rings (size 3 to 8) (size 9 to 14) (size 15 to 20)
#    0.000    1.750    1.250    4.125    3.500    1.500 
#    2.250    1.875    0.000    0.000    0.000    0.000 
#    0.000    0.000    0.000    0.000    0.000    0.000 
#
# Total GULP energy -89420.926512 kJ/mol
# GULP energy per Si atom -5588.807907 kJ/mol
# Density = 2.466567 g / cm^3
# Si number density = 24.721943 Si / 1000 Ang^3
#
#
#
# Elastic Constant Matrix: (Units=GPa)
#
#
# Indices 1 2 3 4 5 6 
#
# 1 129.7342 28.5217 13.2771 -5.0436 -13.3844 -6.3736
# 2 28.5217 130.1432 13.9990 -5.1229 -10.5580 2.6503
# 3 13.2771 13.9990 28.1085 -4.5944 -8.5707 2.3666
# 4 -5.0436 -5.1229 -4.5944 37.1756 0.5690 1.8121
# 5 -13.3844 -10.5580 -8.5707 0.5690 20.7329 12.0671
# 6 -6.3736 2.6503 2.3666 1.8121 12.0671 28.4924
#
#
#
# Elastic Compliance Matrix: (Units=1/GPa)
#
#
# Indices 1 2 3 4 5 6 
#
# 1 0.008664 -0.001357 -0.002310 0.000614 0.003504 0.000733
# 2 -0.001357 0.008635 -0.001962 0.000835 0.004336 -0.002833
# 3 -0.002310 -0.001962 0.047971 0.005714 0.026421 -0.015872
# 4 0.000614 0.000835 0.005714 0.027937 0.004900 -0.004267
# 5 0.003504 0.004336 0.026421 0.004900 0.085902 -0.038507
# 6 0.000733 -0.002833 -0.015872 -0.004267 -0.038507 0.053423
#
#
# Mechanical properties :
#
#
# Convention : Reuss Voigt Hill
#
# Bulk Modulus (GPa) = 18.51436 44.39794 31.45615
# Shear Modulus (GPa) = 19.09900 32.75940 25.92920
#
# Velocity S-wave (km/s) = 2.78250 3.64416 3.24208
# Velocity P-wave (km/s) = 4.22236 5.97532 5.17363
#
# Compressibility (1/GPa) = 0.05401212
#
# Stress axis : x y z
#
# Youngs Moduli (GPa) = 115.41852 115.81282 20.84582
#
# Poissons Ratio (x) = 0.15714 0.04815
# Poissons Ratio (y) = 0.15661 0.04091
# Poissons Ratio (z) = 0.26659 0.22726
#
# Static dielectric constant tensor:
#      x y z
#    x 2.001070 -0.040520 0.075000 
#    y -0.040520 2.056910 0.016270 
#    z 0.075000 0.016270 1.995750 
# 
# From -- ./inp_files/377975.got.cif
#   From: 2010.05.17/outbox.cif.g08.bks.cpg/sg2_189_cif.got.tgz:377975.got - 2010.06.03 11:33:40.
