data_PCOD9008497
_publ_section_title
;
Structure prediction by ZEFSAII (Michael W. Deem and Ramdas Pophale) SiO2 
 PCOD9008497
Probable space group: P -1
;
_chemical_formula_sum "Si O2"
_cell_formula_units_Z 13
_cell_length_a 8.984728
_cell_length_b 14.334941
_cell_length_c 9.731770
_cell_angle_alpha 43.358327
_cell_angle_beta 45.754230
_cell_angle_gamma 37.711433
_cell_volume 503.468580
_symmetry_space_group_name_H-M "P -1"
_symmetry_group_IT_number 2
_symmetry_cell_setting 'triclinic'
loop_
_space_group_symop_operation_xyz
x,y,z
-x,-y,-z
loop_
_atom_site_type_symbol
_atom_site_label
_atom_site_fract_x
_atom_site_fract_y
_atom_site_fract_z
Si Si1 0.186398 0.414959 0.845256
Si Si2 0.054760 0.298575 0.599845
Si Si3 0.241609 0.133177 0.942085
Si Si4 0.503134 0.724348 0.813559
Si Si5 0.509973 0.427897 0.263058
Si Si6 0.250407 0.852757 0.113296
Si Si7 0.500000 0.500000 0.500000
O O1 0.131851 0.294868 0.934462
O O2 0.497492 0.306131 0.801019
O O3 0.752226 0.709159 0.624656
O O4 0.000000 0.500000 0.000000
O O5 0.800496 0.466237 0.649676
O O6 0.943852 0.193508 0.739112
O O7 0.786878 0.457625 0.393159
O O8 0.236344 0.202868 0.720541
O O9 0.500000 0.000000 0.000000
O O10 0.147064 0.017094 0.090269
O O11 0.378043 0.725512 0.748570
O O12 0.561003 0.556507 0.026262
O O13 0.359252 0.852574 0.893445
O O14 0.602015 0.395773 0.393749
#
# Coordination Sequence:
#
# PCOD9008497 Si02
#       7
#     2   2   2   2   2   2   1
#     4  11  25  41  69  99 138 181 222 283 335 406
#     4  11  21  40  70  96 133 183 221 284 342 395
#     4  10  24  46  68  99 140 178 226 285 344 398
#     4  10  21  39  65 102 133 176 225 277 336 406
#     4  10  23  37  64 102 140 174 228 281 331 408
#     4  10  23  44  66 100 137 176 227 282 334 408
#     4  12  22  42  64 106 140 174 220 288 344 388
#
# _framework density 25.820875000000001
#
# number of rings (size 3 to 8) (size 9 to 14) (size 15 to 20)
#    0.000    1.538    3.077    1.846    4.308    1.846 
#    0.000    1.538    0.000    9.231    0.000    0.000 
#    0.000    0.000    0.000    0.000    0.000    0.000 
#
# Total GULP energy -72395.082795 kJ/mol
# GULP energy per Si atom -5568.852523 kJ/mol
# Density = 2.576211 g / cm^3
# Si number density = 25.820875 Si / 1000 Ang^3
#
#
#
# Elastic Constant Matrix: (Units=GPa)
#
#
# Indices 1 2 3 4 5 6 
#
# 1 157.2305 95.3621 57.7985 30.1851 0.1445 39.5029
# 2 95.3621 141.4658 68.6448 25.9954 -14.9886 23.3129
# 3 57.7985 68.6448 131.5731 46.1551 -8.5457 -10.2880
# 4 30.1851 25.9954 46.1551 39.3523 -6.8003 14.1926
# 5 0.1445 -14.9886 -8.5457 -6.8003 41.4076 13.1931
# 6 39.5029 23.3129 -10.2880 14.1926 13.1931 55.1613
#
#
#
# Elastic Compliance Matrix: (Units=1/GPa)
#
#
# Indices 1 2 3 4 5 6 
#
# 1 0.013053 -0.006103 -0.003349 0.000535 -0.000497 -0.007412
# 2 -0.006103 0.016186 -0.009100 0.009138 0.008205 -0.008481
# 3 -0.003349 -0.009100 0.025732 -0.031021 -0.009881 0.021388
# 4 0.000535 0.009138 -0.031021 0.070385 0.018867 -0.032653
# 5 -0.000497 0.008205 -0.009881 0.018867 0.033889 -0.017915
# 6 -0.007412 -0.008481 0.021388 -0.032653 -0.017915 0.043696
#
#
# Mechanical properties :
#
#
# Convention : Reuss Voigt Hill
#
# Bulk Modulus (GPa) = 55.96973 97.09780 76.53377
# Shear Modulus (GPa) = 20.32512 41.08183 30.70348
#
# Velocity S-wave (km/s) = 2.80868 3.99310 3.45207
# Velocity P-wave (km/s) = 5.67816 7.67762 6.75231
#
# Compressibility (1/GPa) = 0.01786680
#
# Stress axis : x y z
#
# Youngs Moduli (GPa) = 76.61154 61.78049 38.86248
#
# Poissons Ratio (x) = 0.37707 0.13016
# Poissons Ratio (y) = 0.46758 0.35363
# Poissons Ratio (z) = 0.25658 0.56218
#
# Static dielectric constant tensor:
#      x y z
#    x 2.139400 -0.086640 0.217670 
#    y -0.086640 1.950670 0.305480 
#    z 0.217670 0.305480 1.340670 
# 
# From -- ./inp_files/394061.got.cif
#   From: 2010.05.17/outbox.cif.g08.bks.cpg/sg2_198_cif.got.tgz:394061.got - 2010.06.03 11:33:40.
