data_PCOD9008921
_publ_section_title
;
Structure prediction by ZEFSAII (Michael W. Deem and Ramdas Pophale) SiO2 
 PCOD9008921
Probable space group: P -1
;
_chemical_formula_sum "Si O2"
_cell_formula_units_Z 16
_cell_length_a 8.614801
_cell_length_b 6.303921
_cell_length_c 16.180266
_cell_angle_alpha 67.930180
_cell_angle_beta 125.543187
_cell_angle_gamma 100.494048
_cell_volume 661.823529
_symmetry_space_group_name_H-M "P -1"
_symmetry_group_IT_number 2
_symmetry_cell_setting 'triclinic'
loop_
_space_group_symop_operation_xyz
x,y,z
-x,-y,-z
loop_
_atom_site_type_symbol
_atom_site_label
_atom_site_fract_x
_atom_site_fract_y
_atom_site_fract_z
Si Si1 0.723445 0.889660 0.960508
Si Si2 0.204620 0.877234 0.566358
Si Si3 0.626389 0.355753 0.684280
Si Si4 0.069421 0.438434 0.655327
Si Si5 0.657420 0.258389 0.532479
Si Si6 0.630904 0.930725 0.246748
Si Si7 0.001511 0.760822 0.928794
Si Si8 0.955867 0.483311 0.179470
O O1 0.814894 0.876705 0.898063
O O2 0.496948 0.918167 0.878204
O O3 0.800907 0.662135 0.064888
O O4 0.821266 0.101156 0.003971
O O5 0.161001 0.609872 0.595037
O O6 0.287141 0.926227 0.494085
O O7 0.325896 0.940848 0.673775
O O8 0.000000 0.000000 0.500000
O O9 0.625274 0.190700 0.627354
O O10 0.517751 0.585983 0.581429
O O11 0.508317 0.265693 0.737328
O O12 0.840465 0.399446 0.771209
O O13 0.181510 0.193923 0.715583
O O14 0.098488 0.549051 0.737997
O O15 0.845278 0.409646 0.578473
O O16 0.012667 0.735689 0.837598
O O17 0.000000 0.500000 0.000000
#
# Coordination Sequence:
#
# PCOD9008921 Si02
#       8
#     2   2   2   2   2   2   2   2
#     4  10  22  39  61  93 128 164 211 259 304 368
#     4  12  24  41  67  92 124 171 207 251 320 385
#     4  10  21  39  66  93 124 162 202 263 313 362
#     4  11  24  44  63  90 131 166 206 259 315 372
#     4  10  21  42  64  90 126 162 206 258 315 367
#     4  12  24  39  65  94 127 167 208 254 312 373
#     4   9  18  37  61  87 125 163 202 257 313 354
#     4  10  23  42  66  91 127 169 208 259 310 368
#
# _framework density 24.175629000000001
#
# number of rings (size 3 to 8) (size 9 to 14) (size 15 to 20)
#    0.000    1.500    2.500    3.375    1.750    4.000 
#    2.250    1.250    0.000    0.000    0.000    0.000 
#    0.000    0.000    0.000    0.000    0.000    0.000 
#
# Total GULP energy -89507.665610 kJ/mol
# GULP energy per Si atom -5594.229101 kJ/mol
# Density = 2.412060 g / cm^3
# Si number density = 24.175629 Si / 1000 Ang^3
#
#
#
# Elastic Constant Matrix: (Units=GPa)
#
#
# Indices 1 2 3 4 5 6 
#
# 1 65.4717 13.0680 15.9787 -1.9355 -12.3990 -17.7045
# 2 13.0680 70.6996 15.2953 17.5492 -4.1716 -22.7409
# 3 15.9787 15.2953 100.6802 -5.4681 9.8683 -15.0844
# 4 -1.9355 17.5492 -5.4681 34.7176 -17.1380 -8.8044
# 5 -12.3990 -4.1716 9.8683 -17.1380 44.6374 8.6412
# 6 -17.7045 -22.7409 -15.0844 -8.8044 8.6412 39.5472
#
#
#
# Elastic Compliance Matrix: (Units=1/GPa)
#
#
# Indices 1 2 3 4 5 6 
#
# 1 0.019627 -0.002408 -0.002062 0.007210 0.007163 0.006655
# 2 -0.002408 0.019950 -0.001557 -0.010338 -0.004052 0.008384
# 3 -0.002062 -0.001557 0.011464 0.001791 -0.003275 0.003669
# 4 0.007210 -0.010338 0.001791 0.044023 0.016747 0.004108
# 5 0.007163 -0.004052 -0.003275 0.016747 0.031866 -0.003607
# 6 0.006655 0.008384 0.003669 0.004108 -0.003607 0.036189
#
#
# Mechanical properties :
#
#
# Convention : Reuss Voigt Hill
#
# Bulk Modulus (GPa) = 25.64958 36.17060 30.91009
# Shear Modulus (GPa) = 26.57188 36.61441 31.59315
#
# Velocity S-wave (km/s) = 3.31889 3.89590 3.61892
# Velocity P-wave (km/s) = 5.03184 5.93561 5.50231
#
# Compressibility (1/GPa) = 0.03898699
#
# Stress axis : x y z
#
# Youngs Moduli (GPa) = 50.94998 50.12530 87.22770
#
# Poissons Ratio (x) = 0.12070 0.17990
# Poissons Ratio (y) = 0.12269 0.13579
# Poissons Ratio (z) = 0.10508 0.07803
#
# Static dielectric constant tensor:
#      x y z
#    x 1.958300 -0.022690 -0.016000 
#    y -0.022690 1.976540 -0.020160 
#    z -0.016000 -0.020160 1.918390 
# 
# From -- ./inp_files/84876.got.cif
#   From: 2010.05.17/outbox.cif.g08.bks.cpg/sg2_43_cif.got.tgz:84876.got - 2010.06.03 11:33:40.
