data_PCOD9008217
_publ_section_title
;
Structure prediction by ZEFSAII (Michael W. Deem and Ramdas Pophale) SiO2 
 PCOD9008217
Probable space group: P -1
;
_chemical_formula_sum "Si O2"
_cell_formula_units_Z 16
_cell_length_a 12.524666
_cell_length_b 9.636159
_cell_length_c 31.140305
_cell_angle_alpha 32.121477
_cell_angle_beta 25.374830
_cell_angle_gamma 46.468548
_cell_volume 806.716963
_symmetry_space_group_name_H-M "P -1"
_symmetry_group_IT_number 2
_symmetry_cell_setting 'triclinic'
loop_
_space_group_symop_operation_xyz
x,y,z
-x,-y,-z
loop_
_atom_site_type_symbol
_atom_site_label
_atom_site_fract_x
_atom_site_fract_y
_atom_site_fract_z
Si Si1 0.605787 0.685418 0.352146
Si Si2 0.485542 0.694638 0.595395
Si Si3 0.059480 0.263395 0.015652
Si Si4 0.953291 0.840091 0.454806
Si Si5 0.602399 0.196700 0.869145
Si Si6 0.814398 0.708279 0.129015
Si Si7 0.127069 0.658003 0.593366
Si Si8 0.265348 0.769141 0.282238
O O1 0.482850 0.480215 0.411025
O O2 0.368635 0.746874 0.447823
O O3 0.759724 0.521518 0.367674
O O4 0.828864 0.967974 0.182082
O O5 0.699716 0.739902 0.542617
O O6 0.219750 0.509130 0.763780
O O7 0.500000 0.000000 0.500000
O O8 0.340010 0.253508 0.933260
O O9 0.072007 0.367971 0.935167
O O10 0.000000 0.500000 0.000000
O O11 0.933045 0.554258 0.561693
O O12 0.178422 0.916071 0.316069
O O13 0.928537 0.084062 0.430373
O O14 0.707130 0.107866 0.808541
O O15 0.851211 0.458001 0.726126
O O16 0.500000 0.000000 0.000000
O O17 0.546292 0.754450 0.198776
O O18 0.000000 0.000000 0.000000
#
# Coordination Sequence:
#
# PCOD9008217 Si02
#       8
#     2   2   2   2   2   2   2   2
#     4  11  23  41  65  98 132 169 220 274 329 391
#     4  11  21  38  66  92 125 166 212 265 326 381
#     4  11  25  43  67  95 134 174 217 269 337 395
#     4  10  21  42  64  93 123 167 216 268 328 378
#     4  11  23  45  64  92 134 175 208 271 334 392
#     4  10  21  39  64  90 125 168 213 264 323 386
#     4  11  24  39  67  95 129 170 221 271 325 395
#     4   9  22  40  64  89 128 163 213 271 317 387
#
# _framework density 19.833475
#
# number of rings (size 3 to 8) (size 9 to 14) (size 15 to 20)
#    0.000    1.500    3.750    0.750    5.250    1.500 
#    4.500    0.625    0.000    0.000    0.000    0.000 
#    0.000    0.000    0.000    0.000    0.000    0.000 
#
# Total GULP energy -89099.569957 kJ/mol
# GULP energy per Si atom -5568.723122 kJ/mol
# Density = 1.978833 g / cm^3
# Si number density = 19.833475 Si / 1000 Ang^3
#
#
#
# Elastic Constant Matrix: (Units=GPa)
#
#
# Indices 1 2 3 4 5 6 
#
# 1 81.5902 37.1971 39.8992 1.4593 6.8234 22.4057
# 2 37.1971 136.1738 52.0926 3.4206 6.3519 43.0504
# 3 39.8992 52.0926 96.1751 8.9154 0.1606 8.6416
# 4 1.4593 3.4206 8.9154 23.9918 7.0787 4.8924
# 5 6.8234 6.3519 0.1606 7.0787 43.7702 0.5728
# 6 22.4057 43.0504 8.6416 4.8924 0.5728 34.7633
#
#
#
# Elastic Compliance Matrix: (Units=1/GPa)
#
#
# Indices 1 2 3 4 5 6 
#
# 1 0.019556 0.002622 -0.008774 0.005865 -0.004157 -0.014428
# 2 0.002622 0.016562 -0.008738 0.005997 -0.003478 -0.020815
# 3 -0.008774 -0.008738 0.018410 -0.008860 0.003830 0.013084
# 4 0.005865 0.005997 -0.008860 0.049829 -0.009603 -0.015859
# 5 -0.004157 -0.003478 0.003830 -0.009603 0.025447 0.006966
# 6 -0.014428 -0.020815 0.013084 -0.015859 0.006966 0.062706
#
#
# Mechanical properties :
#
#
# Convention : Reuss Voigt Hill
#
# Bulk Modulus (GPa) = 40.40701 63.59076 51.99889
# Shear Modulus (GPa) = 21.68820 32.82175 27.25497
#
# Velocity S-wave (km/s) = 3.31042 4.07242 3.71103
# Velocity P-wave (km/s) = 5.91855 7.36510 6.68109
#
# Compressibility (1/GPa) = 0.02474818
#
# Stress axis : x y z
#
# Youngs Moduli (GPa) = 51.13476 60.37844 54.31833
#
# Poissons Ratio (x) = -0.15832 0.47658
# Poissons Ratio (y) = -0.13408 0.47466
# Poissons Ratio (z) = 0.44864 0.52762
#
# Static dielectric constant tensor:
#      x y z
#    x 1.684290 -0.018890 0.143710 
#    y -0.018890 1.702840 0.060160 
#    z 0.143710 0.060160 1.665150 
# 
# From -- ./inp_files/349662.got.cif
#   From: 2010.05.17/outbox.cif.g08.bks.cpg/sg2_175_cif.got.tgz:349662.got - 2010.06.03 11:33:40.
