data_PCOD9008123
_publ_section_title
;
Structure prediction by ZEFSAII (Michael W. Deem and Ramdas Pophale) SiO2 
 PCOD9008123
Probable space group: P -1
;
_chemical_formula_sum "Si O2"
_cell_formula_units_Z 15
_cell_length_a 11.932657
_cell_length_b 9.460513
_cell_length_c 8.255498
_cell_angle_alpha 67.767416
_cell_angle_beta 117.495044
_cell_angle_gamma 128.273139
_cell_volume 643.269719
_symmetry_space_group_name_H-M "P -1"
_symmetry_group_IT_number 2
_symmetry_cell_setting 'triclinic'
loop_
_space_group_symop_operation_xyz
x,y,z
-x,-y,-z
loop_
_atom_site_type_symbol
_atom_site_label
_atom_site_fract_x
_atom_site_fract_y
_atom_site_fract_z
Si Si1 0.673733 0.281296 0.925660
Si Si2 0.241131 0.656200 0.511687
Si Si3 0.383097 0.117920 0.977676
Si Si4 0.523465 0.352389 0.500852
Si Si5 0.279325 0.022100 0.305458
Si Si6 0.065386 0.591006 0.756720
Si Si7 0.000000 0.000000 0.000000
Si Si8 0.083715 0.955946 0.710363
O O1 0.553601 0.262045 0.985029
O O2 0.611520 0.309598 0.708940
O O3 0.843342 0.427796 0.027585
O O4 0.650719 0.084169 0.984669
O O5 0.361758 0.600016 0.593270
O O6 0.162892 0.611832 0.653769
O O7 0.104755 0.557898 0.334552
O O8 0.313361 0.869748 0.437022
O O9 0.259366 0.117851 0.782213
O O10 0.350845 0.124315 0.140047
O O11 0.500000 0.500000 0.500000
O O12 0.361047 0.177488 0.426181
O O13 0.104352 0.938933 0.191385
O O14 0.073852 0.776788 0.716602
O O15 0.976271 0.070319 0.133171
O O16 0.000000 0.000000 0.500000
#
# Coordination Sequence:
#
# PCOD9008123 Si02
#       8
#     2   2   2   2   2   2   1   2
#     4  10  21  40  65  99 130 173 227 282 343 409
#     4  11  24  45  69  99 136 185 238 279 352 419
#     4   9  20  38  67  98 124 180 233 269 341 410
#     4  12  28  42  67 103 138 181 227 295 353 407
#     4  11  23  44  67  97 133 183 228 286 338 427
#     4  10  24  42  69  99 135 186 234 288 339 424
#     4  10  24  38  66 104 138 174 232 278 356 412
#     4  10  21  39  64 102 141 184 224 291 349 416
#
# _framework density 23.318369000000001
#
# number of rings (size 3 to 8) (size 9 to 14) (size 15 to 20)
#    0.000    1.600    1.333    2.000    9.333    1.600 
#    0.000    5.333    0.000    0.000    0.000    0.000 
#    0.000    0.000    0.000    0.000    0.000    0.000 
#
# Total GULP energy -83545.547208 kJ/mol
# GULP energy per Si atom -5569.703147 kJ/mol
# Density = 2.326530 g / cm^3
# Si number density = 23.318369 Si / 1000 Ang^3
#
#
#
# Elastic Constant Matrix: (Units=GPa)
#
#
# Indices 1 2 3 4 5 6 
#
# 1 61.0147 23.9095 10.3832 -3.5249 15.1030 -25.3951
# 2 23.9095 84.0879 26.2558 25.9468 12.2978 -11.7975
# 3 10.3832 26.2558 120.0052 28.3616 18.0742 1.2244
# 4 -3.5249 25.9468 28.3616 27.0696 1.1488 2.5288
# 5 15.1030 12.2978 18.0742 1.1488 38.3912 6.8929
# 6 -25.3951 -11.7975 1.2244 2.5288 6.8929 30.9748
#
#
#
# Elastic Compliance Matrix: (Units=1/GPa)
#
#
# Indices 1 2 3 4 5 6 
#
# 1 0.037170 -0.006375 -0.002097 0.010983 -0.017511 0.031129
# 2 -0.006375 0.022726 0.002537 -0.025639 -0.006430 0.006853
# 3 -0.002097 0.002537 0.012502 -0.015685 -0.005635 0.001287
# 4 0.010983 -0.025639 -0.015685 0.079775 0.010504 -0.008991
# 5 -0.017511 -0.006430 -0.005635 0.010504 0.042150 -0.026820
# 6 0.031129 0.006853 0.001287 -0.008991 -0.026820 0.067068
#
#
# Mechanical properties :
#
#
# Convention : Reuss Voigt Hill
#
# Bulk Modulus (GPa) = 16.52119 42.91164 29.71642
# Shear Modulus (GPa) = 17.03955 32.92440 24.98198
#
# Velocity S-wave (km/s) = 2.70614 3.76167 3.27669
# Velocity P-wave (km/s) = 4.10667 6.10814 5.20452
#
# Compressibility (1/GPa) = 0.06052833
#
# Stress axis : x y z
#
# Youngs Moduli (GPa) = 26.90365 44.00282 79.98869
#
# Poissons Ratio (x) = 0.28050 0.16775
# Poissons Ratio (y) = 0.17150 -0.20296
# Poissons Ratio (z) = 0.05642 -0.11165
#
# Static dielectric constant tensor:
#      x y z
#    x 2.039660 0.003520 -0.042650 
#    y 0.003520 1.827300 0.010290 
#    z -0.042650 0.010290 1.873330 
# 
# From -- ./inp_files/238006.got.cif
#   From: 2010.05.17/outbox.cif.g08.bks.cpg/sg2_120_cif.got.tgz:238006.got - 2010.06.03 11:33:40.
