data_PCOD9008523
_publ_section_title
;
Structure prediction by ZEFSAII (Michael W. Deem and Ramdas Pophale) SiO2 
 PCOD9008523
Probable space group: P -1
;
_chemical_formula_sum "Si O2"
_cell_formula_units_Z 14
_cell_length_a 9.436864
_cell_length_b 14.298287
_cell_length_c 9.686511
_cell_angle_alpha 51.258451
_cell_angle_beta 43.462257
_cell_angle_gamma 50.131891
_cell_volume 657.375965
_symmetry_space_group_name_H-M "P -1"
_symmetry_group_IT_number 2
_symmetry_cell_setting 'triclinic'
loop_
_space_group_symop_operation_xyz
x,y,z
-x,-y,-z
loop_
_atom_site_type_symbol
_atom_site_label
_atom_site_fract_x
_atom_site_fract_y
_atom_site_fract_z
Si Si1 0.716739 0.685232 0.278876
Si Si2 0.377268 0.142167 0.289815
Si Si3 0.217046 0.540921 0.048535
Si Si4 0.215301 0.076706 0.895000
Si Si5 0.049984 0.845687 0.267601
Si Si6 0.472628 0.317716 0.280580
Si Si7 0.522938 0.664307 0.155312
O O1 0.754300 0.820881 0.116250
O O2 0.618266 0.684931 0.500487
O O3 0.561584 0.664750 0.289465
O O4 0.957724 0.579809 0.188890
O O5 0.476976 0.197599 0.296575
O O6 0.137612 0.148750 0.496307
O O7 0.545888 0.003782 0.261684
O O8 0.375987 0.236297 0.078075
O O9 0.295008 0.661550 0.902559
O O10 0.346723 0.468431 0.888737
O O11 0.310025 0.441300 0.199870
O O12 0.058402 0.145701 0.814860
O O13 0.124128 0.969174 0.115989
O O14 0.265822 0.720358 0.247212
#
# Coordination Sequence:
#
# PCOD9008523 Si02
#       7
#     2   2   2   2   2   2   2
#     4  12  24  40  63  92 124 160 199 253 300 359
#     4  10  21  41  64  90 125 159 197 250 303 357
#     4  10  24  41  62  88 124 158 205 253 295 358
#     4  10  23  36  66  94 119 155 212 243 295 360
#     4  10  21  39  65  87 125 160 196 251 296 356
#     4  10  23  38  66  92 116 155 214 246 299 354
#     4  10  25  42  59  91 127 159 201 245 310 356
#
# _framework density 21.296793999999998
#
# number of rings (size 3 to 8) (size 9 to 14) (size 15 to 20)
#    0.000    1.714    1.429    1.286   10.000    6.286 
#    0.000    1.429    0.000    0.000    0.000    0.000 
#    0.000    0.000    0.000    0.000    0.000    0.000 
#
# Total GULP energy -78311.965381 kJ/mol
# GULP energy per Si atom -5593.711813 kJ/mol
# Density = 2.124832 g / cm^3
# Si number density = 21.296794 Si / 1000 Ang^3
#
#
#
# Elastic Constant Matrix: (Units=GPa)
#
#
# Indices 1 2 3 4 5 6 
#
# 1 26.0978 11.4895 8.2766 16.9293 6.0510 0.2450
# 2 11.4895 61.5193 10.9714 18.7942 6.4504 -1.5606
# 3 8.2766 10.9714 53.7649 16.1829 -6.5766 3.0870
# 4 16.9293 18.7942 16.1829 25.9601 1.8849 -6.8426
# 5 6.0510 6.4504 -6.5766 1.8849 25.1754 15.6182
# 6 0.2450 -1.5606 3.0870 -6.8426 15.6182 26.6191
#
#
#
# Elastic Compliance Matrix: (Units=1/GPa)
#
#
# Indices 1 2 3 4 5 6 
#
# 1 0.072792 0.002654 0.005040 -0.055440 -0.005009 -0.012412
# 2 0.002654 0.021436 -0.000321 -0.016750 -0.004837 -0.000198
# 3 0.005040 -0.000321 0.032900 -0.033133 0.027732 -0.028669
# 4 -0.055440 -0.016750 -0.033133 0.124794 -0.035179 0.056090
# 5 -0.005009 -0.004837 0.027732 -0.035179 0.094017 -0.067659
# 6 -0.012412 -0.000198 -0.028669 0.056090 -0.067659 0.095110
#
#
# Mechanical properties :
#
#
# Convention : Reuss Voigt Hill
#
# Bulk Modulus (GPa) = 7.04855 22.53965 14.79410
# Shear Modulus (GPa) = 10.55753 22.92723 16.74238
#
# Velocity S-wave (km/s) = 2.22892 3.28465 2.80687
# Velocity P-wave (km/s) = 3.15293 4.99918 4.17928
#
# Compressibility (1/GPa) = 0.14187313
#
# Stress axis : x y z
#
# Youngs Moduli (GPa) = 13.73781 46.65027 30.39472
#
# Poissons Ratio (x) = -0.12380 -0.15319
# Poissons Ratio (y) = -0.03646 0.00977
# Poissons Ratio (z) = -0.06924 0.01500
#
# Static dielectric constant tensor:
#      x y z
#    x 1.747960 0.001710 -0.003340 
#    y 0.001710 1.776870 -0.035500 
#    z -0.003340 -0.035500 1.771200 
# 
# From -- ./inp_files/178553.got.cif
#   From: 2010.05.17/outbox.cif.g08.bks.cpg/sg2_90_cif.got.tgz:178553.got - 2010.06.03 11:33:40.
