data_PCOD9008345
_publ_section_title
;
Structure prediction by ZEFSAII (Michael W. Deem and Ramdas Pophale) SiO2 
 PCOD9008345
Probable space group: P -1
;
_chemical_formula_sum "Si O2"
_cell_formula_units_Z 14
_cell_length_a 9.414117
_cell_length_b 9.210668
_cell_length_c 16.903309
_cell_angle_alpha 131.955633
_cell_angle_beta 132.917100
_cell_angle_gamma 84.009329
_cell_volume 610.488274
_symmetry_space_group_name_H-M "P -1"
_symmetry_group_IT_number 2
_symmetry_cell_setting 'triclinic'
loop_
_space_group_symop_operation_xyz
x,y,z
-x,-y,-z
loop_
_atom_site_type_symbol
_atom_site_label
_atom_site_fract_x
_atom_site_fract_y
_atom_site_fract_z
Si Si1 0.842563 0.288323 0.730392
Si Si2 0.475227 0.130884 0.664370
Si Si3 0.714387 0.266667 0.135491
Si Si4 0.610075 0.661900 0.885841
Si Si5 0.894011 0.796222 0.713618
Si Si6 0.413599 0.662430 0.055881
Si Si7 0.641863 0.581642 0.703116
O O1 0.691728 0.148504 0.704407
O O2 0.770028 0.457214 0.730059
O O3 0.766104 0.090136 0.558985
O O4 0.138415 0.466577 0.920101
O O5 0.571157 0.408773 0.783567
O O6 0.434596 0.117686 0.738688
O O7 0.653378 0.431093 0.213056
O O8 0.980255 0.337375 0.278401
O O9 0.638401 0.244418 0.007869
O O10 0.500000 0.000000 0.000000
O O11 0.651242 0.734447 0.835785
O O12 0.867597 0.913260 0.113393
O O13 0.775671 0.759631 0.742004
O O14 0.654325 0.646107 0.510843
O O15 0.500000 0.500000 0.000000
#
# Coordination Sequence:
#
# PCOD9008345 Si02
#       7
#     2   2   2   2   2   2   2
#     4  10  23  43  64  98 133 160 217 271 314 388
#     4  10  23  42  67  97 128 169 210 265 328 377
#     4  10  22  44  62  94 131 167 216 263 312 387
#     4  10  21  40  64  91 129 165 210 264 318 379
#     4  10  21  40  64  89 127 167 215 265 314 380
#     4  12  23  43  68  95 127 176 215 261 328 379
#     4  10  21  39  64  94 121 166 218 265 321 369
#
# _framework density 22.932462999999998
#
# number of rings (size 3 to 8) (size 9 to 14) (size 15 to 20)
#    0.000    1.714    2.857    0.857    0.000    6.857 
#   10.286    0.000    0.000    0.000    0.000    0.000 
#    0.000    0.000    0.000    0.000    0.000    0.000 
#
# Total GULP energy -78055.777306 kJ/mol
# GULP energy per Si atom -5575.412665 kJ/mol
# Density = 2.288027 g / cm^3
# Si number density = 22.932463 Si / 1000 Ang^3
#
#
#
# Elastic Constant Matrix: (Units=GPa)
#
#
# Indices 1 2 3 4 5 6 
#
# 1 78.6348 4.6663 18.0836 -22.8995 -22.7792 -6.6280
# 2 4.6663 60.6244 -8.7832 -10.1967 -15.5018 -1.8153
# 3 18.0836 -8.7832 -41.0345 -16.8871 -62.7112 -9.2205
# 4 -22.8995 -10.1967 -16.8871 24.3437 -1.7609 4.0178
# 5 -22.7792 -15.5018 -62.7112 -1.7609 13.0490 2.9399
# 6 -6.6280 -1.8153 -9.2205 4.0178 2.9399 20.8772
#
#
#
# Elastic Compliance Matrix: (Units=1/GPa)
#
#
# Indices 1 2 3 4 5 6 
#
# 1 0.020535 0.001587 -0.007026 0.015603 0.006141 -0.000313
# 2 0.001587 0.016539 -0.004853 0.005261 0.000080 -0.001225
# 3 -0.007026 -0.004853 0.000860 -0.009458 -0.015564 0.001739
# 4 0.015603 0.005261 -0.009458 0.052582 -0.002963 -0.008468
# 5 0.006141 0.000080 -0.015564 -0.002963 0.013664 -0.006271
# 6 -0.000313 -0.001225 0.001739 -0.008468 -0.006271 0.050974
#
#
# Mechanical properties :
#
#
# Convention : Reuss Voigt Hill
#
# Bulk Modulus (GPa) = 57.64103 14.01755 35.82929
# Shear Modulus (GPa) = 27.54475 17.27119 22.40797
#
# Velocity S-wave (km/s) = 3.46948 2.74730 3.12930
# Velocity P-wave (km/s) = 6.42180 4.02360 5.35858
#
# Compressibility (1/GPa) = 0.01734875
#
# Stress axis : x y z
#
# Youngs Moduli (GPa) = 48.69667 60.46490 1162.21061
#
# Poissons Ratio (x) = -0.09595 8.16618
# Poissons Ratio (y) = -0.07727 5.64035
# Poissons Ratio (z) = 0.34216 0.29344
#
# Static dielectric constant tensor:
#      x y z
#    x 2.188430 -0.113800 -0.089830 
#    y -0.113800 1.998960 0.007310 
#    z -0.089830 0.007310 1.857950 
# 
# From -- ./inp_files/559324.got.cif
#   From: 2010.05.17/outbox.cif.g08.bks.cpg/sg2_280_cif.got.tgz:559324.got - 2010.06.03 11:33:40.
