data_PCOD9008090
_publ_section_title
;
Structure prediction by ZEFSAII (Michael W. Deem and Ramdas Pophale) SiO2 
 PCOD9008090
Probable space group: P -1
;
_chemical_formula_sum "Si O2"
_cell_formula_units_Z 14
_cell_length_a 11.928234
_cell_length_b 7.499050
_cell_length_c 11.225586
_cell_angle_alpha 99.488558
_cell_angle_beta 140.578121
_cell_angle_gamma 93.625661
_cell_volume 599.103970
_symmetry_space_group_name_H-M "P -1"
_symmetry_group_IT_number 2
_symmetry_cell_setting 'triclinic'
loop_
_space_group_symop_operation_xyz
x,y,z
-x,-y,-z
loop_
_atom_site_type_symbol
_atom_site_label
_atom_site_fract_x
_atom_site_fract_y
_atom_site_fract_z
Si Si1 0.377566 0.821136 0.477663
Si Si2 0.155318 0.498166 0.439566
Si Si3 0.844353 0.966733 0.155938
Si Si4 0.199264 0.686981 0.754830
Si Si5 0.788252 0.014010 0.847437
Si Si6 0.236432 0.116684 0.507949
Si Si7 0.587597 0.724594 0.089975
O O1 0.264385 0.648890 0.449359
O O2 0.596714 0.837385 0.646568
O O3 0.260524 0.831145 0.261915
O O4 0.384582 0.020567 0.570756
O O5 0.204236 0.581001 0.623393
O O6 0.210046 0.304366 0.444761
O O7 0.930718 0.443307 0.265194
O O8 0.879101 0.136296 0.300049
O O9 0.047045 0.946279 0.313132
O O10 0.688305 0.787323 0.055656
O O11 0.792187 0.037768 0.995424
O O12 0.409613 0.792037 0.970424
O O13 0.000000 0.000000 0.000000
O O14 0.277407 0.184529 0.683181
O O15 0.500000 0.500000 0.000000
#
# Coordination Sequence:
#
# PCOD9008090 Si02
#       7
#     2   2   2   2   2   2   2
#     4  11  24  45  77  95 137 186 225 289 346 390
#     4  10  22  42  66 104 138 175 220 287 337 414
#     4  11  23  41  68  92 140 184 222 285 337 407
#     4  10  21  39  63  97 143 168 225 272 345 415
#     4  11  24  46  71 101 129 183 244 280 337 402
#     4  11  23  42  68 103 140 177 227 273 350 420
#     4  12  23  35  63 105 134 177 218 274 347 409
#
# _framework density 23.368227999999998
#
# number of rings (size 3 to 8) (size 9 to 14) (size 15 to 20)
#    0.000    1.143    2.857    3.429    2.000    0.000 
#    0.000    5.714    3.143    0.000    0.000    0.000 
#    0.000    0.000    0.000    0.000    0.000    0.000 
#
# Total GULP energy -77985.747208 kJ/mol
# GULP energy per Si atom -5570.410515 kJ/mol
# Density = 2.331504 g / cm^3
# Si number density = 23.368228 Si / 1000 Ang^3
#
#
#
# Elastic Constant Matrix: (Units=GPa)
#
#
# Indices 1 2 3 4 5 6 
#
# 1 104.4549 66.5924 48.8390 1.6795 17.1538 25.7064
# 2 66.5924 117.8156 37.5649 18.7243 19.1981 39.4446
# 3 48.8390 37.5649 149.0532 -13.4064 27.8589 26.5189
# 4 1.6795 18.7243 -13.4064 25.3471 0.2598 7.8971
# 5 17.1538 19.1981 27.8589 0.2598 47.5213 4.7790
# 6 25.7064 39.4446 26.5189 7.8971 4.7790 47.5462
#
#
#
# Elastic Compliance Matrix: (Units=1/GPa)
#
#
# Indices 1 2 3 4 5 6 
#
# 1 0.016725 -0.008912 -0.002507 0.004438 -0.000901 -0.000897
# 2 -0.008912 0.018770 -0.000795 -0.011123 -0.003018 -0.008159
# 3 -0.002507 -0.000795 0.009960 0.007419 -0.004216 -0.004349
# 4 0.004438 -0.011123 0.007419 0.053189 -0.001143 -0.006030
# 5 -0.000901 -0.003018 -0.004216 -0.001143 0.024760 0.003044
# 6 -0.000897 -0.008159 -0.004349 -0.006030 0.003044 0.031407
#
#
# Mechanical properties :
#
#
# Convention : Reuss Voigt Hill
#
# Bulk Modulus (GPa) = 47.55814 75.25737 61.40775
# Shear Modulus (GPa) = 26.84616 38.63808 32.74212
#
# Velocity S-wave (km/s) = 3.39312 4.07067 3.74724
# Velocity P-wave (km/s) = 5.97886 7.37351 6.71251
#
# Compressibility (1/GPa) = 0.02102689
#
# Stress axis : x y z
#
# Youngs Moduli (GPa) = 59.79197 53.27722 100.40425
#
# Poissons Ratio (x) = 0.47481 0.25168
# Poissons Ratio (y) = 0.53287 0.07981
# Poissons Ratio (z) = 0.14988 0.04235
#
# Static dielectric constant tensor:
#      x y z
#    x 8.658320 -3.493340 6.708900 
#    y -3.493340 3.738560 -3.492450 
#    z 6.708900 -3.492450 8.579210 
# 
# From -- ./inp_files/417468.got.cif
#   From: 2010.05.17/outbox.cif.g08.bks.cpg/sg2_209_cif.got.tgz:417468.got - 2010.06.03 11:33:40.
