data_PCOD9008934
_publ_section_title
;
Structure prediction by ZEFSAII (Michael W. Deem and Ramdas Pophale) SiO2 
 PCOD9008934
Probable space group: P -1
;
_chemical_formula_sum "Si O2"
_cell_formula_units_Z 16
_cell_length_a 12.114976
_cell_length_b 15.224714
_cell_length_c 9.060007
_cell_angle_alpha 61.464559
_cell_angle_beta 149.596153
_cell_angle_gamma 126.508107
_cell_volume 677.189450
_symmetry_space_group_name_H-M "P -1"
_symmetry_group_IT_number 2
_symmetry_cell_setting 'triclinic'
loop_
_space_group_symop_operation_xyz
x,y,z
-x,-y,-z
loop_
_atom_site_type_symbol
_atom_site_label
_atom_site_fract_x
_atom_site_fract_y
_atom_site_fract_z
Si Si1 0.449936 0.278820 0.238946
Si Si2 0.710478 0.469504 0.184894
Si Si3 0.784706 0.321980 0.869835
Si Si4 0.473556 0.100549 0.215495
Si Si5 0.004274 0.863260 0.176776
Si Si6 0.501421 0.879199 0.099429
Si Si7 0.974838 0.954907 0.754588
Si Si8 0.743206 0.514816 0.846093
O O1 0.614808 0.350261 0.243087
O O2 0.584904 0.309741 0.524331
O O3 0.401613 0.157203 0.223540
O O4 0.175149 0.265427 0.922671
O O5 0.000000 0.500000 0.500000
O O6 0.500000 0.500000 0.000000
O O7 0.685171 0.494189 0.966762
O O8 0.692608 0.209047 0.945961
O O9 0.808059 0.417342 0.935938
O O10 0.038817 0.369430 0.038846
O O11 0.716718 0.100895 0.552476
O O12 0.528244 0.160540 0.072008
O O13 0.251028 0.985830 0.013492
O O14 0.019012 0.925059 0.300338
O O15 0.926227 0.899195 0.902899
O O16 0.764092 0.893990 0.448061
O O17 0.500000 0.000000 0.000000
O O18 0.500000 0.500000 0.500000
#
# Coordination Sequence:
#
# PCOD9008934 Si02
#       8
#     2   2   2   2   2   2   2   2
#     4  11  24  44  72 104 142 195 251 309 386 463
#     4  12  27  48  79 113 153 195 251 325 397 469
#     4  11  25  48  74 106 151 197 257 317 390 460
#     4  11  24  39  65 101 140 187 251 306 374 448
#     4  10  21  39  66  93 133 185 244 302 360 449
#     4  12  24  45  68 101 151 197 246 312 380 459
#     4  10  21  41  62  93 135 185 243 300 364 441
#     4  11  26  50  79 111 148 194 259 326 395 467
#
# _framework density 23.627067
#
# number of rings (size 3 to 8) (size 9 to 14) (size 15 to 20)
#    0.000    1.000    3.750    2.250    3.500    3.000 
#    4.500    0.000    0.000    0.000    0.000    0.000 
#    0.000    0.000    0.000    0.000    0.000    0.000 
#
# Total GULP energy -89089.908145 kJ/mol
# GULP energy per Si atom -5568.119259 kJ/mol
# Density = 2.357329 g / cm^3
# Si number density = 23.627067 Si / 1000 Ang^3
#
#
#
# Elastic Constant Matrix: (Units=GPa)
#
#
# Indices 1 2 3 4 5 6 
#
# 1 151.0311 47.9724 41.4678 0.0205 -17.2111 31.9140
# 2 47.9724 100.3673 30.4166 18.6341 0.9929 45.0940
# 3 41.4678 30.4166 138.2359 6.4038 -9.3552 22.9896
# 4 0.0205 18.6341 6.4038 22.1231 14.7970 1.5132
# 5 -17.2111 0.9929 -9.3552 14.7970 39.3816 3.1475
# 6 31.9140 45.0940 22.9896 1.5132 3.1475 50.9059
#
#
#
# Elastic Compliance Matrix: (Units=1/GPa)
#
#
# Indices 1 2 3 4 5 6 
#
# 1 0.008859 -0.002642 -0.001368 0.000318 0.003720 -0.002836
# 2 -0.002642 0.025275 0.000621 -0.026787 0.010086 -0.020841
# 3 -0.001368 0.000621 0.008607 -0.005230 0.003688 -0.003652
# 4 0.000318 -0.026787 -0.005230 0.092406 -0.037181 0.025443
# 5 0.003720 0.010086 0.003688 -0.037181 0.042767 -0.014471
# 6 -0.002836 -0.020841 -0.003652 0.025443 -0.014471 0.041671
#
#
# Mechanical properties :
#
#
# Convention : Reuss Voigt Hill
#
# Bulk Modulus (GPa) = 27.80628 69.92755 48.86692
# Shear Modulus (GPa) = 20.97758 40.46728 30.72243
#
# Velocity S-wave (km/s) = 2.98293 4.14303 3.60989
# Velocity P-wave (km/s) = 4.86397 7.24892 6.17273
#
# Compressibility (1/GPa) = 0.03596310
#
# Stress axis : x y z
#
# Youngs Moduli (GPa) = 112.88167 39.56495 116.18572
#
# Poissons Ratio (x) = 0.10452 0.15889
# Poissons Ratio (y) = 0.29820 -0.07210
# Poissons Ratio (z) = 0.15438 -0.02455
#
# Static dielectric constant tensor:
#      x y z
#    x 2.083300 0.021900 0.284850 
#    y 0.021900 2.065160 0.044120 
#    z 0.284850 0.044120 2.145490 
# 
# From -- ./inp_files/279262.got.cif
#   From: 2010.05.17/outbox.cif.g08.bks.cpg/sg2_140_cif.got.tgz:279262.got - 2010.06.03 11:33:40.
