data_PCOD9008323
_publ_section_title
;
Structure prediction by ZEFSAII (Michael W. Deem and Ramdas Pophale) SiO2 
 PCOD9008323
Probable space group: P -1
;
_chemical_formula_sum "Si O2"
_cell_formula_units_Z 16
_cell_length_a 11.137165
_cell_length_b 12.307315
_cell_length_c 12.528505
_cell_angle_alpha 35.239473
_cell_angle_beta 132.937491
_cell_angle_gamma 111.828342
_cell_volume 652.515907
_symmetry_space_group_name_H-M "P -1"
_symmetry_group_IT_number 2
_symmetry_cell_setting 'triclinic'
loop_
_space_group_symop_operation_xyz
x,y,z
-x,-y,-z
loop_
_atom_site_type_symbol
_atom_site_label
_atom_site_fract_x
_atom_site_fract_y
_atom_site_fract_z
Si Si1 0.479915 0.024798 0.702445
Si Si2 0.849392 0.297162 0.257157
Si Si3 0.508871 0.634518 0.679099
Si Si4 0.751428 0.056475 0.556520
Si Si5 0.139865 0.189301 0.840405
Si Si6 0.155482 0.787930 0.065247
Si Si7 0.767317 0.508609 0.467606
Si Si8 0.235876 0.974962 0.754473
O O1 0.459721 0.259005 0.492833
O O2 0.358265 0.999183 0.555526
O O3 0.411767 0.992207 0.802945
O O4 0.686486 0.854253 0.946049
O O5 0.800759 0.235186 0.392061
O O6 0.813520 0.151534 0.265519
O O7 0.697270 0.520988 0.949368
O O8 0.066704 0.207556 0.463166
O O9 0.371672 0.830305 0.508785
O O10 0.406270 0.492486 0.699866
O O11 0.942925 0.858212 0.852540
O O12 0.188860 0.294001 0.683452
O O13 0.947757 0.331233 0.662143
O O14 0.148665 0.965672 0.000415
O O15 0.245557 0.841050 0.973443
O O16 0.238301 0.569780 0.353000
#
# Coordination Sequence:
#
# PCOD9008323 Si02
#       8
#     2   2   2   2   2   2   2   2
#     4  11  23  41  62  94 130 167 206 262 311 368
#     4   9  20  39  62  86 121 167 207 263 313 360
#     4  12  21  38  65  96 126 163 211 260 317 376
#     4  10  21  39  64  93 126 161 207 264 320 367
#     4  11  23  42  66  92 130 164 204 264 317 371
#     4  11  21  44  67  89 129 173 202 257 316 369
#     4  11  23  40  65  97 128 161 210 255 320 381
#     4   9  21  42  60  84 127 168 210 256 307 365
#
# _framework density 24.520474
#
# number of rings (size 3 to 8) (size 9 to 14) (size 15 to 20)
#    0.000    1.500    2.500    4.125    0.000    1.000 
#    9.000    1.250    0.000    0.000    0.000    0.000 
#    0.000    0.000    0.000    0.000    0.000    0.000 
#
# Total GULP energy -89396.946354 kJ/mol
# GULP energy per Si atom -5587.309147 kJ/mol
# Density = 2.446466 g / cm^3
# Si number density = 24.520474 Si / 1000 Ang^3
#
#
#
# Elastic Constant Matrix: (Units=GPa)
#
#
# Indices 1 2 3 4 5 6 
#
# 1 118.5609 5.8184 35.3629 -4.0153 -8.4705 7.5685
# 2 5.8184 53.8129 3.8294 16.3803 5.1468 14.2936
# 3 35.3629 3.8294 96.1085 12.3399 -5.8301 6.1905
# 4 -4.0153 16.3803 12.3399 28.6276 8.6625 -9.2493
# 5 -8.4705 5.1468 -5.8301 8.6625 36.7367 3.6639
# 6 7.5685 14.2936 6.1905 -9.2493 3.6639 22.9564
#
#
#
# Elastic Compliance Matrix: (Units=1/GPa)
#
#
# Indices 1 2 3 4 5 6 
#
# 1 0.009973 -0.002881 -0.004302 0.005262 0.000611 0.001689
# 2 -0.002881 0.048472 0.010531 -0.054652 0.012700 -0.056117
# 3 -0.004302 0.010531 0.016098 -0.022067 0.007238 -0.019526
# 4 0.005262 -0.054652 -0.022067 0.114535 -0.030542 0.089266
# 5 0.000611 0.012700 0.007238 -0.030542 0.036749 -0.028232
# 6 0.001689 -0.056117 -0.019526 0.089266 -0.028232 0.123682
#
#
# Mechanical properties :
#
#
# Convention : Reuss Voigt Hill
#
# Bulk Modulus (GPa) = 12.30946 39.83374 26.07160
# Shear Modulus (GPa) = 13.51743 32.56226 23.03984
#
# Velocity S-wave (km/s) = 2.35046 3.64807 3.06864
# Velocity P-wave (km/s) = 3.52097 5.83309 4.81779
#
# Compressibility (1/GPa) = 0.08123831
#
# Stress axis : x y z
#
# Youngs Moduli (GPa) = 100.26913 20.63061 62.11812
#
# Poissons Ratio (x) = 0.05944 0.26724
# Poissons Ratio (y) = 0.28888 -0.65415
# Poissons Ratio (z) = 0.43138 -0.21726
#
# Static dielectric constant tensor:
#      x y z
#    x 2.005420 0.027230 -0.001490 
#    y 0.027230 1.927500 0.010340 
#    z -0.001490 0.010340 1.984550 
# 
# From -- ./inp_files/425710.got.cif
#   From: 2010.05.17/outbox.cif.g08.bks.cpg/sg2_213_cif.got.tgz:425710.got - 2010.06.03 11:33:40.
