data_PCOD9008067
_publ_section_title
;
Structure prediction by ZEFSAII (Michael W. Deem and Ramdas Pophale) SiO2 
 PCOD9008067
Probable space group: P -1
;
_chemical_formula_sum "Si O2"
_cell_formula_units_Z 16
_cell_length_a 8.551742
_cell_length_b 8.914975
_cell_length_c 10.152384
_cell_angle_alpha 112.610953
_cell_angle_beta 92.765694
_cell_angle_gamma 66.593459
_cell_volume 650.707365
_symmetry_space_group_name_H-M "P -1"
_symmetry_group_IT_number 2
_symmetry_cell_setting 'triclinic'
loop_
_space_group_symop_operation_xyz
x,y,z
-x,-y,-z
loop_
_atom_site_type_symbol
_atom_site_label
_atom_site_fract_x
_atom_site_fract_y
_atom_site_fract_z
Si Si1 0.380835 0.831420 0.846815
Si Si2 0.344602 0.944837 0.436213
Si Si3 0.405621 0.452410 0.658556
Si Si4 0.250702 0.381881 0.884000
Si Si5 0.093827 0.969185 0.662215
Si Si6 0.104745 0.643590 0.189852
Si Si7 0.595762 0.034522 0.839970
Si Si8 0.866798 0.425700 0.528345
O O1 0.436229 0.624279 0.756076
O O2 0.223391 0.930831 0.776396
O O3 0.539097 0.882215 0.836287
O O4 0.322555 0.901427 0.015382
O O5 0.427799 0.730365 0.382294
O O6 0.191704 0.011349 0.556629
O O7 0.305494 0.013352 0.308919
O O8 0.500000 0.000000 0.500000
O O9 0.273493 0.446248 0.762135
O O10 0.314689 0.474129 0.520947
O O11 0.417271 0.202922 0.857851
O O12 0.235960 0.523632 0.045099
O O13 0.079300 0.348528 0.862355
O O14 0.079519 0.782926 0.574814
O O15 0.925751 0.150391 0.736797
O O16 0.141172 0.561895 0.309860
O O17 0.000000 0.500000 0.500000
#
# Coordination Sequence:
#
# PCOD9008067 Si02
#       8
#     2   2   2   2   2   2   2   2
#     4  10  21  39  63  96 124 157 204 262 312 369
#     4  11  22  41  66  93 129 168 199 259 318 376
#     4  10  23  42  65  92 127 160 211 258 314 368
#     4  10  21  40  66  83 126 168 206 260 298 379
#     4  11  23  43  64  92 130 165 209 256 311 378
#     4  11  22  42  61  91 121 171 214 249 310 364
#     4  10  21  41  64  92 126 161 205 253 320 371
#     4  11  24  42  65  91 126 167 214 263 303 364
#
# _framework density 24.588626000000001
#
# number of rings (size 3 to 8) (size 9 to 14) (size 15 to 20)
#    0.000    1.500    3.750    1.125    0.000    7.000 
#    0.000    5.000    0.000    0.000    0.000    0.000 
#    0.000    0.000    0.000    0.000    0.000    0.000 
#
# Total GULP energy -89731.954693 kJ/mol
# GULP energy per Si atom -5608.247168 kJ/mol
# Density = 2.453266 g / cm^3
# Si number density = 24.588626 Si / 1000 Ang^3
#
#
#
# Elastic Constant Matrix: (Units=GPa)
#
#
# Indices 1 2 3 4 5 6 
#
# 1 55.0662 6.1899 6.1478 3.7640 1.1235 8.3517
# 2 6.1899 97.7898 7.6323 9.2384 -4.6137 11.7060
# 3 6.1478 7.6323 146.0526 -5.6489 15.8778 2.2628
# 4 3.7640 9.2384 -5.6489 32.8188 -4.6915 3.7625
# 5 1.1235 -4.6137 15.8778 -4.6915 36.6915 -1.3384
# 6 8.3517 11.7060 2.2628 3.7625 -1.3384 34.2153
#
#
#
# Elastic Compliance Matrix: (Units=1/GPa)
#
#
# Indices 1 2 3 4 5 6 
#
# 1 0.019079 -0.000508 -0.000700 -0.001780 -0.000729 -0.004270
# 2 -0.000508 0.011013 -0.000743 -0.002615 0.001269 -0.003258
# 3 -0.000700 -0.000743 0.007301 0.001138 -0.003097 -0.000304
# 4 -0.001780 -0.002615 0.001138 0.032325 0.003287 -0.002172
# 5 -0.000729 0.001269 -0.003097 0.003287 0.029223 0.000730
# 6 -0.004270 -0.003258 -0.000304 -0.002172 0.000730 0.031671
#
#
# Mechanical properties :
#
#
# Convention : Reuss Voigt Hill
#
# Bulk Modulus (GPa) = 29.85866 37.64984 33.75425
# Shear Modulus (GPa) = 34.32231 39.34102 36.83167
#
# Velocity S-wave (km/s) = 3.74018 4.00430 3.87449
# Velocity P-wave (km/s) = 5.55171 6.06006 5.81145
#
# Compressibility (1/GPa) = 0.03349112
#
# Stress axis : x y z
#
# Youngs Moduli (GPa) = 52.41262 90.80197 136.97660
#
# Poissons Ratio (x) = 0.04614 0.09589
# Poissons Ratio (y) = 0.02663 0.10173
# Poissons Ratio (z) = 0.03669 0.06744
#
# Static dielectric constant tensor:
#      x y z
#    x 1.981200 0.030030 0.019980 
#    y 0.030030 1.944030 0.026690 
#    z 0.019980 0.026690 1.961530 
# 
# From -- ./inp_files/239181.got.cif
#   From: 2010.05.17/outbox.cif.g08.bks.cpg/sg2_120_cif.got.tgz:239181.got - 2010.06.03 11:33:40.
