data_PCOD9008429
_publ_section_title
;
Structure prediction by ZEFSAII (Michael W. Deem and Ramdas Pophale) SiO2 
 PCOD9008429
Probable space group: P -1
;
_chemical_formula_sum "Si O2"
_cell_formula_units_Z 13
_cell_length_a 11.242483
_cell_length_b 11.120239
_cell_length_c 12.409218
_cell_angle_alpha 144.358479
_cell_angle_beta 143.781281
_cell_angle_gamma 43.522660
_cell_volume 523.171263
_symmetry_space_group_name_H-M "P -1"
_symmetry_group_IT_number 2
_symmetry_cell_setting 'triclinic'
loop_
_space_group_symop_operation_xyz
x,y,z
-x,-y,-z
loop_
_atom_site_type_symbol
_atom_site_label
_atom_site_fract_x
_atom_site_fract_y
_atom_site_fract_z
Si Si1 0.255750 0.028054 0.333816
Si Si2 0.219786 0.055080 0.569861
Si Si3 0.729142 0.733553 0.929566
Si Si4 0.000000 0.500000 0.500000
Si Si5 0.279696 0.638636 0.916026
Si Si6 0.582884 0.186706 0.053433
Si Si7 0.110241 0.697642 0.348361
O O1 0.197943 0.982653 0.380322
O O2 0.143920 0.263988 0.397132
O O3 0.500000 0.000000 0.500000
O O4 0.222384 0.849171 0.095439
O O5 0.413397 0.159282 0.818387
O O6 0.005821 0.196222 0.555310
O O7 0.255539 0.848332 0.521635
O O8 0.776315 0.541759 0.741646
O O9 0.689339 0.956272 0.002928
O O10 0.543425 0.712387 0.860903
O O11 0.925529 0.718099 0.140370
O O12 0.120268 0.487423 0.695081
O O13 0.500000 0.500000 0.000000
O O14 0.268481 0.686426 0.811269
#
# Coordination Sequence:
#
# PCOD9008429 Si02
#       7
#     2   2   2   1   2   2   2
#     4  12  25  48  71 105 147 191 242 301 362 436
#     4  10  21  40  64  93 135 177 227 288 354 419
#     4   9  20  38  62  96 131 175 228 284 355 413
#     4  12  28  48  74 106 140 196 250 292 370 426
#     4  12  26  48  74 107 148 192 245 304 363 435
#     4  10  21  39  64  96 137 176 225 292 352 427
#     4   9  20  38  62  95 128 175 229 285 343 424
#
# _framework density 24.848459999999999
#
# number of rings (size 3 to 8) (size 9 to 14) (size 15 to 20)
#    0.000    1.538    3.077    0.462    4.308    1.846 
#    2.769    0.000    0.000    0.000    0.000    0.000 
#    0.000    0.000    0.000    0.000    0.000    0.000 
#
# Total GULP energy -72533.428738 kJ/mol
# GULP energy per Si atom -5579.494518 kJ/mol
# Density = 2.479190 g / cm^3
# Si number density = 24.848460 Si / 1000 Ang^3
#
#
#
# Elastic Constant Matrix: (Units=GPa)
#
#
# Indices 1 2 3 4 5 6 
#
# 1 86.1427 32.6671 3.1102 7.0144 -24.5054 10.2691
# 2 32.6671 147.8377 41.6666 12.4073 -21.2394 -25.5455
# 3 3.1102 41.6666 110.0472 20.9234 -30.6300 -24.2411
# 4 7.0144 12.4073 20.9234 47.8369 -10.7825 -5.9126
# 5 -24.5054 -21.2394 -30.6300 -10.7825 30.6119 3.3145
# 6 10.2691 -25.5455 -24.2411 -5.9126 3.3145 42.0813
#
#
#
# Elastic Compliance Matrix: (Units=1/GPa)
#
#
# Indices 1 2 3 4 5 6 
#
# 1 0.018484 -0.003839 0.004554 -0.000548 0.017108 -0.005642
# 2 -0.003839 0.009201 -0.001985 -0.000142 0.000700 0.005304
# 3 0.004554 -0.001985 0.016060 -0.002744 0.016806 0.005226
# 4 -0.000548 -0.000142 -0.002744 0.023484 0.004839 0.001385
# 5 0.017108 0.000700 0.016806 0.004839 0.065209 0.001475
# 6 -0.005642 0.005304 0.005226 0.001385 0.001475 0.031449
#
#
# Mechanical properties :
#
#
# Convention : Reuss Voigt Hill
#
# Bulk Modulus (GPa) = 24.26841 55.43504 39.85172
# Shear Modulus (GPa) = 27.75279 41.87825 34.81552
#
# Velocity S-wave (km/s) = 3.34560 4.10975 3.74721
# Velocity P-wave (km/s) = 4.97110 6.69908 5.89871
#
# Compressibility (1/GPa) = 0.04120583
#
# Stress axis : x y z
#
# Youngs Moduli (GPa) = 54.10066 108.68537 62.26465
#
# Poissons Ratio (x) = 0.41724 -0.28357
# Poissons Ratio (y) = 0.20769 0.12360
# Poissons Ratio (z) = -0.24639 0.21574
#
# Static dielectric constant tensor:
#      x y z
#    x 1.938070 -0.038220 -0.108270 
#    y -0.038220 1.972490 -0.056370 
#    z -0.108270 -0.056370 1.820220 
# 
# From -- ./inp_files/429152.got.cif
#   From: 2010.05.17/outbox.cif.g08.bks.cpg/sg2_215_cif.got.tgz:429152.got - 2010.06.03 11:33:40.
