data_PCOD9008395
_publ_section_title
;
Structure prediction by ZEFSAII (Michael W. Deem and Ramdas Pophale) SiO2 
 PCOD9008395
Probable space group: P -1
;
_chemical_formula_sum "Si O2"
_cell_formula_units_Z 11
_cell_length_a 14.954636
_cell_length_b 12.276527
_cell_length_c 7.203947
_cell_angle_alpha 72.777537
_cell_angle_beta 125.562764
_cell_angle_gamma 152.068669
_cell_volume 413.556220
_symmetry_space_group_name_H-M "P -1"
_symmetry_group_IT_number 2
_symmetry_cell_setting 'triclinic'
loop_
_space_group_symop_operation_xyz
x,y,z
-x,-y,-z
loop_
_atom_site_type_symbol
_atom_site_label
_atom_site_fract_x
_atom_site_fract_y
_atom_site_fract_z
Si Si1 0.477387 0.282377 0.432771
Si Si2 0.203818 0.762262 0.828410
Si Si3 0.990904 0.792591 0.552502
Si Si4 0.500000 0.500000 0.500000
Si Si5 0.225530 0.812954 0.267584
Si Si6 0.146902 0.118196 0.862401
O O1 0.500426 0.357161 0.623780
O O2 0.749184 0.514137 0.533701
O O3 0.275836 0.989013 0.304332
O O4 0.362013 0.294724 0.198579
O O5 0.126650 0.809930 0.621271
O O6 0.988789 0.454200 0.723275
O O7 0.174169 0.765747 0.009670
O O8 0.500000 0.000000 0.000000
O O9 0.840356 0.741357 0.264773
O O10 0.184109 0.056434 0.781446
O O11 0.831962 0.802682 0.692957
O O12 0.500000 0.000000 0.500000
#
# Coordination Sequence:
#
# PCOD9008395 Si02
#       6
#     2   2   2   1   2   2
#     4  11  21  42  66  93 137 177 224 278 350 405
#     4  11  25  45  70 104 137 183 236 285 342 418
#     4  10  21  40  64  95 132 170 227 276 339 411
#     4  10  24  38  62  98 132 174 228 272 340 410
#     4  11  24  45  70  98 141 185 225 287 349 406
#     4  10  21  39  64  95 130 173 216 283 340 404
#
# _framework density 26.598561
#
# number of rings (size 3 to 8) (size 9 to 14) (size 15 to 20)
#    0.000    1.455    3.636    1.091    0.000    3.636 
#    3.273    0.000    0.000    0.000    0.000    0.000 
#    0.000    0.000    0.000    0.000    0.000    0.000 
#
# Total GULP energy -61334.244571 kJ/mol
# GULP energy per Si atom -5575.840416 kJ/mol
# Density = 2.653802 g / cm^3
# Si number density = 26.598561 Si / 1000 Ang^3
#
#
#
# Elastic Constant Matrix: (Units=GPa)
#
#
# Indices 1 2 3 4 5 6 
#
# 1 181.0925 87.6427 39.6283 2.5398 31.1263 -28.3473
# 2 87.6427 156.0660 49.1869 13.8535 29.2699 -20.9594
# 3 39.6283 49.1869 105.0135 2.2896 28.2436 5.9715
# 4 2.5398 13.8535 2.2896 43.8616 8.7244 7.2952
# 5 31.1263 29.2699 28.2436 8.7244 47.8297 -0.1827
# 6 -28.3473 -20.9594 5.9715 7.2952 -0.1827 62.1765
#
#
#
# Elastic Compliance Matrix: (Units=1/GPa)
#
#
# Indices 1 2 3 4 5 6 
#
# 1 0.008334 -0.003607 -0.000850 0.000844 -0.002858 0.002558
# 2 -0.003607 0.010308 -0.003122 -0.002985 -0.001563 0.002475
# 3 -0.000850 -0.003122 0.012917 0.001948 -0.005530 -0.002925
# 4 0.000844 -0.002985 0.001948 0.025106 -0.004467 -0.003767
# 5 -0.002858 -0.001563 -0.005530 -0.004467 0.027801 -0.000693
# 6 0.002558 0.002475 -0.002925 -0.003767 -0.000693 0.018805
#
#
# Mechanical properties :
#
#
# Convention : Reuss Voigt Hill
#
# Bulk Modulus (GPa) = 60.98034 88.34308 74.66171
# Shear Modulus (GPa) = 40.35608 48.48784 44.42196
#
# Velocity S-wave (km/s) = 3.89939 4.27423 4.09111
# Velocity P-wave (km/s) = 6.57644 7.59239 7.10260
#
# Compressibility (1/GPa) = 0.01639873
#
# Stress axis : x y z
#
# Youngs Moduli (GPa) = 119.99399 97.01287 77.41727
#
# Poissons Ratio (x) = 0.34997 0.06584
# Poissons Ratio (y) = 0.43288 0.24170
# Poissons Ratio (z) = 0.10204 0.30288
#
# Static dielectric constant tensor:
#      x y z
#    x 5.489310 -0.378780 -2.571850 
#    y -0.378780 2.178740 0.202270 
#    z -2.571850 0.202270 4.089500 
# 
# From -- ./inp_files/22063.got.cif
#   From: 2010.05.17/outbox.cif.g08.bks.cpg/sg2_12_cif.got.tgz:22063.got - 2010.06.03 11:33:40.
