data_PCOD9008333
_publ_section_title
;
Structure prediction by ZEFSAII (Michael W. Deem and Ramdas Pophale) SiO2 
 PCOD9008333
Probable space group: P -1
;
_chemical_formula_sum "Si O2"
_cell_formula_units_Z 14
_cell_length_a 6.566306
_cell_length_b 14.593770
_cell_length_c 14.906719
_cell_angle_alpha 29.124909
_cell_angle_beta 103.896409
_cell_angle_gamma 90.126980
_cell_volume 606.277487
_symmetry_space_group_name_H-M "P -1"
_symmetry_group_IT_number 2
_symmetry_cell_setting 'triclinic'
loop_
_space_group_symop_operation_xyz
x,y,z
-x,-y,-z
loop_
_atom_site_type_symbol
_atom_site_label
_atom_site_fract_x
_atom_site_fract_y
_atom_site_fract_z
Si Si1 0.040917 0.912277 0.945731
Si Si2 0.237559 0.161506 0.862308
Si Si3 0.763633 0.205306 0.530692
Si Si4 0.634222 0.616989 0.794768
Si Si5 0.026438 0.254104 0.365116
Si Si6 0.656389 0.220791 0.213821
Si Si7 0.539303 0.541807 0.365760
O O1 0.077433 0.110921 0.818341
O O2 0.292163 0.715698 0.152175
O O3 0.938458 0.978430 0.779573
O O4 0.854568 0.880966 0.016393
O O5 0.261986 0.375253 0.684848
O O6 0.500000 0.000000 0.000000
O O7 0.572775 0.215893 0.430198
O O8 0.622500 0.340768 0.483918
O O9 0.905989 0.308641 0.402639
O O10 0.868980 0.599867 0.790869
O O11 0.576498 0.707761 0.811937
O O12 0.618538 0.396462 0.985325
O O13 0.844486 0.240390 0.285688
O O14 0.232530 0.018277 0.598695
O O15 0.500000 0.500000 0.500000
#
# Coordination Sequence:
#
# PCOD9008333 Si02
#       7
#     2   2   2   2   2   2   2
#     4  10  22  40  61  86 123 157 206 262 310 371
#     4   9  19  39  65  86 110 162 209 257 310 369
#     4  11  25  39  56  98 124 158 209 254 311 378
#     4  10  21  39  64  93 130 162 205 255 310 379
#     4  10  21  39  65  91 128 165 203 262 311 362
#     4   9  20  40  65  93 122 163 215 247 304 386
#     4  11  24  41  64  87 121 166 214 258 311 371
#
# _framework density 23.091736000000001
#
# number of rings (size 3 to 8) (size 9 to 14) (size 15 to 20)
#    0.000    2.000    0.000    3.429    2.000    6.857 
#    0.000    0.000    0.000    0.000    0.000    0.000 
#    0.000    0.000    0.000    0.000    0.000    0.000 
#
# Total GULP energy -78206.703483 kJ/mol
# GULP energy per Si atom -5586.193106 kJ/mol
# Density = 2.303918 g / cm^3
# Si number density = 23.091736 Si / 1000 Ang^3
#
#
#
# Elastic Constant Matrix: (Units=GPa)
#
#
# Indices 1 2 3 4 5 6 
#
# 1 132.1519 20.7148 38.1300 19.4142 -20.5930 -18.2004
# 2 20.7148 36.9124 23.0904 5.6050 -6.3817 -19.4378
# 3 38.1300 23.0904 114.5953 17.0234 12.9958 0.3404
# 4 19.4142 5.6050 17.0234 32.2718 -3.7459 0.8981
# 5 -20.5930 -6.3817 12.9958 -3.7459 36.5586 -1.0280
# 6 -18.2004 -19.4378 0.3404 0.8981 -1.0280 28.0778
#
#
#
# Elastic Compliance Matrix: (Units=1/GPa)
#
#
# Indices 1 2 3 4 5 6 
#
# 1 0.012207 0.005536 -0.005642 -0.004542 0.009729 0.012315
# 2 0.005536 0.065205 -0.016866 -0.004660 0.021421 0.049867
# 3 -0.005642 -0.016866 0.015932 -0.003095 -0.012550 -0.015887
# 4 -0.004542 -0.004660 -0.003095 0.036510 0.001265 -0.007254
# 5 0.009729 0.021421 -0.012550 0.001265 0.041804 0.022778
# 6 0.012315 0.049867 -0.015887 -0.007254 0.022778 0.079378
#
#
# Mechanical properties :
#
#
# Convention : Reuss Voigt Hill
#
# Bulk Modulus (GPa) = 16.83506 49.72555 33.28031
# Shear Modulus (GPa) = 16.40527 32.82993 24.61760
#
# Velocity S-wave (km/s) = 2.66830 3.77466 3.26863
# Velocity P-wave (km/s) = 4.09871 6.37009 5.35619
#
# Compressibility (1/GPa) = 0.05939984
#
# Stress axis : x y z
#
# Youngs Moduli (GPa) = 81.92344 15.33622 62.76564
#
# Poissons Ratio (x) = -0.08490 0.35413
# Poissons Ratio (y) = -0.45350 1.05858
# Poissons Ratio (z) = 0.46222 0.25865
#
# Static dielectric constant tensor:
#      x y z
#    x 1.877860 -0.002300 0.012990 
#    y -0.002300 1.881130 -0.017680 
#    z 0.012990 -0.017680 1.930180 
# 
# From -- ./inp_files/140535.got.cif
#   From: 2010.05.17/outbox.cif.g08.bks.cpg/sg2_71_cif.got.tgz:140535.got - 2010.06.03 11:33:40.
