data_PCOD9008043
_publ_section_title
;
Structure prediction by ZEFSAII (Michael W. Deem and Ramdas Pophale) SiO2 
 PCOD9008043
Probable space group: P -1
;
_chemical_formula_sum "Si O2"
_cell_formula_units_Z 16
_cell_length_a 11.159251
_cell_length_b 15.852139
_cell_length_c 21.543149
_cell_angle_alpha 24.918489
_cell_angle_beta 24.286075
_cell_angle_gamma 37.435231
_cell_volume 648.597862
_symmetry_space_group_name_H-M "P -1"
_symmetry_group_IT_number 2
_symmetry_cell_setting 'triclinic'
loop_
_space_group_symop_operation_xyz
x,y,z
-x,-y,-z
loop_
_atom_site_type_symbol
_atom_site_label
_atom_site_fract_x
_atom_site_fract_y
_atom_site_fract_z
Si Si1 0.504956 0.507999 0.157006
Si Si2 0.583794 0.454517 0.694086
Si Si3 0.552105 0.739423 0.767223
Si Si4 0.925773 0.761079 0.699904
Si Si5 0.722404 0.316054 0.591755
Si Si6 0.812354 0.955040 0.854241
Si Si7 0.586094 0.857608 0.479548
Si Si8 0.129127 0.425906 0.771348
O O1 0.336035 0.580349 0.247689
O O2 0.355189 0.405822 0.233127
O O3 0.599524 0.304863 0.276521
O O4 0.761879 0.680738 0.894143
O O5 0.612470 0.698743 0.518247
O O6 0.175363 0.902001 0.308874
O O7 0.269812 0.291126 0.948555
O O8 0.709311 0.709146 0.777208
O O9 0.588046 0.970973 0.573243
O O10 0.198409 0.684736 0.982537
O O11 0.180392 0.630712 0.653149
O O12 0.000000 0.000000 0.500000
O O13 0.762685 0.399853 0.587023
O O14 0.368226 0.287075 0.764912
O O15 0.836103 0.486186 0.373056
O O16 0.101203 0.044179 0.700326
O O17 0.500000 0.000000 0.000000
#
# Coordination Sequence:
#
# PCOD9008043 Si02
#       8
#     2   2   2   2   2   2   2   2
#     4   9  22  42  65  98 129 177 225 279 344 399
#     4   9  22  40  65  96 133 172 236 271 337 398
#     4  11  22  44  66  99 135 179 222 286 348 400
#     4  11  26  42  71  98 134 178 227 284 347 415
#     4  10  22  41  68  98 136 185 223 283 331 409
#     4  10  21  39  63  94 134 181 221 275 336 387
#     4  10  23  40  68  98 140 171 228 285 335 405
#     4  10  23  42  68  93 139 181 225 272 352 402
#
# _framework density 24.668596000000001
#
# number of rings (size 3 to 8) (size 9 to 14) (size 15 to 20)
#    0.750    1.250    0.000    3.375    7.000    2.000 
#    0.000    9.375    0.000    0.000    0.000    0.000 
#    0.000    0.000    0.000    0.000    0.000    0.000 
#
# Total GULP energy -89193.874472 kJ/mol
# GULP energy per Si atom -5574.617155 kJ/mol
# Density = 2.461245 g / cm^3
# Si number density = 24.668596 Si / 1000 Ang^3
#
#
#
# Elastic Constant Matrix: (Units=GPa)
#
#
# Indices 1 2 3 4 5 6 
#
# 1 120.1862 42.1207 54.7665 12.1996 18.1979 3.8178
# 2 42.1207 90.3446 37.5939 -5.7083 -7.1037 -5.3441
# 3 54.7665 37.5939 125.4365 -21.6511 8.7409 -3.3810
# 4 12.1996 -5.7083 -21.6511 44.1557 1.1189 6.0405
# 5 18.1979 -7.1037 8.7409 1.1189 52.9313 2.3233
# 6 3.8178 -5.3441 -3.3810 6.0405 2.3233 56.4958
#
#
#
# Elastic Compliance Matrix: (Units=1/GPa)
#
#
# Indices 1 2 3 4 5 6 
#
# 1 0.014024 -0.005077 -0.005528 -0.007017 -0.004405 -0.000827
# 2 -0.005077 0.014835 -0.002128 0.002006 0.003991 0.001240
# 3 -0.005528 -0.002128 0.012326 0.007290 -0.000581 0.000154
# 4 -0.007017 0.002006 0.007290 0.028670 0.000960 -0.002005
# 5 -0.004405 0.003991 -0.000581 0.000960 0.021033 -0.000327
# 6 -0.000827 0.001240 0.000154 -0.002005 -0.000327 0.018111
#
#
# Mechanical properties :
#
#
# Convention : Reuss Voigt Hill
#
# Bulk Modulus (GPa) = 63.61223 67.21441 65.41332
# Shear Modulus (GPa) = 35.78993 44.14897 39.96945
#
# Velocity S-wave (km/s) = 3.81311 4.23505 4.02961
# Velocity P-wave (km/s) = 6.72526 7.15684 6.94440
#
# Compressibility (1/GPa) = 0.01572025
#
# Stress axis : x y z
#
# Youngs Moduli (GPa) = 71.30537 67.40789 81.12645
#
# Poissons Ratio (x) = 0.34222 0.44847
# Poissons Ratio (y) = 0.36200 0.17263
# Poissons Ratio (z) = 0.39417 0.14344
#
# Static dielectric constant tensor:
#      x y z
#    x 1.995630 0.017170 -0.022590 
#    y 0.017170 2.051830 0.014210 
#    z -0.022590 0.014210 2.088460 
# 
# From -- ./inp_files/619733.got.cif
#   From: 2010.05.17/outbox.cif.g08.bks.cpg/sg2_310_cif.got.tgz:619733.got - 2010.06.03 11:33:40.
