data_PCOD9008628
_publ_section_title
;
Structure prediction by ZEFSAII (Michael W. Deem and Ramdas Pophale) SiO2 
 PCOD9008628
Probable space group: P -1
;
_chemical_formula_sum "Si O2"
_cell_formula_units_Z 16
_cell_length_a 8.193538
_cell_length_b 25.283815
_cell_length_c 13.755605
_cell_angle_alpha 22.013336
_cell_angle_beta 48.453982
_cell_angle_gamma 40.401397
_cell_volume 681.468353
_symmetry_space_group_name_H-M "P -1"
_symmetry_group_IT_number 2
_symmetry_cell_setting 'triclinic'
loop_
_space_group_symop_operation_xyz
x,y,z
-x,-y,-z
loop_
_atom_site_type_symbol
_atom_site_label
_atom_site_fract_x
_atom_site_fract_y
_atom_site_fract_z
Si Si1 0.537490 0.320955 0.284375
Si Si2 0.885823 0.892458 0.648994
Si Si3 0.321546 0.459707 0.950432
Si Si4 0.325276 0.138113 0.756101
Si Si5 0.749002 0.022957 0.119454
Si Si6 0.846733 0.760427 0.694608
Si Si7 0.169723 0.768987 0.932022
Si Si8 0.265999 0.689294 0.257650
O O1 0.823548 0.184789 0.374641
O O2 0.353042 0.347094 0.222552
O O3 0.434039 0.259297 0.513469
O O4 0.500000 0.500000 0.000000
O O5 0.929803 0.827568 0.853323
O O6 0.784502 0.826111 0.717412
O O7 0.761894 0.088738 0.357835
O O8 0.223459 0.382106 0.042356
O O9 0.604980 0.406029 0.899806
O O10 0.143067 0.646214 0.735983
O O11 0.016812 0.254442 0.685574
O O12 0.381682 0.028981 0.822296
O O13 0.500000 0.000000 0.000000
O O14 0.760787 0.911520 0.397063
O O15 0.645083 0.200572 0.907432
O O16 0.000000 0.000000 0.000000
O O17 0.184460 0.746302 0.080069
O O18 0.500000 0.500000 0.500000
#
# Coordination Sequence:
#
# PCOD9008628 Si02
#       8
#     2   2   2   2   2   2   2   2
#     4  11  21  40  66 103 130 174 237 300 344 398
#     4  10  21  39  65  92 132 178 226 288 354 408
#     4  10  23  35  65  96 129 170 223 297 339 410
#     4  11  25  46  75 101 140 190 247 287 347 434
#     4  10  23  41  68  97 132 192 235 283 348 432
#     4  11  20  40  63  98 130 172 242 282 345 411
#     4  10  22  40  60  95 133 178 220 282 361 418
#     4  11  25  47  70 102 146 190 230 293 357 429
#
# _framework density 23.478712000000002
#
# number of rings (size 3 to 8) (size 9 to 14) (size 15 to 20)
#    0.000    1.500    3.750    0.750    5.250    0.500 
#    2.250    0.625    2.750    0.000    0.000    0.000 
#    0.000    0.000    0.000    0.000    0.000    0.000 
#
# Total GULP energy -89078.904283 kJ/mol
# GULP energy per Si atom -5567.431518 kJ/mol
# Density = 2.342527 g / cm^3
# Si number density = 23.478712 Si / 1000 Ang^3
#
#
#
# Elastic Constant Matrix: (Units=GPa)
#
#
# Indices 1 2 3 4 5 6 
#
# 1 88.8952 35.5640 48.9471 -3.7493 3.7785 27.7710
# 2 35.5640 104.9438 54.1927 -20.1058 3.5124 12.0400
# 3 48.9471 54.1927 123.5379 -17.6994 -5.4468 10.1688
# 4 -3.7493 -20.1058 -17.6994 41.5925 2.0330 1.8767
# 5 3.7785 3.5124 -5.4468 2.0330 32.7313 -0.3997
# 6 27.7710 12.0400 10.1688 1.8767 -0.3997 53.6022
#
#
#
# Elastic Compliance Matrix: (Units=1/GPa)
#
#
# Indices 1 2 3 4 5 6 
#
# 1 0.017760 -0.002410 -0.005696 -0.001513 -0.002738 -0.007547
# 2 -0.002410 0.013727 -0.004393 0.004712 -0.002233 -0.001183
# 3 -0.005696 -0.004393 0.012657 0.002531 0.003096 0.001471
# 4 -0.001513 0.004712 0.002531 0.027419 -0.001634 -0.001727
# 5 -0.002738 -0.002233 0.003096 -0.001634 0.031744 0.001626
# 6 -0.007547 -0.001183 0.001471 -0.001727 0.001626 0.022625
#
#
# Mechanical properties :
#
#
# Convention : Reuss Voigt Hill
#
# Bulk Modulus (GPa) = 52.22935 66.08716 59.15826
# Shear Modulus (GPa) = 31.78426 37.49673 34.64049
#
# Velocity S-wave (km/s) = 3.68332 4.00065 3.84526
# Velocity P-wave (km/s) = 6.35475 7.03911 6.70567
#
# Compressibility (1/GPa) = 0.01914632
#
# Stress axis : x y z
#
# Youngs Moduli (GPa) = 56.30766 72.84780 79.01022
#
# Poissons Ratio (x) = 0.17554 0.45003
# Poissons Ratio (y) = 0.13568 0.34710
# Poissons Ratio (z) = 0.32072 0.32002
#
# Static dielectric constant tensor:
#      x y z
#    x 2.129390 -0.024730 0.091770 
#    y -0.024730 1.956660 0.027290 
#    z 0.091770 0.027290 1.900140 
# 
# From -- ./inp_files/508967.got.cif
#   From: 2010.05.17/outbox.cif.g08.bks.cpg/sg2_255_cif.got.tgz:508967.got - 2010.06.03 11:33:40.
