data_PCOD9008680
_publ_section_title
;
Structure prediction by ZEFSAII (Michael W. Deem and Ramdas Pophale) SiO2 
 PCOD9008680
Probable space group: P -1
;
_chemical_formula_sum "Si O2"
_cell_formula_units_Z 14
_cell_length_a 4.929558
_cell_length_b 21.296091
_cell_length_c 5.461812
_cell_angle_alpha 89.947699
_cell_angle_beta 80.762799
_cell_angle_gamma 116.448262
_cell_volume 505.009762
_symmetry_space_group_name_H-M "P -1"
_symmetry_group_IT_number 2
_symmetry_cell_setting 'triclinic'
loop_
_space_group_symop_operation_xyz
x,y,z
-x,-y,-z
loop_
_atom_site_type_symbol
_atom_site_label
_atom_site_fract_x
_atom_site_fract_y
_atom_site_fract_z
Si Si1 0.424069 0.323606 0.940011
Si Si2 0.554555 0.080586 0.296881
Si Si3 0.423169 0.544593 0.309450
Si Si4 0.332854 0.048544 0.836111
Si Si5 0.208478 0.725693 0.484387
Si Si6 0.939134 0.410075 0.256402
Si Si7 0.839481 0.794938 0.652289
O O1 0.325510 0.379294 0.824020
O O2 0.614645 0.294563 0.746729
O O3 0.674037 0.375348 0.097783
O O4 0.186922 0.254190 0.111649
O O5 0.346603 0.079093 0.560996
O O6 0.907908 0.127204 0.323726
O O7 0.504742 0.001547 0.246073
O O8 0.495554 0.102678 0.034045
O O9 0.500000 0.500000 0.500000
O O10 0.205557 0.570307 0.487325
O O11 0.219986 0.484026 0.144905
O O12 0.000000 0.000000 0.000000
O O13 0.994134 0.652659 0.654266
O O14 0.007740 0.764677 0.436904
O O15 0.495341 0.775642 0.618587
#
# Coordination Sequence:
#
# PCOD9008680 Si02
#       7
#     2   2   2   2   2   2   2
#     4  10  23  44  68  93 134 181 227 292 356 426
#     4  10  24  42  71 107 144 186 243 289 356 423
#     4  10  21  39  65  94 125 169 229 294 352 425
#     4  10  22  44  72 107 145 187 236 297 349 423
#     4  10  25  44  67  96 141 175 238 289 346 426
#     4   9  21  41  59  94 125 171 227 284 353 418
#     4  11  26  46  67 105 138 187 234 286 353 428
#
# _framework density 27.722235999999999
#
# number of rings (size 3 to 8) (size 9 to 14) (size 15 to 20)
#    0.000    2.000    0.000    0.857   10.000    4.000 
#   10.286    0.000    0.000    0.000    0.000    0.000 
#    0.000    0.000    0.000    0.000    0.000    0.000 
#
# Total GULP energy -78302.344179 kJ/mol
# GULP energy per Si atom -5593.024584 kJ/mol
# Density = 2.765914 g / cm^3
# Si number density = 27.722236 Si / 1000 Ang^3
#
#
#
# Elastic Constant Matrix: (Units=GPa)
#
#
# Indices 1 2 3 4 5 6 
#
# 1 96.5728 13.9040 19.1184 -0.6695 0.4326 14.4086
# 2 13.9040 123.9031 50.3417 -3.7928 4.6812 18.7006
# 3 19.1184 50.3417 155.9804 -2.9968 -1.9070 18.3057
# 4 -0.6695 -3.7928 -2.9968 43.8546 6.2857 2.4867
# 5 0.4326 4.6812 -1.9070 6.2857 39.0625 0.2235
# 6 14.4086 18.7006 18.3057 2.4867 0.2235 47.1659
#
#
#
# Elastic Compliance Matrix: (Units=1/GPa)
#
#
# Indices 1 2 3 4 5 6 
#
# 1 0.011020 -0.000437 -0.000870 0.000253 -0.000136 -0.002868
# 2 -0.000437 0.009738 -0.002771 0.001006 -0.001444 -0.002698
# 3 -0.000870 -0.002771 0.007614 0.000261 0.000681 -0.001608
# 4 0.000253 0.001006 0.000261 0.023572 -0.003893 -0.001802
# 5 -0.000136 -0.001444 0.000681 -0.003893 0.026432 0.000430
# 6 -0.002868 -0.002698 -0.001608 -0.001802 0.000430 0.023865
#
#
# Mechanical properties :
#
#
# Convention : Reuss Voigt Hill
#
# Bulk Modulus (GPa) = 49.46529 60.35384 54.90956
# Shear Modulus (GPa) = 42.68539 45.55607 44.12073
#
# Velocity S-wave (km/s) = 3.92823 4.05817 3.99372
# Velocity P-wave (km/s) = 6.20133 6.61638 6.41221
#
# Compressibility (1/GPa) = 0.02021620
#
# Stress axis : x y z
#
# Youngs Moduli (GPa) = 90.74119 102.68651 131.33665
#
# Poissons Ratio (x) = 0.04492 0.11423
# Poissons Ratio (y) = 0.03970 0.36394
# Poissons Ratio (z) = 0.07892 0.28455
#
# Static dielectric constant tensor:
#      x y z
#    x 2.228010 -0.013300 0.053650 
#    y -0.013300 2.142640 -0.031890 
#    z 0.053650 -0.031890 2.314520 
# 
# From -- ./inp_files/12445.got.cif
#   From: 2010.05.17/outbox.cif.g08.bks.cpg/sg2_7_cif.got.tgz:12445.got - 2010.06.03 11:33:40.
