data_PCOD9008836
_publ_section_title
;
Structure prediction by ZEFSAII (Michael W. Deem and Ramdas Pophale) SiO2 
 PCOD9008836
Probable space group: P -1
;
_chemical_formula_sum "Si O2"
_cell_formula_units_Z 16
_cell_length_a 7.395357
_cell_length_b 14.134584
_cell_length_c 11.463944
_cell_angle_alpha 45.455530
_cell_angle_beta 58.313533
_cell_angle_gamma 79.391613
_cell_volume 692.352874
_symmetry_space_group_name_H-M "P -1"
_symmetry_group_IT_number 2
_symmetry_cell_setting 'triclinic'
loop_
_space_group_symop_operation_xyz
x,y,z
-x,-y,-z
loop_
_atom_site_type_symbol
_atom_site_label
_atom_site_fract_x
_atom_site_fract_y
_atom_site_fract_z
Si Si1 0.801054 0.256038 0.798560
Si Si2 0.607266 0.479137 0.358641
Si Si3 0.336115 0.355323 0.234953
Si Si4 0.318898 0.033654 0.940830
Si Si5 0.007679 0.844602 0.655494
Si Si6 0.491087 0.803546 0.493048
Si Si7 0.675327 0.773583 0.023967
Si Si8 0.012343 0.529255 0.634706
O O1 0.544628 0.195729 0.981002
O O2 0.949447 0.382419 0.716117
O O3 0.807275 0.341317 0.602481
O O4 0.869941 0.117451 0.871815
O O5 0.500000 0.500000 0.500000
O O6 0.508604 0.332190 0.462916
O O7 0.590604 0.608356 0.181050
O O8 0.868608 0.496098 0.268016
O O9 0.165819 0.266429 0.272798
O O10 0.192561 0.414292 0.324033
O O11 0.429322 0.241912 0.369333
O O12 0.500000 0.500000 0.000000
O O13 0.386615 0.078575 0.745792
O O14 0.278538 0.159794 0.920052
O O15 0.500000 0.000000 0.000000
O O16 0.249711 0.825407 0.574656
O O17 0.907047 0.821191 0.838683
O O18 0.000000 0.000000 0.500000
#
# Coordination Sequence:
#
# PCOD9008836 Si02
#       8
#     2   2   2   2   2   2   2   2
#     4  10  21  39  66 101 141 180 237 305 372 428
#     4  12  21  41  69 106 137 181 243 302 370 435
#     4  12  29  49  74 107 153 198 257 311 367 450
#     4  10  21  42  74 105 145 189 238 309 377 440
#     4  12  28  50  75 106 152 202 249 304 377 452
#     4  12  26  48  79 107 147 200 249 308 379 444
#     4  11  23  41  71 102 141 189 241 302 373 440
#     4  11  23  40  69 100 143 187 238 313 362 430
#
# _framework density 23.109603
#
# number of rings (size 3 to 8) (size 9 to 14) (size 15 to 20)
#    0.000    0.750    3.750    4.500    5.250    1.500 
#    2.250    1.250    0.000    0.000    0.000    0.000 
#    0.000    0.000    0.000    0.000    0.000    0.000 
#
# Total GULP energy -89145.167917 kJ/mol
# GULP energy per Si atom -5571.572995 kJ/mol
# Density = 2.305700 g / cm^3
# Si number density = 23.109603 Si / 1000 Ang^3
#
#
#
# Elastic Constant Matrix: (Units=GPa)
#
#
# Indices 1 2 3 4 5 6 
#
# 1 97.1459 27.3662 25.0844 -0.1817 11.3439 -12.3141
# 2 27.3662 95.5873 53.3881 -11.4292 -6.0490 -13.0857
# 3 25.0844 53.3881 114.5766 -13.2757 5.9562 -8.7603
# 4 -0.1817 -11.4292 -13.2757 52.3531 -0.0551 -3.0160
# 5 11.3439 -6.0490 5.9562 -0.0551 25.4567 -6.1428
# 6 -12.3141 -13.0857 -8.7603 -3.0160 -6.1428 32.7519
#
#
#
# Elastic Compliance Matrix: (Units=1/GPa)
#
#
# Indices 1 2 3 4 5 6 
#
# 1 0.012325 -0.003231 -0.000838 -0.000766 -0.005583 0.002001
# 2 -0.003231 0.016753 -0.006860 0.002227 0.008337 0.005412
# 3 -0.000838 -0.006860 0.012492 0.001642 -0.004264 -0.000363
# 4 -0.000766 0.002227 0.001642 0.020183 0.001288 0.003141
# 5 -0.005583 0.008337 -0.004264 0.001288 0.046926 0.009011
# 6 0.002001 0.005412 -0.000363 0.003141 0.009011 0.035330
#
#
# Mechanical properties :
#
#
# Convention : Reuss Voigt Hill
#
# Bulk Modulus (GPa) = 50.73502 57.66527 54.20014
# Shear Modulus (GPa) = 28.99586 35.54374 32.26980
#
# Velocity S-wave (km/s) = 3.54603 3.92605 3.74087
# Velocity P-wave (km/s) = 6.22636 6.74974 6.49332
#
# Compressibility (1/GPa) = 0.01971025
#
# Stress axis : x y z
#
# Youngs Moduli (GPa) = 81.13876 59.68979 80.05096
#
# Poissons Ratio (x) = 0.19287 0.06709
# Poissons Ratio (y) = 0.26218 0.54919
# Poissons Ratio (z) = 0.06800 0.40950
#
# Static dielectric constant tensor:
#      x y z
#    x 0.932120 0.921680 1.575230 
#    y 0.921680 1.136620 -1.339700 
#    z 1.575230 -1.339700 -0.337960 
# 
# From -- ./inp_files/519520.got.cif
#   From: 2010.05.17/outbox.cif.g08.bks.cpg/sg2_260_cif.got.tgz:519520.got - 2010.06.03 11:33:40.
