data_PCOD9008268
_publ_section_title
;
Structure prediction by ZEFSAII (Michael W. Deem and Ramdas Pophale) SiO2 
 PCOD9008268
Probable space group: P -1
;
_chemical_formula_sum "Si O2"
_cell_formula_units_Z 16
_cell_length_a 27.713537
_cell_length_b 19.092700
_cell_length_c 6.330439
_cell_angle_alpha 139.399999
_cell_angle_beta 138.778453
_cell_angle_gamma 19.118269
_cell_volume 704.371778
_symmetry_space_group_name_H-M "P -1"
_symmetry_group_IT_number 2
_symmetry_cell_setting 'triclinic'
loop_
_space_group_symop_operation_xyz
x,y,z
-x,-y,-z
loop_
_atom_site_type_symbol
_atom_site_label
_atom_site_fract_x
_atom_site_fract_y
_atom_site_fract_z
Si Si1 0.364623 0.616670 0.941575
Si Si2 0.967395 0.461444 0.994754
Si Si3 0.837478 0.420385 0.574333
Si Si4 0.512610 0.738504 0.681484
Si Si5 0.657780 0.453735 0.863486
Si Si6 0.358775 0.212795 0.880846
Si Si7 0.766704 0.838767 0.549461
Si Si8 0.901342 0.042393 0.405904
O O1 0.372602 0.481701 0.579702
O O2 0.376397 0.588263 0.163933
O O3 0.210917 0.865563 0.925163
O O4 0.500000 0.500000 0.000000
O O5 0.120360 0.237580 0.111707
O O6 0.863958 0.657469 0.270715
O O7 0.000000 0.500000 0.000000
O O8 0.884275 0.456964 0.654645
O O9 0.730359 0.469038 0.232313
O O10 0.758075 0.578811 0.873872
O O11 0.984625 0.175999 0.590317
O O12 0.577068 0.774880 0.026065
O O13 0.368653 0.933074 0.502144
O O14 0.512515 0.674531 0.755225
O O15 0.787558 0.240181 0.652485
O O16 0.292085 0.181857 0.535878
O O17 0.500000 0.000000 0.000000
O O18 0.000000 0.000000 0.500000
#
# Coordination Sequence:
#
# PCOD9008268 Si02
#       8
#     2   2   2   2   2   2   2   2
#     4  11  25  43  64  93 136 172 218 284 336 399
#     4  10  23  41  58  92 127 166 216 265 322 396
#     4  11  21  40  66  95 127 171 220 270 336 390
#     4  10  21  39  64  92 120 169 207 265 334 386
#     4  11  23  42  67 100 130 167 231 276 326 412
#     4   9  18  39  65  90 126 166 212 264 327 383
#     4   9  21  41  59  88 128 164 209 264 320 386
#     4  11  23  43  67 100 133 174 226 275 338 403
#
# _framework density 22.715278000000001
#
# number of rings (size 3 to 8) (size 9 to 14) (size 15 to 20)
#    0.000    1.750    2.500    1.125    3.500    3.000 
#    4.500    1.875    0.000    0.000    0.000    0.000 
#    0.000    0.000    0.000    0.000    0.000    0.000 
#
# Total GULP energy -89273.938174 kJ/mol
# GULP energy per Si atom -5579.621136 kJ/mol
# Density = 2.266358 g / cm^3
# Si number density = 22.715278 Si / 1000 Ang^3
#
#
#
# Elastic Constant Matrix: (Units=GPa)
#
#
# Indices 1 2 3 4 5 6 
#
# 1 155.1497 10.8890 13.1289 -12.7167 -3.2516 11.3343
# 2 10.8890 110.5643 5.6186 -17.0793 -10.7305 16.7256
# 3 13.1289 5.6186 36.7151 -14.3371 6.8230 8.4643
# 4 -12.7167 -17.0793 -14.3371 27.0482 2.4759 -1.4280
# 5 -3.2516 -10.7305 6.8230 2.4759 28.6062 -6.7763
# 6 11.3343 16.7256 8.4643 -1.4280 -6.7763 31.3313
#
#
#
# Elastic Compliance Matrix: (Units=1/GPa)
#
#
# Indices 1 2 3 4 5 6 
#
# 1 0.006900 0.000130 -0.001048 0.002628 0.000362 -0.002084
# 2 0.000130 0.011193 0.002454 0.007974 0.001518 -0.005993
# 3 -0.001048 0.002454 0.042949 0.024424 -0.015032 -0.014672
# 4 0.002628 0.007974 0.024424 0.056512 -0.010132 -0.011421
# 5 0.000362 0.001518 -0.015032 -0.010132 0.042856 0.011927
# 6 -0.002084 -0.005993 -0.014672 -0.011421 0.011927 0.041893
#
#
# Mechanical properties :
#
#
# Convention : Reuss Voigt Hill
#
# Bulk Modulus (GPa) = 15.59712 40.18914 27.89313
# Shear Modulus (GPa) = 22.66525 35.58332 29.12429
#
# Velocity S-wave (km/s) = 3.16222 3.96219 3.58459
# Velocity P-wave (km/s) = 4.49601 6.21795 5.42573
#
# Compressibility (1/GPa) = 0.06411439
#
# Stress axis : x y z
#
# Youngs Moduli (GPa) = 144.92394 89.34357 23.28329
#
# Poissons Ratio (x) = -0.01162 0.02440
# Poissons Ratio (y) = -0.01884 -0.05714
# Poissons Ratio (z) = 0.15188 -0.21926
#
# Static dielectric constant tensor:
#      x y z
#    x 1.894980 0.004010 0.026530 
#    y 0.004010 1.850560 -0.040030 
#    z 0.026530 -0.040030 1.881950 
# 
# From -- ./inp_files/95452.got.cif
#   From: 2010.05.17/outbox.cif.g08.bks.cpg/sg2_48_cif.got.tgz:95452.got - 2010.06.03 11:33:40.
