data_PCOD9008725
_publ_section_title
;
Structure prediction by ZEFSAII (Michael W. Deem and Ramdas Pophale) SiO2 
 PCOD9008725
Probable space group: P -1
;
_chemical_formula_sum "Si O2"
_cell_formula_units_Z 16
_cell_length_a 9.121072
_cell_length_b 19.700827
_cell_length_c 23.613510
_cell_angle_alpha 162.405901
_cell_angle_beta 143.644293
_cell_angle_gamma 35.651350
_cell_volume 736.059694
_symmetry_space_group_name_H-M "P -1"
_symmetry_group_IT_number 2
_symmetry_cell_setting 'triclinic'
loop_
_space_group_symop_operation_xyz
x,y,z
-x,-y,-z
loop_
_atom_site_type_symbol
_atom_site_label
_atom_site_fract_x
_atom_site_fract_y
_atom_site_fract_z
Si Si1 0.631698 0.061112 0.226992
Si Si2 0.522899 0.402501 0.003108
Si Si3 0.060214 0.056199 0.262127
Si Si4 0.350058 0.882618 0.906039
Si Si5 0.264766 0.387689 0.024059
Si Si6 0.641753 0.350189 0.565388
Si Si7 0.226249 0.267042 0.707492
Si Si8 0.456311 0.789860 0.459187
O O1 0.570758 0.273281 0.420417
O O2 0.390161 0.011646 0.078924
O O3 0.745985 0.836816 0.122690
O O4 0.845137 0.080676 0.262750
O O5 0.472864 0.337009 0.998498
O O6 0.593709 0.647465 0.213751
O O7 0.277105 0.401177 0.886941
O O8 0.751501 0.201808 0.887949
O O9 0.245164 0.223367 0.465460
O O10 0.923819 0.096748 0.190853
O O11 0.487302 0.611545 0.737972
O O12 0.500000 0.000000 0.000000
O O13 0.351282 0.572292 0.237231
O O14 0.000000 0.500000 0.000000
O O15 0.594898 0.179875 0.465378
O O16 0.942023 0.334836 0.650018
O O17 0.308274 0.002279 0.542862
#
# Coordination Sequence:
#
# PCOD9008725 Si02
#       8
#     2   2   2   2   2   2   2   2
#     4  11  24  44  69 100 132 183 224 270 339 403
#     4  10  23  40  66  94 139 175 222 275 340 389
#     4  10  24  46  66  96 135 174 230 279 330 394
#     4  10  23  45  70  96 135 176 226 281 329 396
#     4  12  25  41  66 102 139 179 223 269 338 405
#     4  12  23  43  69  98 135 175 227 273 340 390
#     4  10  21  39  65  95 132 179 214 276 330 399
#     4  11  24  41  64  98 139 172 226 278 331 395
#
# _framework density 21.737368
#
# number of rings (size 3 to 8) (size 9 to 14) (size 15 to 20)
#    0.000    1.250    1.250    4.875    7.000    3.000 
#    2.250    1.250    0.000    0.000    0.000    0.000 
#    0.000    0.000    0.000    0.000    0.000    0.000 
#
# Total GULP energy -89421.403629 kJ/mol
# GULP energy per Si atom -5588.837727 kJ/mol
# Density = 2.168789 g / cm^3
# Si number density = 21.737368 Si / 1000 Ang^3
#
#
#
# Elastic Constant Matrix: (Units=GPa)
#
#
# Indices 1 2 3 4 5 6 
#
# 1 64.1629 -2.2521 30.4879 -16.8687 -0.0599 9.5229
# 2 -2.2521 95.0639 35.2272 -29.0052 2.3579 5.3285
# 3 30.4879 35.2272 93.1832 -14.6937 -1.9196 2.7784
# 4 -16.8687 -29.0052 -14.6937 30.6621 8.9257 -1.2313
# 5 -0.0599 2.3579 -1.9196 8.9257 31.2460 -3.8390
# 6 9.5229 5.3285 2.7784 -1.2313 -3.8390 21.6851
#
#
#
# Elastic Compliance Matrix: (Units=1/GPa)
#
#
# Indices 1 2 3 4 5 6 
#
# 1 0.031436 0.014912 -0.011118 0.028913 -0.012039 -0.016534
# 2 0.014912 0.024446 -0.009290 0.030015 -0.012418 -0.011859
# 3 -0.011118 -0.009290 0.016535 -0.008126 0.004682 0.005414
# 4 0.028913 0.030015 -0.008126 0.080409 -0.028066 -0.019434
# 5 -0.012039 -0.012418 0.004682 -0.028066 0.042911 0.013741
# 6 -0.016534 -0.011859 0.005414 -0.019434 0.013741 0.056925
#
#
# Mechanical properties :
#
#
# Convention : Reuss Voigt Hill
#
# Bulk Modulus (GPa) = 16.28036 42.14842 29.21439
# Shear Modulus (GPa) = 17.59772 29.31511 23.45642
#
# Velocity S-wave (km/s) = 2.84836 3.67632 3.28850
# Velocity P-wave (km/s) = 4.28058 6.11983 5.28090
#
# Compressibility (1/GPa) = 0.06142372
#
# Stress axis : x y z
#
# Youngs Moduli (GPa) = 31.81106 40.90706 60.47873
#
# Poissons Ratio (x) = -0.60999 0.67242
# Poissons Ratio (y) = -0.47436 0.56182
# Poissons Ratio (z) = 0.35369 0.38001
#
# Static dielectric constant tensor:
#      x y z
#    x 1.823470 0.024300 -0.010640 
#    y 0.024300 1.793300 -0.013100 
#    z -0.010640 -0.013100 1.810710 
# 
# From -- ./inp_files/346217.got.cif
#   From: 2010.05.17/outbox.cif.g08.bks.cpg/sg2_174_cif.got.tgz:346217.got - 2010.06.03 11:33:40.
