data_PCOD9008910
_publ_section_title
;
Structure prediction by ZEFSAII (Michael W. Deem and Ramdas Pophale) SiO2 
 PCOD9008910
Probable space group: P -1
;
_chemical_formula_sum "Si O2"
_cell_formula_units_Z 16
_cell_length_a 19.526322
_cell_length_b 10.068916
_cell_length_c 11.587947
_cell_angle_alpha 64.385239
_cell_angle_beta 35.428762
_cell_angle_gamma 40.514805
_cell_volume 744.538928
_symmetry_space_group_name_H-M "P -1"
_symmetry_group_IT_number 2
_symmetry_cell_setting 'triclinic'
loop_
_space_group_symop_operation_xyz
x,y,z
-x,-y,-z
loop_
_atom_site_type_symbol
_atom_site_label
_atom_site_fract_x
_atom_site_fract_y
_atom_site_fract_z
Si Si1 0.130542 0.889309 0.978054
Si Si2 0.501073 0.278169 0.172833
Si Si3 0.539791 0.955454 0.825847
Si Si4 0.060967 0.355711 0.588237
Si Si5 0.714205 0.571279 0.106944
Si Si6 0.787253 0.125852 0.480484
Si Si7 0.223130 0.780412 0.287166
Si Si8 0.470419 0.372281 0.438306
O O1 0.231467 0.634662 0.948459
O O2 0.307490 0.828685 0.755121
O O3 0.000000 0.000000 0.000000
O O4 0.972879 0.049225 0.234081
O O5 0.557746 0.078638 0.099868
O O6 0.323186 0.525541 0.258445
O O7 0.456646 0.307039 0.357709
O O8 0.670083 0.232376 0.952172
O O9 0.760457 0.727389 0.582442
O O10 0.465582 0.181314 0.796399
O O11 0.500000 0.000000 0.000000
O O12 0.000000 0.500000 0.500000
O O13 0.143870 0.108079 0.549767
O O14 0.890533 0.504331 0.856778
O O15 0.656197 0.590923 0.309219
O O16 0.726296 0.190711 0.672042
O O17 0.625585 0.370834 0.539192
O O18 0.000000 0.000000 0.500000
#
# Coordination Sequence:
#
# PCOD9008910 Si02
#       8
#     2   2   2   2   2   2   2   2
#     4  11  22  38  67 101 127 164 221 271 321 388
#     4  10  25  42  62  95 129 172 221 260 328 396
#     4  12  25  43  66  92 130 171 215 271 323 391
#     4  11  24  41  61  97 130 167 221 267 317 390
#     4  11  25  39  68  95 129 175 213 269 334 379
#     4  10  22  38  65  95 131 168 214 274 325 381
#     4  10  21  39  66  92 126 172 214 267 323 380
#     4  11  23  44  64  95 136 170 216 272 335 385
#
# _framework density 21.489811
#
# number of rings (size 3 to 8) (size 9 to 14) (size 15 to 20)
#    0.000    1.250    2.500    2.625    5.250    2.500 
#    0.000    0.625    0.000    0.000    0.000    0.000 
#    0.000    0.000    0.000    0.000    0.000    0.000 
#
# Total GULP energy -89260.044386 kJ/mol
# GULP energy per Si atom -5578.752774 kJ/mol
# Density = 2.144090 g / cm^3
# Si number density = 21.489811 Si / 1000 Ang^3
#
#
#
# Elastic Constant Matrix: (Units=GPa)
#
#
# Indices 1 2 3 4 5 6 
#
# 1 50.1624 29.3096 28.3710 -7.5133 7.9483 1.4798
# 2 29.3096 111.7313 25.0688 4.8478 -4.0352 -13.8777
# 3 28.3710 25.0688 153.3712 -0.6368 5.1116 -16.0894
# 4 -7.5133 4.8478 -0.6368 37.6844 -12.9673 1.5399
# 5 7.9483 -4.0352 5.1116 -12.9673 38.4602 4.6568
# 6 1.4798 -13.8777 -16.0894 1.5399 4.6568 29.3513
#
#
#
# Elastic Compliance Matrix: (Units=1/GPa)
#
#
# Indices 1 2 3 4 5 6 
#
# 1 0.028759 -0.007792 -0.004700 0.005842 -0.003258 -0.007500
# 2 -0.007792 0.011894 0.000081 -0.002942 0.001125 0.006037
# 3 -0.004700 0.000081 0.007919 -0.001403 -0.001136 0.004870
# 4 0.005842 -0.002942 -0.001403 0.031754 0.010069 -0.005718
# 5 -0.003258 0.001125 -0.001136 0.010069 0.030988 -0.005371
# 6 -0.007500 0.006037 0.004870 -0.005718 -0.005371 0.041124
#
#
# Mechanical properties :
#
#
# Convention : Reuss Voigt Hill
#
# Bulk Modulus (GPa) = 42.10657 53.41818 47.76238
# Shear Modulus (GPa) = 27.00086 36.60021 31.80054
#
# Velocity S-wave (km/s) = 3.54849 4.13139 3.85098
# Velocity P-wave (km/s) = 6.03534 6.90429 6.48439
#
# Compressibility (1/GPa) = 0.02374926
#
# Stress axis : x y z
#
# Youngs Moduli (GPa) = 34.77149 84.07555 126.27411
#
# Poissons Ratio (x) = 0.65514 0.59352
# Poissons Ratio (y) = 0.27095 -0.01022
# Poissons Ratio (z) = 0.16343 -0.00680
#
# Static dielectric constant tensor:
#      x y z
#    x 1.830530 0.002520 -0.062410 
#    y 0.002520 1.810090 -0.026160 
#    z -0.062410 -0.026160 1.854860 
# 
# From -- ./inp_files/471162.got.cif
#   From: 2010.05.17/outbox.cif.g08.bks.cpg/sg2_236_cif.got.tgz:471162.got - 2010.06.03 11:33:40.
