data_PCOD9008005
_publ_section_title
;
Structure prediction by ZEFSAII (Michael W. Deem and Ramdas Pophale) SiO2 
 PCOD9008005
Probable space group: P -1
;
_chemical_formula_sum "Si O2"
_cell_formula_units_Z 12
_cell_length_a 12.687809
_cell_length_b 8.232936
_cell_length_c 8.293418
_cell_angle_alpha 121.977814
_cell_angle_beta 58.204239
_cell_angle_gamma 87.535599
_cell_volume 558.803586
_symmetry_space_group_name_H-M "P -1"
_symmetry_group_IT_number 2
_symmetry_cell_setting 'triclinic'
loop_
_space_group_symop_operation_xyz
x,y,z
-x,-y,-z
loop_
_atom_site_type_symbol
_atom_site_label
_atom_site_fract_x
_atom_site_fract_y
_atom_site_fract_z
Si Si1 0.866149 0.095805 0.269564
Si Si2 0.445898 0.293901 0.089753
Si Si3 0.134723 0.523896 0.336982
Si Si4 0.431950 0.645098 0.473155
Si Si5 0.144257 0.345079 0.881082
Si Si6 0.425146 0.134786 0.378462
O O1 0.884485 0.239723 0.472905
O O2 0.733356 0.251820 0.353187
O O3 0.846029 0.890643 0.229382
O O4 0.000000 0.000000 0.000000
O O5 0.285909 0.370445 0.209261
O O6 0.482116 0.490713 0.196386
O O7 0.458079 0.196858 0.208394
O O8 0.546286 0.109365 0.793755
O O9 0.000000 0.500000 0.500000
O O10 0.150004 0.455521 0.102471
O O11 0.500000 0.500000 0.500000
O O12 0.474454 0.835461 0.557366
O O13 0.272800 0.302416 0.640249
O O14 0.000000 0.500000 0.000000
#
# Coordination Sequence:
#
# PCOD9008005 Si02
#       6
#     2   2   2   2   2   2
#     4  11  24  42  68  97 131 178 223 265 329 398
#     4   9  20  39  64  93 123 170 217 265 322 396
#     4  11  22  41  66  91 127 177 219 266 327 393
#     4   9  20  38  65  96 124 166 216 270 317 389
#     4  12  27  43  63  99 139 171 219 282 324 384
#     4  10  21  39  63  93 130 167 215 267 331 380
#
# _framework density 21.474451999999999
#
# number of rings (size 3 to 8) (size 9 to 14) (size 15 to 20)
#    0.000    1.667    1.667    2.000    4.667    4.667 
#    3.000    3.333    0.000    0.000    0.000    0.000 
#    0.000    0.000    0.000    0.000    0.000    0.000 
#
# Total GULP energy -66978.045557 kJ/mol
# GULP energy per Si atom -5581.503796 kJ/mol
# Density = 2.142558 g / cm^3
# Si number density = 21.474452 Si / 1000 Ang^3
#
#
#
# Elastic Constant Matrix: (Units=GPa)
#
#
# Indices 1 2 3 4 5 6 
#
# 1 148.1393 22.2623 75.7990 23.7413 28.0705 1.5996
# 2 22.2623 52.4337 22.4520 16.2479 23.8410 -2.6022
# 3 75.7990 22.4520 184.7729 20.8880 30.0784 7.7577
# 4 23.7413 16.2479 20.8880 31.3991 7.5801 -1.1484
# 5 28.0705 23.8410 30.0784 7.5801 47.6248 8.2153
# 6 1.5996 -2.6022 7.7577 -1.1484 8.2153 21.9584
#
#
#
# Elastic Compliance Matrix: (Units=1/GPa)
#
#
# Indices 1 2 3 4 5 6 
#
# 1 0.009584 0.000220 -0.002950 -0.004521 -0.003420 0.001413
# 2 0.000220 0.029641 -0.000417 -0.011461 -0.014331 0.008406
# 3 -0.002950 -0.000417 0.007304 -0.001983 -0.002048 -0.001752
# 4 -0.004521 -0.011461 -0.001983 0.041855 0.002855 0.000792
# 5 -0.003420 -0.014331 -0.002048 0.002855 0.033273 -0.013025
# 6 0.001413 0.008406 -0.001752 0.000792 -0.013025 0.051967
#
#
# Mechanical properties :
#
#
# Convention : Reuss Voigt Hill
#
# Bulk Modulus (GPa) = 24.85292 69.59694 47.22493
# Shear Modulus (GPa) = 25.86253 37.85198 31.85725
#
# Velocity S-wave (km/s) = 3.47412 4.20295 3.85580
# Velocity P-wave (km/s) = 5.26223 7.48549 6.47007
#
# Compressibility (1/GPa) = 0.04023673
#
# Stress axis : x y z
#
# Youngs Moduli (GPa) = 104.33973 33.73670 136.91411
#
# Poissons Ratio (x) = -0.00743 0.40388
# Poissons Ratio (y) = -0.02297 0.05703
# Poissons Ratio (z) = 0.30779 0.01405
#
# Static dielectric constant tensor:
#      x y z
#    x 1.801400 0.079750 0.028680 
#    y 0.079750 1.783830 0.040010 
#    z 0.028680 0.040010 1.781340 
# 
# From -- ./inp_files/160043.got.cif
#   From: 2010.05.17/outbox.cif.g08.bks.cpg/sg2_81_cif.got.tgz:160043.got - 2010.06.03 11:33:40.
