data_PCOD9008962
_publ_section_title
;
Structure prediction by ZEFSAII (Michael W. Deem and Ramdas Pophale) SiO2 
 PCOD9008962
Probable space group: P -1
;
_chemical_formula_sum "Si O2"
_cell_formula_units_Z 16
_cell_length_a 12.279615
_cell_length_b 17.593901
_cell_length_c 19.349323
_cell_angle_alpha 22.624408
_cell_angle_beta 29.107462
_cell_angle_gamma 29.778846
_cell_volume 738.858388
_symmetry_space_group_name_H-M "P -1"
_symmetry_group_IT_number 2
_symmetry_cell_setting 'triclinic'
loop_
_space_group_symop_operation_xyz
x,y,z
-x,-y,-z
loop_
_atom_site_type_symbol
_atom_site_label
_atom_site_fract_x
_atom_site_fract_y
_atom_site_fract_z
Si Si1 0.733129 0.784122 0.732341
Si Si2 0.286167 0.104533 0.081557
Si Si3 0.452091 0.708807 0.395896
Si Si4 0.576632 0.242017 0.471501
Si Si5 0.269932 0.399480 0.960613
Si Si6 0.213269 0.828250 0.936750
Si Si7 0.038731 0.345243 0.889313
Si Si8 0.048218 0.283998 0.696420
O O1 0.942854 0.596397 0.739468
O O2 0.739681 0.017869 0.541607
O O3 0.713346 0.711621 0.882691
O O4 0.489795 0.798271 0.816180
O O5 0.258149 0.906843 0.302429
O O6 0.373484 0.233764 0.981775
O O7 0.084167 0.248678 0.022580
O O8 0.500000 0.000000 0.000000
O O9 0.500000 0.500000 0.500000
O O10 0.377082 0.703691 0.520945
O O11 0.713107 0.733625 0.223890
O O12 0.607298 0.424709 0.254292
O O13 0.310388 0.237524 0.621297
O O14 0.000000 0.500000 0.000000
O O15 0.146691 0.732153 0.985043
O O16 0.130710 0.718280 0.140375
O O17 0.069418 0.077813 0.812096
O O18 0.000000 0.500000 0.500000
#
# Coordination Sequence:
#
# PCOD9008962 Si02
#       8
#     2   2   2   2   2   2   2   2
#     4  11  24  42  66  93 133 171 212 261 321 385
#     4  10  22  39  63  91 128 165 211 261 319 372
#     4  11  23  39  63  95 126 163 218 266 314 374
#     4  11  23  41  64  93 125 166 216 265 313 382
#     4  12  24  42  64  94 128 170 212 263 323 380
#     4  10  22  40  65  96 128 166 216 260 317 382
#     4  11  22  43  62  93 132 173 206 263 326 374
#     4  10  21  39  66  95 123 166 214 267 317 366
#
# _framework density 21.655028999999999
#
# number of rings (size 3 to 8) (size 9 to 14) (size 15 to 20)
#    0.000    1.250    3.750    2.625    0.000    4.500 
#    0.000    0.000    0.000    4.500    0.000    0.000 
#    0.000    0.000    0.000    0.000    0.000    0.000 
#
# Total GULP energy -89404.898203 kJ/mol
# GULP energy per Si atom -5587.806138 kJ/mol
# Density = 2.160574 g / cm^3
# Si number density = 21.655029 Si / 1000 Ang^3
#
#
#
# Elastic Constant Matrix: (Units=GPa)
#
#
# Indices 1 2 3 4 5 6 
#
# 1 83.1231 16.4532 16.0201 -19.9218 -12.0511 6.9392
# 2 16.4532 96.0845 24.3362 -17.0661 -4.0172 2.7185
# 3 16.0201 24.3362 97.3752 -34.6811 -4.0110 7.2606
# 4 -19.9218 -17.0661 -34.6811 44.4505 -1.5410 -3.9707
# 5 -12.0511 -4.0172 -4.0110 -1.5410 31.4016 -6.5731
# 6 6.9392 2.7185 7.2606 -3.9707 -6.5731 26.0576
#
#
#
# Elastic Compliance Matrix: (Units=1/GPa)
#
#
# Indices 1 2 3 4 5 6 
#
# 1 0.014679 -0.001210 0.000593 0.006633 0.005559 -0.001535
# 2 -0.001210 0.011549 -0.001745 0.002586 0.000968 0.000242
# 3 0.000593 -0.001745 0.014754 0.011008 0.002032 -0.001897
# 4 0.006633 0.002586 0.011008 0.035445 0.006423 0.001918
# 5 0.005559 0.000968 0.002032 0.006423 0.036352 0.008001
# 6 -0.001535 0.000242 -0.001897 0.001918 0.008001 0.041599
#
#
# Mechanical properties :
#
#
# Convention : Reuss Voigt Hill
#
# Bulk Modulus (GPa) = 27.57874 43.35573 35.46724
# Shear Modulus (GPa) = 29.20756 35.03349 32.12053
#
# Velocity S-wave (km/s) = 3.67654 4.02655 3.85552
# Velocity P-wave (km/s) = 5.54849 6.45616 6.01946
#
# Compressibility (1/GPa) = 0.03625981
#
# Stress axis : x y z
#
# Youngs Moduli (GPa) = 68.12362 86.58391 67.77906
#
# Poissons Ratio (x) = 0.10476 -0.04020
# Poissons Ratio (y) = 0.08242 0.11824
# Poissons Ratio (z) = -0.04040 0.15105
#
# Static dielectric constant tensor:
#      x y z
#    x 1.787880 -0.012860 -0.031160 
#    y -0.012860 1.807000 0.001970 
#    z -0.031160 0.001970 1.771000 
# 
# From -- ./inp_files/272837.got.cif
#   From: 2010.05.17/outbox.cif.g08.bks.cpg/sg2_137_cif.got.tgz:272837.got - 2010.06.03 11:33:40.
