data_PCOD9008627
_publ_section_title
;
Structure prediction by ZEFSAII (Michael W. Deem and Ramdas Pophale) SiO2 
 PCOD9008627
Probable space group: P -1
;
_chemical_formula_sum "Si O2"
_cell_formula_units_Z 16
_cell_length_a 12.250416
_cell_length_b 9.323128
_cell_length_c 15.260400
_cell_angle_alpha 142.392153
_cell_angle_beta 141.129800
_cell_angle_gamma 47.459204
_cell_volume 659.429059
_symmetry_space_group_name_H-M "P -1"
_symmetry_group_IT_number 2
_symmetry_cell_setting 'triclinic'
loop_
_space_group_symop_operation_xyz
x,y,z
-x,-y,-z
loop_
_atom_site_type_symbol
_atom_site_label
_atom_site_fract_x
_atom_site_fract_y
_atom_site_fract_z
Si Si1 0.631328 0.263201 0.307427
Si Si2 0.952101 0.116262 0.160734
Si Si3 0.895363 0.945863 0.219618
Si Si4 0.058561 0.626631 0.319577
Si Si5 0.386904 0.286023 0.310730
Si Si6 0.554080 0.727698 0.363387
Si Si7 0.880519 0.643501 0.393941
Si Si8 0.289618 0.890687 0.154843
O O1 0.701778 0.063713 0.184765
O O2 0.791370 0.251962 0.474903
O O3 0.455760 0.215347 0.223081
O O4 0.601390 0.524277 0.368614
O O5 0.917283 0.928721 0.121462
O O6 0.965925 0.371913 0.334757
O O7 0.130245 0.024941 0.177431
O O8 0.793378 0.166955 0.016887
O O9 0.011891 0.148982 0.415094
O O10 0.976345 0.734972 0.231004
O O11 0.182536 0.383327 0.250126
O O12 0.901042 0.635567 0.295889
O O13 0.500000 0.500000 0.500000
O O14 0.425575 0.067528 0.296009
O O15 0.707515 0.696658 0.371152
O O16 0.500000 0.000000 0.500000
O O17 0.385974 0.688960 0.180705
#
# Coordination Sequence:
#
# PCOD9008627 Si02
#       8
#     2   2   2   2   2   2   2   2
#     4  10  22  38  58  97 132 158 208 271 323 375
#     4  11  24  47  66  90 135 176 221 265 317 396
#     4  11  23  39  66  98 127 176 219 265 319 385
#     4  10  22  38  64  96 130 168 210 267 327 372
#     4  10  21  39  65  92 132 162 211 270 322 382
#     4  12  25  38  67 100 127 166 217 274 330 377
#     4  11  22  40  68  95 131 169 223 275 313 380
#     4  11  26  44  67  96 131 175 214 269 333 383
#
# _framework density 24.263414000000001
#
# number of rings (size 3 to 8) (size 9 to 14) (size 15 to 20)
#    0.000    1.250    2.500    4.125   12.250    0.500 
#    0.000    2.500    0.000    0.000    0.000    0.000 
#    0.000    0.000    0.000    0.000    0.000    0.000 
#
# Total GULP energy -89260.399320 kJ/mol
# GULP energy per Si atom -5578.774957 kJ/mol
# Density = 2.420819 g / cm^3
# Si number density = 24.263414 Si / 1000 Ang^3
#
#
#
# Elastic Constant Matrix: (Units=GPa)
#
#
# Indices 1 2 3 4 5 6 
#
# 1 197.4429 36.1159 18.9292 -12.1927 -13.9350 3.3997
# 2 36.1159 90.2902 15.3192 -25.7746 -11.0330 11.1774
# 3 18.9292 15.3192 61.8303 -16.4441 -4.5496 8.1588
# 4 -12.1927 -25.7746 -16.4441 22.7653 3.9982 -3.0352
# 5 -13.9350 -11.0330 -4.5496 3.9982 27.3988 -6.1232
# 6 3.3997 11.1774 8.1588 -3.0352 -6.1232 28.8877
#
#
#
# Elastic Compliance Matrix: (Units=1/GPa)
#
#
# Indices 1 2 3 4 5 6 
#
# 1 0.005667 -0.002028 -0.001318 -0.000466 0.002113 0.000889
# 2 -0.002028 0.018112 0.002263 0.019953 0.002665 -0.004747
# 3 -0.001318 0.002263 0.021028 0.016349 0.000254 -0.004888
# 4 -0.000466 0.019953 0.016349 0.077802 -0.001846 -0.004500
# 5 0.002113 0.002665 0.000254 -0.001846 0.040532 0.007046
# 6 0.000889 -0.004747 -0.004888 -0.004500 0.007046 0.038750
#
#
# Mechanical properties :
#
#
# Convention : Reuss Voigt Hill
#
# Bulk Modulus (GPa) = 23.45210 54.47689 38.96449
# Shear Modulus (GPa) = 22.90726 34.42361 28.66544
#
# Velocity S-wave (km/s) = 3.07597 3.77071 3.44092
# Velocity P-wave (km/s) = 4.72250 6.43884 5.64627
#
# Compressibility (1/GPa) = 0.04264011
#
# Stress axis : x y z
#
# Youngs Moduli (GPa) = 176.45462 55.21210 47.55582
#
# Poissons Ratio (x) = 0.11197 0.06269
# Poissons Ratio (y) = 0.35783 -0.10760
# Poissons Ratio (z) = 0.23260 -0.12492
#
# Static dielectric constant tensor:
#      x y z
#    x 2.009880 -0.011140 -0.039870 
#    y -0.011140 1.762200 0.039380 
#    z -0.039870 0.039380 2.047380 
# 
# From -- ./inp_files/516304.got.cif
#   From: 2010.05.17/outbox.cif.g08.bks.cpg/sg2_259_cif.got.tgz:516304.got - 2010.06.03 11:33:40.
