data_PCOD9008094
_publ_section_title
;
Structure prediction by ZEFSAII (Michael W. Deem and Ramdas Pophale) SiO2 
 PCOD9008094
Probable space group: P -1
;
_chemical_formula_sum "Si O2"
_cell_formula_units_Z 14
_cell_length_a 6.719960
_cell_length_b 11.219722
_cell_length_c 13.545806
_cell_angle_alpha 106.958211
_cell_angle_beta 52.526504
_cell_angle_gamma 75.294183
_cell_volume 638.002002
_symmetry_space_group_name_H-M "P -1"
_symmetry_group_IT_number 2
_symmetry_cell_setting 'triclinic'
loop_
_space_group_symop_operation_xyz
x,y,z
-x,-y,-z
loop_
_atom_site_type_symbol
_atom_site_label
_atom_site_fract_x
_atom_site_fract_y
_atom_site_fract_z
Si Si1 0.923348 0.686826 0.887539
Si Si2 0.664978 0.097593 0.254558
Si Si3 0.297669 0.993391 0.976915
Si Si4 0.512748 0.355219 0.687319
Si Si5 0.745617 0.325268 0.402248
Si Si6 0.620265 0.335457 0.882080
Si Si7 0.673735 0.879659 0.332051
O O1 0.219786 0.528268 0.798625
O O2 0.984572 0.700077 0.756055
O O3 0.875841 0.839061 0.980631
O O4 0.622959 0.695853 0.010392
O O5 0.618556 0.231476 0.369860
O O6 0.553363 0.131189 0.183594
O O7 0.563163 0.995049 0.302663
O O8 0.031835 0.993444 0.109920
O O9 0.500000 0.000000 0.000000
O O10 0.757465 0.307929 0.513219
O O11 0.619455 0.341402 0.764198
O O12 0.408571 0.241407 0.680650
O O13 0.500000 0.500000 0.500000
O O14 0.964102 0.214014 0.783353
O O15 0.500000 0.500000 0.000000
O O16 0.500000 0.000000 0.500000
#
# Coordination Sequence:
#
# PCOD9008094 Si02
#       7
#     2   2   2   2   2   2   2
#     4  10  21  43  70  96 138 176 223 287 337 398
#     4  10  21  39  64  92 127 175 214 271 342 388
#     4  10  21  39  63  98 130 166 220 277 330 401
#     4  11  23  45  68 100 140 177 226 287 341 404
#     4   9  20  42  68  92 134 184 219 272 344 405
#     4  12  26  42  70 104 134 181 237 275 343 413
#     4  12  25  44  70  97 141 178 226 283 345 406
#
# _framework density 21.943504999999998
#
# number of rings (size 3 to 8) (size 9 to 14) (size 15 to 20)
#    0.000    1.429    2.857    2.143    2.000    0.571 
#   10.286    0.714    0.000    0.000    0.000    0.000 
#    0.000    0.000    0.000    0.000    0.000    0.000 
#
# Total GULP energy -78058.447906 kJ/mol
# GULP energy per Si atom -5575.603422 kJ/mol
# Density = 2.189356 g / cm^3
# Si number density = 21.943505 Si / 1000 Ang^3
#
#
#
# Elastic Constant Matrix: (Units=GPa)
#
#
# Indices 1 2 3 4 5 6 
#
# 1 68.5946 16.7967 25.3164 -1.6437 27.4533 -2.7380
# 2 16.7967 112.1091 29.2357 2.0228 12.1673 11.8141
# 3 25.3164 29.2357 125.7711 -3.5606 28.5849 4.9873
# 4 -1.6437 2.0228 -3.5606 48.3770 0.9900 -6.7070
# 5 27.4533 12.1673 28.5849 0.9900 38.7273 1.7307
# 6 -2.7380 11.8141 4.9873 -6.7070 1.7307 20.2725
#
#
#
# Elastic Compliance Matrix: (Units=1/GPa)
#
#
# Indices 1 2 3 4 5 6 
#
# 1 0.021376 -0.002144 -0.000758 0.001907 -0.014245 0.006170
# 2 -0.002144 0.010416 -0.001747 -0.001525 -0.000137 -0.006422
# 3 -0.000758 -0.001747 0.009988 0.000808 -0.006274 -0.000738
# 4 0.001907 -0.001525 0.000808 0.022081 -0.002412 0.008458
# 5 -0.014245 -0.000137 -0.006274 -0.002412 0.040860 -0.004587
# 6 0.006170 -0.006422 -0.000738 0.008458 -0.004587 0.057275
#
#
# Mechanical properties :
#
#
# Convention : Reuss Voigt Hill
#
# Bulk Modulus (GPa) = 30.78512 49.90804 40.34658
# Shear Modulus (GPa) = 27.45437 37.15041 32.30239
#
# Velocity S-wave (km/s) = 3.54098 4.11908 3.84092
# Velocity P-wave (km/s) = 5.54777 6.73911 6.17225
#
# Compressibility (1/GPa) = 0.03248323
#
# Stress axis : x y z
#
# Youngs Moduli (GPa) = 46.78103 96.00776 100.12469
#
# Poissons Ratio (x) = 0.20581 0.07585
# Poissons Ratio (y) = 0.10028 0.17491
# Poissons Ratio (z) = 0.03544 0.16772
#
# Static dielectric constant tensor:
#      x y z
#    x 1.776610 -0.012690 -0.012240 
#    y -0.012690 1.898450 -0.083380 
#    z -0.012240 -0.083380 1.940770 
# 
# From -- ./inp_files/68735.got.cif
#   From: 2010.05.17/outbox.cif.g08.bks.cpg/sg2_35_cif.got.tgz:68735.got - 2010.06.03 11:33:40.
