data_PCOD9008838
_publ_section_title
;
Structure prediction by ZEFSAII (Michael W. Deem and Ramdas Pophale) SiO2 
 PCOD9008838
Probable space group: P -1
;
_chemical_formula_sum "Si O2"
_cell_formula_units_Z 16
_cell_length_a 5.915114
_cell_length_b 10.843878
_cell_length_c 19.022788
_cell_angle_alpha 145.351477
_cell_angle_beta 93.224729
_cell_angle_gamma 82.606706
_cell_volume 685.283387
_symmetry_space_group_name_H-M "P -1"
_symmetry_group_IT_number 2
_symmetry_cell_setting 'triclinic'
loop_
_space_group_symop_operation_xyz
x,y,z
-x,-y,-z
loop_
_atom_site_type_symbol
_atom_site_label
_atom_site_fract_x
_atom_site_fract_y
_atom_site_fract_z
Si Si1 0.996488 0.050508 0.697008
Si Si2 0.731779 0.502287 0.695428
Si Si3 0.765799 0.416831 0.491008
Si Si4 0.104641 0.060122 0.115141
Si Si5 0.339966 0.873827 0.388197
Si Si6 0.339828 0.349333 0.832703
Si Si7 0.333401 0.835063 0.891504
Si Si8 0.656352 0.184817 0.879620
O O1 0.836298 0.978799 0.597834
O O2 0.846840 0.147750 0.805517
O O3 0.112943 0.251313 0.763835
O O4 0.172249 0.846283 0.631636
O O5 0.753997 0.467495 0.597111
O O6 0.873916 0.701271 0.803834
O O7 0.785831 0.280009 0.635520
O O8 0.475972 0.609137 0.765110
O O9 0.500000 0.500000 0.500000
O O10 0.000000 0.500000 0.500000
O O11 0.835707 0.070065 0.129798
O O12 0.281467 0.018235 0.162443
O O13 0.172474 0.859866 0.968769
O O14 0.489776 0.719094 0.260894
O O15 0.500000 0.000000 0.500000
O O16 0.428194 0.224227 0.848266
O O17 0.326688 0.599529 0.972960
O O18 0.500000 0.000000 0.000000
#
# Coordination Sequence:
#
# PCOD9008838 Si02
#       8
#     2   2   2   2   2   2   2   2
#     4  11  26  45  73 104 145 198 252 313 379 445
#     4  11  25  42  70  99 140 193 241 307 377 434
#     4  12  31  50  77 111 150 193 254 316 379 454
#     4  10  21  39  66 101 145 185 241 298 377 443
#     4  11  26  46  71 102 146 196 258 311 372 453
#     4  10  23  43  69 105 144 191 251 301 375 449
#     4   9  21  38  61 101 138 183 231 294 364 445
#     4  10  22  41  70 103 145 190 239 308 375 456
#
# _framework density 23.348006000000002
#
# number of rings (size 3 to 8) (size 9 to 14) (size 15 to 20)
#    0.000    1.500    0.000    2.625   10.500    7.000 
#    0.000    0.000    0.000    0.000    0.000    0.000 
#    0.000    0.000    0.000    0.000    0.000    0.000 
#
# Total GULP energy -89163.852905 kJ/mol
# GULP energy per Si atom -5572.740807 kJ/mol
# Density = 2.329486 g / cm^3
# Si number density = 23.348006 Si / 1000 Ang^3
#
#
#
# Elastic Constant Matrix: (Units=GPa)
#
#
# Indices 1 2 3 4 5 6 
#
# 1 75.3351 33.3323 35.8838 -4.5301 1.5618 -16.6468
# 2 33.3323 111.8839 46.2430 -7.1938 13.7545 -6.9908
# 3 35.8838 46.2430 117.4776 -8.8987 2.0550 -1.5788
# 4 -4.5301 -7.1938 -8.8987 32.3168 1.8757 -0.8814
# 5 1.5618 13.7545 2.0550 1.8757 40.6174 -0.4174
# 6 -16.6468 -6.9908 -1.5788 -0.8814 -0.4174 33.2763
#
#
#
# Elastic Compliance Matrix: (Units=1/GPa)
#
#
# Indices 1 2 3 4 5 6 
#
# 1 0.018664 -0.003306 -0.004229 0.000909 0.000661 0.008474
# 2 -0.003306 0.011984 -0.003520 0.001475 -0.003814 0.000688
# 3 -0.004229 -0.003520 0.011270 0.001625 0.000686 -0.002268
# 4 0.000909 0.001475 0.001625 0.032013 -0.002078 0.001664
# 5 0.000661 -0.003814 0.000686 -0.002078 0.025946 -0.000168
# 6 0.008474 0.000688 -0.002268 0.001664 -0.000168 0.034370
#
#
# Mechanical properties :
#
#
# Convention : Reuss Voigt Hill
#
# Bulk Modulus (GPa) = 50.47999 59.51274 54.99637
# Shear Modulus (GPa) = 30.68248 33.85793 32.27020
#
# Velocity S-wave (km/s) = 3.62904 3.81220 3.72175
# Velocity P-wave (km/s) = 6.26319 6.70239 6.48650
#
# Compressibility (1/GPa) = 0.01980983
#
# Stress axis : x y z
#
# Youngs Moduli (GPa) = 53.57769 83.44233 88.73090
#
# Poissons Ratio (x) = 0.27587 0.37520
# Poissons Ratio (y) = 0.17713 0.31232
# Poissons Ratio (z) = 0.22656 0.29370
#
# Static dielectric constant tensor:
#      x y z
#    x 2.025210 -0.031300 -0.003820 
#    y -0.031300 1.947720 0.002620 
#    z -0.003820 0.002620 1.858640 
# 
# From -- ./inp_files/583379.got.cif
#   From: 2010.05.17/outbox.cif.g08.bks.cpg/sg2_292_cif.got.tgz:583379.got - 2010.06.03 11:33:40.
