data_PCOD9008898
_publ_section_title
;
Structure prediction by ZEFSAII (Michael W. Deem and Ramdas Pophale) SiO2 
 PCOD9008898
Probable space group: P -1
;
_chemical_formula_sum "Si O2"
_cell_formula_units_Z 13
_cell_length_a 7.391661
_cell_length_b 8.876956
_cell_length_c 9.190202
_cell_angle_alpha 77.590848
_cell_angle_beta 63.165306
_cell_angle_gamma 92.582656
_cell_volume 518.481123
_symmetry_space_group_name_H-M "P -1"
_symmetry_group_IT_number 2
_symmetry_cell_setting 'triclinic'
loop_
_space_group_symop_operation_xyz
x,y,z
-x,-y,-z
loop_
_atom_site_type_symbol
_atom_site_label
_atom_site_fract_x
_atom_site_fract_y
_atom_site_fract_z
Si Si1 0.150408 0.519772 0.302649
Si Si2 0.552946 0.950457 0.761926
Si Si3 0.000000 0.000000 0.500000
Si Si4 0.529565 0.633253 0.654549
Si Si5 0.139021 0.826240 0.046760
Si Si6 0.250210 0.116689 0.664060
Si Si7 0.923053 0.363832 0.170627
O O1 0.377528 0.507096 0.278316
O O2 0.144625 0.672571 0.177231
O O3 0.072465 0.373077 0.252354
O O4 0.000000 0.500000 0.500000
O O5 0.545790 0.773767 0.737943
O O6 0.793931 0.015086 0.679621
O O7 0.450978 0.057525 0.663154
O O8 0.366832 0.925898 0.952882
O O9 0.846306 0.975962 0.422815
O O10 0.674714 0.706931 0.456889
O O11 0.295156 0.603429 0.699376
O O12 0.930842 0.883118 0.156722
O O13 0.110404 0.783058 0.893605
O O14 0.000000 0.500000 0.000000
#
# Coordination Sequence:
#
# PCOD9008898 Si02
#       7
#     2   2   1   2   2   2   2
#     4  11  22  42  65  95 127 161 211 259 311 380
#     4  10  23  41  64  90 128 169 211 259 312 374
#     4  10  22  40  66  92 124 170 214 256 320 364
#     4  10  21  39  66  91 127 164 212 256 309 378
#     4  10  22  43  64  96 132 162 209 266 314 372
#     4  11  22  42  63  94 128 165 213 260 309 378
#     4   9  22  41  64  91 127 172 202 253 324 370
#
# _framework density 25.073238
#
# number of rings (size 3 to 8) (size 9 to 14) (size 15 to 20)
#    0.000    1.846    1.538    2.308    0.000   14.154 
#    0.000    4.615    0.000    0.000    0.000    0.000 
#    0.000    0.000    0.000    0.000    0.000    0.000 
#
# Total GULP energy -72414.601405 kJ/mol
# GULP energy per Si atom -5570.353954 kJ/mol
# Density = 2.501617 g / cm^3
# Si number density = 25.073238 Si / 1000 Ang^3
#
#
#
# Elastic Constant Matrix: (Units=GPa)
#
#
# Indices 1 2 3 4 5 6 
#
# 1 163.1080 29.9406 51.7159 -0.4268 -31.9951 -18.6536
# 2 29.9406 45.8804 10.0775 5.5948 3.8698 -15.0397
# 3 51.7159 10.0775 146.6830 10.1037 -26.3407 -2.0564
# 4 -0.4268 5.5948 10.1037 34.7166 -7.2939 2.6805
# 5 -31.9951 3.8698 -26.3407 -7.2939 51.1447 7.4226
# 6 -18.6536 -15.0397 -2.0564 2.6805 7.4226 38.2582
#
#
#
# Elastic Compliance Matrix: (Units=1/GPa)
#
#
# Indices 1 2 3 4 5 6 
#
# 1 0.008993 -0.005989 -0.001976 0.002721 0.005348 0.000696
# 2 -0.005989 0.031559 -0.001063 -0.007759 -0.009504 0.011816
# 3 -0.001976 -0.001063 0.008222 -0.001489 0.003074 -0.001432
# 4 0.002721 -0.007759 -0.001489 0.032396 0.006928 -0.005418
# 5 0.005348 -0.009504 0.003074 0.006928 0.027163 -0.006719
# 6 0.000696 0.011816 -0.001432 -0.005418 -0.006719 0.032729
#
#
# Mechanical properties :
#
#
# Convention : Reuss Voigt Hill
#
# Bulk Modulus (GPa) = 32.55611 59.90437 46.23024
# Shear Modulus (GPa) = 29.52340 42.41973 35.97157
#
# Velocity S-wave (km/s) = 3.43517 4.11765 3.79180
# Velocity P-wave (km/s) = 5.36158 6.82278 6.13583
#
# Compressibility (1/GPa) = 0.03071620
#
# Stress axis : x y z
#
# Youngs Moduli (GPa) = 111.20169 31.68677 121.62830
#
# Poissons Ratio (x) = 0.18978 0.24038
# Poissons Ratio (y) = 0.66600 0.12930
# Poissons Ratio (z) = 0.21977 0.03369
#
# Static dielectric constant tensor:
#      x y z
#    x 1.917740 0.033890 -0.003950 
#    y 0.033890 2.115930 -0.008830 
#    z -0.003950 -0.008830 2.044610 
# 
# From -- ./inp_files/24594.got.cif
#   From: 2010.05.17/outbox.cif.g08.bks.cpg/sg2_13_cif.got.tgz:24594.got - 2010.06.03 11:33:40.
