data_PCOD9008387
_publ_section_title
;
Structure prediction by ZEFSAII (Michael W. Deem and Ramdas Pophale) SiO2 
 PCOD9008387
Probable space group: P -1
;
_chemical_formula_sum "Si O2"
_cell_formula_units_Z 16
_cell_length_a 9.367720
_cell_length_b 9.661748
_cell_length_c 11.851079
_cell_angle_alpha 103.987748
_cell_angle_beta 54.426718
_cell_angle_gamma 124.263457
_cell_volume 715.138284
_symmetry_space_group_name_H-M "P -1"
_symmetry_group_IT_number 2
_symmetry_cell_setting 'triclinic'
loop_
_space_group_symop_operation_xyz
x,y,z
-x,-y,-z
loop_
_atom_site_type_symbol
_atom_site_label
_atom_site_fract_x
_atom_site_fract_y
_atom_site_fract_z
Si Si1 0.059255 0.502537 0.156517
Si Si2 0.288701 0.057358 0.294702
Si Si3 0.231188 0.509920 0.312523
Si Si4 0.112121 0.272305 0.524359
Si Si5 0.656395 0.148279 0.302847
Si Si6 0.483815 0.624451 0.860780
Si Si7 0.439900 0.191043 0.626724
Si Si8 0.750527 0.595536 0.284857
O O1 0.104372 0.527237 0.274612
O O2 0.871700 0.308146 0.194329
O O3 0.966448 0.607177 0.167531
O O4 0.271867 0.551757 0.010023
O O5 0.202354 0.158098 0.422623
O O6 0.484705 0.074262 0.269992
O O7 0.377577 0.172340 0.164765
O O8 0.103147 0.863643 0.342972
O O9 0.096891 0.364486 0.438689
O O10 0.377879 0.449374 0.180801
O O11 0.382887 0.682683 0.342368
O O12 0.261498 0.412688 0.574885
O O13 0.555389 0.199288 0.459489
O O14 0.677442 0.999918 0.313996
O O15 0.412724 0.555792 0.750531
O O16 0.281100 0.252800 0.698524
#
# Coordination Sequence:
#
# PCOD9008387 Si02
#       8
#     2   2   2   2   2   2   2   2
#     4  12  25  41  67  93 125 177 217 251 310 385
#     4  10  21  39  64  95 126 167 200 274 309 384
#     4  10  24  41  66  94 130 165 209 271 310 378
#     4  10  22  38  65  98 127 158 213 257 341 356
#     4  11  23  38  66  92 135 162 209 259 319 384
#     4  10  23  45  66  89 127 175 218 252 312 377
#     4  10  24  41  61  97 133 163 203 265 332 366
#     4  11  22  41  66  93 126 165 212 264 309 380
#
# _framework density 22.373296
#
# number of rings (size 3 to 8) (size 9 to 14) (size 15 to 20)
#    0.000    1.500    2.500    1.500    5.250    4.000 
#    0.000    4.375    0.000    0.000    0.000    0.000 
#    0.000    0.000    0.000    0.000    0.000    0.000 
#
# Total GULP energy -89425.322234 kJ/mol
# GULP energy per Si atom -5589.082640 kJ/mol
# Density = 2.232237 g / cm^3
# Si number density = 22.373296 Si / 1000 Ang^3
#
#
#
# Elastic Constant Matrix: (Units=GPa)
#
#
# Indices 1 2 3 4 5 6 
#
# 1 117.0684 41.0267 14.4088 -5.7664 -8.9422 -10.2173
# 2 41.0267 126.4887 44.9675 -19.8201 -16.0730 -15.4416
# 3 14.4088 44.9675 69.6869 -24.1838 -21.5619 -2.4478
# 4 -5.7664 -19.8201 -24.1838 23.4878 11.3523 -5.1163
# 5 -8.9422 -16.0730 -21.5619 11.3523 36.7183 4.4868
# 6 -10.2173 -15.4416 -2.4478 -5.1163 4.4868 31.6796
#
#
#
# Elastic Compliance Matrix: (Units=1/GPa)
#
#
# Indices 1 2 3 4 5 6 
#
# 1 0.009755 -0.002923 0.000263 0.000045 0.001041 0.001602
# 2 -0.002923 0.012247 -0.005405 0.005775 -0.001005 0.005684
# 3 0.000263 -0.005405 0.027123 0.020401 0.007093 0.001836
# 4 0.000045 0.005775 0.020401 0.078350 -0.011997 0.018759
# 5 0.001041 -0.001005 0.007093 -0.011997 0.035729 -0.006604
# 6 0.001602 0.005684 0.001836 0.018759 -0.006604 0.038960
#
#
# Mechanical properties :
#
#
# Convention : Reuss Voigt Hill
#
# Bulk Modulus (GPa) = 30.30810 57.11667 43.71239
# Shear Modulus (GPa) = 21.80624 32.56657 27.18640
#
# Velocity S-wave (km/s) = 3.12533 3.81937 3.48965
# Velocity P-wave (km/s) = 5.15748 6.71077 5.98473
#
# Compressibility (1/GPa) = 0.03299448
#
# Stress axis : x y z
#
# Youngs Moduli (GPa) = 102.50638 81.65539 36.86966
#
# Poissons Ratio (x) = 0.23866 -0.00970
# Poissons Ratio (y) = 0.29960 0.19929
# Poissons Ratio (z) = -0.02696 0.44137
#
# Static dielectric constant tensor:
#      x y z
#    x 1.819770 -0.019950 -0.001220 
#    y -0.019950 1.818720 0.008060 
#    z -0.001220 0.008060 1.865410 
# 
# From -- ./inp_files/382540.got.cif
#   From: 2010.05.17/outbox.cif.g08.bks.cpg/sg2_192_cif.got.tgz:382540.got - 2010.06.03 11:33:40.
