data_PCOD9008812
_publ_section_title
;
Structure prediction by ZEFSAII (Michael W. Deem and Ramdas Pophale) SiO2 
 PCOD9008812
Probable space group: P -1
;
_chemical_formula_sum "Si O2"
_cell_formula_units_Z 16
_cell_length_a 11.122892
_cell_length_b 11.623606
_cell_length_c 9.520833
_cell_angle_alpha 55.290913
_cell_angle_beta 51.501460
_cell_angle_gamma 49.242686
_cell_volume 701.594962
_symmetry_space_group_name_H-M "P -1"
_symmetry_group_IT_number 2
_symmetry_cell_setting 'triclinic'
loop_
_space_group_symop_operation_xyz
x,y,z
-x,-y,-z
loop_
_atom_site_type_symbol
_atom_site_label
_atom_site_fract_x
_atom_site_fract_y
_atom_site_fract_z
Si Si1 0.926458 0.873842 0.662584
Si Si2 0.236539 0.032633 0.782149
Si Si3 0.266732 0.631736 0.702564
Si Si4 0.223811 0.528733 0.332591
Si Si5 0.649464 0.933323 0.052460
Si Si6 0.178611 0.258596 0.430653
Si Si7 0.416986 0.345135 0.599645
Si Si8 0.836793 0.246870 0.008640
O O1 0.815348 0.912832 0.858053
O O2 0.822758 0.839157 0.637695
O O3 0.095643 0.709083 0.680428
O O4 0.000000 0.000000 0.500000
O O5 0.277367 0.130533 0.568734
O O6 0.215188 0.890306 0.830174
O O7 0.364056 0.968757 0.865854
O O8 0.044192 0.157244 0.893317
O O9 0.377419 0.456632 0.686692
O O10 0.378273 0.725129 0.527214
O O11 0.213953 0.645131 0.892751
O O12 0.242330 0.391037 0.305998
O O13 0.331781 0.445991 0.450575
O O14 0.024961 0.635554 0.453033
O O15 0.258069 0.652382 0.130056
O O16 0.654365 0.776360 0.225478
O O17 0.500000 0.000000 0.000000
#
# Coordination Sequence:
#
# PCOD9008812 Si02
#       8
#     2   2   2   2   2   2   2   2
#     4  12  25  42  71  98 132 178 231 273 333 411
#     4  10  21  42  67  96 135 173 227 276 334 398
#     4  11  24  43  68  98 138 179 227 277 337 399
#     4  10  21  39  66  95 137 169 221 277 335 393
#     4  12  27  46  68  97 137 176 225 282 344 400
#     4  10  21  39  65  99 131 176 219 273 335 398
#     4  11  25  46  66  98 141 179 220 288 337 397
#     4  10  22  39  69 100 129 180 226 277 328 403
#
# _framework density 22.805183
#
# number of rings (size 3 to 8) (size 9 to 14) (size 15 to 20)
#    0.000    1.250    3.750    1.500    5.250    3.000 
#    2.250    1.250    0.000    0.000    0.000    0.000 
#    0.000    0.000    0.000    0.000    0.000    0.000 
#
# Total GULP energy -89360.560377 kJ/mol
# GULP energy per Si atom -5585.035024 kJ/mol
# Density = 2.275328 g / cm^3
# Si number density = 22.805183 Si / 1000 Ang^3
#
#
#
# Elastic Constant Matrix: (Units=GPa)
#
#
# Indices 1 2 3 4 5 6 
#
# 1 73.1962 6.9932 19.7255 2.6692 27.2714 -3.7565
# 2 6.9932 37.8763 28.6944 1.6403 12.3969 10.8261
# 3 19.7255 28.6944 86.5290 -10.1679 16.4922 5.9451
# 4 2.6692 1.6403 -10.1679 27.2419 7.5090 7.9996
# 5 27.2714 12.3969 16.4922 7.5090 46.3806 -0.6251
# 6 -3.7565 10.8261 5.9451 7.9996 -0.6251 35.0764
#
#
#
# Elastic Compliance Matrix: (Units=1/GPa)
#
#
# Indices 1 2 3 4 5 6 
#
# 1 0.018127 0.001657 -0.003042 -0.000874 -0.009852 0.001969
# 2 0.001657 0.040504 -0.011981 -0.002135 -0.007329 -0.009937
# 3 -0.003042 -0.011981 0.017958 0.009041 -0.002882 -0.001785
# 4 -0.000874 -0.002135 0.009041 0.046446 -0.009808 -0.011734
# 5 -0.009852 -0.007329 -0.002882 -0.009808 0.031986 0.004502
# 6 0.001969 -0.009937 -0.001785 -0.011734 0.004502 0.034846
#
#
# Mechanical properties :
#
#
# Convention : Reuss Voigt Hill
#
# Bulk Modulus (GPa) = 20.05744 34.26973 27.16359
# Shear Modulus (GPa) = 21.43938 31.21901 26.32919
#
# Velocity S-wave (km/s) = 3.06945 3.70394 3.40152
# Velocity P-wave (km/s) = 4.62344 5.77512 5.23107
#
# Compressibility (1/GPa) = 0.04985682
#
# Stress axis : x y z
#
# Youngs Moduli (GPa) = 55.16680 24.68922 55.68663
#
# Poissons Ratio (x) = -0.04092 0.16941
# Poissons Ratio (y) = -0.09143 0.66717
# Poissons Ratio (z) = 0.16783 0.29580
#
# Static dielectric constant tensor:
#      x y z
#    x 1.886990 -0.020530 -0.025800 
#    y -0.020530 1.842160 0.012370 
#    z -0.025800 0.012370 1.827970 
# 
# From -- ./inp_files/256699.got.cif
#   From: 2010.05.17/outbox.cif.g08.bks.cpg/sg2_129_cif.got.tgz:256699.got - 2010.06.03 11:33:40.
