data_PCOD9008285
_publ_section_title
;
Structure prediction by ZEFSAII (Michael W. Deem and Ramdas Pophale) SiO2 
 PCOD9008285
Probable space group: P -1
;
_chemical_formula_sum "Si O2"
_cell_formula_units_Z 12
_cell_length_a 8.289162
_cell_length_b 15.931134
_cell_length_c 12.427609
_cell_angle_alpha 29.597009
_cell_angle_beta 48.000431
_cell_angle_gamma 39.806915
_cell_volume 518.913830
_symmetry_space_group_name_H-M "P -1"
_symmetry_group_IT_number 2
_symmetry_cell_setting 'triclinic'
loop_
_space_group_symop_operation_xyz
x,y,z
-x,-y,-z
loop_
_atom_site_type_symbol
_atom_site_label
_atom_site_fract_x
_atom_site_fract_y
_atom_site_fract_z
Si Si1 0.006605 0.458227 0.421042
Si Si2 0.829590 0.152626 0.814373
Si Si3 0.662030 0.836721 0.017089
Si Si4 0.602996 0.701614 0.741826
Si Si5 0.910955 0.916661 0.444786
Si Si6 0.932959 0.348129 0.136446
O O1 0.864637 0.338432 0.601037
O O2 0.858825 0.655078 0.201326
O O3 0.000000 0.500000 0.500000
O O4 0.286204 0.348358 0.371682
O O5 0.548660 0.200013 0.900927
O O6 0.927574 0.078699 0.732336
O O7 0.000000 0.000000 0.000000
O O8 0.840579 0.814779 0.859883
O O9 0.500000 0.000000 0.000000
O O10 0.753878 0.808201 0.602168
O O11 0.309340 0.858541 0.691475
O O12 0.698758 0.505515 0.990986
O O13 0.084292 0.785680 0.612296
O O14 0.000000 0.500000 0.000000
#
# Coordination Sequence:
#
# PCOD9008285 Si02
#       6
#     2   2   2   2   2   2
#     4  10  21  39  64  92 127 164 208 260 316 376
#     4  11  24  39  62  97 126 164 211 259 317 379
#     4  11  24  41  65  93 129 167 211 263 318 376
#     4   8  17  32  57  88 114 162 202 248 310 373
#     4   9  18  34  59  85 120 158 207 251 311 371
#     4   9  19  35  62  87 119 167 209 254 314 376
#
# _framework density 23.125225
#
# number of rings (size 3 to 8) (size 9 to 14) (size 15 to 20)
#    0.000    2.333    0.000    2.500   11.667    0.000 
#    0.000    0.833    3.667    3.000    0.000    0.000 
#    0.000    0.000    0.000    0.000    0.000    0.000 
#
# Total GULP energy -66976.369786 kJ/mol
# GULP energy per Si atom -5581.364149 kJ/mol
# Density = 2.307259 g / cm^3
# Si number density = 23.125225 Si / 1000 Ang^3
#
#
#
# Elastic Constant Matrix: (Units=GPa)
#
#
# Indices 1 2 3 4 5 6 
#
# 1 51.8476 31.9364 17.3474 17.3232 13.9195 -2.7149
# 2 31.9364 115.2746 40.4915 -0.7879 12.3190 9.7080
# 3 17.3474 40.4915 96.3708 14.0509 24.7637 2.1803
# 4 17.3232 -0.7879 14.0509 29.9372 13.8468 1.5197
# 5 13.9195 12.3190 24.7637 13.8468 42.2681 4.4977
# 6 -2.7149 9.7080 2.1803 1.5197 4.4977 34.7854
#
#
#
# Elastic Compliance Matrix: (Units=1/GPa)
#
#
# Indices 1 2 3 4 5 6 
#
# 1 0.032164 -0.009830 0.001758 -0.018451 -0.003392 0.006388
# 2 -0.009830 0.013653 -0.005105 0.008734 -0.000120 -0.004624
# 3 0.001758 -0.005105 0.014483 -0.005242 -0.006036 0.001664
# 4 -0.018451 0.008734 -0.005242 0.051532 -0.009798 -0.004533
# 5 -0.003392 -0.000120 -0.006036 -0.009798 0.031935 -0.003554
# 6 0.006388 -0.004624 0.001664 -0.004533 -0.003554 0.031090
#
#
# Mechanical properties :
#
#
# Convention : Reuss Voigt Hill
#
# Bulk Modulus (GPa) = 29.45887 49.22709 39.34298
# Shear Modulus (GPa) = 23.52648 32.97931 28.25290
#
# Velocity S-wave (km/s) = 3.19306 3.78050 3.49912
# Velocity P-wave (km/s) = 5.13426 6.35528 5.77712
#
# Compressibility (1/GPa) = 0.03394563
#
# Stress axis : x y z
#
# Youngs Moduli (GPa) = 31.09061 73.24154 69.04777
#
# Poissons Ratio (x) = 0.71996 -0.12137
# Poissons Ratio (y) = 0.30562 0.35249
# Poissons Ratio (z) = -0.05465 0.37390
#
# Static dielectric constant tensor:
#      x y z
#    x 2.225930 0.026220 -0.009150 
#    y 0.026220 2.008330 0.004010 
#    z -0.009150 0.004010 1.885280 
# 
# From -- ./inp_files/146131.got.cif
#   From: 2010.05.17/outbox.cif.g08.bks.cpg/sg2_74_cif.got.tgz:146131.got - 2010.06.03 11:33:40.
