data_PCOD9008297
_publ_section_title
;
Structure prediction by ZEFSAII (Michael W. Deem and Ramdas Pophale) SiO2 
 PCOD9008297
Probable space group: P -1
;
_chemical_formula_sum "Si O2"
_cell_formula_units_Z 15
_cell_length_a 17.139865
_cell_length_b 8.234510
_cell_length_c 7.906865
_cell_angle_alpha 50.212055
_cell_angle_beta 118.049647
_cell_angle_gamma 131.419894
_cell_volume 640.912246
_symmetry_space_group_name_H-M "P -1"
_symmetry_group_IT_number 2
_symmetry_cell_setting 'triclinic'
loop_
_space_group_symop_operation_xyz
x,y,z
-x,-y,-z
loop_
_atom_site_type_symbol
_atom_site_label
_atom_site_fract_x
_atom_site_fract_y
_atom_site_fract_z
Si Si1 0.293247 0.135036 0.876536
Si Si2 0.749806 0.693277 0.819537
Si Si3 0.636118 0.337675 0.492882
Si Si4 0.950431 0.968108 0.654790
Si Si5 0.895586 0.125289 0.934219
Si Si6 0.000000 0.500000 0.500000
Si Si7 0.622338 0.150570 0.986229
Si Si8 0.396910 0.152494 0.320713
O O1 0.289528 0.375127 0.667305
O O2 0.369725 0.203371 0.071294
O O3 0.180677 0.905305 0.971337
O O4 0.337953 0.038236 0.843871
O O5 0.692408 0.401374 0.996675
O O6 0.660066 0.757159 0.674010
O O7 0.826326 0.781910 0.677938
O O8 0.824945 0.866435 0.931923
O O9 0.639187 0.259816 0.739938
O O10 0.519480 0.282351 0.384457
O O11 0.648693 0.143339 0.522393
O O12 0.977204 0.231948 0.580231
O O13 0.000000 0.000000 0.500000
O O14 0.003416 0.859609 0.900280
O O15 0.927564 0.350614 0.692073
O O16 0.500000 0.000000 0.000000
#
# Coordination Sequence:
#
# PCOD9008297 Si02
#       8
#     2   2   2   2   2   1   2   2
#     4  10  22  39  65  95 129 175 226 280 342 412
#     4  10  22  43  67  97 139 182 229 286 347 417
#     4  10  21  39  64  92 132 177 226 284 342 407
#     4  11  26  46  72 105 142 182 238 298 355 422
#     4  10  24  46  69 103 134 184 233 291 351 421
#     4  10  22  46  72  96 142 178 228 290 350 418
#     4  11  25  42  61  99 143 178 229 283 340 418
#     4   9  20  39  64  92 127 176 229 277 344 406
#
# _framework density 23.404139000000001
#
# number of rings (size 3 to 8) (size 9 to 14) (size 15 to 20)
#    0.000    1.867    0.000    2.800    3.733   11.200 
#    2.400    2.667    0.000    0.000    0.000    0.000 
#    0.000    0.000    0.000    0.000    0.000    0.000 
#
# Total GULP energy -83643.790814 kJ/mol
# GULP energy per Si atom -5576.252721 kJ/mol
# Density = 2.335087 g / cm^3
# Si number density = 23.404139 Si / 1000 Ang^3
#
#
#
# Elastic Constant Matrix: (Units=GPa)
#
#
# Indices 1 2 3 4 5 6 
#
# 1 92.8566 2.5401 -1.3283 -22.6739 -13.6560 -11.2025
# 2 2.5401 44.9548 14.6018 -20.6188 -2.4106 7.9825
# 3 -1.3283 14.6018 59.9434 -20.0835 -19.3402 2.1739
# 4 -22.6739 -20.6188 -20.0835 42.1506 12.8338 -0.7429
# 5 -13.6560 -2.4106 -19.3402 12.8338 23.2010 -5.8960
# 6 -11.2025 7.9825 2.1739 -0.7429 -5.8960 18.4988
#
#
#
# Elastic Compliance Matrix: (Units=1/GPa)
#
#
# Indices 1 2 3 4 5 6 
#
# 1 0.017077 -0.002270 0.008136 0.007148 0.016704 0.015976
# 2 -0.002270 0.036307 -0.008540 0.018275 -0.020327 -0.021783
# 3 0.008136 -0.008540 0.029779 0.005730 0.029286 0.014677
# 4 0.007148 0.018275 0.005730 0.043727 -0.015162 -0.007307
# 5 0.016704 -0.020327 0.029286 -0.015162 0.095094 0.045146
# 6 0.015976 -0.021783 0.014677 -0.007307 0.045146 0.085503
#
#
# Mechanical properties :
#
#
# Convention : Reuss Voigt Hill
#
# Bulk Modulus (GPa) = 12.85093 25.48690 19.16892
# Shear Modulus (GPa) = 14.75913 28.89948 21.82930
#
# Velocity S-wave (km/s) = 2.51394 3.51779 3.05735
# Velocity P-wave (km/s) = 3.73220 5.23577 4.54657
#
# Compressibility (1/GPa) = 0.07781536
#
# Stress axis : x y z
#
# Youngs Moduli (GPa) = 58.55740 27.54326 33.58047
#
# Poissons Ratio (x) = 0.06253 -0.27322
# Poissons Ratio (y) = 0.13294 0.28677
# Poissons Ratio (z) = -0.47644 0.23522
#
# Static dielectric constant tensor:
#      x y z
#    x 1.915640 -0.028510 -0.017710 
#    y -0.028510 1.965120 -0.020450 
#    z -0.017710 -0.020450 1.990800 
# 
# From -- ./inp_files/122472.got.cif
#   From: 2010.05.17/outbox.cif.g08.bks.cpg/sg2_62_cif.got.tgz:122472.got - 2010.06.03 11:33:40.
