data_PCOD9008672
_publ_section_title
;
Structure prediction by ZEFSAII (Michael W. Deem and Ramdas Pophale) SiO2 
 PCOD9008672
Probable space group: P -1
;
_chemical_formula_sum "Si O2"
_cell_formula_units_Z 14
_cell_length_a 9.934820
_cell_length_b 12.240745
_cell_length_c 16.567718
_cell_angle_alpha 41.342920
_cell_angle_beta 112.657036
_cell_angle_gamma 144.353436
_cell_volume 629.528772
_symmetry_space_group_name_H-M "P -1"
_symmetry_group_IT_number 2
_symmetry_cell_setting 'triclinic'
loop_
_space_group_symop_operation_xyz
x,y,z
-x,-y,-z
loop_
_atom_site_type_symbol
_atom_site_label
_atom_site_fract_x
_atom_site_fract_y
_atom_site_fract_z
Si Si1 0.877530 0.208315 0.243166
Si Si2 0.456316 0.199920 0.944645
Si Si3 0.640133 0.490205 0.422770
Si Si4 0.592036 0.475860 0.231522
Si Si5 0.423799 0.197480 0.750381
Si Si6 0.069993 0.497653 0.760978
Si Si7 0.013268 0.733219 0.508185
O O1 0.205465 0.486468 0.148656
O O2 0.871153 0.353435 0.223776
O O3 0.681000 0.878992 0.425007
O O4 0.727792 0.073764 0.196024
O O5 0.368743 0.293826 0.906342
O O6 0.377619 0.116043 0.878093
O O7 0.263706 0.871009 0.121194
O O8 0.681297 0.532470 0.313564
O O9 0.684760 0.721187 0.335423
O O10 0.852520 0.576963 0.472055
O O11 0.760802 0.508569 0.199473
O O12 0.259628 0.107441 0.354757
O O13 0.760377 0.528791 0.625785
O O14 0.145010 0.692445 0.596149
#
# Coordination Sequence:
#
# PCOD9008672 Si02
#       7
#     2   2   2   2   2   2   2
#     4  11  21  39  64  90 122 152 202 255 298 349
#     4  11  23  43  63  85 125 165 199 244 298 364
#     4  10  21  39  65  94 118 157 206 247 300 361
#     4  11  23  43  63  85 125 165 199 244 298 364
#     4  10  21  39  65  94 118 157 206 247 300 361
#     4  12  25  40  59  96 124 158 202 246 305 354
#     4  11  21  39  64  90 122 152 202 255 298 349
#
# _framework density 22.238856999999999
#
# number of rings (size 3 to 8) (size 9 to 14) (size 15 to 20)
#    0.000    1.143    2.857    4.714    0.000    3.429 
#    5.143    0.000    0.000    5.143    0.000    0.000 
#    0.000    0.000    0.000    0.000    0.000    0.000 
#
# Total GULP energy -78287.904630 kJ/mol
# GULP energy per Si atom -5591.993188 kJ/mol
# Density = 2.218824 g / cm^3
# Si number density = 22.238857 Si / 1000 Ang^3
#
#
#
# Elastic Constant Matrix: (Units=GPa)
#
#
# Indices 1 2 3 4 5 6 
#
# 1 113.0312 42.0331 4.1291 -8.7831 7.6812 -7.4178
# 2 42.0331 93.4904 23.2315 -23.6513 6.8088 -3.7025
# 3 4.1291 23.2315 64.1298 -20.9129 20.1513 -4.2928
# 4 -8.7831 -23.6513 -20.9129 19.7709 -4.4040 6.5685
# 5 7.6812 6.8088 20.1513 -4.4040 17.4805 -4.8286
# 6 -7.4178 -3.7025 -4.2928 6.5685 -4.8286 18.0700
#
#
#
# Elastic Compliance Matrix: (Units=1/GPa)
#
#
# Indices 1 2 3 4 5 6 
#
# 1 0.011296 -0.005427 0.003083 -0.000447 -0.005718 0.002892
# 2 -0.005427 0.018538 0.001639 0.023274 -0.002869 -0.007267
# 3 0.003083 0.001639 0.041078 0.042367 -0.042960 -0.015520
# 4 -0.000447 0.023274 0.042367 0.128783 -0.036869 -0.042015
# 5 -0.005718 -0.002869 -0.042960 -0.036869 0.109204 0.029442
# 6 0.002892 -0.007267 -0.015520 -0.042015 0.029442 0.074492
#
#
# Mechanical properties :
#
#
# Convention : Reuss Voigt Hill
#
# Bulk Modulus (GPa) = 14.38827 45.49318 29.94073
# Shear Modulus (GPa) = 12.25584 24.48146 18.36865
#
# Velocity S-wave (km/s) = 2.35010 3.32149 2.87709
# Velocity P-wave (km/s) = 3.72127 5.93387 4.95271
#
# Compressibility (1/GPa) = 0.06950106
#
# Stress axis : x y z
#
# Youngs Moduli (GPa) = 88.52467 53.94267 24.34421
#
# Poissons Ratio (x) = 0.29275 -0.07506
# Poissons Ratio (y) = 0.48043 -0.03989
# Poissons Ratio (z) = -0.27293 -0.08839
#
# Static dielectric constant tensor:
#      x y z
#    x 1.829670 0.017910 0.012990 
#    y 0.017910 1.802950 0.005900 
#    z 0.012990 0.005900 1.803380 
# 
# From -- ./inp_files/188614.got.cif
#   From: 2010.05.17/outbox.cif.g08.bks.cpg/sg2_95_cif.got.tgz:188614.got - 2010.06.03 11:33:40.
