data_PCOD9008569
_publ_section_title
;
Structure prediction by ZEFSAII (Michael W. Deem and Ramdas Pophale) SiO2 
 PCOD9008569
Probable space group: P -1
;
_chemical_formula_sum "Si O2"
_cell_formula_units_Z 16
_cell_length_a 17.496492
_cell_length_b 15.145446
_cell_length_c 12.584818
_cell_angle_alpha 162.061385
_cell_angle_beta 47.170426
_cell_angle_gamma 129.990799
_cell_volume 753.155095
_symmetry_space_group_name_H-M "P -1"
_symmetry_group_IT_number 2
_symmetry_cell_setting 'triclinic'
loop_
_space_group_symop_operation_xyz
x,y,z
-x,-y,-z
loop_
_atom_site_type_symbol
_atom_site_label
_atom_site_fract_x
_atom_site_fract_y
_atom_site_fract_z
Si Si1 0.284043 0.727336 0.347318
Si Si2 0.434089 0.715082 0.384284
Si Si3 0.925143 0.249850 0.320106
Si Si4 0.363021 0.099849 0.514209
Si Si5 0.679714 0.460786 0.496739
Si Si6 0.811152 0.993649 0.936164
Si Si7 0.116414 0.369012 0.727847
Si Si8 0.268190 0.890227 0.146487
O O1 0.343938 0.811435 0.496684
O O2 0.164255 0.662046 0.410944
O O3 0.295686 0.968191 0.522824
O O4 0.338914 0.438884 0.921715
O O5 0.517137 0.941597 0.608561
O O6 0.390265 0.564573 0.360109
O O7 0.500000 0.500000 0.000000
O O8 0.000000 0.500000 0.500000
O O9 0.861308 0.101172 0.117418
O O10 0.000000 0.000000 0.000000
O O11 0.333546 0.975806 0.286065
O O12 0.711804 0.782767 0.803611
O O13 0.655449 0.255189 0.183031
O O14 0.783118 0.286692 0.237277
O O15 0.888401 0.804435 0.576179
O O16 0.187257 0.146016 0.478228
O O17 0.191771 0.635555 0.955309
O O18 0.000000 0.500000 0.000000
#
# Coordination Sequence:
#
# PCOD9008569 Si02
#       8
#     2   2   2   2   2   2   2   2
#     4  11  24  42  63  90 135 167 212 269 315 387
#     4  10  23  40  69  95 125 173 224 253 330 391
#     4  12  25  39  62  93 125 167 212 255 327 378
#     4  11  24  41  64  97 129 168 208 274 327 374
#     4  10  21  40  65  89 123 170 206 261 310 387
#     4  10  22  39  61  87 126 164 205 262 317 371
#     4  10  21  39  65  91 118 170 218 259 311 388
#     4  10  22  40  62  92 131 162 212 266 328 361
#
# _framework density 21.243963999999998
#
# number of rings (size 3 to 8) (size 9 to 14) (size 15 to 20)
#    0.000    1.500    1.250    3.000    3.500    5.500 
#    0.000    0.000    0.000    8.250    0.000    0.000 
#    0.000    0.000    0.000    0.000    0.000    0.000 
#
# Total GULP energy -89166.251875 kJ/mol
# GULP energy per Si atom -5572.890742 kJ/mol
# Density = 2.119561 g / cm^3
# Si number density = 21.243964 Si / 1000 Ang^3
#
#
#
# Elastic Constant Matrix: (Units=GPa)
#
#
# Indices 1 2 3 4 5 6 
#
# 1 79.4540 23.8885 35.3382 -10.1399 22.5882 -13.8272
# 2 23.8885 78.9387 21.4584 -3.6709 2.7771 2.5596
# 3 35.3382 21.4584 84.3733 -2.2564 6.5304 -2.4322
# 4 -10.1399 -3.6709 -2.2564 48.0813 -10.9563 -8.7371
# 5 22.5882 2.7771 6.5304 -10.9563 36.9040 -3.3168
# 6 -13.8272 2.5596 -2.4322 -8.7371 -3.3168 27.5980
#
#
#
# Elastic Compliance Matrix: (Units=1/GPa)
#
#
# Indices 1 2 3 4 5 6 
#
# 1 0.022323 -0.004693 -0.006967 0.003746 -0.009977 0.010992
# 2 -0.004693 0.014687 -0.002018 -0.000258 0.001709 -0.003767
# 3 -0.006967 -0.002018 0.015097 -0.001020 0.001249 -0.002146
# 4 0.003746 -0.000258 -0.001020 0.024830 0.006215 0.010419
# 5 -0.009977 0.001709 0.001249 0.006215 0.034799 0.001103
# 6 0.010992 -0.003767 -0.002146 0.010419 0.001103 0.045333
#
#
# Mechanical properties :
#
#
# Convention : Reuss Voigt Hill
#
# Bulk Modulus (GPa) = 40.39941 44.90402 42.65172
# Shear Modulus (GPa) = 25.95057 33.32206 29.63631
#
# Velocity S-wave (km/s) = 3.49886 3.96478 3.73908
# Velocity P-wave (km/s) = 5.94818 6.49173 6.22589
#
# Compressibility (1/GPa) = 0.02475284
#
# Stress axis : x y z
#
# Youngs Moduli (GPa) = 44.79695 68.08907 66.23703
#
# Poissons Ratio (x) = 0.31953 0.46146
# Poissons Ratio (y) = 0.21022 0.13363
# Poissons Ratio (z) = 0.31209 0.13737
#
# Static dielectric constant tensor:
#      x y z
#    x 1.762130 -0.004790 -0.017820 
#    y -0.004790 1.799860 -0.039350 
#    z -0.017820 -0.039350 1.763930 
# 
# From -- ./inp_files/466170.got.cif
#   From: 2010.05.17/outbox.cif.g08.bks.cpg/sg2_234_cif.got.tgz:466170.got - 2010.06.03 11:33:40.
