data_PCOD9008482
_publ_section_title
;
Structure prediction by ZEFSAII (Michael W. Deem and Ramdas Pophale) SiO2 
 PCOD9008482
Probable space group: P -1
;
_chemical_formula_sum "Si O2"
_cell_formula_units_Z 14
_cell_length_a 11.373155
_cell_length_b 8.117341
_cell_length_c 8.982529
_cell_angle_alpha 73.263541
_cell_angle_beta 56.176253
_cell_angle_gamma 68.759538
_cell_volume 638.114519
_symmetry_space_group_name_H-M "P -1"
_symmetry_group_IT_number 2
_symmetry_cell_setting 'triclinic'
loop_
_space_group_symop_operation_xyz
x,y,z
-x,-y,-z
loop_
_atom_site_type_symbol
_atom_site_label
_atom_site_fract_x
_atom_site_fract_y
_atom_site_fract_z
Si Si1 0.766764 0.268174 0.063736
Si Si2 0.540270 0.243140 0.483091
Si Si3 0.735821 0.978689 0.924127
Si Si4 0.019720 0.677396 0.863723
Si Si5 0.652512 0.551144 0.851557
Si Si6 0.710220 0.461766 0.500622
Si Si7 0.584302 0.973926 0.751118
O O1 0.626682 0.268196 0.266291
O O2 0.902411 0.228084 0.090380
O O3 0.748733 0.458614 0.947109
O O4 0.770885 0.129162 0.965088
O O5 0.600034 0.350090 0.544369
O O6 0.370507 0.338839 0.552001
O O7 0.585609 0.043254 0.564833
O O8 0.695427 0.036487 0.767529
O O9 0.869794 0.807902 0.883707
O O10 0.583052 0.946121 0.099797
O O11 0.135551 0.618360 0.664380
O O12 0.000000 0.500000 0.000000
O O13 0.717226 0.468737 0.670710
O O14 0.622656 0.762405 0.802076
O O15 0.500000 0.500000 0.000000
#
# Coordination Sequence:
#
# PCOD9008482 Si02
#       7
#     2   2   2   2   2   2   2
#     4  11  23  43  69  94 132 171 216 272 328 383
#     4  10  21  39  65 101 125 166 218 274 324 378
#     4  11  23  41  63  95 129 171 216 263 326 383
#     4  11  24  43  64  96 135 177 214 263 329 394
#     4  12  22  42  66  97 128 169 216 272 325 379
#     4  10  22  39  67  93 136 168 215 269 327 386
#     4  11  24  39  70  97 128 165 227 271 318 386
#
# _framework density 21.939634999999999
#
# number of rings (size 3 to 8) (size 9 to 14) (size 15 to 20)
#    0.000    1.143    2.857    3.000    2.000    3.429 
#    0.000   10.714    0.000    0.000    0.000    0.000 
#    0.000    0.000    0.000    0.000    0.000    0.000 
#
# Total GULP energy -78303.232309 kJ/mol
# GULP energy per Si atom -5593.088022 kJ/mol
# Density = 2.188970 g / cm^3
# Si number density = 21.939635 Si / 1000 Ang^3
#
#
#
# Elastic Constant Matrix: (Units=GPa)
#
#
# Indices 1 2 3 4 5 6 
#
# 1 111.0261 54.5931 55.9903 14.9788 12.9165 -22.7819
# 2 54.5931 141.1536 63.8489 -1.3408 9.4045 -26.7510
# 3 55.9903 63.8489 109.1784 0.6462 30.4421 -18.2118
# 4 14.9788 -1.3408 0.6462 32.6170 -9.1410 5.7160
# 5 12.9165 9.4045 30.4421 -9.1410 33.4952 2.5997
# 6 -22.7819 -26.7510 -18.2118 5.7160 2.5997 46.8956
#
#
#
# Elastic Compliance Matrix: (Units=1/GPa)
#
#
# Indices 1 2 3 4 5 6 
#
# 1 0.015359 -0.002873 -0.003923 -0.009366 -0.004548 0.005693
# 2 -0.002873 0.010907 -0.005573 0.002518 0.003631 0.002154
# 3 -0.003923 -0.005573 0.019610 -0.004028 -0.016148 0.003917
# 4 -0.009366 0.002518 -0.004028 0.042370 0.018974 -0.010894
# 5 -0.004548 0.003631 -0.016148 0.018974 0.051342 -0.011568
# 6 0.005693 0.002154 0.003917 -0.010894 -0.011568 0.028808
#
#
# Mechanical properties :
#
#
# Convention : Reuss Voigt Hill
#
# Bulk Modulus (GPa) = 47.30923 78.91363 63.11143
# Shear Modulus (GPa) = 24.97756 35.06328 30.02042
#
# Velocity S-wave (km/s) = 3.37778 4.00205 3.70309
# Velocity P-wave (km/s) = 6.06817 7.57640 6.86384
#
# Compressibility (1/GPa) = 0.02113752
#
# Stress axis : x y z
#
# Youngs Moduli (GPa) = 65.10957 91.68764 50.99328
#
# Poissons Ratio (x) = 0.26338 0.20006
# Poissons Ratio (y) = 0.18703 0.28419
# Poissons Ratio (z) = 0.25545 0.51099
#
# Static dielectric constant tensor:
#      x y z
#    x 1.844950 0.046200 0.025120 
#    y 0.046200 1.866020 -0.030880 
#    z 0.025120 -0.030880 1.784430 
# 
# From -- ./inp_files/218218.got.cif
#   From: 2010.05.17/outbox.cif.g08.bks.cpg/sg2_110_cif.got.tgz:218218.got - 2010.06.03 11:33:40.
