data_PCOD9008714
_publ_section_title
;
Structure prediction by ZEFSAII (Michael W. Deem and Ramdas Pophale) SiO2 
 PCOD9008714
Probable space group: P -1
;
_chemical_formula_sum "Si O2"
_cell_formula_units_Z 14
_cell_length_a 5.257010
_cell_length_b 16.465628
_cell_length_c 20.977622
_cell_angle_alpha 17.933950
_cell_angle_beta 74.269515
_cell_angle_gamma 76.249620
_cell_volume 536.930804
_symmetry_space_group_name_H-M "P -1"
_symmetry_group_IT_number 2
_symmetry_cell_setting 'triclinic'
loop_
_space_group_symop_operation_xyz
x,y,z
-x,-y,-z
loop_
_atom_site_type_symbol
_atom_site_label
_atom_site_fract_x
_atom_site_fract_y
_atom_site_fract_z
Si Si1 0.773930 0.624883 0.139837
Si Si2 0.805019 0.541202 0.924990
Si Si3 0.708470 0.998015 0.294940
Si Si4 0.576813 0.124472 0.721633
Si Si5 0.355605 0.926773 0.498354
Si Si6 0.861489 0.658430 0.335390
Si Si7 0.824770 0.438823 0.725386
O O1 0.753875 0.376254 0.277643
O O2 0.488724 0.595583 0.217072
O O3 0.008190 0.592078 0.198553
O O4 0.769415 0.919340 0.891706
O O5 0.840698 0.841126 0.674629
O O6 0.500000 0.500000 0.000000
O O7 0.000000 0.500000 0.000000
O O8 0.835685 0.294962 0.060128
O O9 0.500464 0.968501 0.274104
O O10 0.569720 0.966016 0.397198
O O11 0.880803 0.745734 0.469524
O O12 0.663598 0.434559 0.483379
O O13 0.312316 0.123193 0.785086
O O14 0.500000 0.000000 0.500000
O O15 0.000000 0.500000 0.500000
O O16 0.077379 0.733693 0.210861
#
# Coordination Sequence:
#
# PCOD9008714 Si02
#       7
#     2   2   2   2   2   2   2
#     4  11  26  44  68 103 140 178 224 283 351 398
#     4  10  21  39  65  95 127 172 223 268 321 395
#     4  10  21  43  67  96 135 185 229 272 337 409
#     4  11  25  44  69 101 137 183 232 282 339 417
#     4  10  21  42  66  98 137 175 223 284 339 397
#     4  11  24  44  71  99 135 180 237 278 339 413
#     4  11  24  45  69  99 141 179 222 286 339 401
#
# _framework density 26.074121000000002
#
# number of rings (size 3 to 8) (size 9 to 14) (size 15 to 20)
#    0.000    1.429    1.429    3.429    4.000    2.286 
#    0.000   20.000    0.000    0.000    0.000    0.000 
#    0.000    0.000    0.000    0.000    0.000    0.000 
#
# Total GULP energy -78460.375894 kJ/mol
# GULP energy per Si atom -5604.312564 kJ/mol
# Density = 2.601478 g / cm^3
# Si number density = 26.074121 Si / 1000 Ang^3
#
#
#
# Elastic Constant Matrix: (Units=GPa)
#
#
# Indices 1 2 3 4 5 6 
#
# 1 92.1430 8.2311 17.2700 6.6304 4.4547 8.2922
# 2 8.2311 100.0193 -4.9157 6.2097 -5.1091 0.4202
# 3 17.2700 -4.9157 148.4245 11.8661 10.9103 -0.2076
# 4 6.6304 6.2097 11.8661 28.4655 3.7903 13.1853
# 5 4.4547 -5.1091 10.9103 3.7903 58.8205 2.1861
# 6 8.2922 0.4202 -0.2076 13.1853 2.1861 65.7072
#
#
#
# Elastic Compliance Matrix: (Units=1/GPa)
#
#
# Indices 1 2 3 4 5 6 
#
# 1 0.011391 -0.000939 -0.001208 -0.001334 -0.000592 -0.001148
# 2 -0.000939 0.010319 0.000591 -0.002671 0.001009 0.000557
# 3 -0.001208 0.000591 0.007223 -0.003105 -0.001028 0.000829
# 4 -0.001334 -0.002671 -0.003105 0.041302 -0.001917 -0.008048
# 5 -0.000592 0.001009 -0.001028 -0.001917 0.017452 -0.000131
# 6 -0.001148 0.000557 0.000829 -0.008048 -0.000131 0.016982
#
#
# Mechanical properties :
#
#
# Convention : Reuss Voigt Hill
#
# Bulk Modulus (GPa) = 38.72850 42.41752 40.57301
# Shear Modulus (GPa) = 42.95959 51.93208 47.44583
#
# Velocity S-wave (km/s) = 4.06346 4.46770 4.27037
# Velocity P-wave (km/s) = 6.07463 6.55112 6.31737
#
# Compressibility (1/GPa) = 0.02582078
#
# Stress axis : x y z
#
# Youngs Moduli (GPa) = 87.78918 96.90410 138.45571
#
# Poissons Ratio (x) = 0.09103 0.16725
# Poissons Ratio (y) = 0.08246 -0.08186
# Poissons Ratio (z) = 0.10604 -0.05729
#
# Static dielectric constant tensor:
#      x y z
#    x 2.078930 -0.151530 -0.055040 
#    y -0.151530 2.086480 -0.007860 
#    z -0.055040 -0.007860 2.110730 
# 
# From -- ./inp_files/100592.got.cif
#   From: 2010.05.17/outbox.cif.g08.bks.cpg/sg2_51_cif.got.tgz:100592.got - 2010.06.03 11:33:40.
