data_PCOD9008065
_publ_section_title
;
Structure prediction by ZEFSAII (Michael W. Deem and Ramdas Pophale) SiO2 
 PCOD9008065
Probable space group: P -1
;
_chemical_formula_sum "Si O2"
_cell_formula_units_Z 14
_cell_length_a 18.591709
_cell_length_b 11.826776
_cell_length_c 9.168711
_cell_angle_alpha 33.313730
_cell_angle_beta 126.416480
_cell_angle_gamma 142.792506
_cell_volume 653.663777
_symmetry_space_group_name_H-M "P -1"
_symmetry_group_IT_number 2
_symmetry_cell_setting 'triclinic'
loop_
_space_group_symop_operation_xyz
x,y,z
-x,-y,-z
loop_
_atom_site_type_symbol
_atom_site_label
_atom_site_fract_x
_atom_site_fract_y
_atom_site_fract_z
Si Si1 0.679698 0.936916 0.461098
Si Si2 0.209636 0.217002 0.765214
Si Si3 0.894814 0.186250 0.651471
Si Si4 0.015784 0.239511 0.451224
Si Si5 0.441934 0.609221 0.234239
Si Si6 0.568607 0.204068 0.677862
Si Si7 0.816629 0.130175 0.130390
O O1 0.649768 0.646240 0.712161
O O2 0.556328 0.865118 0.425620
O O3 0.783834 0.129664 0.498209
O O4 0.734094 0.089119 0.205407
O O5 0.095762 0.161817 0.619628
O O6 0.322273 0.549018 0.558124
O O7 0.249705 0.104639 0.819873
O O8 0.163036 0.039368 0.047292
O O9 0.000000 0.500000 0.500000
O O10 0.957317 0.153449 0.633577
O O11 0.909174 0.122344 0.335283
O O12 0.107311 0.574045 0.176115
O O13 0.500000 0.500000 0.500000
O O14 0.393531 0.672395 0.242930
O O15 0.534467 0.911028 0.943477
#
# Coordination Sequence:
#
# PCOD9008065 Si02
#       7
#     2   2   2   2   2   2   2
#     4  10  22  41  66  92 132 163 206 261 315 375
#     4  12  23  39  66  93 127 166 209 258 314 379
#     4  11  24  47  62  88 129 174 211 259 314 368
#     4  10  23  40  62  90 127 164 215 259 313 366
#     4   9  19  38  60  92 129 157 200 254 310 368
#     4  10  22  37  64 101 122 163 208 255 321 373
#     4  10  21  39  63  96 123 162 208 267 311 364
#
# _framework density 21.417738
#
# number of rings (size 3 to 8) (size 9 to 14) (size 15 to 20)
#    0.000    1.714    2.857    0.857    6.000    0.571 
#    7.714    0.714    0.000    0.000    0.000    0.000 
#    0.000    0.000    0.000    0.000    0.000    0.000 
#
# Total GULP energy -78166.453549 kJ/mol
# GULP energy per Si atom -5583.318111 kJ/mol
# Density = 2.136899 g / cm^3
# Si number density = 21.417738 Si / 1000 Ang^3
#
#
#
# Elastic Constant Matrix: (Units=GPa)
#
#
# Indices 1 2 3 4 5 6 
#
# 1 80.9212 26.2302 54.3089 0.9976 -1.2198 14.1595
# 2 26.2302 105.9785 47.3378 -11.7621 -3.2979 3.4440
# 3 54.3089 47.3378 126.7365 -21.3085 -30.2052 3.4024
# 4 0.9976 -11.7621 -21.3085 34.0769 14.1987 1.0638
# 5 -1.2198 -3.2979 -30.2052 14.1987 39.2541 -3.1328
# 6 14.1595 3.4440 3.4024 1.0638 -3.1328 28.4096
#
#
#
# Elastic Compliance Matrix: (Units=1/GPa)
#
#
# Indices 1 2 3 4 5 6 
#
# 1 0.021947 -0.000776 -0.011354 -0.004681 -0.007234 -0.010107
# 2 -0.000776 0.011847 -0.004432 0.002852 -0.003552 -0.001017
# 3 -0.011354 -0.004432 0.017885 0.004971 0.011650 0.005153
# 4 -0.004681 0.002852 0.004971 0.037694 -0.009803 -0.001101
# 5 -0.007234 -0.003552 0.011650 -0.009803 0.038037 0.007202
# 6 -0.010107 -0.001017 0.005153 -0.001101 0.007202 0.040578
#
#
# Mechanical properties :
#
#
# Convention : Reuss Voigt Hill
#
# Bulk Modulus (GPa) = 53.89744 63.26555 58.58149
# Shear Modulus (GPa) = 24.11982 32.73206 28.42594
#
# Velocity S-wave (km/s) = 3.35947 3.91355 3.64705
# Velocity P-wave (km/s) = 6.34567 7.07277 6.71907
#
# Compressibility (1/GPa) = 0.01855376
#
# Stress axis : x y z
#
# Youngs Moduli (GPa) = 45.56483 84.41163 55.91164
#
# Poissons Ratio (x) = 0.06554 0.63483
# Poissons Ratio (y) = 0.03538 0.24779
# Poissons Ratio (z) = 0.51735 0.37410
#
# Static dielectric constant tensor:
#      x y z
#    x 1.789100 0.025900 0.002530 
#    y 0.025900 1.825030 -0.011100 
#    z 0.002530 -0.011100 1.772770 
# 
# From -- ./inp_files/332666.got.cif
#   From: 2010.05.17/outbox.cif.g08.bks.cpg/sg2_167_cif.got.tgz:332666.got - 2010.06.03 11:33:40.
