data_PCOD9008210
_publ_section_title
;
Structure prediction by ZEFSAII (Michael W. Deem and Ramdas Pophale) SiO2 
 PCOD9008210
Probable space group: P -1
;
_chemical_formula_sum "Si O2"
_cell_formula_units_Z 16
_cell_length_a 9.416511
_cell_length_b 11.860483
_cell_length_c 8.248243
_cell_angle_alpha 90.063941
_cell_angle_beta 91.015515
_cell_angle_gamma 46.546255
_cell_volume 668.543582
_symmetry_space_group_name_H-M "P -1"
_symmetry_group_IT_number 2
_symmetry_cell_setting 'triclinic'
loop_
_space_group_symop_operation_xyz
x,y,z
-x,-y,-z
loop_
_atom_site_type_symbol
_atom_site_label
_atom_site_fract_x
_atom_site_fract_y
_atom_site_fract_z
Si Si1 0.141274 0.847120 0.890189
Si Si2 0.703817 0.527097 0.693891
Si Si3 0.379392 0.934711 0.843356
Si Si4 0.676681 0.660835 0.042227
Si Si5 0.857010 0.732763 0.264962
Si Si6 0.143747 0.976168 0.371836
Si Si7 0.453712 0.178284 0.479751
Si Si8 0.613318 0.345522 0.814392
O O1 0.284169 0.862792 0.812386
O O2 0.271518 0.699904 0.011350
O O3 0.995639 0.878020 0.753224
O O4 0.000000 0.000000 0.000000
O O5 0.613331 0.656815 0.557053
O O6 0.586481 0.476929 0.723359
O O7 0.927130 0.372603 0.661168
O O8 0.713335 0.588848 0.866258
O O9 0.527238 0.882817 0.700375
O O10 0.210088 0.118943 0.832436
O O11 0.502121 0.849011 0.008975
O O12 0.843004 0.636113 0.139514
O O13 0.582351 0.615353 0.149438
O O14 0.702292 0.790158 0.403487
O O15 0.325865 0.944264 0.448073
O O16 0.247210 0.815500 0.281324
O O17 0.000000 0.000000 0.500000
#
# Coordination Sequence:
#
# PCOD9008210 Si02
#       8
#     2   2   2   2   2   2   2   2
#     4   9  18  34  61  91 122 151 196 257 309 351
#     4  11  25  42  65  87 130 171 206 246 315 374
#     4  10  21  39  64  90 123 163 203 258 314 363
#     4  10  22  42  65  92 124 158 212 268 303 356
#     4  12  22  42  64  90 123 170 213 248 307 372
#     4  11  20  37  63  93 129 155 204 262 314 353
#     4  11  24  41  61  92 132 165 202 258 306 373
#     4  10  21  42  65  91 123 166 203 255 314 367
#
# _framework density 23.932621000000001
#
# number of rings (size 3 to 8) (size 9 to 14) (size 15 to 20)
#    0.000    1.500    2.500    3.375    0.000    0.500 
#    2.250    0.000    2.750    0.000    0.000    0.000 
#    0.000    0.000    0.000    0.000    0.000    0.000 
#
# Total GULP energy -89491.802956 kJ/mol
# GULP energy per Si atom -5593.237685 kJ/mol
# Density = 2.387815 g / cm^3
# Si number density = 23.932621 Si / 1000 Ang^3
#
#
#
# Elastic Constant Matrix: (Units=GPa)
#
#
# Indices 1 2 3 4 5 6 
#
# 1 77.6782 27.2485 24.7220 -17.7284 -10.7266 -9.7106
# 2 27.2485 56.9430 -0.0935 -18.0331 -15.9255 9.7884
# 3 24.7220 -0.0935 60.4032 0.4884 -14.8049 5.3121
# 4 -17.7284 -18.0331 0.4884 45.6568 -2.4008 -8.7744
# 5 -10.7266 -15.9255 -14.8049 -2.4008 32.1416 -1.1664
# 6 -9.7106 9.7884 5.3121 -8.7744 -1.1664 37.7747
#
#
#
# Elastic Compliance Matrix: (Units=1/GPa)
#
#
# Indices 1 2 3 4 5 6 
#
# 1 0.023313 -0.011762 -0.011239 0.006735 -0.002282 0.012116
# 2 -0.011762 0.031730 0.009759 0.006695 0.016408 -0.010556
# 3 -0.011239 0.009759 0.024944 -0.001867 0.012108 -0.008985
# 4 0.006735 0.006695 -0.001867 0.028941 0.007128 0.007202
# 5 -0.002282 0.016408 0.012108 0.007128 0.044463 -0.003512
# 6 0.012116 -0.010556 -0.008985 0.007202 -0.003512 0.035151
#
#
# Mechanical properties :
#
#
# Convention : Reuss Voigt Hill
#
# Bulk Modulus (GPa) = 18.69091 33.19760 25.94426
# Shear Modulus (GPa) = 21.47215 32.65776 27.06496
#
# Velocity S-wave (km/s) = 2.99857 3.69802 3.36651
# Velocity P-wave (km/s) = 4.45144 5.66879 5.09659
#
# Compressibility (1/GPa) = 0.05350194
#
# Stress axis : x y z
#
# Youngs Moduli (GPa) = 42.89389 31.51632 40.09047
#
# Poissons Ratio (x) = 0.37070 0.45058
# Poissons Ratio (y) = 0.50453 -0.39124
# Poissons Ratio (z) = 0.48209 -0.30757
#
# Static dielectric constant tensor:
#      x y z
#    x 1.913310 -0.004970 0.020750 
#    y -0.004970 1.953970 0.029050 
#    z 0.020750 0.029050 1.934970 
# 
# From -- ./inp_files/186628.got.cif
#   From: 2010.05.17/outbox.cif.g08.bks.cpg/sg2_94_cif.got.tgz:186628.got - 2010.06.03 11:33:40.
