data_PCOD9008483
_publ_section_title
;
Structure prediction by ZEFSAII (Michael W. Deem and Ramdas Pophale) SiO2 
 PCOD9008483
Probable space group: P -1
;
_chemical_formula_sum "Si O2"
_cell_formula_units_Z 14
_cell_length_a 8.778146
_cell_length_b 9.362579
_cell_length_c 9.950107
_cell_angle_alpha 110.611228
_cell_angle_beta 116.309253
_cell_angle_gamma 53.889601
_cell_volume 587.545340
_symmetry_space_group_name_H-M "P -1"
_symmetry_group_IT_number 2
_symmetry_cell_setting 'triclinic'
loop_
_space_group_symop_operation_xyz
x,y,z
-x,-y,-z
loop_
_atom_site_type_symbol
_atom_site_label
_atom_site_fract_x
_atom_site_fract_y
_atom_site_fract_z
Si Si1 0.799914 0.309011 0.027744
Si Si2 0.987137 0.377388 0.341786
Si Si3 0.353127 0.655721 0.299472
Si Si4 0.343623 0.389216 0.386804
Si Si5 0.605360 0.026143 0.248154
Si Si6 0.766899 0.986135 0.009508
Si Si7 0.117389 0.040942 0.446429
O O1 0.818701 0.438809 0.183228
O O2 0.657504 0.396546 0.873674
O O3 0.750665 0.172552 0.034297
O O4 0.023022 0.176525 0.012571
O O5 0.189928 0.325672 0.326910
O O6 0.993835 0.212777 0.364870
O O7 0.000000 0.500000 0.500000
O O8 0.258734 0.570336 0.330983
O O9 0.563968 0.593530 0.431544
O O10 0.230247 0.868986 0.338082
O O11 0.521928 0.234073 0.318113
O O12 0.420292 0.006254 0.133154
O O13 0.724540 0.931180 0.398154
O O14 0.743966 0.966309 0.152486
O O15 0.000000 0.000000 0.500000
#
# Coordination Sequence:
#
# PCOD9008483 Si02
#       7
#     2   2   2   2   2   2   2
#     4  11  22  41  66  95 132 170 219 268 326 385
#     4  12  26  43  65  95 133 169 219 273 323 393
#     4  10  23  40  69  91 131 173 211 270 325 388
#     4  10  23  44  61  99 134 169 214 270 327 384
#     4  10  21  39  66  95 135 170 218 265 324 389
#     4  10  21  39  65 101 128 169 217 275 318 386
#     4  11  22  40  68  95 127 178 218 262 328 394
#
# _framework density 23.827949
#
# number of rings (size 3 to 8) (size 9 to 14) (size 15 to 20)
#    0.000    1.429    1.429    4.286    2.000    4.000 
#    5.143    1.429    0.000    0.000    0.000    0.000 
#    0.000    0.000    0.000    0.000    0.000    0.000 
#
# Total GULP energy -78332.213158 kJ/mol
# GULP energy per Si atom -5595.158083 kJ/mol
# Density = 2.377372 g / cm^3
# Si number density = 23.827949 Si / 1000 Ang^3
#
#
#
# Elastic Constant Matrix: (Units=GPa)
#
#
# Indices 1 2 3 4 5 6 
#
# 1 77.0373 8.2604 25.6791 1.6846 8.7357 16.5325
# 2 8.2604 54.8608 33.7846 2.6044 2.7930 11.4816
# 3 25.6791 33.7846 210.1824 9.0905 30.9766 13.2120
# 4 1.6846 2.6044 9.0905 30.6204 -4.5081 -1.9427
# 5 8.7357 2.7930 30.9766 -4.5081 22.6135 1.8496
# 6 16.5325 11.4816 13.2120 -1.9427 1.8496 23.1271
#
#
#
# Elastic Compliance Matrix: (Units=1/GPa)
#
#
# Indices 1 2 3 4 5 6 
#
# 1 0.016150 0.000622 -0.000502 -0.002271 -0.005152 -0.011346
# 2 0.000622 0.022164 -0.003266 -0.001273 0.002048 -0.009853
# 3 -0.000502 -0.003266 0.006979 -0.003260 -0.009488 -0.001521
# 4 -0.002271 -0.001273 -0.003260 0.036044 0.012181 0.006171
# 5 -0.005152 0.002048 -0.009488 0.012181 0.061038 0.004228
# 6 -0.011346 -0.009853 -0.001521 0.006171 0.004228 0.057291
#
#
# Mechanical properties :
#
#
# Convention : Reuss Voigt Hill
#
# Bulk Modulus (GPa) = 25.64055 53.05874 39.34965
# Shear Modulus (GPa) = 22.83534 33.56262 28.19898
#
# Velocity S-wave (km/s) = 3.09907 3.75712 3.44385
# Velocity P-wave (km/s) = 4.85692 6.41382 5.68888
#
# Compressibility (1/GPa) = 0.03900072
#
# Stress axis : x y z
#
# Youngs Moduli (GPa) = 61.91873 45.11846 143.28430
#
# Poissons Ratio (x) = -0.02808 0.07200
# Poissons Ratio (y) = -0.03853 0.46797
# Poissons Ratio (z) = 0.03111 0.14736
#
# Static dielectric constant tensor:
#      x y z
#    x 1.946880 -0.045100 -0.007260 
#    y -0.045100 1.862030 0.014610 
#    z -0.007260 0.014610 1.935660 
# 
# From -- ./inp_files/159118.got.cif
#   From: 2010.05.17/outbox.cif.g08.bks.cpg/sg2_80_cif.got.tgz:159118.got - 2010.06.03 11:33:40.
