data_PCOD9008433
_publ_section_title
;
Structure prediction by ZEFSAII (Michael W. Deem and Ramdas Pophale) SiO2 
 PCOD9008433
Probable space group: P -1
;
_chemical_formula_sum "Si O2"
_cell_formula_units_Z 16
_cell_length_a 26.156379
_cell_length_b 17.776444
_cell_length_c 5.439242
_cell_angle_alpha 103.456145
_cell_angle_beta 97.613679
_cell_angle_gamma 19.123217
_cell_volume 774.894316
_symmetry_space_group_name_H-M "P -1"
_symmetry_group_IT_number 2
_symmetry_cell_setting 'triclinic'
loop_
_space_group_symop_operation_xyz
x,y,z
-x,-y,-z
loop_
_atom_site_type_symbol
_atom_site_label
_atom_site_fract_x
_atom_site_fract_y
_atom_site_fract_z
Si Si1 0.791560 0.899890 0.561291
Si Si2 0.626797 0.096897 0.118299
Si Si3 0.819389 0.701115 0.210236
Si Si4 0.089509 0.687812 0.977385
Si Si5 0.684246 0.758561 0.480107
Si Si6 0.244897 0.611729 0.286920
Si Si7 0.993145 0.939755 0.760700
Si Si8 0.055188 0.607786 0.254928
O O1 0.868858 0.705546 0.402463
O O2 0.935392 0.756917 0.514420
O O3 0.675239 0.075527 0.380617
O O4 0.697181 0.030669 0.858040
O O5 0.434381 0.357639 0.193027
O O6 0.713850 0.890580 0.070950
O O7 0.716474 0.794205 0.396653
O O8 0.949972 0.457770 0.987416
O O9 0.209695 0.457085 0.752090
O O10 0.190459 0.618389 0.082576
O O11 0.014853 0.744752 0.196630
O O12 0.967270 0.897893 0.860452
O O13 0.761101 0.649986 0.719439
O O14 0.500000 0.000000 0.500000
O O15 0.145872 0.832406 0.338780
O O16 0.168762 0.689653 0.552691
O O17 0.000000 0.000000 0.000000
#
# Coordination Sequence:
#
# PCOD9008433 Si02
#       8
#     2   2   2   2   2   2   2   2
#     4  10  24  40  63  87 122 174 218 259 310 356
#     4  10  24  38  65  91 124 161 212 264 307 368
#     4   9  23  36  58  86 118 170 213 265 295 373
#     4  10  23  36  61  90 125 166 199 261 312 386
#     4  11  25  35  57  88 130 169 207 253 314 371
#     4  10  21  39  64  97 122 156 203 265 322 380
#     4   9  20  38  65  93 122 155 203 253 329 386
#     4  11  23  40  56  86 127 166 218 257 305 373
#
# _framework density 20.647977000000001
#
# number of rings (size 3 to 8) (size 9 to 14) (size 15 to 20)
#    0.750    1.250    0.000    1.875   14.000    2.000 
#    0.000    0.000    0.000    1.500    0.000    0.000 
#    0.000    0.000    0.000    0.000    0.000    0.000 
#
# Total GULP energy -89190.237862 kJ/mol
# GULP energy per Si atom -5574.389866 kJ/mol
# Density = 2.060098 g / cm^3
# Si number density = 20.647977 Si / 1000 Ang^3
#
#
#
# Elastic Constant Matrix: (Units=GPa)
#
#
# Indices 1 2 3 4 5 6 
#
# 1 99.0532 57.6217 25.3369 0.6898 -27.9456 15.3977
# 2 57.6217 78.7237 42.7639 -0.6346 -28.8749 1.6477
# 3 25.3369 42.7639 85.9972 -17.1167 -16.3796 2.9758
# 4 0.6898 -0.6346 -17.1167 21.1624 5.0967 -5.9253
# 5 -27.9456 -28.8749 -16.3796 5.0967 36.4850 -10.1124
# 6 15.3977 1.6477 2.9758 -5.9253 -10.1124 27.8103
#
#
#
# Elastic Compliance Matrix: (Units=1/GPa)
#
#
# Indices 1 2 3 4 5 6 
#
# 1 0.020733 -0.014930 0.001411 -0.003510 0.002228 -0.010684
# 2 -0.014930 0.036061 -0.012793 -0.009438 0.015791 0.011230
# 3 0.001411 -0.012793 0.020519 0.016829 -0.002006 0.000637
# 4 -0.003510 -0.009438 0.016829 0.066027 -0.008599 0.011643
# 5 0.002228 0.015791 -0.002006 -0.008599 0.045443 0.012738
# 6 -0.010684 0.011230 0.000637 0.011643 0.012738 0.048252
#
#
# Mechanical properties :
#
#
# Convention : Reuss Voigt Hill
#
# Bulk Modulus (GPa) = 40.50158 57.24656 48.87407
# Shear Modulus (GPa) = 16.78475 26.29498 21.53987
#
# Velocity S-wave (km/s) = 2.85423 3.57247 3.23336
# Velocity P-wave (km/s) = 5.52450 6.69342 6.13686
#
# Compressibility (1/GPa) = 0.02469040
#
# Stress axis : x y z
#
# Youngs Moduli (GPa) = 48.23128 27.73105 48.73433
#
# Poissons Ratio (x) = 0.41402 -0.06876
# Poissons Ratio (y) = 0.72009 0.62344
# Poissons Ratio (z) = -0.06805 0.35475
#
# Static dielectric constant tensor:
#      x y z
#    x 1.743150 -0.004090 0.009260 
#    y -0.004090 1.796480 -0.084970 
#    z 0.009260 -0.084970 1.812850 
# 
# From -- ./inp_files/127517.got.cif
#   From: 2010.05.17/outbox.cif.g08.bks.cpg/sg2_64_cif.got.tgz:127517.got - 2010.06.03 11:33:40.
