data_PCOD9008750
_publ_section_title
;
Structure prediction by ZEFSAII (Michael W. Deem and Ramdas Pophale) SiO2 
 PCOD9008750
Probable space group: P -1
;
_chemical_formula_sum "Si O2"
_cell_formula_units_Z 16
_cell_length_a 11.826774
_cell_length_b 11.896771
_cell_length_c 11.388843
_cell_angle_alpha 128.155019
_cell_angle_beta 93.261380
_cell_angle_gamma 129.610894
_cell_volume 648.501353
_symmetry_space_group_name_H-M "P -1"
_symmetry_group_IT_number 2
_symmetry_cell_setting 'triclinic'
loop_
_space_group_symop_operation_xyz
x,y,z
-x,-y,-z
loop_
_atom_site_type_symbol
_atom_site_label
_atom_site_fract_x
_atom_site_fract_y
_atom_site_fract_z
Si Si1 0.944159 0.259276 0.815868
Si Si2 0.605478 0.512995 0.754124
Si Si3 0.180412 0.194017 0.533827
Si Si4 0.596491 0.855963 0.714710
Si Si5 0.562238 0.198609 0.717035
Si Si6 0.883316 0.338327 0.608456
Si Si7 0.988467 0.197566 0.108082
Si Si8 0.152945 0.437817 0.524295
O O1 0.916147 0.293637 0.706709
O O2 0.195392 0.545287 0.052294
O O3 0.884001 0.026954 0.670176
O O4 0.765276 0.123910 0.812554
O O5 0.441792 0.462239 0.750932
O O6 0.530735 0.388359 0.537690
O O7 0.543881 0.322158 0.719410
O O8 0.866884 0.772664 0.922722
O O9 0.153630 0.303116 0.523577
O O10 0.000000 0.000000 0.500000
O O11 0.401188 0.731991 0.683515
O O12 0.745693 0.938714 0.873483
O O13 0.500000 0.000000 0.500000
O O14 0.359693 0.970455 0.647765
O O15 0.905521 0.533012 0.748506
O O16 0.056592 0.466826 0.608196
O O17 0.008074 0.233732 0.272041
#
# Coordination Sequence:
#
# PCOD9008750 Si02
#       8
#     2   2   2   2   2   2   2   2
#     4  11  24  40  73 106 131 187 231 281 348 396
#     4  10  21  39  65  96 131 172 220 283 334 383
#     4  11  22  49  70  93 142 181 231 287 334 411
#     4  10  22  42  66  99 135 176 230 274 348 403
#     4  12  22  39  69 107 139 170 230 289 341 403
#     4  12  24  43  68 101 146 176 229 290 345 405
#     4  11  24  42  68 101 137 179 230 283 347 415
#     4  11  26  46  66  97 139 190 221 283 347 406
#
# _framework density 24.672269
#
# number of rings (size 3 to 8) (size 9 to 14) (size 15 to 20)
#    0.000    1.000    6.250    0.375    1.750    7.000 
#    2.250    4.375    0.000    0.000    0.000    0.000 
#    0.000    0.000    0.000    0.000    0.000    0.000 
#
# Total GULP energy -89463.329424 kJ/mol
# GULP energy per Si atom -5591.458089 kJ/mol
# Density = 2.461611 g / cm^3
# Si number density = 24.672269 Si / 1000 Ang^3
#
#
#
# Elastic Constant Matrix: (Units=GPa)
#
#
# Indices 1 2 3 4 5 6 
#
# 1 90.1559 51.2445 27.7341 6.5961 22.8315 17.6729
# 2 51.2445 135.4581 39.4881 6.4685 32.7934 18.5997
# 3 27.7341 39.4881 101.7589 16.7700 33.7560 7.3424
# 4 6.5961 6.4685 16.7700 40.4345 -5.0907 12.9079
# 5 22.8315 32.7934 33.7560 -5.0907 34.1496 15.0980
# 6 17.6729 18.5997 7.3424 12.9079 15.0980 62.9757
#
#
#
# Elastic Compliance Matrix: (Units=1/GPa)
#
#
# Indices 1 2 3 4 5 6 
#
# 1 0.015355 -0.004035 -0.000196 -0.002140 -0.005976 -0.001223
# 2 -0.004035 0.010990 -0.000095 -0.002200 -0.008233 0.000322
# 3 -0.000196 -0.000095 0.019460 -0.012965 -0.023663 0.006144
# 4 -0.002140 -0.002200 -0.012965 0.037891 0.027091 -0.011499
# 5 -0.005976 -0.008233 -0.023663 0.027091 0.076098 -0.016929
# 6 -0.001223 0.000322 0.006144 -0.011499 -0.016929 0.021827
#
#
# Mechanical properties :
#
#
# Convention : Reuss Voigt Hill
#
# Bulk Modulus (GPa) = 26.91460 62.70070 44.80765
# Shear Modulus (GPa) = 24.67213 41.43905 33.05559
#
# Velocity S-wave (km/s) = 3.16570 4.10271 3.66428
# Velocity P-wave (km/s) = 4.92897 6.92182 6.00859
#
# Compressibility (1/GPa) = 0.03715455
#
# Stress axis : x y z
#
# Youngs Moduli (GPa) = 65.12362 90.98843 51.38696
#
# Poissons Ratio (x) = 0.36714 0.01007
# Poissons Ratio (y) = 0.26278 0.00487
# Poissons Ratio (z) = 0.01276 0.00862
#
# Static dielectric constant tensor:
#      x y z
#    x 2.081280 0.024460 0.029330 
#    y 0.024460 2.029520 0.037670 
#    z 0.029330 0.037670 1.985000 
# 
# From -- ./inp_files/428752.got.cif
#   From: 2010.05.17/outbox.cif.g08.bks.cpg/sg2_215_cif.got.tgz:428752.got - 2010.06.03 11:33:40.
