data_PCOD9008250
_publ_section_title
;
Structure prediction by ZEFSAII (Michael W. Deem and Ramdas Pophale) SiO2 
 PCOD9008250
Probable space group: P -1
;
_chemical_formula_sum "Si O2"
_cell_formula_units_Z 15
_cell_length_a 12.830022
_cell_length_b 17.867349
_cell_length_c 7.200116
_cell_angle_alpha 99.881240
_cell_angle_beta 105.008932
_cell_angle_gamma 147.858487
_cell_volume 550.558310
_symmetry_space_group_name_H-M "P -1"
_symmetry_group_IT_number 2
_symmetry_cell_setting 'triclinic'
loop_
_space_group_symop_operation_xyz
x,y,z
-x,-y,-z
loop_
_atom_site_type_symbol
_atom_site_label
_atom_site_fract_x
_atom_site_fract_y
_atom_site_fract_z
Si Si1 0.141136 0.757383 0.198986
Si Si2 0.948992 0.314812 0.318395
Si Si3 0.305400 0.250350 0.506811
Si Si4 0.500982 0.243999 0.363755
Si Si5 0.000000 0.500000 0.000000
Si Si6 0.764186 0.654795 0.039020
Si Si7 0.627852 0.960638 0.056461
Si Si8 0.755156 0.929811 0.371691
O O1 0.043730 0.611278 0.162806
O O2 0.970348 0.716164 0.187631
O O3 0.500000 0.000000 0.500000
O O4 0.081188 0.716883 0.932061
O O5 0.665001 0.180528 0.185461
O O6 0.258623 0.565332 0.597733
O O7 0.904093 0.200891 0.325315
O O8 0.328431 0.207303 0.329517
O O9 0.980678 0.064392 0.356541
O O10 0.387407 0.243677 0.707772
O O11 0.543799 0.477099 0.696352
O O12 0.314984 0.054016 0.101440
O O13 0.708467 0.344333 0.665969
O O14 0.016317 0.888298 0.281842
O O15 0.500000 0.500000 0.000000
O O16 0.547513 0.860915 0.165332
#
# Coordination Sequence:
#
# PCOD9008250 Si02
#       8
#     2   2   2   2   1   2   2   2
#     4  11  21  35  63  94 122 160 215 263 315 374
#     4  10  23  40  56  90 128 162 206 257 313 390
#     4  10  22  43  64  95 124 160 221 267 311 380
#     4  11  23  39  65  90 127 163 210 261 317 382
#     4  10  22  36  60  96 120 160 206 266 314 366
#     4  10  21  39  64  91 127 164 209 267 319 374
#     4  11  24  41  60  90 131 166 205 258 327 378
#     4  10  24  40  66  93 124 168 211 264 321 377
#
# _framework density 27.245070999999999
#
# number of rings (size 3 to 8) (size 9 to 14) (size 15 to 20)
#    0.000    1.600    2.667    2.000    7.467    2.667 
#    0.000    0.667    0.000    0.000    0.000    0.000 
#    0.000    0.000    0.000    0.000    0.000    0.000 
#
# Total GULP energy -83601.565504 kJ/mol
# GULP energy per Si atom -5573.437700 kJ/mol
# Density = 2.718306 g / cm^3
# Si number density = 27.245071 Si / 1000 Ang^3
#
#
#
# Elastic Constant Matrix: (Units=GPa)
#
#
# Indices 1 2 3 4 5 6 
#
# 1 142.2898 5.5270 24.3093 -1.2754 -17.8240 12.9157
# 2 5.5270 56.2859 20.4403 -8.5261 -5.1736 -12.7507
# 3 24.3093 20.4403 56.0827 -8.2365 8.0217 -7.2716
# 4 -1.2754 -8.5261 -8.2365 37.9134 7.1009 -4.7819
# 5 -17.8240 -5.1736 8.0217 7.1009 27.8206 0.0229
# 6 12.9157 -12.7507 -7.2716 -4.7819 0.0229 43.1970
#
#
#
# Elastic Compliance Matrix: (Units=1/GPa)
#
#
# Indices 1 2 3 4 5 6 
#
# 1 0.009650 0.000967 -0.006843 -0.003176 0.009150 -0.004108
# 2 0.000967 0.023075 -0.008689 0.002754 0.006709 0.005361
# 3 -0.006843 -0.008689 0.028013 0.007535 -0.016004 0.005039
# 4 -0.003176 0.002754 0.007535 0.031550 -0.011754 0.006530
# 5 0.009150 0.006709 -0.016004 -0.011754 0.050673 -0.004778
# 6 -0.004108 0.005361 0.005039 0.006530 -0.004778 0.027534
#
#
# Mechanical properties :
#
#
# Convention : Reuss Voigt Hill
#
# Bulk Modulus (GPa) = 31.63854 39.46794 35.55324
# Shear Modulus (GPa) = 23.79119 35.41166 29.60142
#
# Velocity S-wave (km/s) = 2.95825 3.60911 3.29977
# Velocity P-wave (km/s) = 4.82764 5.64671 5.25316
#
# Compressibility (1/GPa) = 0.03160702
#
# Stress axis : x y z
#
# Youngs Moduli (GPa) = 103.62677 43.33662 35.69774
#
# Poissons Ratio (x) = -0.04189 0.24428
# Poissons Ratio (y) = -0.10017 0.31018
# Poissons Ratio (z) = 0.70912 0.37656
#
# Static dielectric constant tensor:
#      x y z
#    x 2.114750 0.018700 0.037350 
#    y 0.018700 2.299910 -0.001450 
#    z 0.037350 -0.001450 2.160120 
# 
# From -- ./inp_files/278167.got.cif
#   From: 2010.05.17/outbox.cif.g08.bks.cpg/sg2_140_cif.got.tgz:278167.got - 2010.06.03 11:33:40.
