data_PCOD9008821
_publ_section_title
;
Structure prediction by ZEFSAII (Michael W. Deem and Ramdas Pophale) SiO2 
 PCOD9008821
Probable space group: P -1
;
_chemical_formula_sum "Si O2"
_cell_formula_units_Z 14
_cell_length_a 9.513706
_cell_length_b 12.030682
_cell_length_c 8.544604
_cell_angle_alpha 81.906083
_cell_angle_beta 33.991994
_cell_angle_gamma 86.661042
_cell_volume 538.290878
_symmetry_space_group_name_H-M "P -1"
_symmetry_group_IT_number 2
_symmetry_cell_setting 'triclinic'
loop_
_space_group_symop_operation_xyz
x,y,z
-x,-y,-z
loop_
_atom_site_type_symbol
_atom_site_label
_atom_site_fract_x
_atom_site_fract_y
_atom_site_fract_z
Si Si1 0.632545 0.347666 0.765438
Si Si2 0.486894 0.540122 0.684411
Si Si3 0.048067 0.654585 0.222533
Si Si4 0.914580 0.123826 0.014360
Si Si5 0.742582 0.877737 0.792488
Si Si6 0.511059 0.000302 0.734076
Si Si7 0.138531 0.784019 0.647367
O O1 0.445172 0.438012 0.870408
O O2 0.831152 0.373265 0.716112
O O3 0.775502 0.330212 0.472350
O O4 0.471750 0.228923 0.980304
O O5 0.500000 0.500000 0.500000
O O6 0.766631 0.596521 0.463135
O O7 0.260691 0.618206 0.910436
O O8 0.023099 0.788027 0.201202
O O9 0.009218 0.203410 0.059008
O O10 0.623031 0.083167 0.250098
O O11 0.000000 0.000000 0.000000
O O12 0.993309 0.829796 0.625952
O O13 0.726116 0.938420 0.631749
O O14 0.683755 0.971294 0.956746
O O15 0.625724 0.123813 0.553596
#
# Coordination Sequence:
#
# PCOD9008821 Si02
#       7
#     2   2   2   2   2   2   2
#     4  11  26  46  74 106 146 193 249 304 369 444
#     4  12  29  52  82 111 148 189 249 314 374 436
#     4  12  29  51  77 112 148 198 247 302 375 446
#     4  12  25  44  69 107 149 194 247 305 368 440
#     4  10  21  39  66 100 141 187 246 289 364 428
#     4  10  21  41  60 100 141 195 238 295 358 434
#     4  11  24  38  71 101 144 192 244 304 367 432
#
# _framework density 26.008244000000001
#
# number of rings (size 3 to 8) (size 9 to 14) (size 15 to 20)
#    0.000    0.857    2.857    3.000    6.000    3.429 
#    0.000    0.000    0.000    0.000    0.000    0.000 
#    0.000    0.000    0.000    0.000    0.000    0.000 
#
# Total GULP energy -78240.233225 kJ/mol
# GULP energy per Si atom -5588.588087 kJ/mol
# Density = 2.594905 g / cm^3
# Si number density = 26.008244 Si / 1000 Ang^3
#
#
#
# Elastic Constant Matrix: (Units=GPa)
#
#
# Indices 1 2 3 4 5 6 
#
# 1 138.0714 32.4204 21.8101 4.9643 3.7470 5.3887
# 2 32.4204 112.9785 29.0073 14.5118 4.8485 -15.4681
# 3 21.8101 29.0073 61.1022 15.7056 -11.3984 16.0052
# 4 4.9643 14.5118 15.7056 46.1896 6.8388 -3.2327
# 5 3.7470 4.8485 -11.3984 6.8388 35.0189 -3.8119
# 6 5.3887 -15.4681 16.0052 -3.2327 -3.8119 46.4274
#
#
#
# Elastic Compliance Matrix: (Units=1/GPa)
#
#
# Indices 1 2 3 4 5 6 
#
# 1 0.008090 -0.001892 -0.002210 0.000643 -0.001545 -0.000890
# 2 -0.001892 0.012392 -0.007493 -0.000204 -0.003188 0.006656
# 3 -0.002210 -0.007493 0.028289 -0.009486 0.011056 -0.011745
# 4 0.000643 -0.000204 -0.009486 0.026328 -0.007799 0.004320
# 5 -0.001545 -0.003188 0.011056 -0.007799 0.034018 -0.002444
# 6 -0.000890 0.006656 -0.011745 0.004320 -0.002444 0.028009
#
#
# Mechanical properties :
#
#
# Convention : Reuss Voigt Hill
#
# Bulk Modulus (GPa) = 39.09125 53.18084 46.13605
# Shear Modulus (GPa) = 29.61320 40.78813 35.20066
#
# Velocity S-wave (km/s) = 3.37799 3.96444 3.68291
# Velocity P-wave (km/s) = 5.50249 6.43800 5.98854
#
# Compressibility (1/GPa) = 0.02558117
#
# Stress axis : x y z
#
# Youngs Moduli (GPa) = 123.61699 80.69468 35.34885
#
# Poissons Ratio (x) = 0.15268 0.07811
# Poissons Ratio (y) = 0.23389 0.26488
# Poissons Ratio (z) = 0.27316 0.60467
#
# Static dielectric constant tensor:
#      x y z
#    x 2.112570 0.001010 0.141690 
#    y 0.001010 2.039840 0.036510 
#    z 0.141690 0.036510 2.241210 
# 
# From -- ./inp_files/46634.got.cif
#   From: 2010.05.17/outbox.cif.g08.bks.cpg/sg2_24_cif.got.tgz:46634.got - 2010.06.03 11:33:40.
