data_PCOD9008358
_publ_section_title
;
Structure prediction by ZEFSAII (Michael W. Deem and Ramdas Pophale) SiO2 
 PCOD9008358
Probable space group: P -1
;
_chemical_formula_sum "Si O2"
_cell_formula_units_Z 16
_cell_length_a 21.792689
_cell_length_b 5.449165
_cell_length_c 11.865804
_cell_angle_alpha 71.640361
_cell_angle_beta 140.999721
_cell_angle_gamma 80.746863
_cell_volume 617.848251
_symmetry_space_group_name_H-M "P -1"
_symmetry_group_IT_number 2
_symmetry_cell_setting 'triclinic'
loop_
_space_group_symop_operation_xyz
x,y,z
-x,-y,-z
loop_
_atom_site_type_symbol
_atom_site_label
_atom_site_fract_x
_atom_site_fract_y
_atom_site_fract_z
Si Si1 0.197996 0.840098 0.055573
Si Si2 0.996463 0.884676 0.888000
Si Si3 0.495775 0.641502 0.737447
Si Si4 0.221179 0.113657 0.409536
Si Si5 0.423137 0.869213 0.908132
Si Si6 0.680472 0.869532 0.749364
Si Si7 0.142832 0.182772 0.695293
Si Si8 0.740219 0.517921 0.131447
O O1 0.294241 0.418485 0.256547
O O2 0.230746 0.030866 0.148345
O O3 0.056366 0.977114 0.869909
O O4 0.213058 0.922928 0.940089
O O5 0.853282 0.016149 0.642952
O O6 0.109115 0.463219 0.128124
O O7 0.000000 0.000000 0.000000
O O8 0.351069 0.866032 0.552789
O O9 0.465622 0.764301 0.546756
O O10 0.571385 0.248655 0.939650
O O11 0.592943 0.680192 0.923445
O O12 0.281092 0.140161 0.603701
O O13 0.500000 0.500000 0.000000
O O14 0.500000 0.000000 0.000000
O O15 0.717849 0.691711 0.951075
O O16 0.197489 0.368986 0.721502
O O17 0.000000 0.500000 0.500000
O O18 0.162832 0.910895 0.675182
#
# Coordination Sequence:
#
# PCOD9008358 Si02
#       8
#     2   2   2   2   2   2   2   2
#     4  10  22  39  64  92 126 166 215 268 325 370
#     4  11  23  40  66  94 124 176 224 271 325 381
#     4  11  22  43  67  91 136 173 209 269 333 377
#     4  10  24  42  61  94 132 167 224 275 318 388
#     4  10  25  42  62  91 127 173 216 262 326 388
#     4  10  21  39  64  94 128 162 212 269 320 384
#     4  10  22  44  64  93 132 166 210 263 317 391
#     4  10  23  39  65 102 124 166 216 260 322 393
#
# _framework density 25.896328
#
# number of rings (size 3 to 8) (size 9 to 14) (size 15 to 20)
#    0.000    1.750    1.250    1.500    7.000    4.000 
#    2.250    3.750    0.000    0.000    0.000    0.000 
#    0.000    0.000    0.000    0.000    0.000    0.000 
#
# Total GULP energy -89229.608634 kJ/mol
# GULP energy per Si atom -5576.850540 kJ/mol
# Density = 2.583739 g / cm^3
# Si number density = 25.896328 Si / 1000 Ang^3
#
#
#
# Elastic Constant Matrix: (Units=GPa)
#
#
# Indices 1 2 3 4 5 6 
#
# 1 46.9764 63.8926 12.5535 4.8477 18.5049 12.1194
# 2 63.8926 192.7252 59.3777 20.9178 22.5145 31.1847
# 3 12.5535 59.3777 109.7123 9.4715 23.6333 13.0592
# 4 4.8477 20.9178 9.4715 33.0303 13.2177 16.3826
# 5 18.5049 22.5145 23.6333 13.2177 58.3412 4.3499
# 6 12.1194 31.1847 13.0592 16.3826 4.3499 46.2969
#
#
#
# Elastic Compliance Matrix: (Units=1/GPa)
#
#
# Indices 1 2 3 4 5 6 
#
# 1 0.046998 -0.016064 0.005896 0.009310 -0.012815 -0.005236
# 2 -0.016064 0.012399 -0.005061 -0.004789 0.003547 -0.001357
# 3 0.005896 -0.005061 0.012354 0.001739 -0.005185 -0.001747
# 4 0.009310 -0.004789 0.001739 0.042415 -0.010395 -0.013734
# 5 -0.012815 0.003547 -0.005185 -0.010395 0.024005 0.003851
# 6 -0.005236 -0.001357 -0.001747 -0.013734 0.003851 0.028876
#
#
# Mechanical properties :
#
#
# Convention : Reuss Voigt Hill
#
# Bulk Modulus (GPa) = 24.21671 69.00684 46.61178
# Shear Modulus (GPa) = 23.66665 41.77302 32.71983
#
# Velocity S-wave (km/s) = 3.02636 4.02068 3.55842
# Velocity P-wave (km/s) = 4.64580 6.94692 5.90945
#
# Compressibility (1/GPa) = 0.04129380
#
# Stress axis : x y z
#
# Youngs Moduli (GPa) = 21.27742 80.65429 80.94465
#
# Poissons Ratio (x) = 1.29560 -0.47728
# Poissons Ratio (y) = 0.34179 0.40968
# Poissons Ratio (z) = -0.12546 0.40821
#
# Static dielectric constant tensor:
#      x y z
#    x 2.127220 -0.129840 0.087070 
#    y -0.129840 1.817850 0.138640 
#    z 0.087070 0.138640 2.037720 
# 
# From -- ./inp_files/542107.got.cif
#   From: 2010.05.17/outbox.cif.g08.bks.cpg/sg2_272_cif.got.tgz:542107.got - 2010.06.03 11:33:40.
