data_PCOD9008794
_publ_section_title
;
Structure prediction by ZEFSAII (Michael W. Deem and Ramdas Pophale) SiO2 
 PCOD9008794
Probable space group: P -1
;
_chemical_formula_sum "Si O2"
_cell_formula_units_Z 16
_cell_length_a 11.117188
_cell_length_b 11.032802
_cell_length_c 5.530505
_cell_angle_alpha 106.348848
_cell_angle_beta 81.490348
_cell_angle_gamma 83.351398
_cell_volume 634.823224
_symmetry_space_group_name_H-M "P -1"
_symmetry_group_IT_number 2
_symmetry_cell_setting 'triclinic'
loop_
_space_group_symop_operation_xyz
x,y,z
-x,-y,-z
loop_
_atom_site_type_symbol
_atom_site_label
_atom_site_fract_x
_atom_site_fract_y
_atom_site_fract_z
Si Si1 0.180132 0.327392 0.983825
Si Si2 0.423220 0.297444 0.175487
Si Si3 0.031669 0.173999 0.235239
Si Si4 0.873373 0.396807 0.602446
Si Si5 0.280542 0.472871 0.656826
Si Si6 0.800276 0.071136 0.029697
Si Si7 0.665973 0.308333 0.892952
Si Si8 0.542519 0.058536 0.273038
O O1 0.295692 0.269268 0.087878
O O2 0.079748 0.239416 0.018761
O O3 0.129443 0.475081 0.166861
O O4 0.241830 0.348411 0.722407
O O5 0.376890 0.433081 0.391596
O O6 0.523129 0.294319 0.930174
O O7 0.485478 0.205940 0.318756
O O8 0.993183 0.288706 0.501518
O O9 0.908652 0.119022 0.174024
O O10 0.135753 0.054926 0.203740
O O11 0.844767 0.448873 0.371209
O O12 0.666652 0.435930 0.122707
O O13 0.245571 0.669482 0.339095
O O14 0.737149 0.183951 0.938296
O O15 0.690137 0.041528 0.215148
O O16 0.500000 0.000000 0.500000
O O17 0.500000 0.000000 0.000000
#
# Coordination Sequence:
#
# PCOD9008794 Si02
#       8
#     2   2   2   2   2   2   2   2
#     4  10  23  41  66  99 134 180 234 289 356 412
#     4  10  23  39  68 101 133 179 225 289 364 417
#     4  11  22  44  66  92 143 172 248 279 344 437
#     4  10  22  40  66  96 130 184 226 297 351 413
#     4  10  21  39  65  98 131 176 226 287 356 417
#     4  10  24  43  70 103 130 192 221 292 358 416
#     4  10  21  42  62  98 135 166 232 285 363 423
#     4  11  26  48  77 106 149 184 236 297 361 436
#
# _framework density 25.203866999999999
#
# number of rings (size 3 to 8) (size 9 to 14) (size 15 to 20)
#    0.000    1.750    1.250    1.500    3.500    8.500 
#    4.500    1.250    0.000    0.000    0.000    0.000 
#    0.000    0.000    0.000    0.000    0.000    0.000 
#
# Total GULP energy -89473.929620 kJ/mol
# GULP energy per Si atom -5592.120601 kJ/mol
# Density = 2.514650 g / cm^3
# Si number density = 25.203867 Si / 1000 Ang^3
#
#
#
# Elastic Constant Matrix: (Units=GPa)
#
#
# Indices 1 2 3 4 5 6 
#
# 1 139.0736 52.7651 43.5549 -2.1389 -37.8590 3.1118
# 2 52.7651 104.3712 28.5104 -3.9826 -29.7203 -7.0795
# 3 43.5549 28.5104 60.1558 -19.4742 -18.0213 -1.8683
# 4 -2.1389 -3.9826 -19.4742 36.2359 0.2427 -12.6436
# 5 -37.8590 -29.7203 -18.0213 0.2427 33.4041 5.0548
# 6 3.1118 -7.0795 -1.8683 -12.6436 5.0548 42.0304
#
#
#
# Elastic Compliance Matrix: (Units=1/GPa)
#
#
# Indices 1 2 3 4 5 6 
#
# 1 0.012881 -0.002392 -0.007113 -0.004873 0.009314 -0.004259
# 2 -0.002392 0.013840 -0.002045 0.000808 0.008241 0.001669
# 3 -0.007113 -0.002045 0.030310 0.017782 0.005400 0.006229
# 4 -0.004873 0.000808 0.017782 0.041658 0.002440 0.013526
# 5 0.009314 0.008241 0.005400 0.002440 0.051402 -0.004509
# 6 -0.004259 0.001669 0.006229 0.013526 -0.004509 0.029277
#
#
# Mechanical properties :
#
#
# Convention : Reuss Voigt Hill
#
# Bulk Modulus (GPa) = 29.47099 61.47350 45.47224
# Shear Modulus (GPa) = 23.38876 34.25210 28.82043
#
# Velocity S-wave (km/s) = 3.04959 3.69046 3.38522
# Velocity P-wave (km/s) = 4.91105 6.52708 5.77586
#
# Compressibility (1/GPa) = 0.03393167
#
# Stress axis : x y z
#
# Youngs Moduli (GPa) = 77.63267 72.25541 32.99201
#
# Poissons Ratio (x) = 0.17283 0.23466
# Poissons Ratio (y) = 0.18569 0.06748
# Poissons Ratio (z) = 0.55217 0.14778
#
# Static dielectric constant tensor:
#      x y z
#    x 1.987780 0.013650 0.001550 
#    y 0.013650 2.047820 0.018840 
#    z 0.001550 0.018840 2.026640 
# 
# From -- ./inp_files/67135.got.cif
#   From: 2010.05.17/outbox.cif.g08.bks.cpg/sg2_34_cif.got.tgz:67135.got - 2010.06.03 11:33:40.
