data_PCOD9008040
_publ_section_title
;
Structure prediction by ZEFSAII (Michael W. Deem and Ramdas Pophale) SiO2 
 PCOD9008040
Probable space group: P -1
;
_chemical_formula_sum "Si O2"
_cell_formula_units_Z 16
_cell_length_a 5.244791
_cell_length_b 11.684662
_cell_length_c 19.683574
_cell_angle_alpha 147.716149
_cell_angle_beta 84.134384
_cell_angle_gamma 92.454017
_cell_volume 638.758525
_symmetry_space_group_name_H-M "P -1"
_symmetry_group_IT_number 2
_symmetry_cell_setting 'triclinic'
loop_
_space_group_symop_operation_xyz
x,y,z
-x,-y,-z
loop_
_atom_site_type_symbol
_atom_site_label
_atom_site_fract_x
_atom_site_fract_y
_atom_site_fract_z
Si Si1 0.268056 0.333786 0.860410
Si Si2 0.228486 0.670073 0.845752
Si Si3 0.952461 0.411388 0.383390
Si Si4 0.578897 0.010078 0.581322
Si Si5 0.423052 0.281974 0.984295
Si Si6 0.542485 0.464412 0.623165
Si Si7 0.975520 0.023988 0.112851
Si Si8 0.918221 0.345067 0.763749
O O1 0.426324 0.170711 0.721032
O O2 0.307323 0.265403 0.902287
O O3 0.988663 0.326213 0.831855
O O4 0.333144 0.582694 0.974856
O O5 0.480845 0.600976 0.761717
O O6 0.054139 0.801949 0.859860
O O7 0.129309 0.449474 0.764901
O O8 0.197153 0.838960 0.993565
O O9 0.155431 0.537346 0.397947
O O10 0.044949 0.159911 0.244508
O O11 0.000000 0.500000 0.500000
O O12 0.656452 0.434099 0.377977
O O13 0.848986 0.115775 0.626400
O O14 0.500000 0.000000 0.500000
O O15 0.550164 0.772241 0.488099
O O16 0.303502 0.462093 0.131547
O O17 0.297076 0.075908 0.918002
#
# Coordination Sequence:
#
# PCOD9008040 Si02
#       8
#     2   2   2   2   2   2   2   2
#     4  10  21  39  63  94 132 171 225 289 335 423
#     4   9  20  42  64  97 130 172 230 280 340 406
#     4  11  26  48  70 103 140 180 232 286 346 418
#     4  11  26  39  65  97 137 186 227 282 351 412
#     4   9  20  40  62  96 128 169 226 279 353 402
#     4  11  26  45  70 100 138 183 230 290 339 414
#     4   9  20  41  68  93 132 180 217 286 340 411
#     4  10  21  40  64  97 132 178 224 285 346 409
#
# _framework density 25.048590000000001
#
# number of rings (size 3 to 8) (size 9 to 14) (size 15 to 20)
#    0.000    2.000    0.000    1.500    7.000    1.500 
#   15.750    1.250    0.000    0.000    0.000    0.000 
#    0.000    0.000    0.000    0.000    0.000    0.000 
#
# Total GULP energy -89180.734437 kJ/mol
# GULP energy per Si atom -5573.795902 kJ/mol
# Density = 2.499158 g / cm^3
# Si number density = 25.048590 Si / 1000 Ang^3
#
#
#
# Elastic Constant Matrix: (Units=GPa)
#
#
# Indices 1 2 3 4 5 6 
#
# 1 43.9836 3.4932 22.4994 -3.7309 23.0812 10.3468
# 2 3.4932 74.7407 36.1041 -3.4603 6.4265 7.7430
# 3 22.4994 36.1041 167.4995 -1.6882 22.0313 3.5876
# 4 -3.7309 -3.4603 -1.6882 46.9195 6.3282 5.2748
# 5 23.0812 6.4265 22.0313 6.3282 50.4889 -4.5685
# 6 10.3468 7.7430 3.5876 5.2748 -4.5685 20.7530
#
#
#
# Elastic Compliance Matrix: (Units=1/GPa)
#
#
# Indices 1 2 3 4 5 6 
#
# 1 0.044999 0.005326 -0.003238 0.010683 -0.024060 -0.031874
# 2 0.005326 0.016332 -0.003423 0.003203 -0.004319 -0.009922
# 3 -0.003238 -0.003423 0.007251 -0.000268 -0.001082 0.001468
# 4 0.010683 0.003203 -0.000268 0.025394 -0.009721 -0.015069
# 5 -0.024060 -0.004319 -0.001082 -0.009721 0.035219 0.024018
# 6 -0.031874 -0.009922 0.001468 -0.015069 0.024018 0.076643
#
#
# Mechanical properties :
#
#
# Convention : Reuss Voigt Hill
#
# Bulk Modulus (GPa) = 15.17141 45.60191 30.38666
# Shear Modulus (GPa) = 21.69413 38.57409 30.13411
#
# Velocity S-wave (km/s) = 2.94612 3.92850 3.47223
# Velocity P-wave (km/s) = 4.20033 6.23076 5.31344
#
# Compressibility (1/GPa) = 0.06591345
#
# Stress axis : x y z
#
# Youngs Moduli (GPa) = 22.22269 61.23084 137.91221
#
# Poissons Ratio (x) = -0.32613 0.44650
# Poissons Ratio (y) = -0.11836 0.47204
# Poissons Ratio (z) = 0.07195 0.20958
#
# Static dielectric constant tensor:
#      x y z
#    x 2.256620 -0.124700 -0.070360 
#    y -0.124700 2.190760 -0.005680 
#    z -0.070360 -0.005680 1.993540 
# 
# From -- ./inp_files/370527.got.cif
#   From: 2010.05.17/outbox.cif.g08.bks.cpg/sg2_186_cif.got.tgz:370527.got - 2010.06.03 11:33:40.
