data_PCOD9008188
_publ_section_title
;
Structure prediction by ZEFSAII (Michael W. Deem and Ramdas Pophale) SiO2 
 PCOD9008188
Probable space group: P -1
;
_chemical_formula_sum "Si O2"
_cell_formula_units_Z 15
_cell_length_a 12.538215
_cell_length_b 19.622073
_cell_length_c 8.399284
_cell_angle_alpha 55.412350
_cell_angle_beta 135.423924
_cell_angle_gamma 149.822154
_cell_volume 722.256101
_symmetry_space_group_name_H-M "P -1"
_symmetry_group_IT_number 2
_symmetry_cell_setting 'triclinic'
loop_
_space_group_symop_operation_xyz
x,y,z
-x,-y,-z
loop_
_atom_site_type_symbol
_atom_site_label
_atom_site_fract_x
_atom_site_fract_y
_atom_site_fract_z
Si Si1 0.474328 0.187497 0.911365
Si Si2 0.525524 0.887615 0.338036
Si Si3 0.177489 0.276835 0.916938
Si Si4 0.944958 0.421373 0.740262
Si Si5 0.051932 0.087106 0.797234
Si Si6 0.729423 0.488989 0.324187
Si Si7 0.000000 0.500000 0.000000
Si Si8 0.613768 0.016008 0.764554
O O1 0.434201 0.128939 0.773959
O O2 0.232228 0.129429 0.798004
O O3 0.713217 0.349796 0.945648
O O4 0.509444 0.125745 0.148816
O O5 0.299605 0.733444 0.373673
O O6 0.443875 0.946181 0.203532
O O7 0.781597 0.988644 0.569987
O O8 0.173835 0.221216 0.827240
O O9 0.187903 0.379637 0.755602
O O10 0.915371 0.142143 0.902280
O O11 0.427255 0.359615 0.171155
O O12 0.856899 0.479999 0.597058
O O13 0.007833 0.423385 0.982477
O O14 0.163531 0.502826 0.738331
O O15 0.000000 0.000000 0.000000
O O16 0.500000 0.000000 0.500000
#
# Coordination Sequence:
#
# PCOD9008188 Si02
#       8
#     2   2   2   2   2   2   1   2
#     4  11  25  43  65  92 130 171 211 263 322 388
#     4  11  23  40  63  95 128 165 212 260 326 380
#     4  11  22  38  62  96 125 159 213 268 313 362
#     4  10  21  39  64  89 124 170 210 255 312 377
#     4  12  22  40  66  96 126 165 216 271 314 373
#     4  10  22  38  64  90 128 166 213 262 309 373
#     4  10  24  40  62  90 128 166 210 248 318 388
#     4  12  23  41  67  96 126 168 218 269 317 374
#
# _framework density 20.768256000000001
#
# number of rings (size 3 to 8) (size 9 to 14) (size 15 to 20)
#    0.000    1.067    4.000    2.400    1.867    1.067 
#    0.000    0.000    0.000    5.600    0.000    0.000 
#    0.000    0.000    0.000    0.000    0.000    0.000 
#
# Total GULP energy -83542.719220 kJ/mol
# GULP energy per Si atom -5569.514615 kJ/mol
# Density = 2.072099 g / cm^3
# Si number density = 20.768256 Si / 1000 Ang^3
#
#
#
# Elastic Constant Matrix: (Units=GPa)
#
#
# Indices 1 2 3 4 5 6 
#
# 1 130.9324 26.7700 8.9040 6.8641 16.6372 5.4324
# 2 26.7700 89.6094 9.2455 10.4791 13.4959 4.0619
# 3 8.9040 9.2455 26.8410 5.5012 13.4930 -0.0171
# 4 6.8641 10.4791 5.5012 25.9715 -2.8784 3.0029
# 5 16.6372 13.4959 13.4930 -2.8784 28.0811 1.7498
# 6 5.4324 4.0619 -0.0171 3.0029 1.7498 46.7441
#
#
#
# Elastic Compliance Matrix: (Units=1/GPa)
#
#
# Indices 1 2 3 4 5 6 
#
# 1 0.008687 -0.001642 0.000564 -0.002224 -0.004823 -0.000543
# 2 -0.001642 0.013202 0.000142 -0.005543 -0.005985 -0.000376
# 3 0.000564 0.000142 0.054246 -0.015041 -0.028131 0.001961
# 4 -0.002224 -0.005543 -0.015041 0.046637 0.016168 -0.002867
# 5 -0.004823 -0.005985 -0.028131 0.016168 0.056649 -0.002089
# 6 -0.000543 -0.000376 0.001961 -0.002867 -0.002089 0.021752
#
#
# Mechanical properties :
#
#
# Convention : Reuss Voigt Hill
#
# Bulk Modulus (GPa) = 13.46589 37.46905 25.46747
# Shear Modulus (GPa) = 21.94892 33.65691 27.80291
#
# Velocity S-wave (km/s) = 3.25445 4.03003 3.66282
# Velocity P-wave (km/s) = 4.54091 6.30361 5.49342
#
# Compressibility (1/GPa) = 0.07426168
#
# Stress axis : x y z
#
# Youngs Moduli (GPa) = 115.11598 75.74551 18.43438
#
# Poissons Ratio (x) = 0.12439 -0.01039
# Poissons Ratio (y) = 0.18905 -0.00261
# Poissons Ratio (z) = -0.06491 -0.01072
#
# Static dielectric constant tensor:
#      x y z
#    x 1.778950 -0.005850 -0.082760 
#    y -0.005850 1.740980 -0.053710 
#    z -0.082760 -0.053710 1.931100 
# 
# From -- ./inp_files/203204.got.cif
#   From: 2010.05.17/outbox.cif.g08.bks.cpg/sg2_102_cif.got.tgz:203204.got - 2010.06.03 11:33:40.
