data_PCOD9008391
_publ_section_title
;
Structure prediction by ZEFSAII (Michael W. Deem and Ramdas Pophale) SiO2 
 PCOD9008391
Probable space group: P -1
;
_chemical_formula_sum "Si O2"
_cell_formula_units_Z 16
_cell_length_a 12.474184
_cell_length_b 22.072193
_cell_length_c 8.535095
_cell_angle_alpha 27.576260
_cell_angle_beta 45.153131
_cell_angle_gamma 34.906889
_cell_volume 620.439369
_symmetry_space_group_name_H-M "P -1"
_symmetry_group_IT_number 2
_symmetry_cell_setting 'triclinic'
loop_
_space_group_symop_operation_xyz
x,y,z
-x,-y,-z
loop_
_atom_site_type_symbol
_atom_site_label
_atom_site_fract_x
_atom_site_fract_y
_atom_site_fract_z
Si Si1 0.809839 0.015175 0.430071
Si Si2 0.525928 0.523972 0.240558
Si Si3 0.574424 0.106935 0.145473
Si Si4 0.067115 0.135431 0.851393
Si Si5 0.510768 0.777414 0.504813
Si Si6 0.333392 0.426887 0.474750
Si Si7 0.933024 0.312870 0.247538
Si Si8 0.919157 0.626610 0.475678
O O1 0.687893 0.091576 0.219037
O O2 0.683193 0.059371 0.615052
O O3 0.936957 0.822852 0.704107
O O4 0.939221 0.078129 0.166444
O O5 0.500000 0.500000 0.500000
O O6 0.360063 0.550168 0.249781
O O7 0.719595 0.372473 0.315975
O O8 0.537880 0.671506 0.870979
O O9 0.500000 0.000000 0.500000
O O10 0.721994 0.021393 0.046158
O O11 0.401084 0.286866 0.857059
O O12 0.065410 0.263028 0.670154
O O13 0.995522 0.224793 0.552380
O O14 0.524684 0.671606 0.587872
O O15 0.707157 0.751939 0.340087
O O16 0.119597 0.528174 0.404275
O O17 0.933958 0.470056 0.887902
#
# Coordination Sequence:
#
# PCOD9008391 Si02
#       8
#     2   2   2   2   2   2   2   2
#     4  11  22  42  66  94 130 169 216 267 320 388
#     4  11  22  40  68  99 129 168 215 265 323 389
#     4  11  23  41  66  97 128 168 217 268 323 387
#     4  11  21  38  65  97 127 164 214 269 322 382
#     4  11  25  42  62  94 130 172 216 265 324 389
#     4  12  23  42  65  93 131 171 213 270 327 383
#     4  10  21  39  64  95 128 165 211 267 323 384
#     4  11  24  40  61  91 129 171 215 265 325 388
#
# _framework density 25.788176
#
# number of rings (size 3 to 8) (size 9 to 14) (size 15 to 20)
#    0.000    1.000    0.000    9.375    0.000    3.000 
#    0.000   10.625    0.000    0.000    0.000    0.000 
#    0.000    0.000    0.000    0.000    0.000    0.000 
#
# Total GULP energy -89511.399727 kJ/mol
# GULP energy per Si atom -5594.462483 kJ/mol
# Density = 2.572948 g / cm^3
# Si number density = 25.788176 Si / 1000 Ang^3
#
#
#
# Elastic Constant Matrix: (Units=GPa)
#
#
# Indices 1 2 3 4 5 6 
#
# 1 81.7362 49.2083 17.3346 2.8390 -28.4678 -2.9911
# 2 49.2083 196.5184 33.8851 -7.1644 -28.3923 4.3327
# 3 17.3346 33.8851 114.9132 -3.7450 -16.7451 -2.7168
# 4 2.8390 -7.1644 -3.7450 34.4103 3.7391 -2.9067
# 5 -28.4678 -28.3923 -16.7451 3.7391 38.0948 -3.8172
# 6 -2.9911 4.3327 -2.7168 -2.9067 -3.8172 37.2524
#
#
#
# Elastic Compliance Matrix: (Units=1/GPa)
#
#
# Indices 1 2 3 4 5 6 
#
# 1 0.018538 -0.003043 -0.000174 -0.003260 0.012111 0.002816
# 2 -0.003043 0.006364 -0.001139 0.001193 0.001772 -0.000793
# 3 -0.000174 -0.001139 0.009592 0.000564 0.003302 0.001200
# 4 -0.003260 0.001193 0.000564 0.030219 -0.004108 0.001578
# 5 0.012111 0.001772 0.003302 -0.004108 0.038944 0.004677
# 6 0.002816 -0.000793 0.001200 0.001578 0.004677 0.027852
#
#
# Mechanical properties :
#
#
# Convention : Reuss Voigt Hill
#
# Bulk Modulus (GPa) = 38.78751 66.00266 52.39509
# Shear Modulus (GPa) = 33.59848 41.46751 37.53299
#
# Velocity S-wave (km/s) = 3.61344 4.01434 3.81915
# Velocity P-wave (km/s) = 5.69936 6.86559 6.30948
#
# Compressibility (1/GPa) = 0.02578149
#
# Stress axis : x y z
#
# Youngs Moduli (GPa) = 53.94397 157.13529 104.24962
#
# Poissons Ratio (x) = 0.47818 0.01814
# Poissons Ratio (y) = 0.16416 0.11876
# Poissons Ratio (z) = 0.00938 0.17901
#
# Static dielectric constant tensor:
#      x y z
#    x 2.025480 -0.045670 0.019780 
#    y -0.045670 2.125890 -0.033390 
#    z 0.019780 -0.033390 2.045100 
# 
# From -- ./inp_files/282603.got.cif
#   From: 2010.05.17/outbox.cif.g08.bks.cpg/sg2_142_cif.got.tgz:282603.got - 2010.06.03 11:33:40.
