data_PCOD9008245
_publ_section_title
;
Structure prediction by ZEFSAII (Michael W. Deem and Ramdas Pophale) SiO2 
 PCOD9008245
Probable space group: P -1
;
_chemical_formula_sum "Si O2"
_cell_formula_units_Z 16
_cell_length_a 11.439209
_cell_length_b 9.353006
_cell_length_c 18.517692
_cell_angle_alpha 142.743865
_cell_angle_beta 47.142326
_cell_angle_gamma 105.080558
_cell_volume 680.161062
_symmetry_space_group_name_H-M "P -1"
_symmetry_group_IT_number 2
_symmetry_cell_setting 'triclinic'
loop_
_space_group_symop_operation_xyz
x,y,z
-x,-y,-z
loop_
_atom_site_type_symbol
_atom_site_label
_atom_site_fract_x
_atom_site_fract_y
_atom_site_fract_z
Si Si1 0.010671 0.676631 0.001199
Si Si2 0.103661 0.388006 0.238933
Si Si3 0.176189 0.749268 0.769865
Si Si4 0.629999 0.783786 0.428750
Si Si5 0.726153 0.368397 0.826589
Si Si6 0.623245 0.267787 0.689973
Si Si7 0.768405 0.110297 0.926211
Si Si8 0.042404 0.823595 0.565628
O O1 0.163457 0.732770 0.991212
O O2 0.134287 0.432759 0.786883
O O3 0.819257 0.019288 0.190865
O O4 0.000000 0.500000 0.000000
O O5 0.217358 0.426776 0.144139
O O6 0.037402 0.621605 0.426775
O O7 0.922425 0.382792 0.285225
O O8 0.276466 0.058875 0.069328
O O9 0.360968 0.471108 0.631023
O O10 0.000000 0.000000 0.000000
O O11 0.500000 0.000000 0.500000
O O12 0.575715 0.040743 0.610627
O O13 0.767599 0.167443 0.657739
O O14 0.500000 0.500000 0.000000
O O15 0.882554 0.167771 0.743293
O O16 0.735789 0.262534 0.569336
O O17 0.430412 0.618186 0.923367
O O18 0.955946 0.852595 0.692404
#
# Coordination Sequence:
#
# PCOD9008245 Si02
#       8
#     2   2   2   2   2   2   2   2
#     4  10  21  39  64  91 126 168 217 265 322 387
#     4  10  22  40  64  91 130 168 211 265 323 383
#     4   9  20  39  64  93 123 168 216 259 322 389
#     4  11  20  37  64  89 123 168 210 263 323 376
#     4  11  22  40  62  92 126 166 214 263 318 390
#     4  11  22  39  64  90 131 164 214 266 324 383
#     4  11  22  40  62  95 128 166 216 264 323 386
#     4  11  22  39  64  91 125 167 213 258 327 387
#
# _framework density 23.52384
#
# number of rings (size 3 to 8) (size 9 to 14) (size 15 to 20)
#    0.000    1.500    2.500    4.125    0.000    3.000 
#    2.250    0.625    2.750    0.000    0.000    0.000 
#    0.000    0.000    0.000    0.000    0.000    0.000 
#
# Total GULP energy -89109.840743 kJ/mol
# GULP energy per Si atom -5569.365046 kJ/mol
# Density = 2.347030 g / cm^3
# Si number density = 23.523840 Si / 1000 Ang^3
#
#
#
# Elastic Constant Matrix: (Units=GPa)
#
#
# Indices 1 2 3 4 5 6 
#
# 1 49.3544 6.4362 3.5104 15.9852 5.5925 -7.8426
# 2 6.4362 173.1848 42.1231 41.1521 -10.1329 -10.3447
# 3 3.5104 42.1231 80.3928 9.4862 -10.3745 7.3599
# 4 15.9852 41.1521 9.4862 45.0027 -4.7171 -7.9363
# 5 5.5925 -10.1329 -10.3745 -4.7171 26.9670 8.6773
# 6 -7.8426 -10.3447 7.3599 -7.9363 8.6773 30.2806
#
#
#
# Elastic Compliance Matrix: (Units=1/GPa)
#
#
# Indices 1 2 3 4 5 6 
#
# 1 0.026001 0.002101 -0.003163 -0.010066 -0.010329 0.008542
# 2 0.002101 0.008535 -0.004089 -0.007294 -0.000987 0.002825
# 3 -0.003163 -0.004089 0.016465 0.000782 0.008290 -0.008389
# 4 -0.010066 -0.007294 0.000782 0.033162 0.004796 0.002028
# 5 -0.010329 -0.000987 0.008290 0.004796 0.048574 -0.017690
# 6 0.008542 0.002825 -0.008389 0.002028 -0.017690 0.043842
#
#
# Mechanical properties :
#
#
# Convention : Reuss Voigt Hill
#
# Bulk Modulus (GPa) = 24.57118 45.23016 34.90067
# Shear Modulus (GPa) = 24.94420 37.17422 31.05921
#
# Velocity S-wave (km/s) = 3.25988 3.97958 3.63758
# Velocity P-wave (km/s) = 4.96357 6.35494 5.70185
#
# Compressibility (1/GPa) = 0.04069808
#
# Stress axis : x y z
#
# Youngs Moduli (GPa) = 38.46027 117.16612 60.73461
#
# Poissons Ratio (x) = -0.24616 0.19213
# Poissons Ratio (y) = -0.08080 0.24834
# Poissons Ratio (z) = 0.12167 0.47908
#
# Static dielectric constant tensor:
#      x y z
#    x 1.915510 -0.017540 -0.028490 
#    y -0.017540 2.089080 -0.054850 
#    z -0.028490 -0.054850 1.986870 
# 
# From -- ./inp_files/307773.got.cif
#   From: 2010.05.17/outbox.cif.g08.bks.cpg/sg2_154_cif.got.tgz:307773.got - 2010.06.03 11:33:40.
