data_PCOD9008243
_publ_section_title
;
Structure prediction by ZEFSAII (Michael W. Deem and Ramdas Pophale) SiO2 
 PCOD9008243
Probable space group: P -1
;
_chemical_formula_sum "Si O2"
_cell_formula_units_Z 14
_cell_length_a 12.015904
_cell_length_b 12.240293
_cell_length_c 5.653563
_cell_angle_alpha 98.874085
_cell_angle_beta 94.104310
_cell_angle_gamma 55.343624
_cell_volume 675.665036
_symmetry_space_group_name_H-M "P -1"
_symmetry_group_IT_number 2
_symmetry_cell_setting 'triclinic'
loop_
_space_group_symop_operation_xyz
x,y,z
-x,-y,-z
loop_
_atom_site_type_symbol
_atom_site_label
_atom_site_fract_x
_atom_site_fract_y
_atom_site_fract_z
Si Si1 0.303216 0.461296 0.616783
Si Si2 0.434746 0.648893 0.146187
Si Si3 0.660905 0.903402 0.267365
Si Si4 0.503284 0.170210 0.068246
Si Si5 0.247390 0.267635 0.379220
Si Si6 0.057257 0.342760 0.991581
Si Si7 0.209561 0.620954 0.157286
O O1 0.467082 0.372892 0.628853
O O2 0.240034 0.374669 0.590717
O O3 0.256184 0.541592 0.389094
O O4 0.258081 0.540850 0.885744
O O5 0.281392 0.700612 0.198668
O O6 0.500000 0.500000 0.000000
O O7 0.449175 0.739957 0.993601
O O8 0.688230 0.875344 0.538368
O O9 0.614107 0.045676 0.202281
O O10 0.541823 0.885265 0.170512
O O11 0.801017 0.778922 0.138471
O O12 0.361420 0.253322 0.215963
O O13 0.103445 0.319874 0.264990
O O14 0.000000 0.500000 0.000000
O O15 0.948391 0.316379 0.872204
#
# Coordination Sequence:
#
# PCOD9008243 Si02
#       7
#     2   2   2   2   2   2   2
#     4  11  21  38  62  94 128 159 206 261 318 361
#     4  10  21  39  64  91 126 160 208 262 311 370
#     4  10  22  38  61  88 125 164 209 261 314 371
#     4  10  21  40  59  92 122 162 211 260 318 365
#     4  11  20  35  65  89 124 160 210 263 316 367
#     4  11  23  37  60  90 128 165 208 257 312 376
#     4  11  24  38  59  94 130 166 204 255 319 373
#
# _framework density 20.720324000000002
#
# number of rings (size 3 to 8) (size 9 to 14) (size 15 to 20)
#    0.000    1.429    2.857    3.429    4.000    2.286 
#    0.000    0.714    0.000    0.857    0.000    0.000 
#    0.000    0.000    0.000    0.000    0.000    0.000 
#
# Total GULP energy -77974.569901 kJ/mol
# GULP energy per Si atom -5569.612136 kJ/mol
# Density = 2.067316 g / cm^3
# Si number density = 20.720324 Si / 1000 Ang^3
#
#
#
# Elastic Constant Matrix: (Units=GPa)
#
#
# Indices 1 2 3 4 5 6 
#
# 1 132.1923 44.3760 40.8094 -33.4451 10.8017 7.4345
# 2 44.3760 80.6293 32.6272 -29.5741 -11.3154 13.8790
# 3 40.8094 32.6272 106.6723 -37.6394 14.9205 3.7529
# 4 -33.4451 -29.5741 -37.6394 44.6001 -4.1045 -12.3321
# 5 10.8017 -11.3154 14.9205 -4.1045 31.3232 -3.9108
# 6 7.4345 13.8790 3.7529 -12.3321 -3.9108 27.7776
#
#
#
# Elastic Compliance Matrix: (Units=1/GPa)
#
#
# Indices 1 2 3 4 5 6 
#
# 1 0.010782 -0.005004 -0.000513 0.004149 -0.004629 0.000875
# 2 -0.005004 0.021733 -0.003538 0.007653 0.011767 -0.003987
# 3 -0.000513 -0.003538 0.015108 0.010410 -0.006488 0.003572
# 4 0.004149 0.007653 0.010410 0.043467 0.003755 0.013485
# 5 -0.004629 0.011767 -0.006488 0.003755 0.041828 0.003792
# 6 0.000875 -0.003987 0.003572 0.013485 0.003792 0.043797
#
#
# Mechanical properties :
#
#
# Convention : Reuss Voigt Hill
#
# Bulk Modulus (GPa) = 33.88556 61.67989 47.78272
# Shear Modulus (GPa) = 24.43031 34.18558 29.30794
#
# Velocity S-wave (km/s) = 3.43746 4.06625 3.76500
# Velocity P-wave (km/s) = 5.66958 7.20266 6.48160
#
# Compressibility (1/GPa) = 0.02951110
#
# Stress axis : x y z
#
# Youngs Moduli (GPa) = 92.74674 46.01247 66.19064
#
# Poissons Ratio (x) = 0.23027 0.03398
# Poissons Ratio (y) = 0.46415 0.23419
# Poissons Ratio (z) = 0.04762 0.16280
#
# Static dielectric constant tensor:
#      x y z
#    x 1.798220 -0.040490 -0.030260 
#    y -0.040490 1.803810 0.066580 
#    z -0.030260 0.066580 1.950560 
# 
# From -- ./inp_files/65941.got.cif
#   From: 2010.05.17/outbox.cif.g08.bks.cpg/sg2_33_cif.got.tgz:65941.got - 2010.06.03 11:33:40.
