data_PCOD9008649
_publ_section_title
;
Structure prediction by ZEFSAII (Michael W. Deem and Ramdas Pophale) SiO2 
 PCOD9008649
Probable space group: P -1
;
_chemical_formula_sum "Si O2"
_cell_formula_units_Z 16
_cell_length_a 8.754189
_cell_length_b 16.523617
_cell_length_c 9.076613
_cell_angle_alpha 139.354690
_cell_angle_beta 114.086547
_cell_angle_gamma 60.539693
_cell_volume 743.218526
_symmetry_space_group_name_H-M "P -1"
_symmetry_group_IT_number 2
_symmetry_cell_setting 'triclinic'
loop_
_space_group_symop_operation_xyz
x,y,z
-x,-y,-z
loop_
_atom_site_type_symbol
_atom_site_label
_atom_site_fract_x
_atom_site_fract_y
_atom_site_fract_z
Si Si1 0.163612 0.898106 0.212376
Si Si2 0.939476 0.579290 0.733074
Si Si3 0.787596 0.865606 0.981205
Si Si4 0.931288 0.402143 0.736860
Si Si5 0.216771 0.134123 0.375422
Si Si6 0.596615 0.093880 0.408451
Si Si7 0.691754 0.386773 0.074605
Si Si8 0.414732 0.643456 0.333361
O O1 0.246476 0.918359 0.430239
O O2 0.962200 0.901920 0.148421
O O3 0.178738 0.009468 0.260981
O O4 0.265503 0.746605 0.999939
O O5 0.871666 0.488652 0.687459
O O6 0.122029 0.600544 0.889259
O O7 0.000000 0.500000 0.500000
O O8 0.808940 0.720083 0.842219
O O9 0.632015 0.965233 0.146795
O O10 0.790037 0.868689 0.809154
O O11 0.083895 0.268864 0.571490
O O12 0.767092 0.368092 0.693862
O O13 0.000000 0.500000 0.000000
O O14 0.418156 0.124066 0.472945
O O15 0.575655 0.211459 0.446308
O O16 0.575846 0.522910 0.286266
O O17 0.588168 0.367224 0.861078
#
# Coordination Sequence:
#
# PCOD9008649 Si02
#       8
#     2   2   2   2   2   2   2   2
#     4  10  23  40  68  95 127 165 219 263 319 377
#     4  11  22  42  64  93 131 167 208 258 326 377
#     4  11  24  43  67  89 134 174 207 260 329 387
#     4  12  25  39  68  97 124 169 218 266 312 387
#     4  12  25  43  65  96 132 166 216 268 321 382
#     4  11  24  42  67  96 127 172 213 267 320 379
#     4   9  20  40  64  92 127 167 199 268 314 373
#     4  10  21  39  65  93 126 160 216 257 318 371
#
# _framework density 21.527987
#
# number of rings (size 3 to 8) (size 9 to 14) (size 15 to 20)
#    0.000    1.250    2.500    3.000    5.250    1.000 
#    0.000    0.625    0.000    0.000    0.000    0.000 
#    0.000    0.000    0.000    0.000    0.000    0.000 
#
# Total GULP energy -89379.701777 kJ/mol
# GULP energy per Si atom -5586.231361 kJ/mol
# Density = 2.147899 g / cm^3
# Si number density = 21.527987 Si / 1000 Ang^3
#
#
#
# Elastic Constant Matrix: (Units=GPa)
#
#
# Indices 1 2 3 4 5 6 
#
# 1 71.4007 28.3655 13.6642 25.6261 -6.7714 9.0748
# 2 28.3655 112.0848 41.3427 39.2455 -13.3016 11.7531
# 3 13.6642 41.3427 73.0357 35.6459 -19.4695 -1.2212
# 4 25.6261 39.2455 35.6459 50.2557 -6.9553 11.0632
# 5 -6.7714 -13.3016 -19.4695 -6.9553 31.1887 3.9943
# 6 9.0748 11.7531 -1.2212 11.0632 3.9943 34.0636
#
#
#
# Elastic Compliance Matrix: (Units=1/GPa)
#
#
# Indices 1 2 3 4 5 6 
#
# 1 0.017904 -0.001967 0.002904 -0.008910 0.003060 -0.001452
# 2 -0.001967 0.013405 -0.003891 -0.005885 0.001875 -0.002549
# 3 0.002904 -0.003891 0.026806 -0.017195 0.011126 0.005810
# 4 -0.008910 -0.005885 -0.017195 0.042728 -0.004424 -0.009571
# 5 0.003060 0.001875 0.011126 -0.004424 0.040040 -0.004322
# 6 -0.001452 -0.002549 0.005810 -0.009571 -0.004322 0.034447
#
#
# Mechanical properties :
#
#
# Convention : Reuss Voigt Hill
#
# Bulk Modulus (GPa) = 19.15429 47.02958 33.09194
# Shear Modulus (GPa) = 25.17124 34.64485 29.90804
#
# Velocity S-wave (km/s) = 3.42311 4.01595 3.73133
# Velocity P-wave (km/s) = 4.95382 6.58764 5.82827
#
# Compressibility (1/GPa) = 0.05220762
#
# Stress axis : x y z
#
# Youngs Moduli (GPa) = 55.85454 74.59851 37.30465
#
# Poissons Ratio (x) = 0.14673 -0.10832
# Poissons Ratio (y) = 0.10986 0.14514
# Poissons Ratio (z) = -0.16219 0.29023
#
# Static dielectric constant tensor:
#      x y z
#    x 1.757150 -0.054450 0.034550 
#    y -0.054450 1.770050 0.013030 
#    z 0.034550 0.013030 1.825790 
# 
# From -- ./inp_files/176674.got.cif
#   From: 2010.05.17/outbox.cif.g08.bks.cpg/sg2_89_cif.got.tgz:176674.got - 2010.06.03 11:33:40.
