data_PCOD9008334
_publ_section_title
;
Structure prediction by ZEFSAII (Michael W. Deem and Ramdas Pophale) SiO2 
 PCOD9008334
Probable space group: P -1
;
_chemical_formula_sum "Si O2"
_cell_formula_units_Z 16
_cell_length_a 9.109113
_cell_length_b 7.606766
_cell_length_c 20.870530
_cell_angle_alpha 139.012942
_cell_angle_beta 48.805735
_cell_angle_gamma 132.432950
_cell_volume 665.938471
_symmetry_space_group_name_H-M "P -1"
_symmetry_group_IT_number 2
_symmetry_cell_setting 'triclinic'
loop_
_space_group_symop_operation_xyz
x,y,z
-x,-y,-z
loop_
_atom_site_type_symbol
_atom_site_label
_atom_site_fract_x
_atom_site_fract_y
_atom_site_fract_z
Si Si1 0.355037 0.528883 0.209346
Si Si2 0.847939 0.894204 0.440801
Si Si3 0.997711 0.547900 0.396116
Si Si4 0.726835 0.699784 0.963780
Si Si5 0.678953 0.589855 0.276900
Si Si6 0.055437 0.557004 0.074705
Si Si7 0.485206 0.092538 0.119272
Si Si8 0.445775 0.950211 0.628536
O O1 0.242656 0.448520 0.151593
O O2 0.491774 0.330241 0.129077
O O3 0.182259 0.445631 0.292729
O O4 0.498065 0.862861 0.270624
O O5 0.001066 0.776750 0.402864
O O6 0.781912 0.697741 0.344127
O O7 0.633769 0.847611 0.528147
O O8 0.951858 0.240986 0.498845
O O9 0.775296 0.300883 0.385289
O O10 0.886398 0.688231 0.970096
O O11 0.500000 0.500000 0.000000
O O12 0.677635 0.979485 0.033527
O O13 0.516873 0.267244 0.225150
O O14 0.866202 0.615516 0.180795
O O15 0.563934 0.807473 0.351461
O O16 0.265936 0.836986 0.101756
O O17 0.000000 0.500000 0.000000
#
# Coordination Sequence:
#
# PCOD9008334 Si02
#       8
#     2   2   2   2   2   2   2   2
#     4  10  21  40  64  93 129 167 216 257 321 382
#     4  10  22  40  61  95 128 163 214 258 316 386
#     4  10  21  39  64  93 130 164 204 265 318 379
#     4  10  23  41  65  92 128 174 214 266 317 377
#     4  11  24  41  64  93 127 167 216 261 322 379
#     4  11  26  43  63  95 129 169 223 266 316 381
#     4  10  24  43  64  91 131 172 211 268 317 377
#     4  10  22  38  65  93 123 170 207 258 321 381
#
# _framework density 24.026243999999998
#
# number of rings (size 3 to 8) (size 9 to 14) (size 15 to 20)
#    0.000    1.750    0.000    2.625    8.750    4.000 
#    2.250    0.000    0.000    0.000    0.000    0.000 
#    0.000    0.000    0.000    0.000    0.000    0.000 
#
# Total GULP energy -89351.187778 kJ/mol
# GULP energy per Si atom -5584.449236 kJ/mol
# Density = 2.397156 g / cm^3
# Si number density = 24.026244 Si / 1000 Ang^3
#
#
#
# Elastic Constant Matrix: (Units=GPa)
#
#
# Indices 1 2 3 4 5 6 
#
# 1 146.3126 28.2365 48.2936 6.3191 16.8532 22.2677
# 2 28.2365 81.6180 35.9831 20.3454 12.1537 40.3143
# 3 48.2936 35.9831 111.0429 18.6254 21.4409 8.8474
# 4 6.3191 20.3454 18.6254 27.7402 17.0760 3.9831
# 5 16.8532 12.1537 21.4409 17.0760 45.6361 0.9322
# 6 22.2677 40.3143 8.8474 3.9831 0.9322 44.2129
#
#
#
# Elastic Compliance Matrix: (Units=1/GPa)
#
#
# Indices 1 2 3 4 5 6 
#
# 1 0.008735 0.000447 -0.003496 0.002123 -0.002410 -0.004248
# 2 0.000447 0.031604 -0.005769 -0.016016 0.000662 -0.026459
# 3 -0.003496 -0.005769 0.012948 -0.002967 -0.002243 0.004745
# 4 0.002123 -0.016016 -0.002967 0.058591 -0.017236 0.009213
# 5 -0.002410 0.000662 -0.002243 -0.017236 0.030089 0.001977
# 6 -0.004248 -0.026459 0.004745 0.009213 0.001977 0.047062
#
#
# Mechanical properties :
#
#
# Convention : Reuss Voigt Hill
#
# Bulk Modulus (GPa) = 28.04962 62.66667 45.35814
# Shear Modulus (GPa) = 22.87834 38.61519 30.74677
#
# Velocity S-wave (km/s) = 3.08916 4.01335 3.58119
# Velocity P-wave (km/s) = 4.94204 6.90038 6.00162
#
# Compressibility (1/GPa) = 0.03565111
#
# Stress axis : x y z
#
# Youngs Moduli (GPa) = 114.48574 31.64193 77.23178
#
# Poissons Ratio (x) = -0.01416 0.27001
# Poissons Ratio (y) = -0.05122 0.44554
# Poissons Ratio (z) = 0.40025 0.18254
#
# Static dielectric constant tensor:
#      x y z
#    x 1.942580 -0.018110 0.044270 
#    y -0.018110 1.980340 0.102110 
#    z 0.044270 0.102110 2.052670 
# 
# From -- ./inp_files/606925.got.cif
#   From: 2010.05.17/outbox.cif.g08.bks.cpg/sg2_304_cif.got.tgz:606925.got - 2010.06.03 11:33:40.
