data_PCOD9008156
_publ_section_title
;
Structure prediction by ZEFSAII (Michael W. Deem and Ramdas Pophale) SiO2 
 PCOD9008156
Probable space group: P -1
;
_chemical_formula_sum "Si O2"
_cell_formula_units_Z 16
_cell_length_a 7.129256
_cell_length_b 18.539325
_cell_length_c 9.632438
_cell_angle_alpha 144.141433
_cell_angle_beta 114.360320
_cell_angle_gamma 62.545651
_cell_volume 659.945960
_symmetry_space_group_name_H-M "P -1"
_symmetry_group_IT_number 2
_symmetry_cell_setting 'triclinic'
loop_
_space_group_symop_operation_xyz
x,y,z
-x,-y,-z
loop_
_atom_site_type_symbol
_atom_site_label
_atom_site_fract_x
_atom_site_fract_y
_atom_site_fract_z
Si Si1 0.605193 0.974643 0.738822
Si Si2 0.366102 0.355967 0.350505
Si Si3 0.777398 0.588829 0.026949
Si Si4 0.165061 0.127305 0.854839
Si Si5 0.163245 0.955658 0.853317
Si Si6 0.067776 0.158971 0.583840
Si Si7 0.218140 0.589434 0.494341
Si Si8 0.283485 0.308201 0.554540
O O1 0.764754 0.952594 0.622381
O O2 0.643877 0.838035 0.609620
O O3 0.371597 0.031623 0.705235
O O4 0.628416 0.061006 0.015516
O O5 0.241770 0.497968 0.491465
O O6 0.603806 0.330366 0.318836
O O7 0.381462 0.342587 0.498356
O O8 0.227676 0.259395 0.107510
O O9 0.828956 0.720851 0.201041
O O10 0.655010 0.618151 0.179350
O O11 0.699334 0.513430 0.763633
O O12 0.000000 0.500000 0.000000
O O13 0.007460 0.141379 0.697314
O O14 0.129784 0.063019 0.890046
O O15 0.129512 0.833718 0.569552
O O16 0.000000 0.000000 0.000000
O O17 0.974595 0.659018 0.497501
#
# Coordination Sequence:
#
# PCOD9008156 Si02
#       8
#     2   2   2   2   2   2   2   2
#     4  10  22  39  60  93 123 164 206 259 314 373
#     4  11  23  38  67  94 122 164 211 256 320 375
#     4   9  19  38  63  87 120 163 208 258 310 365
#     4  12  22  40  62  92 133 160 208 267 311 385
#     4  10  22  39  63  91 123 166 214 255 320 381
#     4  10  21  39  64  87 127 165 206 259 320 378
#     4  10  22  42  64  91 123 165 208 263 314 367
#     4  10  21  41  63  89 127 163 206 260 311 376
#
# _framework density 24.244409000000001
#
# number of rings (size 3 to 8) (size 9 to 14) (size 15 to 20)
#    0.000    1.750    2.500    1.500    0.000    5.500 
#    0.000    0.000    2.750    0.000    0.000    0.000 
#    0.000    0.000    0.000    0.000    0.000    0.000 
#
# Total GULP energy -89316.937788 kJ/mol
# GULP energy per Si atom -5582.308612 kJ/mol
# Density = 2.418923 g / cm^3
# Si number density = 24.244409 Si / 1000 Ang^3
#
#
#
# Elastic Constant Matrix: (Units=GPa)
#
#
# Indices 1 2 3 4 5 6 
#
# 1 41.1394 -0.0558 7.6734 5.0744 3.7785 19.1905
# 2 -0.0558 78.6024 34.1220 -15.7883 -3.8096 29.4661
# 3 7.6734 34.1220 102.1362 -19.8669 -1.4473 15.2430
# 4 5.0744 -15.7883 -19.8669 46.3081 5.2867 -4.2823
# 5 3.7785 -3.8096 -1.4473 5.2867 25.8423 -2.5892
# 6 19.1905 29.4661 15.2430 -4.2823 -2.5892 44.5366
#
#
#
# Elastic Compliance Matrix: (Units=1/GPa)
#
#
# Indices 1 2 3 4 5 6 
#
# 1 0.035152 0.007828 -0.003082 -0.003734 -0.005393 -0.019943
# 2 0.007828 0.021181 -0.004789 0.002927 -0.000441 -0.015492
# 3 -0.003082 -0.004789 0.012315 0.004087 -0.000336 0.000655
# 4 -0.003734 0.002927 0.004087 0.025245 -0.003911 0.000474
# 5 -0.005393 -0.000441 -0.000336 -0.003911 0.040674 0.004719
# 6 -0.019943 -0.015492 0.000655 0.000474 0.004719 0.041392
#
#
# Mechanical properties :
#
#
# Convention : Reuss Voigt Hill
#
# Bulk Modulus (GPa) = 14.58569 33.92857 24.25713
# Shear Modulus (GPa) = 25.13831 35.34662 30.24246
#
# Velocity S-wave (km/s) = 3.22354 3.82243 3.53569
# Velocity P-wave (km/s) = 4.45916 5.78844 5.16673
#
# Compressibility (1/GPa) = 0.06856034
#
# Stress axis : x y z
#
# Youngs Moduli (GPa) = 28.44777 47.21266 81.20278
#
# Poissons Ratio (x) = -0.36958 0.25031
# Poissons Ratio (y) = -0.22269 0.38890
# Poissons Ratio (z) = 0.08769 0.22611
#
# Static dielectric constant tensor:
#      x y z
#    x 1.976840 0.018750 0.058630 
#    y 0.018750 1.914470 -0.004110 
#    z 0.058630 -0.004110 2.009910 
# 
# From -- ./inp_files/218949.got.cif
#   From: 2010.05.17/outbox.cif.g08.bks.cpg/sg2_110_cif.got.tgz:218949.got - 2010.06.03 11:33:40.
