data_PCOD9008028
_publ_section_title
;
Structure prediction by ZEFSAII (Michael W. Deem and Ramdas Pophale) SiO2 
 PCOD9008028
Probable space group: P -1
;
_chemical_formula_sum "Si O2"
_cell_formula_units_Z 16
_cell_length_a 14.286338
_cell_length_b 10.620403
_cell_length_c 8.340717
_cell_angle_alpha 106.540553
_cell_angle_beta 41.974820
_cell_angle_gamma 113.044840
_cell_volume 778.794437
_symmetry_space_group_name_H-M "P -1"
_symmetry_group_IT_number 2
_symmetry_cell_setting 'triclinic'
loop_
_space_group_symop_operation_xyz
x,y,z
-x,-y,-z
loop_
_atom_site_type_symbol
_atom_site_label
_atom_site_fract_x
_atom_site_fract_y
_atom_site_fract_z
Si Si1 0.327266 0.349735 0.780038
Si Si2 0.403338 0.090405 0.592117
Si Si3 0.585393 0.429722 0.996078
Si Si4 0.568008 0.878488 0.813472
Si Si5 0.891608 0.560835 0.497492
Si Si6 0.087974 0.902251 0.921897
Si Si7 0.187947 0.244585 0.583326
Si Si8 0.000372 0.321415 0.280441
O O1 0.412530 0.243093 0.693502
O O2 0.404510 0.493913 0.815941
O O3 0.290685 0.324179 0.627970
O O4 0.161939 0.308023 0.041584
O O5 0.436213 0.110872 0.369311
O O6 0.500000 0.000000 0.500000
O O7 0.241531 0.999980 0.809791
O O8 0.519235 0.267848 0.050773
O O9 0.500000 0.500000 0.000000
O O10 0.751531 0.465323 0.734542
O O11 0.736423 0.869929 0.618484
O O12 0.500000 0.000000 0.000000
O O13 0.826002 0.648704 0.493349
O O14 0.001230 0.657212 0.519767
O O15 0.977245 0.458702 0.281326
O O16 0.108392 0.803908 0.716126
O O17 0.976348 0.816460 0.163604
O O18 0.000000 0.000000 0.000000
#
# Coordination Sequence:
#
# PCOD9008028 Si02
#       8
#     2   2   2   2   2   2   2   2
#     4   9  21  41  65  88 130 166 229 269 326 390
#     4  11  25  44  66  98 134 176 225 277 329 396
#     4  11  23  40  66  93 132 182 213 268 344 388
#     4  11  25  43  63  97 136 172 224 274 330 400
#     4  10  21  39  63  94 128 164 226 271 332 389
#     4  11  20  42  68  88 129 176 212 267 340 381
#     4  10  21  42  67  95 126 173 223 280 321 401
#     4   9  20  38  63  89 124 166 214 273 321 396
#
# _framework density 20.544574000000001
#
# number of rings (size 3 to 8) (size 9 to 14) (size 15 to 20)
#    0.000    1.750    5.000    0.000    3.500    4.000 
#    9.000    0.625    0.000    0.000    0.000    0.000 
#    0.000    0.000    0.000    0.000    0.000    0.000 
#
# Total GULP energy -89090.769503 kJ/mol
# GULP energy per Si atom -5568.173094 kJ/mol
# Density = 2.049781 g / cm^3
# Si number density = 20.544574 Si / 1000 Ang^3
#
#
#
# Elastic Constant Matrix: (Units=GPa)
#
#
# Indices 1 2 3 4 5 6 
#
# 1 62.5135 35.9116 21.1575 7.9806 -15.6168 -32.2442
# 2 35.9116 122.6457 45.0316 15.2140 3.6477 -18.7593
# 3 21.1575 45.0316 72.2209 6.2239 -4.4009 -8.1388
# 4 7.9806 15.2140 6.2239 52.6611 -4.2280 -7.7851
# 5 -15.6168 3.6477 -4.4009 -4.2280 21.0027 6.2679
# 6 -32.2442 -18.7593 -8.1388 -7.7851 6.2679 42.7915
#
#
#
# Elastic Compliance Matrix: (Units=1/GPa)
#
#
# Indices 1 2 3 4 5 6 
#
# 1 0.038077 -0.007775 -0.002613 0.001847 0.022995 0.021754
# 2 -0.007775 0.013409 -0.006480 -0.002767 -0.009948 -0.000259
# 3 -0.002613 -0.006480 0.018666 0.000092 0.003642 -0.001776
# 4 0.001847 -0.002767 0.000092 0.020370 0.005029 0.003166
# 5 0.022995 -0.009948 0.003642 0.005029 0.066785 0.004792
# 6 0.021754 -0.000259 -0.001776 0.003166 0.004792 0.039184
#
#
# Mechanical properties :
#
#
# Convention : Reuss Voigt Hill
#
# Bulk Modulus (GPa) = 27.46111 51.28683 39.37397
# Shear Modulus (GPa) = 20.63007 33.64301 27.13654
#
# Velocity S-wave (km/s) = 3.17229 4.05107 3.63831
# Velocity P-wave (km/s) = 5.17818 6.84832 6.07095
#
# Compressibility (1/GPa) = 0.03641513
#
# Stress axis : x y z
#
# Youngs Moduli (GPa) = 26.26268 74.57753 53.57289
#
# Poissons Ratio (x) = 0.57987 0.13999
# Poissons Ratio (y) = 0.20420 0.34715
# Poissons Ratio (z) = 0.06863 0.48325
#
# Static dielectric constant tensor:
#      x y z
#    x 1.750990 0.031170 -0.006540 
#    y 0.031170 1.806080 -0.034710 
#    z -0.006540 -0.034710 1.849160 
# 
# From -- ./inp_files/299074.got.cif
#   From: 2010.05.17/outbox.cif.g08.bks.cpg/sg2_150_cif.got.tgz:299074.got - 2010.06.03 11:33:40.
