data_PCOD9008008
_publ_section_title
;
Structure prediction by ZEFSAII (Michael W. Deem and Ramdas Pophale) SiO2 
 PCOD9008008
Probable space group: P -1
;
_chemical_formula_sum "Si O2"
_cell_formula_units_Z 12
_cell_length_a 14.691567
_cell_length_b 14.691560
_cell_length_c 5.127464
_cell_angle_alpha 94.724607
_cell_angle_beta 85.275178
_cell_angle_gamma 27.854870
_cell_volume 485.876519
_symmetry_space_group_name_H-M "P -1"
_symmetry_group_IT_number 2
_symmetry_cell_setting 'triclinic'
loop_
_space_group_symop_operation_xyz
x,y,z
-x,-y,-z
loop_
_atom_site_type_symbol
_atom_site_label
_atom_site_fract_x
_atom_site_fract_y
_atom_site_fract_z
Si Si1 0.300611 0.262104 0.823250
Si Si2 0.739064 0.239064 0.749999
Si Si3 0.088497 0.039661 0.747751
Si Si4 0.897291 0.397291 0.750000
Si Si5 0.460340 0.411502 0.247749
Si Si6 0.762103 0.800613 0.676750
O O1 0.255096 0.266955 0.545370
O O2 0.547792 0.047793 0.749997
O O3 0.188257 0.453677 0.987308
O O4 0.233048 0.244899 0.045369
O O5 0.664596 0.384410 0.599780
O O6 0.884409 0.164596 0.900221
O O7 0.877879 0.031064 0.567791
O O8 0.531065 0.377878 0.932208
O O9 0.027168 0.199542 0.806077
O O10 0.315757 0.815758 0.750000
O O11 0.699540 0.527171 0.693927
O O12 0.046324 0.311740 0.487304
#
# Coordination Sequence:
#
# PCOD9008008 Si02
#       6
#     2   2   2   2   2   2
#     4  10  23  46  72  97 138 185 228 281 347 419
#     4   9  20  40  62  90 130 178 226 268 334 409
#     4  10  21  39  63  93 133 174 221 280 333 401
#     4  11  24  40  64 106 130 170 232 284 340 409
#     4  10  21  39  63  93 133 174 221 280 333 401
#     4  10  23  46  72  97 138 185 228 281 347 419
#
# _framework density 24.697633
#
# number of rings (size 3 to 8) (size 9 to 14) (size 15 to 20)
#    0.000    2.000    0.000    2.000    2.333    4.000 
#    6.000    0.000    0.000    0.000    0.000    0.000 
#    0.000    0.000    0.000    0.000    0.000    0.000 
#
# Total GULP energy -67038.479339 kJ/mol
# GULP energy per Si atom -5586.539945 kJ/mol
# Density = 2.464142 g / cm^3
# Si number density = 24.697633 Si / 1000 Ang^3
#
#
#
# Elastic Constant Matrix: (Units=GPa)
#
#
# Indices 1 2 3 4 5 6 
#
# 1 112.9733 80.5200 27.0913 27.7206 -17.3402 -10.1252
# 2 80.5200 206.1638 31.4131 28.7848 -2.9689 -11.5870
# 3 27.0913 31.4131 77.0011 28.7814 -6.8328 -1.1803
# 4 27.7206 28.7848 28.7814 48.0983 -9.2003 4.5464
# 5 -17.3402 -2.9689 -6.8328 -9.2003 19.6398 11.4074
# 6 -10.1252 -11.5870 -1.1803 4.5464 11.4074 40.5823
#
#
#
# Elastic Compliance Matrix: (Units=1/GPa)
#
#
# Indices 1 2 3 4 5 6 
#
# 1 0.015236 -0.005264 -0.001217 -0.002674 0.011345 -0.000626
# 2 -0.005264 0.007447 -0.000799 -0.002503 -0.006685 0.002949
# 3 -0.001217 -0.000799 0.017197 -0.009238 -0.000146 0.001045
# 4 -0.002674 -0.002503 -0.009238 0.033172 0.015182 -0.009634
# 5 0.011345 -0.006685 -0.000146 0.015182 0.080598 -0.023439
# 6 -0.000626 0.002949 0.001045 -0.009634 -0.023439 0.033025
#
#
# Mechanical properties :
#
#
# Convention : Reuss Voigt Hill
#
# Bulk Modulus (GPa) = 39.49220 74.90965 57.20092
# Shear Modulus (GPa) = 23.84647 38.80500 31.32573
#
# Velocity S-wave (km/s) = 3.11068 3.96814 3.56528
# Velocity P-wave (km/s) = 5.37836 7.16878 6.33712
#
# Compressibility (1/GPa) = 0.02532146
#
# Stress axis : x y z
#
# Youngs Moduli (GPa) = 65.63231 134.28282 58.15091
#
# Poissons Ratio (x) = 0.70685 0.07075
# Poissons Ratio (y) = 0.34548 0.04644
# Poissons Ratio (z) = 0.07986 0.10724
#
# Static dielectric constant tensor:
#      x y z
#    x 1.919770 -0.038830 0.011790 
#    y -0.038830 2.051920 -0.008240 
#    z 0.011790 -0.008240 2.089290 
# 
# From -- ./inp_files/95946.got.cif
#   From: 2010.05.17/outbox.cif.g08.bks.cpg/sg2_48_cif.got.tgz:95946.got - 2010.06.03 11:33:40.
