data_PCOD9008390
_publ_section_title
;
Structure prediction by ZEFSAII (Michael W. Deem and Ramdas Pophale) SiO2 
 PCOD9008390
Probable space group: P -1
;
_chemical_formula_sum "Si O2"
_cell_formula_units_Z 13
_cell_length_a 19.898241
_cell_length_b 7.770434
_cell_length_c 5.263174
_cell_angle_alpha 96.998168
_cell_angle_beta 101.962027
_cell_angle_gamma 132.764705
_cell_volume 544.004631
_symmetry_space_group_name_H-M "P -1"
_symmetry_group_IT_number 2
_symmetry_cell_setting 'triclinic'
loop_
_space_group_symop_operation_xyz
x,y,z
-x,-y,-z
loop_
_atom_site_type_symbol
_atom_site_label
_atom_site_fract_x
_atom_site_fract_y
_atom_site_fract_z
Si Si1 0.560044 0.157895 0.322970
Si Si2 0.216980 0.455912 0.446030
Si Si3 0.951405 0.190442 0.380141
Si Si4 0.097278 0.291627 0.833929
Si Si5 0.563871 0.570681 0.315656
Si Si6 0.791315 0.973745 0.576065
Si Si7 0.000000 0.500000 0.000000
O O1 0.669463 0.277136 0.434786
O O2 0.576033 0.389066 0.331291
O O3 0.500000 0.000000 0.500000
O O4 0.500000 0.000000 0.000000
O O5 0.169138 0.420427 0.670166
O O6 0.210922 0.234038 0.375547
O O7 0.156117 0.420330 0.159044
O O8 0.014022 0.288220 0.718878
O O9 0.007211 0.406327 0.261542
O O10 0.951002 0.989384 0.250196
O O11 0.840997 0.044207 0.347003
O O12 0.500000 0.500000 0.500000
O O13 0.679510 0.845236 0.455647
O O14 0.500000 0.500000 0.000000
O O15 0.874265 0.226818 0.845969
#
# Coordination Sequence:
#
# PCOD9008390 Si02
#       7
#     2   2   2   2   2   2   1
#     4  11  23  44  71 102 135 178 239 302 354 405
#     4  10  21  41  67  93 131 180 220 276 352 416
#     4  10  23  38  64  93 137 174 221 275 335 422
#     4  10  21  39  64  95 127 174 223 264 337 419
#     4  11  26  49  75 102 141 190 242 293 354 426
#     4  10  24  42  68  94 136 186 224 275 358 416
#     4  12  22  42  62 100 136 176 226 274 350 418
#
# _framework density 23.896856
#
# number of rings (size 3 to 8) (size 9 to 14) (size 15 to 20)
#    0.000    1.538    1.538    2.308    4.308    4.308 
#    8.308    0.000    0.000    0.000    0.000    0.000 
#    0.000    0.000    0.000    0.000    0.000    0.000 
#
# Total GULP energy -72595.458801 kJ/mol
# GULP energy per Si atom -5584.266062 kJ/mol
# Density = 2.384247 g / cm^3
# Si number density = 23.896856 Si / 1000 Ang^3
#
#
#
# Elastic Constant Matrix: (Units=GPa)
#
#
# Indices 1 2 3 4 5 6 
#
# 1 105.3401 55.6504 56.1681 1.4067 24.0796 32.6108
# 2 55.6504 149.0372 82.9039 -2.3530 15.0175 38.0241
# 3 56.1681 82.9039 190.3077 -14.2821 13.1543 42.1221
# 4 1.4067 -2.3530 -14.2821 54.2409 7.8365 4.2804
# 5 24.0796 15.0175 13.1543 7.8365 31.1061 2.8786
# 6 32.6108 38.0241 42.1221 4.2804 2.8786 53.4065
#
#
#
# Elastic Compliance Matrix: (Units=1/GPa)
#
#
# Indices 1 2 3 4 5 6 
#
# 1 0.015809 -0.002467 -0.001410 0.001075 -0.010136 -0.006324
# 2 -0.002467 0.010268 -0.002840 0.000267 -0.001590 -0.003500
# 3 -0.001410 -0.002840 0.007955 0.002459 -0.001195 -0.003524
# 4 0.001075 0.000267 0.002459 0.020363 -0.006756 -0.004054
# 5 -0.010136 -0.001590 -0.001195 -0.006756 0.042366 0.006521
# 6 -0.006324 -0.003500 -0.003524 -0.004054 0.006521 0.027830
#
#
# Mechanical properties :
#
#
# Convention : Reuss Voigt Hill
#
# Bulk Modulus (GPa) = 48.54956 92.68111 70.61533
# Shear Modulus (GPa) = 34.50846 44.41489 39.46168
#
# Velocity S-wave (km/s) = 3.80420 4.31583 4.06807
# Velocity P-wave (km/s) = 6.29733 7.98143 7.18887
#
# Compressibility (1/GPa) = 0.02059751
#
# Stress axis : x y z
#
# Youngs Moduli (GPa) = 63.25694 97.38763 125.70336
#
# Poissons Ratio (x) = 0.24022 0.17726
# Poissons Ratio (y) = 0.15603 0.35706
# Poissons Ratio (z) = 0.08920 0.27663
#
# Static dielectric constant tensor:
#      x y z
#    x 1.932310 -0.016180 -0.053670 
#    y -0.016180 1.883990 0.085650 
#    z -0.053670 0.085650 2.078490 
# 
# From -- ./inp_files/122215.got.cif
#   From: 2010.05.17/outbox.cif.g08.bks.cpg/sg2_62_cif.got.tgz:122215.got - 2010.06.03 11:33:40.
