data_PCOD9008757
_publ_section_title
;
Structure prediction by ZEFSAII (Michael W. Deem and Ramdas Pophale) SiO2 
 PCOD9008757
Probable space group: P -1
;
_chemical_formula_sum "Si O2"
_cell_formula_units_Z 16
_cell_length_a 11.528900
_cell_length_b 21.095376
_cell_length_c 18.018762
_cell_angle_alpha 20.061736
_cell_angle_beta 154.524766
_cell_angle_gamma 153.452965
_cell_volume 613.528084
_symmetry_space_group_name_H-M "P -1"
_symmetry_group_IT_number 2
_symmetry_cell_setting 'triclinic'
loop_
_space_group_symop_operation_xyz
x,y,z
-x,-y,-z
loop_
_atom_site_type_symbol
_atom_site_label
_atom_site_fract_x
_atom_site_fract_y
_atom_site_fract_z
Si Si1 0.288900 0.167342 0.563266
Si Si2 0.324806 0.608128 0.559024
Si Si3 0.292597 0.965867 0.236141
Si Si4 0.282345 0.171923 0.720653
Si Si5 0.878020 0.314639 0.414838
Si Si6 0.043889 0.748585 0.862332
Si Si7 0.701963 0.348785 0.113107
Si Si8 0.934433 0.255709 0.959203
O O1 0.579378 0.340432 0.527157
O O2 0.170886 0.176075 0.567236
O O3 0.101207 0.208008 0.343769
O O4 0.305956 0.949093 0.801033
O O5 0.379985 0.818689 0.395077
O O6 0.000000 0.500000 0.500000
O O7 0.493027 0.477639 0.836783
O O8 0.232570 0.848063 0.408584
O O9 0.553517 0.163520 0.179912
O O10 0.000000 0.000000 0.000000
O O11 0.618221 0.239070 0.825645
O O12 0.182959 0.302232 0.577300
O O13 0.129713 0.943615 0.903987
O O14 0.703528 0.281184 0.273452
O O15 0.909211 0.534649 0.215114
O O16 0.907935 0.752293 0.862307
O O17 0.006852 0.518968 0.086627
#
# Coordination Sequence:
#
# PCOD9008757 Si02
#       8
#     2   2   2   2   2   2   2   2
#     4   9  19  37  67  97 127 175 225 266 339 394
#     4  11  24  45  70  96 141 180 226 284 326 402
#     4  12  27  44  68  98 131 181 232 272 340 407
#     4  10  21  39  65  96 136 174 217 284 332 396
#     4  11  25  42  66  98 140 171 228 282 336 405
#     4   8  17  37  61  93 131 159 221 277 319 397
#     4  10  23  46  68 100 134 180 231 274 347 400
#     4   9  20  38  60  94 132 176 220 263 344 394
#
# _framework density 26.078676000000002
#
# number of rings (size 3 to 8) (size 9 to 14) (size 15 to 20)
#    0.000    2.000    1.250    0.750    1.750   10.500 
#    0.000   13.750    0.000    0.000    0.000    0.000 
#    0.000    0.000    0.000    0.000    0.000    0.000 
#
# Total GULP energy -89318.198606 kJ/mol
# GULP energy per Si atom -5582.387413 kJ/mol
# Density = 2.601932 g / cm^3
# Si number density = 26.078676 Si / 1000 Ang^3
#
#
#
# Elastic Constant Matrix: (Units=GPa)
#
#
# Indices 1 2 3 4 5 6 
#
# 1 74.1088 8.7056 34.0883 -13.9356 -15.7121 2.9002
# 2 8.7056 114.2678 37.4995 -29.7536 -14.1366 -7.2130
# 3 34.0883 37.4995 134.1723 -26.6502 -18.6637 -3.9435
# 4 -13.9356 -29.7536 -26.6502 49.1522 -1.2117 -3.8473
# 5 -15.7121 -14.1366 -18.6637 -1.2117 36.4279 -3.2752
# 6 2.9002 -7.2130 -3.9435 -3.8473 -3.2752 32.9443
#
#
#
# Elastic Compliance Matrix: (Units=1/GPa)
#
#
# Indices 1 2 3 4 5 6 
#
# 1 0.016869 0.001581 -0.002995 0.004246 0.006463 -0.000359
# 2 0.001581 0.011857 -0.001460 0.007245 0.005103 0.003636
# 3 -0.002995 -0.001460 0.009946 0.003899 0.003542 0.001942
# 4 0.004246 0.007245 0.003899 0.028706 0.008121 0.005839
# 5 0.006463 0.005103 0.003542 0.008121 0.034788 0.005379
# 6 -0.000359 0.003636 0.001942 0.005839 0.005379 0.032631
#
#
# Mechanical properties :
#
#
# Convention : Reuss Voigt Hill
#
# Bulk Modulus (GPa) = 30.37409 53.68174 42.02791
# Shear Modulus (GPa) = 32.99875 39.85524 36.42699
#
# Velocity S-wave (km/s) = 3.56104 3.91355 3.74145
# Velocity P-wave (km/s) = 5.34606 6.40706 5.90046
#
# Compressibility (1/GPa) = 0.03292280
#
# Stress axis : x y z
#
# Youngs Moduli (GPa) = 59.28117 84.33686 100.53881
#
# Poissons Ratio (x) = -0.13330 0.30116
# Poissons Ratio (y) = -0.09370 0.14677
# Poissons Ratio (z) = 0.17758 0.12312
#
# Static dielectric constant tensor:
#      x y z
#    x 2.052460 0.022010 0.009810 
#    y 0.022010 2.162420 0.092400 
#    z 0.009810 0.092400 2.129530 
# 
# From -- ./inp_files/570727.got.cif
#   From: 2010.05.17/outbox.cif.g08.bks.cpg/sg2_286_cif.got.tgz:570727.got - 2010.06.03 11:33:40.
