data_PCOD9008063
_publ_section_title
;
Structure prediction by ZEFSAII (Michael W. Deem and Ramdas Pophale) SiO2 
 PCOD9008063
Probable space group: P -1
;
_chemical_formula_sum "Si O2"
_cell_formula_units_Z 14
_cell_length_a 21.474646
_cell_length_b 8.531749
_cell_length_c 7.691681
_cell_angle_alpha 144.164526
_cell_angle_beta 36.200990
_cell_angle_gamma 128.943250
_cell_volume 485.951030
_symmetry_space_group_name_H-M "P -1"
_symmetry_group_IT_number 2
_symmetry_cell_setting 'triclinic'
loop_
_space_group_symop_operation_xyz
x,y,z
-x,-y,-z
loop_
_atom_site_type_symbol
_atom_site_label
_atom_site_fract_x
_atom_site_fract_y
_atom_site_fract_z
Si Si1 0.373227 0.035916 0.314655
Si Si2 0.755190 0.765950 0.771710
Si Si3 0.916406 0.144626 0.684491
Si Si4 0.848320 0.992070 0.324397
Si Si5 0.091452 0.477657 0.504922
Si Si6 0.365889 0.431398 0.424549
Si Si7 0.411960 0.866354 0.433251
O O1 0.279424 0.947389 0.321592
O O2 0.353148 0.854649 0.368517
O O3 0.357236 0.358173 0.583558
O O4 0.500000 0.000000 0.000000
O O5 0.829833 0.592495 0.575419
O O6 0.740122 0.640430 0.503616
O O7 0.804619 0.055725 0.927595
O O8 0.633589 0.822728 0.157694
O O9 0.902785 0.024111 0.414929
O O10 0.972223 0.419774 0.776282
O O11 0.000000 0.000000 0.500000
O O12 0.891475 0.227370 0.324931
O O13 0.875750 0.724086 0.909489
O O14 0.391594 0.702419 0.509104
O O15 0.466753 0.223367 0.962141
#
# Coordination Sequence:
#
# PCOD9008063 Si02
#       7
#     2   2   2   2   2   2   2
#     4  10  21  41  67 102 139 185 239 288 355 434
#     4  11  21  41  62  95 137 179 234 292 359 412
#     4  10  24  45  66 104 135 182 241 296 358 426
#     4  12  23  49  71 100 144 185 236 297 362 421
#     4  11  26  44  73 100 137 190 236 297 356 426
#     4  10  21  39  63  95 137 183 235 290 356 424
#     4  10  21  39  63  95 137 184 233 291 354 429
#
# _framework density 28.809484999999999
#
# number of rings (size 3 to 8) (size 9 to 14) (size 15 to 20)
#    0.000    1.429    2.857    2.143    0.000    1.143 
#    2.571    5.000    0.000    0.000    0.000    0.000 
#    0.000    0.000    0.000    0.000    0.000    0.000 
#
# Total GULP energy -77996.444441 kJ/mol
# GULP energy per Si atom -5571.174603 kJ/mol
# Density = 2.874391 g / cm^3
# Si number density = 28.809485 Si / 1000 Ang^3
#
#
#
# Elastic Constant Matrix: (Units=GPa)
#
#
# Indices 1 2 3 4 5 6 
#
# 1 240.2675 38.2510 39.8143 5.5962 -27.4519 -25.9591
# 2 38.2510 127.4589 31.5577 -13.8221 -26.5330 -14.4371
# 3 39.8143 31.5577 95.1961 -9.8791 -24.8500 -5.7937
# 4 5.5962 -13.8221 -9.8791 34.2857 -2.0282 -5.9079
# 5 -27.4519 -26.5330 -24.8500 -2.0282 30.2344 5.3109
# 6 -25.9591 -14.4371 -5.7937 -5.9079 5.3109 46.5767
#
#
#
# Elastic Compliance Matrix: (Units=1/GPa)
#
#
# Indices 1 2 3 4 5 6 
#
# 1 0.004988 -0.000500 -0.001176 -0.000839 0.002705 0.002064
# 2 -0.000500 0.010748 -0.000422 0.005261 0.008510 0.002697
# 3 -0.001176 -0.000422 0.014464 0.004894 0.010706 0.000413
# 4 -0.000839 0.005261 0.004894 0.034256 0.009287 0.005058
# 5 0.002705 0.008510 0.010706 0.009287 0.052300 0.000692
# 6 0.002064 0.002697 0.000413 0.005058 0.000692 0.024070
#
#
# Mechanical properties :
#
#
# Convention : Reuss Voigt Hill
#
# Bulk Modulus (GPa) = 38.45535 75.79650 57.12592
# Shear Modulus (GPa) = 32.53304 45.77265 39.15284
#
# Velocity S-wave (km/s) = 3.36407 3.99031 3.69050
# Velocity P-wave (km/s) = 5.33540 6.89904 6.16698
#
# Compressibility (1/GPa) = 0.02600419
#
# Stress axis : x y z
#
# Youngs Moduli (GPa) = 200.47901 93.04192 69.13731
#
# Poissons Ratio (x) = 0.04651 0.08129
# Poissons Ratio (y) = 0.10022 0.02919
# Poissons Ratio (z) = 0.23571 0.03928
#
# Static dielectric constant tensor:
#      x y z
#    x 2.216040 -0.040290 0.137190 
#    y -0.040290 2.405170 -0.074790 
#    z 0.137190 -0.074790 2.368160 
# 
# From -- ./inp_files/335306.got.cif
#   From: 2010.05.17/outbox.cif.g08.bks.cpg/sg2_168_cif.got.tgz:335306.got - 2010.06.03 11:33:40.
