data_PCOD9008968
_publ_section_title
;
Structure prediction by ZEFSAII (Michael W. Deem and Ramdas Pophale) SiO2 
 PCOD9008968
Probable space group: P -1
;
_chemical_formula_sum "Si O2"
_cell_formula_units_Z 16
_cell_length_a 9.448899
_cell_length_b 10.502692
_cell_length_c 9.768044
_cell_angle_alpha 132.716051
_cell_angle_beta 98.460403
_cell_angle_gamma 68.069383
_cell_volume 652.606425
_symmetry_space_group_name_H-M "P -1"
_symmetry_group_IT_number 2
_symmetry_cell_setting 'triclinic'
loop_
_space_group_symop_operation_xyz
x,y,z
-x,-y,-z
loop_
_atom_site_type_symbol
_atom_site_label
_atom_site_fract_x
_atom_site_fract_y
_atom_site_fract_z
Si Si1 0.900582 0.596028 0.422500
Si Si2 0.098831 0.030037 0.826067
Si Si3 0.554686 0.274592 0.374797
Si Si4 0.524158 0.209125 0.038142
Si Si5 0.405859 0.143347 0.705957
Si Si6 0.597296 0.564117 0.266670
Si Si7 0.847111 0.901810 0.831031
Si Si8 0.044021 0.305133 0.782163
O O1 0.780337 0.503265 0.286018
O O2 0.799408 0.788519 0.624777
O O3 0.000166 0.633203 0.338322
O O4 0.000000 0.500000 0.500000
O O5 0.014568 0.158447 0.776722
O O6 0.263796 0.860765 0.696229
O O7 0.118322 0.160986 0.050247
O O8 0.992135 0.932944 0.808112
O O9 0.500000 0.500000 0.500000
O O10 0.477724 0.207897 0.188327
O O11 0.490245 0.280333 0.519632
O O12 0.517808 0.415325 0.155221
O O13 0.442563 0.123550 0.856506
O O14 0.705655 0.094756 0.967651
O O15 0.425767 0.335483 0.807552
O O16 0.225759 0.191864 0.702169
O O17 0.500000 0.000000 0.500000
O O18 0.000000 0.500000 0.000000
#
# Coordination Sequence:
#
# PCOD9008968 Si02
#       8
#     2   2   2   2   2   2   2   2
#     4  11  25  41  66  95 131 177 223 278 336 402
#     4  10  22  41  66  93 139 176 220 282 331 407
#     4   9  20  37  62  97 129 171 225 273 332 396
#     4  10  21  39  66  95 125 174 222 269 334 401
#     4  11  23  42  67  92 134 174 225 276 338 400
#     4  10  22  40  64  91 131 169 220 272 333 402
#     4  10  23  39  66  94 128 177 224 266 345 397
#     4  11  25  43  64  99 138 176 221 284 342 394
#
# _framework density 24.517074000000001
#
# number of rings (size 3 to 8) (size 9 to 14) (size 15 to 20)
#    0.000    1.750    0.000    3.375   10.500    2.500 
#    2.250    3.125    0.000    0.000    0.000    0.000 
#    0.000    0.000    0.000    0.000    0.000    0.000 
#
# Total GULP energy -89197.140675 kJ/mol
# GULP energy per Si atom -5574.821292 kJ/mol
# Density = 2.446127 g / cm^3
# Si number density = 24.517074 Si / 1000 Ang^3
#
#
#
# Elastic Constant Matrix: (Units=GPa)
#
#
# Indices 1 2 3 4 5 6 
#
# 1 46.4458 12.9253 10.7249 -2.0044 -13.3670 1.5933
# 2 12.9253 126.9248 44.4350 -28.8743 -8.4764 18.3005
# 3 10.7249 44.4350 138.1861 -24.0226 -4.4696 -3.8961
# 4 -2.0044 -28.8743 -24.0226 44.3757 0.2953 -6.1069
# 5 -13.3670 -8.4764 -4.4696 0.2953 38.0879 -1.6534
# 6 1.5933 18.3005 -3.8961 -6.1069 -1.6534 33.0636
#
#
#
# Elastic Compliance Matrix: (Units=1/GPa)
#
#
# Indices 1 2 3 4 5 6 
#
# 1 0.024590 -0.001674 -0.001237 -0.000720 0.008112 -0.000131
# 2 -0.001674 0.010936 -0.002650 0.004864 0.001266 -0.005323
# 3 -0.001237 -0.002650 0.008883 0.003471 0.000132 0.003221
# 4 -0.000720 0.004864 0.003471 0.027948 0.001149 0.002971
# 5 0.008112 0.001266 0.000132 0.001149 0.029417 0.000607
# 6 -0.000131 -0.005323 0.003221 0.002971 0.000607 0.034156
#
#
# Mechanical properties :
#
#
# Convention : Reuss Voigt Hill
#
# Bulk Modulus (GPa) = 30.04183 49.74746 39.89464
# Shear Modulus (GPa) = 31.61632 39.33689 35.47660
#
# Velocity S-wave (km/s) = 3.59494 4.00993 3.80809
# Velocity P-wave (km/s) = 5.43245 6.46331 5.97017
#
# Compressibility (1/GPa) = 0.03328692
#
# Stress axis : x y z
#
# Youngs Moduli (GPa) = 40.66695 91.44517 112.57202
#
# Poissons Ratio (x) = 0.15311 0.13921
# Poissons Ratio (y) = 0.06809 0.29831
# Poissons Ratio (z) = 0.05029 0.24232
#
# Static dielectric constant tensor:
#      x y z
#    x 1.852950 0.129250 0.023690 
#    y 0.129250 1.965790 0.112590 
#    z 0.023690 0.112590 2.086120 
# 
# From -- ./inp_files/263501.got.cif
#   From: 2010.05.17/outbox.cif.g08.bks.cpg/sg2_132_cif.got.tgz:263501.got - 2010.06.03 11:33:40.
