data_PCOD9008240
_publ_section_title
;
Structure prediction by ZEFSAII (Michael W. Deem and Ramdas Pophale) SiO2 
 PCOD9008240
Probable space group: P -1
;
_chemical_formula_sum "Si O2"
_cell_formula_units_Z 15
_cell_length_a 10.758452
_cell_length_b 11.637905
_cell_length_c 11.794188
_cell_angle_alpha 128.112689
_cell_angle_beta 100.794064
_cell_angle_gamma 119.297108
_cell_volume 710.352914
_symmetry_space_group_name_H-M "P -1"
_symmetry_group_IT_number 2
_symmetry_cell_setting 'triclinic'
loop_
_space_group_symop_operation_xyz
x,y,z
-x,-y,-z
loop_
_atom_site_type_symbol
_atom_site_label
_atom_site_fract_x
_atom_site_fract_y
_atom_site_fract_z
Si Si1 0.553731 0.119618 0.235867
Si Si2 0.526452 0.456834 0.666831
Si Si3 0.742645 0.594817 0.559991
Si Si4 0.892894 0.197083 0.374911
Si Si5 0.795127 0.404064 0.142957
Si Si6 0.000000 0.500000 0.000000
Si Si7 0.542463 0.661940 0.013214
Si Si8 0.592226 0.970299 0.586580
O O1 0.599358 0.327194 0.337275
O O2 0.755037 0.204508 0.311384
O O3 0.504214 0.082932 0.339696
O O4 0.360401 0.858897 0.994965
O O5 0.697003 0.589169 0.679626
O O6 0.332651 0.340999 0.492282
O O7 0.579687 0.616783 0.871811
O O8 0.472060 0.252258 0.587456
O O9 0.970147 0.752788 0.668213
O O10 0.048133 0.395585 0.616333
O O11 0.736637 0.937651 0.241035
O O12 0.913554 0.446903 0.082242
O O13 0.649189 0.402965 0.073759
O O14 0.169069 0.784703 0.220210
O O15 0.500000 0.500000 0.000000
O O16 0.500000 0.000000 0.500000
#
# Coordination Sequence:
#
# PCOD9008240 Si02
#       8
#     2   2   2   2   2   1   2   2
#     4   9  21  39  63  94 125 166 214 267 319 367
#     4  10  23  43  67  92 132 174 207 272 323 374
#     4  10  21  44  67  94 129 172 220 260 320 383
#     4  11  22  41  66  96 125 172 218 260 324 379
#     4  10  22  41  60  96 129 167 214 266 317 376
#     4  10  22  36  64  90 122 166 210 254 314 386
#     4  11  26  42  63  97 132 172 212 265 329 381
#     4  10  21  39  64  91 125 163 211 266 319 379
#
# _framework density 21.116266
#
# number of rings (size 3 to 8) (size 9 to 14) (size 15 to 20)
#    0.000    1.867    1.333    1.200    7.467    2.667 
#    2.400    0.000    0.000    0.000    0.000    0.000 
#    0.000    0.000    0.000    0.000    0.000    0.000 
#
# Total GULP energy -83609.112175 kJ/mol
# GULP energy per Si atom -5573.940812 kJ/mol
# Density = 2.106820 g / cm^3
# Si number density = 21.116266 Si / 1000 Ang^3
#
#
#
# Elastic Constant Matrix: (Units=GPa)
#
#
# Indices 1 2 3 4 5 6 
#
# 1 37.8925 20.8321 -11.9442 0.5900 6.8531 9.7016
# 2 20.8321 88.3220 20.3137 5.5566 5.2528 -9.6409
# 3 -11.9442 20.3137 82.7008 -0.7834 3.9373 1.8695
# 4 0.5900 5.5566 -0.7834 17.9303 4.0985 -8.7754
# 5 6.8531 5.2528 3.9373 4.0985 22.4016 7.7639
# 6 9.7016 -9.6409 1.8695 -8.7754 7.7639 42.4477
#
#
#
# Elastic Compliance Matrix: (Units=1/GPa)
#
#
# Indices 1 2 3 4 5 6 
#
# 1 0.040458 -0.012495 0.009492 -0.001059 -0.006953 -0.011450
# 2 -0.012495 0.016540 -0.005982 -0.001403 -0.001100 0.006787
# 3 0.009492 -0.005982 0.015175 0.001320 -0.003257 -0.003328
# 4 -0.001059 -0.001403 0.001320 0.069027 -0.018265 0.017476
# 5 -0.006953 -0.001100 -0.003257 -0.018265 0.055235 -0.012396
# 6 -0.011450 0.006787 -0.003328 0.017476 -0.012396 0.033744
#
#
# Mechanical properties :
#
#
# Convention : Reuss Voigt Hill
#
# Bulk Modulus (GPa) = 18.44938 29.70207 24.07572
# Shear Modulus (GPa) = 18.78186 28.53685 23.65935
#
# Velocity S-wave (km/s) = 2.98560 3.68015 3.35092
# Velocity P-wave (km/s) = 4.54325 5.67049 5.13788
#
# Compressibility (1/GPa) = 0.05420237
#
# Stress axis : x y z
#
# Youngs Moduli (GPa) = 24.71724 60.46053 65.89892
#
# Poissons Ratio (x) = 0.75548 -0.62553
# Poissons Ratio (y) = 0.30885 0.39418
# Poissons Ratio (z) = -0.23462 0.36165
#
# Static dielectric constant tensor:
#      x y z
#    x 1.768120 0.014410 -0.028090 
#    y 0.014410 1.752980 -0.005510 
#    z -0.028090 -0.005510 1.780590 
# 
# From -- ./inp_files/428942.got.cif
#   From: 2010.05.17/outbox.cif.g08.bks.cpg/sg2_215_cif.got.tgz:428942.got - 2010.06.03 11:33:40.
