data_PCOD9008415
_publ_section_title
;
Structure prediction by ZEFSAII (Michael W. Deem and Ramdas Pophale) SiO2 
 PCOD9008415
Probable space group: P -1
;
_chemical_formula_sum "Si O2"
_cell_formula_units_Z 16
_cell_length_a 5.098957
_cell_length_b 9.272264
_cell_length_c 16.657306
_cell_angle_alpha 86.757540
_cell_angle_beta 74.017240
_cell_angle_gamma 106.884358
_cell_volume 716.435848
_symmetry_space_group_name_H-M "P -1"
_symmetry_group_IT_number 2
_symmetry_cell_setting 'triclinic'
loop_
_space_group_symop_operation_xyz
x,y,z
-x,-y,-z
loop_
_atom_site_type_symbol
_atom_site_label
_atom_site_fract_x
_atom_site_fract_y
_atom_site_fract_z
Si Si1 0.300214 0.131657 0.464388
Si Si2 0.296681 0.542085 0.080095
Si Si3 0.530632 0.562775 0.643056
Si Si4 0.688592 0.503172 0.177090
Si Si5 0.142781 0.137293 0.806541
Si Si6 0.465708 0.902818 0.087459
Si Si7 0.020162 0.587188 0.410223
Si Si8 0.508453 0.111248 0.622011
O O1 0.287865 0.283444 0.419953
O O2 0.427638 0.167561 0.541309
O O3 0.488666 0.057134 0.395018
O O4 0.000000 0.000000 0.500000
O O5 0.397596 0.476959 0.153720
O O6 0.384629 0.725109 0.074490
O O7 0.951803 0.481718 0.104535
O O8 0.500000 0.500000 0.000000
O O9 0.371071 0.593381 0.734109
O O10 0.745457 0.472256 0.653262
O O11 0.284901 0.466263 0.606051
O O12 0.783865 0.680795 0.190989
O O13 0.268215 0.070496 0.874612
O O14 0.296090 0.112671 0.712680
O O15 0.798522 0.074610 0.840252
O O16 0.500000 0.000000 0.000000
O O17 0.175017 0.768663 0.391449
O O18 0.000000 0.500000 0.500000
#
# Coordination Sequence:
#
# PCOD9008415 Si02
#       8
#     2   2   2   2   2   2   2   2
#     4  11  27  45  64  91 147 183 212 282 343 393
#     4  10  21  41  64  92 128 166 202 264 338 392
#     4  12  25  43  66  99 129 172 227 279 322 381
#     4  10  21  39  64  96 127 162 218 274 316 383
#     4  10  22  39  68  93 127 168 219 273 318 388
#     4  10  22  42  65  94 127 164 212 267 325 394
#     4  12  24  40  70  95 124 172 231 274 312 387
#     4  11  25  44  64  98 132 181 226 270 344 388
#
# _framework density 22.332775999999999
#
# number of rings (size 3 to 8) (size 9 to 14) (size 15 to 20)
#    0.000    1.250    2.500    2.625    8.750    0.000 
#    4.500    0.000    0.000    0.000    0.000    0.000 
#    0.000    0.000    0.000    0.000    0.000    0.000 
#
# Total GULP energy -89443.897939 kJ/mol
# GULP energy per Si atom -5590.243621 kJ/mol
# Density = 2.228195 g / cm^3
# Si number density = 22.332776 Si / 1000 Ang^3
#
#
#
# Elastic Constant Matrix: (Units=GPa)
#
#
# Indices 1 2 3 4 5 6 
#
# 1 98.2344 34.4416 15.3388 1.0730 -13.0760 -8.6496
# 2 34.4416 61.0403 35.1600 2.1707 -0.6074 -14.3747
# 3 15.3388 35.1600 110.8866 13.3305 -15.0430 -11.9396
# 4 1.0730 2.1707 13.3305 30.1978 -12.3985 -10.0169
# 5 -13.0760 -0.6074 -15.0430 -12.3985 35.2056 5.6412
# 6 -8.6496 -14.3747 -11.9396 -10.0169 5.6412 29.9182
#
#
#
# Elastic Compliance Matrix: (Units=1/GPa)
#
#
# Indices 1 2 3 4 5 6 
#
# 1 0.013798 -0.008643 0.001432 0.002067 0.006331 -0.000094
# 2 -0.008643 0.027916 -0.007791 0.002182 -0.006864 0.009830
# 3 0.001432 -0.007791 0.012251 -0.003134 0.004585 -0.000354
# 4 0.002067 0.002182 -0.003134 0.043726 0.012844 0.012613
# 5 0.006331 -0.006864 0.004585 0.012844 0.037506 -0.002409
# 6 -0.000094 0.009830 -0.000354 0.012613 -0.002409 0.042656
#
#
# Mechanical properties :
#
#
# Convention : Reuss Voigt Hill
#
# Bulk Modulus (GPa) = 41.73387 48.89354 45.31371
# Shear Modulus (GPa) = 23.16473 31.41239 27.28856
#
# Velocity S-wave (km/s) = 3.22413 3.75448 3.49937
# Velocity P-wave (km/s) = 5.70858 6.38244 6.05489
#
# Compressibility (1/GPa) = 0.02396135
#
# Stress axis : x y z
#
# Youngs Moduli (GPa) = 72.47281 35.82154 81.62439
#
# Poissons Ratio (x) = 0.30961 -0.11689
# Poissons Ratio (y) = 0.62639 0.63595
# Poissons Ratio (z) = -0.10379 0.27909
#
# Static dielectric constant tensor:
#      x y z
#    x 1.849760 -0.016510 -0.026830 
#    y -0.016510 1.826420 0.026340 
#    z -0.026830 0.026340 1.869730 
# 
# From -- ./inp_files/480407.got.cif
#   From: 2010.05.17/outbox.cif.g08.bks.cpg/sg2_241_cif.got.tgz:480407.got - 2010.06.03 11:33:40.
