data_PCOD9008846
_publ_section_title
;
Structure prediction by ZEFSAII (Michael W. Deem and Ramdas Pophale) SiO2 
 PCOD9008846
Probable space group: P -1
;
_chemical_formula_sum "Si O2"
_cell_formula_units_Z 16
_cell_length_a 17.786789
_cell_length_b 7.932053
_cell_length_c 16.434943
_cell_angle_alpha 46.560154
_cell_angle_beta 25.255861
_cell_angle_gamma 35.657287
_cell_volume 566.200716
_symmetry_space_group_name_H-M "P -1"
_symmetry_group_IT_number 2
_symmetry_cell_setting 'triclinic'
loop_
_space_group_symop_operation_xyz
x,y,z
-x,-y,-z
loop_
_atom_site_type_symbol
_atom_site_label
_atom_site_fract_x
_atom_site_fract_y
_atom_site_fract_z
Si Si1 0.247481 0.192561 0.851126
Si Si2 0.106865 0.635536 0.431483
Si Si3 0.858433 0.231159 0.374766
Si Si4 0.270850 0.023734 0.536009
Si Si5 0.585297 0.409094 0.068264
Si Si6 0.384934 0.476462 0.817658
Si Si7 0.376261 0.137915 0.158894
Si Si8 0.090473 0.277713 0.809358
O O1 0.261873 0.090991 0.776917
O O2 0.459761 0.188985 0.653847
O O3 0.292810 0.933231 0.949693
O O4 0.000000 0.500000 0.000000
O O5 0.194372 0.292598 0.457945
O O6 0.865487 0.763866 0.659234
O O7 0.016875 0.915038 0.368623
O O8 0.321913 0.575598 0.282003
O O9 0.598109 0.448587 0.588598
O O10 0.946543 0.414882 0.248147
O O11 0.177889 0.153999 0.674185
O O12 0.175693 0.858983 0.650483
O O13 0.626688 0.587717 0.906259
O O14 0.664017 0.439888 0.067434
O O15 0.487108 0.134992 0.824224
O O16 0.137719 0.670574 0.959488
O O17 0.500000 0.000000 0.000000
#
# Coordination Sequence:
#
# PCOD9008846 Si02
#       8
#     2   2   2   2   2   2   2   2
#     4  11  26  47  71 101 139 188 248 296 341 414
#     4  10  21  39  66 103 141 178 227 284 352 430
#     4  11  24  44  72 105 145 185 224 290 360 417
#     4  11  24  45  71 102 140 183 237 292 352 423
#     4  10  21  40  68 100 139 183 229 294 354 404
#     4  10  22  40  69 107 141 179 231 284 353 435
#     4   9  18  33  61  99 134 173 220 276 349 424
#     4  12  26  46  72 104 142 188 239 289 348 419
#
# _framework density 28.25853
#
# number of rings (size 3 to 8) (size 9 to 14) (size 15 to 20)
#    0.000    1.500    0.000    5.250    0.000   10.000 
#    0.000    6.250    0.000   10.500    0.000    0.000 
#    0.000    0.000    0.000    0.000    0.000    0.000 
#
# Total GULP energy -89512.321553 kJ/mol
# GULP energy per Si atom -5594.520097 kJ/mol
# Density = 2.819421 g / cm^3
# Si number density = 28.258530 Si / 1000 Ang^3
#
#
#
# Elastic Constant Matrix: (Units=GPa)
#
#
# Indices 1 2 3 4 5 6 
#
# 1 108.6433 28.3597 27.9446 25.2036 1.5168 1.9422
# 2 28.3597 187.5611 58.9879 7.7646 2.3480 12.0243
# 3 27.9446 58.9879 139.6758 35.7784 -24.5682 -0.9933
# 4 25.2036 7.7646 35.7784 52.1411 -4.9267 -1.7355
# 5 1.5168 2.3480 -24.5682 -4.9267 52.5433 10.7489
# 6 1.9422 12.0243 -0.9933 -1.7355 10.7489 38.6700
#
#
#
# Elastic Compliance Matrix: (Units=1/GPa)
#
#
# Indices 1 2 3 4 5 6 
#
# 1 0.010788 -0.001227 -0.000602 -0.004714 -0.000955 -0.000122
# 2 -0.001227 0.006570 -0.003177 0.001622 -0.001256 -0.001641
# 3 -0.000602 -0.003177 0.011110 -0.006415 0.004819 -0.000324
# 4 -0.004714 0.001622 -0.006415 0.025580 -0.000725 0.000917
# 5 -0.000955 -0.001256 0.004819 -0.000725 0.022470 -0.005716
# 6 -0.000122 -0.001641 -0.000324 0.000917 -0.005716 0.027998
#
#
# Mechanical properties :
#
#
# Convention : Reuss Voigt Hill
#
# Bulk Modulus (GPa) = 54.18006 74.05162 64.11584
# Shear Modulus (GPa) = 41.43161 50.04345 45.73753
#
# Velocity S-wave (km/s) = 3.83320 4.21279 4.02747
# Velocity P-wave (km/s) = 6.22944 7.06579 6.66075
#
# Compressibility (1/GPa) = 0.01845697
#
# Stress axis : x y z
#
# Youngs Moduli (GPa) = 92.69135 152.20332 90.00763
#
# Poissons Ratio (x) = 0.18678 0.05415
# Poissons Ratio (y) = 0.11375 0.28597
# Poissons Ratio (z) = 0.05576 0.48358
#
# Static dielectric constant tensor:
#      x y z
#    x 2.216330 0.023570 0.097810 
#    y 0.023570 2.280900 -0.100300 
#    z 0.097810 -0.100300 2.217000 
# 
# From -- ./inp_files/577952.got.cif
#   From: 2010.05.17/outbox.cif.g08.bks.cpg/sg2_289_cif.got.tgz:577952.got - 2010.06.03 11:33:40.
