data_PCOD9008786
_publ_section_title
;
Structure prediction by ZEFSAII (Michael W. Deem and Ramdas Pophale) SiO2 
 PCOD9008786
Probable space group: P -1
;
_chemical_formula_sum "Si O2"
_cell_formula_units_Z 14
_cell_length_a 5.475349
_cell_length_b 5.288019
_cell_length_c 19.745157
_cell_angle_alpha 96.875580
_cell_angle_beta 105.946922
_cell_angle_gamma 98.935632
_cell_volume 535.029432
_symmetry_space_group_name_H-M "P -1"
_symmetry_group_IT_number 2
_symmetry_cell_setting 'triclinic'
loop_
_space_group_symop_operation_xyz
x,y,z
-x,-y,-z
loop_
_atom_site_type_symbol
_atom_site_label
_atom_site_fract_x
_atom_site_fract_y
_atom_site_fract_z
Si Si1 0.789811 0.533712 0.265560
Si Si2 0.166582 0.036187 0.082385
Si Si3 0.421335 0.164693 0.326356
Si Si4 0.306647 0.543486 0.047003
Si Si5 0.834453 0.459949 0.591228
Si Si6 0.217555 0.858757 0.542382
Si Si7 0.079062 0.995606 0.796491
O O1 0.567717 0.376664 0.291344
O O2 0.019475 0.649971 0.339939
O O3 0.869018 0.292790 0.222469
O O4 0.741584 0.767485 0.222040
O O5 0.313554 0.333418 0.099503
O O6 0.973065 0.969901 0.127699
O O7 0.360927 0.838683 0.085880
O O8 0.000000 0.000000 0.000000
O O9 0.310713 0.332536 0.380229
O O10 0.590198 0.003096 0.379872
O O11 0.198530 0.001032 0.259254
O O12 0.500000 0.500000 0.000000
O O13 0.000000 0.500000 0.000000
O O14 0.671779 0.258249 0.520086
O O15 0.065153 0.621533 0.568554
O O16 0.000000 0.000000 0.500000
#
# Coordination Sequence:
#
# PCOD9008786 Si02
#       7
#     2   2   2   2   2   2   2
#     4  10  24  43  69  96 141 179 230 287 342 419
#     4  10  22  44  72 102 138 183 230 297 357 422
#     4  10  23  44  67  97 131 187 224 282 352 411
#     4  10  21  42  71 105 144 183 230 294 360 431
#     4   9  21  40  62  92 133 169 229 278 337 418
#     4  10  21  39  65  98 126 173 225 288 342 403
#     4  11  24  48  67 101 141 179 238 282 349 426
#
# _framework density 26.166788
#
# number of rings (size 3 to 8) (size 9 to 14) (size 15 to 20)
#    0.000    2.000    0.000    1.714    6.000    2.857 
#   25.714    0.000    0.000    0.000    0.000    0.000 
#    0.000    0.000    0.000    0.000    0.000    0.000 
#
# Total GULP energy -78318.541424 kJ/mol
# GULP energy per Si atom -5594.181530 kJ/mol
# Density = 2.610723 g / cm^3
# Si number density = 26.166788 Si / 1000 Ang^3
#
#
#
# Elastic Constant Matrix: (Units=GPa)
#
#
# Indices 1 2 3 4 5 6 
#
# 1 77.0367 4.9973 40.7264 -2.7643 -10.2035 -0.5319
# 2 4.9973 115.1923 34.2215 -23.1895 -2.9044 -2.3841
# 3 40.7264 34.2215 163.6345 -18.9621 -12.5167 -4.2043
# 4 -2.7643 -23.1895 -18.9621 39.7024 -0.7537 -6.0623
# 5 -10.2035 -2.9044 -12.5167 -0.7537 56.8045 0.7063
# 6 -0.5319 -2.3841 -4.2043 -6.0623 0.7063 40.4049
#
#
#
# Elastic Compliance Matrix: (Units=1/GPa)
#
#
# Indices 1 2 3 4 5 6 
#
# 1 0.015189 0.000403 -0.003786 -0.000522 0.001911 -0.000282
# 2 0.000403 0.010263 -0.001555 0.005479 0.000311 0.001266
# 3 -0.003786 -0.001555 0.007798 0.002733 0.000982 0.001063
# 4 -0.000522 0.005479 0.002733 0.030464 0.001129 0.005152
# 5 0.001911 0.000311 0.000982 0.001129 0.018195 -0.000003
# 6 -0.000282 0.001266 0.001063 0.005152 -0.000003 0.025704
#
#
# Mechanical properties :
#
#
# Convention : Reuss Voigt Hill
#
# Bulk Modulus (GPa) = 42.78537 57.30602 50.04569
# Shear Modulus (GPa) = 39.91053 45.77691 42.84372
#
# Velocity S-wave (km/s) = 3.90966 4.18715 4.05079
# Velocity P-wave (km/s) = 6.06359 6.73232 6.40669
#
# Compressibility (1/GPa) = 0.02337247
#
# Stress axis : x y z
#
# Youngs Moduli (GPa) = 65.83838 97.44044 128.23976
#
# Poissons Ratio (x) = -0.03928 0.48553
# Poissons Ratio (y) = -0.02654 0.19946
# Poissons Ratio (z) = 0.24927 0.15156
#
# Static dielectric constant tensor:
#      x y z
#    x 1.889160 -0.245490 -0.076710 
#    y -0.245490 1.872530 -0.108500 
#    z -0.076710 -0.108500 1.930210 
# 
# From -- ./inp_files/9232.got.cif
#   From: 2010.05.17/outbox.cif.g08.bks.cpg/sg2_5_cif.got.tgz:9232.got - 2010.06.03 11:33:40.
