data_PCOD9008999
_publ_section_title
;
Structure prediction by ZEFSAII (Michael W. Deem and Ramdas Pophale) SiO2 
 PCOD9008999
Probable space group: P -1
;
_chemical_formula_sum "Si O2"
_cell_formula_units_Z 14
_cell_length_a 17.009351
_cell_length_b 7.542170
_cell_length_c 5.630443
_cell_angle_alpha 59.682594
_cell_angle_beta 109.522027
_cell_angle_gamma 119.890967
_cell_volume 537.284504
_symmetry_space_group_name_H-M "P -1"
_symmetry_group_IT_number 2
_symmetry_cell_setting 'triclinic'
loop_
_space_group_symop_operation_xyz
x,y,z
-x,-y,-z
loop_
_atom_site_type_symbol
_atom_site_label
_atom_site_fract_x
_atom_site_fract_y
_atom_site_fract_z
Si Si1 0.749039 0.329657 0.718650
Si Si2 0.382676 0.220622 0.704702
Si Si3 0.787252 0.996712 0.627426
Si Si4 0.687873 0.587050 0.114767
Si Si5 0.996852 0.248377 0.639393
Si Si6 0.934510 0.632809 0.869200
Si Si7 0.578013 0.291741 0.823408
O O1 0.776021 0.165931 0.693935
O O2 0.742401 0.523674 0.414581
O O3 0.830445 0.450871 0.903248
O O4 0.647769 0.217198 0.802275
O O5 0.369710 0.283721 0.917611
O O6 0.469473 0.162887 0.786927
O O7 0.403901 0.458201 0.430887
O O8 0.286907 0.045426 0.625530
O O9 0.891220 0.092714 0.590998
O O10 0.756806 0.756117 0.885416
O O11 0.618033 0.357233 0.083056
O O12 0.000000 0.500000 0.500000
O O13 0.052763 0.248597 0.457365
O O14 0.033732 0.222885 0.956088
O O15 0.000000 0.500000 0.000000
#
# Coordination Sequence:
#
# PCOD9008999 Si02
#       7
#     2   2   2   2   2   2   2
#     4  11  23  40  67  95 131 172 223 278 334 402
#     4   9  20  40  65  94 132 172 217 273 337 400
#     4  11  23  40  67  95 131 172 223 278 334 402
#     4  10  23  40  64  94 132 174 222 270 337 398
#     4  10  21  39  66  96 132 178 224 274 345 400
#     4  10  21  39  66  96 132 178 224 274 345 400
#     4   9  20  40  65  94 132 172 217 273 337 400
#
# _framework density 26.056957000000001
#
# number of rings (size 3 to 8) (size 9 to 14) (size 15 to 20)
#    0.000    2.000    2.857    0.429    4.000    2.857 
#    0.000    2.857    0.000    0.000    0.000    0.000 
#    0.000    0.000    0.000    0.000    0.000    0.000 
#
# Total GULP energy -78411.843645 kJ/mol
# GULP energy per Si atom -5600.845975 kJ/mol
# Density = 2.599765 g / cm^3
# Si number density = 26.056957 Si / 1000 Ang^3
#
#
#
# Elastic Constant Matrix: (Units=GPa)
#
#
# Indices 1 2 3 4 5 6 
#
# 1 144.8919 60.8638 37.8576 9.8128 6.7588 19.2550
# 2 60.8638 115.4339 17.8561 21.9093 -5.2581 20.8713
# 3 37.8576 17.8561 86.0327 12.7108 -7.8391 11.3790
# 4 9.8128 21.9093 12.7108 34.2006 -7.0978 -1.6769
# 5 6.7588 -5.2581 -7.8391 -7.0978 44.5243 -0.9997
# 6 19.2550 20.8713 11.3790 -1.6769 -0.9997 68.6067
#
#
#
# Elastic Compliance Matrix: (Units=1/GPa)
#
#
# Indices 1 2 3 4 5 6 
#
# 1 0.010093 -0.004938 -0.003717 0.001070 -0.002615 -0.000726
# 2 -0.004938 0.013061 0.001028 -0.007215 0.001257 -0.002916
# 3 -0.003717 0.001028 0.014145 -0.004427 0.002432 -0.001688
# 4 0.001070 -0.007215 -0.004427 0.036217 0.004060 0.003573
# 5 -0.002615 0.001257 0.002432 0.004060 0.024090 0.000398
# 6 -0.000726 -0.002916 -0.001688 0.003573 0.000398 0.016040
#
#
# Mechanical properties :
#
#
# Convention : Reuss Voigt Hill
#
# Bulk Modulus (GPa) = 45.35975 64.39039 54.87507
# Shear Modulus (GPa) = 36.69810 44.78506 40.74158
#
# Velocity S-wave (km/s) = 3.75691 4.15026 3.95848
# Velocity P-wave (km/s) = 6.02203 6.90878 6.48059
#
# Compressibility (1/GPa) = 0.02204597
#
# Stress axis : x y z
#
# Youngs Moduli (GPa) = 99.07875 76.56238 70.69791
#
# Poissons Ratio (x) = 0.37804 0.26277
# Poissons Ratio (y) = 0.48922 -0.07268
# Poissons Ratio (z) = 0.36826 -0.07871
#
# Static dielectric constant tensor:
#      x y z
#    x 2.030800 -0.010720 -0.058770 
#    y -0.010720 2.084000 -0.107340 
#    z -0.058770 -0.107340 2.219900 
# 
# From -- ./inp_files/38405.got.cif
#   From: 2010.05.17/outbox.cif.g08.bks.cpg/sg2_20_cif.got.tgz:38405.got - 2010.06.03 11:33:40.
