data_PCOD9009781
_publ_section_title
;
Structure prediction by ZEFSAII (Michael W. Deem and Ramdas Pophale) SiO2 
 PCOD9009781
Probable space group: P -1
;
_chemical_formula_sum "Si O2"
_cell_formula_units_Z 12
_cell_length_a 7.728219
_cell_length_b 8.601368
_cell_length_c 10.380474
_cell_angle_alpha 56.564685
_cell_angle_beta 60.160589
_cell_angle_gamma 94.605681
_cell_volume 435.509063
_symmetry_space_group_name_H-M "P -1"
_symmetry_group_IT_number 2
_symmetry_cell_setting 'triclinic'
loop_
_space_group_symop_operation_xyz
x,y,z
-x,-y,-z
loop_
_atom_site_type_symbol
_atom_site_label
_atom_site_fract_x
_atom_site_fract_y
_atom_site_fract_z
Si Si1 0.402875 0.530195 0.685930
Si Si2 0.363455 0.623989 0.949138
Si Si3 0.956181 0.911836 0.889278
Si Si4 0.036601 0.766439 0.665994
Si Si5 0.069277 0.318829 0.547733
Si Si6 0.512128 0.939837 0.335519
O O1 0.359133 0.620211 0.796452
O O2 0.660257 0.578009 0.585528
O O3 0.408914 0.679957 0.496666
O O4 0.223747 0.278823 0.868634
O O5 0.474179 0.867508 0.846143
O O6 0.500000 0.500000 0.000000
O O7 0.097660 0.490866 0.150513
O O8 0.917529 0.822230 0.799272
O O9 0.944995 0.128784 0.783643
O O10 0.218958 0.975656 0.787625
O O11 0.306252 0.918282 0.515032
O O12 0.987871 0.784507 0.527136
O O13 0.000000 0.500000 0.500000
#
# Coordination Sequence:
#
# PCOD9009781 Si02
#       6
#     2   2   2   2   2   2
#     4  10  21  40  59  87 126 162 200 248 305 365
#     4  11  21  33  59  97 125 153 199 252 306 357
#     4  10  22  39  64  89 123 164 201 249 305 366
#     4  11  22  36  64  93 121 157 202 252 304 360
#     4  11  24  40  61  91 124 161 206 256 305 356
#     4  11  22  37  61  95 129 156 197 252 310 364
#
# _framework density 27.553961999999999
#
# number of rings (size 3 to 8) (size 9 to 14) (size 15 to 20)
#    0.000    1.333    1.667    5.500    4.667    3.333 
#    0.000    3.333    0.000    6.000    0.000    0.000 
#    0.000    0.000    0.000    0.000    0.000    0.000 
#
# Total GULP energy -66956.605489 kJ/mol
# GULP energy per Si atom -5579.717124 kJ/mol
# Density = 2.749125 g / cm^3
# Si number density = 27.553962 Si / 1000 Ang^3
#
#
#
# Elastic Constant Matrix: (Units=GPa)
#
#
# Indices 1 2 3 4 5 6 
#
# 1 104.3588 41.7066 69.3369 -30.1046 -4.5166 -6.9644
# 2 41.7066 77.4303 60.0237 -9.0954 18.8205 7.5942
# 3 69.3369 60.0237 248.2601 -72.1752 -23.7086 -8.9634
# 4 -30.1046 -9.0954 -72.1752 51.9556 -2.2326 22.0669
# 5 -4.5166 18.8205 -23.7086 -2.2326 57.8132 -5.2539
# 6 -6.9644 7.5942 -8.9634 22.0669 -5.2539 44.1789
#
#
#
# Elastic Compliance Matrix: (Units=1/GPa)
#
#
# Indices 1 2 3 4 5 6 
#
# 1 0.015393 -0.009265 0.000932 0.008589 0.004979 0.000510
# 2 -0.009265 0.027241 -0.009035 -0.012258 -0.014091 -0.003529
# 3 0.000932 -0.009035 0.011417 0.016566 0.008036 -0.003302
# 4 0.008589 -0.012258 0.016566 0.053441 0.011841 -0.018463
# 5 0.004979 -0.014091 0.008036 0.011841 0.026211 0.002040
# 6 0.000510 -0.003529 -0.003302 -0.018463 0.002040 0.032117
#
#
# Mechanical properties :
#
#
# Convention : Reuss Voigt Hill
#
# Bulk Modulus (GPa) = 51.77710 85.79817 68.78763
# Shear Modulus (GPa) = 24.15519 48.05501 36.10510
#
# Velocity S-wave (km/s) = 2.96404 4.18069 3.62379
# Velocity P-wave (km/s) = 5.52684 7.38309 6.52135
#
# Compressibility (1/GPa) = 0.01931356
#
# Stress axis : x y z
#
# Youngs Moduli (GPa) = 64.96397 36.70969 87.59249
#
# Poissons Ratio (x) = 0.34011 -0.08162
# Poissons Ratio (y) = 0.60189 0.79143
# Poissons Ratio (z) = -0.06054 0.33168
#
# Static dielectric constant tensor:
#      x y z
#    x 2.170920 -0.018880 0.039050 
#    y -0.018880 2.251480 -0.049330 
#    z 0.039050 -0.049330 2.156020 
# 
# From -- ./inp_files/377574.got.cif
#   From: 2010.05.17/outbox.cif.g08.bks.cpg/sg2_189_cif.got.tgz:377574.got - 2010.06.03 11:33:40.
