data_PCOD9009356
_publ_section_title
;
Structure prediction by ZEFSAII (Michael W. Deem and Ramdas Pophale) SiO2 
 PCOD9009356
Probable space group: P -1
;
_chemical_formula_sum "Si O2"
_cell_formula_units_Z 16
_cell_length_a 11.901422
_cell_length_b 11.522543
_cell_length_c 9.239021
_cell_angle_alpha 53.155365
_cell_angle_beta 99.773937
_cell_angle_gamma 126.456029
_cell_volume 780.511500
_symmetry_space_group_name_H-M "P -1"
_symmetry_group_IT_number 2
_symmetry_cell_setting 'triclinic'
loop_
_space_group_symop_operation_xyz
x,y,z
-x,-y,-z
loop_
_atom_site_type_symbol
_atom_site_label
_atom_site_fract_x
_atom_site_fract_y
_atom_site_fract_z
Si Si1 0.135407 0.705533 0.811132
Si Si2 0.002415 0.494437 0.676396
Si Si3 0.158917 0.058927 0.504758
Si Si4 0.327819 0.339135 0.583857
Si Si5 0.820414 0.936625 0.830914
Si Si6 0.305148 0.737834 0.076694
Si Si7 0.112349 0.279362 0.795085
Si Si8 0.383115 0.109011 0.952368
O O1 0.121850 0.676742 0.657233
O O2 0.141058 0.883497 0.701686
O O3 0.270731 0.743770 0.897016
O O4 0.000000 0.500000 0.000000
O O5 0.846694 0.421074 0.759668
O O6 0.000000 0.500000 0.500000
O O7 0.047840 0.363510 0.805957
O O8 0.256808 0.244209 0.485145
O O9 0.207548 0.088496 0.326485
O O10 0.000000 0.000000 0.500000
O O11 0.500000 0.500000 0.500000
O O12 0.244135 0.393121 0.621941
O O13 0.309497 0.173518 0.790795
O O14 0.830723 0.787369 0.021256
O O15 0.693027 0.929132 0.882265
O O16 0.977296 0.123154 0.779365
O O17 0.441454 0.739604 0.120662
O O18 0.346839 0.923444 0.020374
#
# Coordination Sequence:
#
# PCOD9009356 Si02
#       8
#     2   2   2   2   2   2   2   2
#     4  10  24  40  63  99 132 171 216 274 328 393
#     4  11  23  38  64  97 134 162 223 268 334 386
#     4  12  24  41  70 100 132 170 228 277 325 390
#     4  11  25  43  66  95 133 171 223 271 333 393
#     4  10  21  39  68  93 125 169 228 267 327 388
#     4  10  21  40  64  88 128 174 208 260 332 395
#     4  10  21  40  64  93 128 175 211 276 326 392
#     4  10  21  42  64  86 128 172 212 260 334 394
#
# _framework density 20.499378
#
# number of rings (size 3 to 8) (size 9 to 14) (size 15 to 20)
#    0.000    1.500    3.750    0.750    5.250    1.000 
#    2.250    1.875    0.000    0.000    0.000    0.000 
#    0.000    0.000    0.000    0.000    0.000    0.000 
#
# Total GULP energy -89181.350012 kJ/mol
# GULP energy per Si atom -5573.834376 kJ/mol
# Density = 2.045272 g / cm^3
# Si number density = 20.499378 Si / 1000 Ang^3
#
#
#
# Elastic Constant Matrix: (Units=GPa)
#
#
# Indices 1 2 3 4 5 6 
#
# 1 72.0621 18.0833 17.2084 13.5139 -11.8243 23.5584
# 2 18.0833 88.4373 25.5572 23.5174 -11.3607 7.7178
# 3 17.2084 25.5572 63.8776 21.3258 -10.6220 5.6801
# 4 13.5139 23.5174 21.3258 31.3346 -3.6427 3.9891
# 5 -11.8243 -11.3607 -10.6220 -3.6427 40.1744 -1.8618
# 6 23.5584 7.7178 5.6801 3.9891 -1.8618 19.4410
#
#
#
# Elastic Compliance Matrix: (Units=1/GPa)
#
#
# Indices 1 2 3 4 5 6 
#
# 1 0.025649 -0.000098 -0.001538 -0.005647 0.005262 -0.028930
# 2 -0.000098 0.014971 -0.002259 -0.008957 0.002653 -0.003073
# 3 -0.001538 -0.002259 0.021569 -0.011814 0.003504 -0.000782
# 4 -0.005647 -0.008957 -0.011814 0.048323 -0.002767 0.003670
# 5 0.005262 0.002653 0.003504 -0.002767 0.027623 -0.005240
# 6 -0.028930 -0.003073 -0.000782 0.003670 -0.005240 0.086689
#
#
# Mechanical properties :
#
#
# Convention : Reuss Voigt Hill
#
# Bulk Modulus (GPa) = 18.38207 38.45277 28.41742
# Shear Modulus (GPa) = 19.94041 29.09187 24.51614
#
# Velocity S-wave (km/s) = 3.12225 3.77126 3.46200
# Velocity P-wave (km/s) = 4.68877 6.14507 5.46564
#
# Compressibility (1/GPa) = 0.05440085
#
# Stress axis : x y z
#
# Youngs Moduli (GPa) = 38.98788 66.79555 46.36192
#
# Poissons Ratio (x) = 0.00653 0.07129
# Poissons Ratio (y) = 0.00381 0.10472
# Poissons Ratio (z) = 0.05995 0.15088
#
# Static dielectric constant tensor:
#      x y z
#    x 0.272030 -0.235220 1.526540 
#    y -0.235220 1.711320 0.184780 
#    z 1.526540 0.184780 0.274840 
# 
# From -- ./inp_files/256977.got.cif
#   From: 2010.05.17/outbox.cif.g08.bks.cpg/sg2_129_cif.got.tgz:256977.got - 2010.06.03 11:33:40.
