data_PCOD9009222
_publ_section_title
;
Structure prediction by ZEFSAII (Michael W. Deem and Ramdas Pophale) SiO2 
 PCOD9009222
Probable space group: P -1
;
_chemical_formula_sum "Si O2"
_cell_formula_units_Z 14
_cell_length_a 20.545555
_cell_length_b 9.325518
_cell_length_c 15.696415
_cell_angle_alpha 29.244442
_cell_angle_beta 153.042748
_cell_angle_gamma 145.964439
_cell_volume 648.170101
_symmetry_space_group_name_H-M "P -1"
_symmetry_group_IT_number 2
_symmetry_cell_setting 'triclinic'
loop_
_space_group_symop_operation_xyz
x,y,z
-x,-y,-z
loop_
_atom_site_type_symbol
_atom_site_label
_atom_site_fract_x
_atom_site_fract_y
_atom_site_fract_z
Si Si1 0.547692 0.675424 0.825512
Si Si2 0.060103 0.851511 0.065085
Si Si3 0.640082 0.825613 0.030255
Si Si4 0.383086 0.175682 0.525435
Si Si5 0.062941 0.865879 0.386182
Si Si6 0.956122 0.141403 0.288700
Si Si7 0.632793 0.856479 0.665685
O O1 0.661962 0.715690 0.016225
O O2 0.592459 0.593423 0.825783
O O3 0.503405 0.992688 0.592651
O O4 0.404516 0.448310 0.813791
O O5 0.001998 0.498410 0.167128
O O6 0.234079 0.912707 0.253831
O O7 0.000000 0.000000 0.000000
O O8 0.022547 0.013676 0.852729
O O9 0.495008 0.957510 0.783924
O O10 0.782095 0.052071 0.112696
O O11 0.500000 0.500000 0.500000
O O12 0.318934 0.203939 0.341177
O O13 0.237465 0.021048 0.490548
O O14 0.000000 0.500000 0.500000
O O15 0.026982 0.001578 0.364076
O O16 0.000000 0.000000 0.500000
#
# Coordination Sequence:
#
# PCOD9009222 Si02
#       7
#     2   2   2   2   2   2   2
#     4   9  20  38  66  98 129 176 229 287 348 424
#     4  12  24  44  73 100 141 186 240 291 366 424
#     4  10  22  40  69  97 138 178 237 286 354 414
#     4  11  25  45  67 100 144 185 235 295 361 431
#     4  12  28  47  74 107 149 193 242 301 366 431
#     4  12  27  46  73 105 146 190 245 298 362 439
#     4  10  21  39  67  96 134 176 232 288 355 421
#
# _framework density 21.599267999999999
#
# number of rings (size 3 to 8) (size 9 to 14) (size 15 to 20)
#    0.000    1.143    1.429    3.857    8.000    4.571 
#    0.000    1.429    0.000    0.000    0.000    0.000 
#    0.000    0.000    0.000    0.000    0.000    0.000 
#
# Total GULP energy -78042.536984 kJ/mol
# GULP energy per Si atom -5574.466927 kJ/mol
# Density = 2.155011 g / cm^3
# Si number density = 21.599268 Si / 1000 Ang^3
#
#
#
# Elastic Constant Matrix: (Units=GPa)
#
#
# Indices 1 2 3 4 5 6 
#
# 1 167.2597 78.1565 64.1044 -0.6971 -28.1437 -1.3055
# 2 78.1565 188.6932 70.7145 2.3176 -7.1623 11.6506
# 3 64.1044 70.7145 108.0820 1.8922 -29.8433 -2.7690
# 4 -0.6971 2.3176 1.8922 51.4346 3.7814 3.6525
# 5 -28.1437 -7.1623 -29.8433 3.7814 44.2091 3.4921
# 6 -1.3055 11.6506 -2.7690 3.6525 3.4921 31.1641
#
#
#
# Elastic Compliance Matrix: (Units=1/GPa)
#
#
# Indices 1 2 3 4 5 6 
#
# 1 0.008731 -0.002581 -0.002543 0.000029 0.003364 0.000724
# 2 -0.002581 0.008280 -0.004907 0.000254 -0.003376 -0.003291
# 3 -0.002543 -0.004907 0.016425 -0.001217 0.008591 0.002367
# 4 0.000029 0.000254 -0.001217 0.019804 -0.002277 -0.002268
# 5 0.003364 -0.003376 0.008591 -0.002277 0.030284 -0.000960
# 6 0.000724 -0.003291 0.002367 -0.002268 -0.000960 0.033933
#
#
# Mechanical properties :
#
#
# Convention : Reuss Voigt Hill
#
# Bulk Modulus (GPa) = 74.77443 98.88728 86.83086
# Shear Modulus (GPa) = 35.21685 42.09886 38.65786
#
# Velocity S-wave (km/s) = 4.04228 4.41964 4.23516
# Velocity P-wave (km/s) = 7.51537 8.48094 8.01271
#
# Compressibility (1/GPa) = 0.01337356
#
# Stress axis : x y z
#
# Youngs Moduli (GPa) = 114.53300 120.77982 60.88117
#
# Poissons Ratio (x) = 0.31170 0.15483
# Poissons Ratio (y) = 0.29558 0.29876
# Poissons Ratio (z) = 0.29128 0.59271
#
# Static dielectric constant tensor:
#      x y z
#    x 1.940590 -0.053030 0.054610 
#    y -0.053030 1.721520 -0.023430 
#    z 0.054610 -0.023430 1.793540 
# 
# From -- ./inp_files/540378.got.cif
#   From: 2010.05.17/outbox.cif.g08.bks.cpg/sg2_271_cif.got.tgz:540378.got - 2010.06.03 11:33:40.
