data_PCOD9009680
_publ_section_title
;
Structure prediction by ZEFSAII (Michael W. Deem and Ramdas Pophale) SiO2 
 PCOD9009680
Probable space group: P -1
;
_chemical_formula_sum "Si O2"
_cell_formula_units_Z 16
_cell_length_a 13.460720
_cell_length_b 14.427567
_cell_length_c 13.905559
_cell_angle_alpha 147.286642
_cell_angle_beta 28.834041
_cell_angle_gamma 140.229906
_cell_volume 698.688742
_symmetry_space_group_name_H-M "P -1"
_symmetry_group_IT_number 2
_symmetry_cell_setting 'triclinic'
loop_
_space_group_symop_operation_xyz
x,y,z
-x,-y,-z
loop_
_atom_site_type_symbol
_atom_site_label
_atom_site_fract_x
_atom_site_fract_y
_atom_site_fract_z
Si Si1 0.831569 0.861862 0.840525
Si Si2 0.165880 0.369090 0.717927
Si Si3 0.182397 0.345301 0.997554
Si Si4 0.201417 0.660537 0.384749
Si Si5 0.360538 0.588811 0.593038
Si Si6 0.344017 0.529017 0.347079
Si Si7 0.084397 0.838600 0.110641
Si Si8 0.377344 0.117529 0.776484
O O1 0.697602 0.675664 0.779029
O O2 0.055813 0.811344 0.637741
O O3 0.726043 0.954391 0.099468
O O4 0.857893 0.974136 0.820142
O O5 0.231263 0.413549 0.591350
O O6 0.392597 0.413268 0.612868
O O7 0.000000 0.500000 0.000000
O O8 0.049298 0.190799 0.703885
O O9 0.418094 0.404975 0.818476
O O10 0.205453 0.202243 0.935043
O O11 0.118154 0.515061 0.251767
O O12 0.059039 0.266992 0.941711
O O13 0.218563 0.579809 0.405064
O O14 0.437580 0.732975 0.222093
O O15 0.299969 0.620651 0.563551
O O16 0.290607 0.741485 0.851871
O O17 0.500000 0.000000 0.500000
#
# Coordination Sequence:
#
# PCOD9009680 Si02
#       8
#     2   2   2   2   2   2   2   2
#     4  12  25  39  60  93 134 172 208 260 314 359
#     4   9  20  43  66  98 119 150 208 268 317 379
#     4  11  21  41  61  85 126 178 216 254 295 368
#     4  11  23  41  60  85 133 177 222 255 288 371
#     4  10  21  39  73  90 119 163 210 257 316 384
#     4  11  21  41  62  90 123 174 219 253 304 371
#     4  11  24  37  63  98 128 158 210 263 318 367
#     4  11  24  38  54  85 128 169 213 263 305 351
#
# _framework density 22.900040000000001
#
# number of rings (size 3 to 8) (size 9 to 14) (size 15 to 20)
#    0.000    1.250    3.750    2.625    5.250    2.000 
#    0.000    0.625    0.000    6.750    0.000    0.000 
#    0.000    0.000    0.000    0.000    0.000    0.000 
#
# Total GULP energy -89374.513890 kJ/mol
# GULP energy per Si atom -5585.907118 kJ/mol
# Density = 2.284792 g / cm^3
# Si number density = 22.900040 Si / 1000 Ang^3
#
#
#
# Elastic Constant Matrix: (Units=GPa)
#
#
# Indices 1 2 3 4 5 6 
#
# 1 26.7281 3.5397 0.1203 -2.7214 -14.4832 -4.8083
# 2 3.5397 129.9001 21.9888 -12.2018 -7.0497 -36.7084
# 3 0.1203 21.9888 77.2137 -11.9613 -7.6396 -8.9320
# 4 -2.7214 -12.2018 -11.9613 40.7427 -1.0844 1.2244
# 5 -14.4832 -7.0497 -7.6396 -1.0844 29.6968 -7.8359
# 6 -4.8083 -36.7084 -8.9320 1.2244 -7.8359 48.4971
#
#
#
# Elastic Compliance Matrix: (Units=1/GPa)
#
#
# Indices 1 2 3 4 5 6 
#
# 1 0.060097 0.004721 0.005173 0.007427 0.036297 0.016162
# 2 0.004721 0.011241 -0.000794 0.003350 0.007518 0.009961
# 3 0.005173 -0.000794 0.015046 0.004608 0.007365 0.003757
# 4 0.007427 0.003350 0.004608 0.027464 0.007845 0.004695
# 5 0.036297 0.007518 0.007365 0.007845 0.060685 0.020253
# 6 0.016162 0.009961 0.003757 0.004695 0.020253 0.033607
#
#
# Mechanical properties :
#
#
# Convention : Reuss Voigt Hill
#
# Bulk Modulus (GPa) = 9.56147 31.68217 20.62182
# Shear Modulus (GPa) = 22.24182 37.66685 29.95434
#
# Velocity S-wave (km/s) = 3.11988 4.06006 3.62062
# Velocity P-wave (km/s) = 4.14277 5.98697 5.14812
#
# Compressibility (1/GPa) = 0.10458648
#
# Stress axis : x y z
#
# Youngs Moduli (GPa) = 16.63976 88.95708 66.46202
#
# Poissons Ratio (x) = -0.42000 -0.34382
# Poissons Ratio (y) = -0.07856 0.05275
# Poissons Ratio (z) = -0.08608 0.07060
#
# Static dielectric constant tensor:
#      x y z
#    x 1.864310 -0.006030 0.009870 
#    y -0.006030 1.902240 0.004730 
#    z 0.009870 0.004730 1.894000 
# 
# From -- ./inp_files/534517.got.cif
#   From: 2010.05.17/outbox.cif.g08.bks.cpg/sg2_268_cif.got.tgz:534517.got - 2010.06.03 11:33:40.
