data_PCOD9009325
_publ_section_title
;
Structure prediction by ZEFSAII (Michael W. Deem and Ramdas Pophale) SiO2 
 PCOD9009325
Probable space group: P -1
;
_chemical_formula_sum "Si O2"
_cell_formula_units_Z 14
_cell_length_a 8.428349
_cell_length_b 9.884390
_cell_length_c 17.226274
_cell_angle_alpha 134.396358
_cell_angle_beta 32.674266
_cell_angle_gamma 127.241487
_cell_volume 553.086100
_symmetry_space_group_name_H-M "P -1"
_symmetry_group_IT_number 2
_symmetry_cell_setting 'triclinic'
loop_
_space_group_symop_operation_xyz
x,y,z
-x,-y,-z
loop_
_atom_site_type_symbol
_atom_site_label
_atom_site_fract_x
_atom_site_fract_y
_atom_site_fract_z
Si Si1 0.674356 0.959532 0.149185
Si Si2 0.362889 0.646752 0.057039
Si Si3 0.679044 0.243372 0.383146
Si Si4 0.777098 0.903294 0.810056
Si Si5 0.524528 0.341667 0.759562
Si Si6 0.215977 0.220320 0.683773
Si Si7 0.152173 0.384785 0.461314
O O1 0.488021 0.851136 0.115598
O O2 0.637369 0.809407 0.176175
O O3 0.594869 0.159469 0.300502
O O4 0.000000 0.000000 0.000000
O O5 0.012182 0.641505 0.205871
O O6 0.500000 0.500000 0.000000
O O7 0.457291 0.555157 0.900328
O O8 0.444040 0.143218 0.498165
O O9 0.009656 0.190551 0.250957
O O10 0.668056 0.463716 0.499023
O O11 0.693225 0.768148 0.716992
O O12 0.001395 0.061895 0.745712
O O13 0.500000 0.000000 0.000000
O O14 0.395409 0.317754 0.717977
O O15 0.873197 0.308630 0.597223
O O16 0.000000 0.500000 0.500000
#
# Coordination Sequence:
#
# PCOD9009325 Si02
#       7
#     2   2   2   2   2   2   2
#     4  11  24  44  70  97 148 200 232 290 354 437
#     4  10  26  44  66 105 149 187 239 293 370 428
#     4  11  23  45  70 105 149 187 243 291 364 428
#     4  11  24  38  67 112 145 180 231 306 358 413
#     4  11  21  43  73 105 143 186 244 296 355 422
#     4  12  23  41  77 105 138 190 245 302 363 416
#     4  10  21  39  68 106 151 175 229 305 363 407
#
# _framework density 25.312514
#
# number of rings (size 3 to 8) (size 9 to 14) (size 15 to 20)
#    0.000    1.143    4.286    2.571    6.000    1.714 
#    0.000    0.000    0.000    7.714    0.000    0.000 
#    0.000    0.000    0.000    0.000    0.000    0.000 
#
# Total GULP energy -78338.861464 kJ/mol
# GULP energy per Si atom -5595.632962 kJ/mol
# Density = 2.525490 g / cm^3
# Si number density = 25.312514 Si / 1000 Ang^3
#
#
#
# Elastic Constant Matrix: (Units=GPa)
#
#
# Indices 1 2 3 4 5 6 
#
# 1 69.9566 25.4991 41.3754 17.2938 21.6394 16.9357
# 2 25.4991 121.9463 65.4267 1.7861 14.2220 26.5332
# 3 41.3754 65.4267 208.3820 8.2131 28.0443 25.5297
# 4 17.2938 1.7861 8.2131 66.5054 12.3179 11.0221
# 5 21.6394 14.2220 28.0443 12.3179 53.7647 21.5806
# 6 16.9357 26.5332 25.5297 11.0221 21.5806 44.3677
#
#
#
# Elastic Compliance Matrix: (Units=1/GPa)
#
#
# Indices 1 2 3 4 5 6 
#
# 1 0.018954 -0.001790 -0.002239 -0.003474 -0.004449 -0.001849
# 2 -0.001790 0.010976 -0.002641 0.001164 0.000987 -0.005130
# 3 -0.002239 -0.002641 0.006335 0.000244 -0.001553 -0.000516
# 4 -0.003474 0.001164 0.000244 0.016664 -0.001727 -0.002811
# 5 -0.004449 0.000987 -0.001553 -0.001727 0.025299 -0.009874
# 6 -0.001849 -0.005130 -0.000516 -0.002811 -0.009874 0.032111
#
#
# Mechanical properties :
#
#
# Convention : Reuss Voigt Hill
#
# Bulk Modulus (GPa) = 43.62049 73.87638 58.74843
# Shear Modulus (GPa) = 38.07495 50.79313 44.43404
#
# Velocity S-wave (km/s) = 3.88260 4.48441 4.19432
# Velocity P-wave (km/s) = 6.11307 7.48748 6.83491
#
# Compressibility (1/GPa) = 0.02292501
#
# Stress axis : x y z
#
# Youngs Moduli (GPa) = 52.75958 91.11169 157.84405
#
# Poissons Ratio (x) = 0.16307 0.35345
# Poissons Ratio (y) = 0.09443 0.41685
# Poissons Ratio (z) = 0.11814 0.24061
#
# Static dielectric constant tensor:
#      x y z
#    x 2.018000 -0.072050 0.023310 
#    y -0.072050 2.081280 0.071160 
#    z 0.023310 0.071160 2.187990 
# 
# From -- ./inp_files/559982.got.cif
#   From: 2010.05.17/outbox.cif.g08.bks.cpg/sg2_280_cif.got.tgz:559982.got - 2010.06.03 11:33:40.
