data_PCOD9009118
_publ_section_title
;
Structure prediction by ZEFSAII (Michael W. Deem and Ramdas Pophale) SiO2 
 PCOD9009118
Probable space group: P -1
;
_chemical_formula_sum "Si O2"
_cell_formula_units_Z 12
_cell_length_a 9.373070
_cell_length_b 11.958694
_cell_length_c 9.914573
_cell_angle_alpha 135.912878
_cell_angle_beta 133.928517
_cell_angle_gamma 39.295837
_cell_volume 465.093609
_symmetry_space_group_name_H-M "P -1"
_symmetry_group_IT_number 2
_symmetry_cell_setting 'triclinic'
loop_
_space_group_symop_operation_xyz
x,y,z
-x,-y,-z
loop_
_atom_site_type_symbol
_atom_site_label
_atom_site_fract_x
_atom_site_fract_y
_atom_site_fract_z
Si Si1 0.561870 0.968880 0.331993
Si Si2 0.843867 0.721473 0.039696
Si Si3 0.981935 0.015985 0.663193
Si Si4 0.393312 0.600662 0.663307
Si Si5 0.184057 0.356706 0.322529
Si Si6 0.632311 0.583037 0.082191
O O1 0.684035 0.862813 0.176671
O O2 0.746587 0.021804 0.550289
O O3 0.306606 0.164949 0.323480
O O4 0.544846 0.803373 0.245963
O O5 0.993759 0.804304 0.147249
O O6 0.699711 0.722362 0.818326
O O7 0.000000 0.500000 0.000000
O O8 0.200966 0.825211 0.707314
O O9 0.000000 0.000000 0.500000
O O10 0.500000 0.500000 0.500000
O O11 0.258351 0.500696 0.540066
O O12 0.568841 0.576182 0.876422
O O13 0.905376 0.471033 0.212705
O O14 0.500000 0.500000 0.000000
#
# Coordination Sequence:
#
# PCOD9009118 Si02
#       6
#     2   2   2   2   2   2
#     4  11  23  43  69 107 146 191 243 303 367 446
#     4  11  20  38  68 106 148 183 232 304 372 431
#     4  10  21  39  67 112 149 183 235 302 373 436
#     4  12  25  45  78 111 145 191 243 310 375 435
#     4  12  25  43  73 105 147 193 246 303 369 435
#     4  12  29  51  72 103 152 202 251 301 360 438
#
# _framework density 25.801258000000001
#
# number of rings (size 3 to 8) (size 9 to 14) (size 15 to 20)
#    0.000    0.667    3.333    5.500    7.000    1.333 
#    0.000    0.833    0.000    0.000    0.000    0.000 
#    0.000    0.000    0.000    0.000    0.000    0.000 
#
# Total GULP energy -67164.308310 kJ/mol
# GULP energy per Si atom -5597.025693 kJ/mol
# Density = 2.574253 g / cm^3
# Si number density = 25.801258 Si / 1000 Ang^3
#
#
#
# Elastic Constant Matrix: (Units=GPa)
#
#
# Indices 1 2 3 4 5 6 
#
# 1 107.6066 52.0339 56.2163 -3.4431 9.6241 9.0541
# 2 52.0339 276.0112 98.6159 11.0235 34.5475 22.6089
# 3 56.2163 98.6159 205.8252 7.9699 53.0373 8.1626
# 4 -3.4431 11.0235 7.9699 53.5394 12.3507 17.1302
# 5 9.6241 34.5475 53.0373 12.3507 52.6725 8.7988
# 6 9.0541 22.6089 8.1626 17.1302 8.7988 24.9073
#
#
#
# Elastic Compliance Matrix: (Units=1/GPa)
#
#
# Indices 1 2 3 4 5 6 
#
# 1 0.011722 -0.001058 -0.003083 0.002495 0.001850 -0.004660
# 2 -0.001058 0.004787 -0.001683 0.000488 -0.000787 -0.003466
# 3 -0.003083 -0.001683 0.008210 -0.000309 -0.006967 0.002632
# 4 0.002495 0.000488 -0.000309 0.025118 -0.003465 -0.017300
# 5 0.001850 -0.000787 -0.006967 -0.003465 0.027847 -0.005130
# 6 -0.004660 -0.003466 0.002632 -0.017300 -0.005130 0.057837
#
#
# Mechanical properties :
#
#
# Convention : Reuss Voigt Hill
#
# Bulk Modulus (GPa) = 76.51162 111.46392 93.98777
# Shear Modulus (GPa) = 32.99765 51.72897 42.36331
#
# Velocity S-wave (km/s) = 3.58007 4.48247 4.05644
# Velocity P-wave (km/s) = 6.84163 8.37167 7.64502
#
# Compressibility (1/GPa) = 0.01306991
#
# Stress axis : x y z
#
# Youngs Moduli (GPa) = 85.31127 208.90821 121.80485
#
# Poissons Ratio (x) = 0.22096 0.37556
# Poissons Ratio (y) = 0.09023 0.20503
# Poissons Ratio (z) = 0.26304 0.35165
#
# Static dielectric constant tensor:
#      x y z
#    x 2.157270 -0.005320 -0.027100 
#    y -0.005320 1.985550 0.006120 
#    z -0.027100 0.006120 1.980940 
# 
# From -- ./inp_files/521975.got.cif
#   From: 2010.05.17/outbox.cif.g08.bks.cpg/sg2_261_cif.got.tgz:521975.got - 2010.06.03 11:33:40.
