data_PCOD9009358
_publ_section_title
;
Structure prediction by ZEFSAII (Michael W. Deem and Ramdas Pophale) SiO2 
 PCOD9009358
Probable space group: P -1
;
_chemical_formula_sum "Si O2"
_cell_formula_units_Z 16
_cell_length_a 13.180951
_cell_length_b 8.303177
_cell_length_c 9.821611
_cell_angle_alpha 114.025361
_cell_angle_beta 72.309208
_cell_angle_gamma 58.619101
_cell_volume 628.515407
_symmetry_space_group_name_H-M "P -1"
_symmetry_group_IT_number 2
_symmetry_cell_setting 'triclinic'
loop_
_space_group_symop_operation_xyz
x,y,z
-x,-y,-z
loop_
_atom_site_type_symbol
_atom_site_label
_atom_site_fract_x
_atom_site_fract_y
_atom_site_fract_z
Si Si1 0.385085 0.404414 0.435150
Si Si2 0.944165 0.023049 0.313515
Si Si3 0.731151 0.801766 0.721195
Si Si4 0.056523 0.208186 0.007016
Si Si5 0.560010 0.691848 0.300921
Si Si6 0.755177 0.783592 0.282073
Si Si7 0.344894 0.795759 0.932082
Si Si8 0.985358 0.732505 0.451870
O O1 0.236177 0.696924 0.541487
O O2 0.363934 0.231885 0.329719
O O3 0.386540 0.403056 0.596423
O O4 0.540493 0.301243 0.274459
O O5 0.024320 0.091203 0.377782
O O6 0.998533 0.886831 0.097781
O O7 0.959202 0.845123 0.352987
O O8 0.857396 0.749364 0.558866
O O9 0.840981 0.566206 0.706447
O O10 0.629853 0.078875 0.927817
O O11 0.165242 0.192381 0.856104
O O12 0.166396 0.026321 0.026221
O O13 0.899166 0.510875 0.207196
O O14 0.652233 0.754789 0.242196
O O15 0.608526 0.455592 0.122329
O O16 0.373062 0.958397 0.483996
#
# Coordination Sequence:
#
# PCOD9009358 Si02
#       8
#     2   2   2   2   2   2   2   2
#     4  11  22  43  64  94 129 181 214 266 335 390
#     4  10  21  39  68  93 130 172 219 265 327 390
#     4  10  24  41  66  93 131 172 219 268 327 387
#     4  11  23  40  68 102 132 165 223 269 330 382
#     4  11  23  44  67  94 138 171 219 267 331 392
#     4  10  25  40  62 102 129 175 206 278 331 382
#     4  12  24  43  66  98 132 171 220 271 323 394
#     4   9  22  43  63  94 131 172 216 270 325 388
#
# _framework density 25.456814000000001
#
# number of rings (size 3 to 8) (size 9 to 14) (size 15 to 20)
#    0.000    1.500    2.500    1.500    7.000    2.500 
#    0.000    0.625    0.000    0.000    0.000    0.000 
#    0.000    0.000    0.000    0.000    0.000    0.000 
#
# Total GULP energy -89764.127543 kJ/mol
# GULP energy per Si atom -5610.257971 kJ/mol
# Density = 2.539887 g / cm^3
# Si number density = 25.456814 Si / 1000 Ang^3
#
#
#
# Elastic Constant Matrix: (Units=GPa)
#
#
# Indices 1 2 3 4 5 6 
#
# 1 113.5873 45.1460 32.2805 12.7934 12.6250 16.6163
# 2 45.1460 100.0092 35.6073 20.2034 -0.6855 -9.6838
# 3 32.2805 35.6073 104.4111 30.8420 20.3018 1.8265
# 4 12.7934 20.2034 30.8420 47.7001 5.2554 -1.6091
# 5 12.6250 -0.6855 20.3018 5.2554 55.3852 7.1334
# 6 16.6163 -9.6838 1.8265 -1.6091 7.1334 42.9273
#
#
#
# Elastic Compliance Matrix: (Units=1/GPa)
#
#
# Indices 1 2 3 4 5 6 
#
# 1 0.012522 -0.005687 -0.001520 0.000016 -0.001623 -0.005795
# 2 -0.005687 0.014702 -0.002914 -0.002880 0.002153 0.005176
# 3 -0.001520 -0.002914 0.013875 -0.006887 -0.004092 -0.000238
# 4 0.000016 -0.002880 -0.006887 0.026669 -0.000130 0.000658
# 5 -0.001623 0.002153 -0.004092 -0.000130 0.020232 -0.002079
# 6 -0.005795 0.005176 -0.000238 0.000658 -0.002079 0.027086
#
#
# Mechanical properties :
#
#
# Convention : Reuss Voigt Hill
#
# Bulk Modulus (GPa) = 47.94486 60.45280 54.19883
# Shear Modulus (GPa) = 35.14167 42.86745 39.00456
#
# Velocity S-wave (km/s) = 3.71946 4.10802 3.91856
# Velocity P-wave (km/s) = 6.10905 6.80440 6.46608
#
# Compressibility (1/GPa) = 0.02085729
#
# Stress axis : x y z
#
# Youngs Moduli (GPa) = 79.85626 68.01952 72.07124
#
# Poissons Ratio (x) = 0.38685 0.10954
# Poissons Ratio (y) = 0.45417 0.21000
# Poissons Ratio (z) = 0.12137 0.19820
#
# Static dielectric constant tensor:
#      x y z
#    x 2.008640 0.009720 0.036790 
#    y 0.009720 1.989130 0.029580 
#    z 0.036790 0.029580 1.982880 
# 
# From -- ./inp_files/448042.got.cif
#   From: 2010.05.17/outbox.cif.g08.bks.cpg/sg2_225_cif.got.tgz:448042.got - 2010.06.03 11:33:40.
