data_PCOD9009957
_publ_section_title
;
Structure prediction by ZEFSAII (Michael W. Deem and Ramdas Pophale) SiO2 
 PCOD9009957
Probable space group: P -1
;
_chemical_formula_sum "Si O2"
_cell_formula_units_Z 12
_cell_length_a 6.730141
_cell_length_b 15.517928
_cell_length_c 5.339760
_cell_angle_alpha 73.366706
_cell_angle_beta 70.100618
_cell_angle_gamma 84.770178
_cell_volume 502.421415
_symmetry_space_group_name_H-M "P -1"
_symmetry_group_IT_number 2
_symmetry_cell_setting 'triclinic'
loop_
_space_group_symop_operation_xyz
x,y,z
-x,-y,-z
loop_
_atom_site_type_symbol
_atom_site_label
_atom_site_fract_x
_atom_site_fract_y
_atom_site_fract_z
Si Si1 0.961139 0.850231 0.897873
Si Si2 0.397424 0.849966 0.618475
Si Si3 0.884919 0.296913 0.679593
Si Si4 0.418975 0.278140 0.998610
Si Si5 0.309561 0.012500 0.885890
Si Si6 0.044306 0.395902 0.029586
O O1 0.889389 0.951586 0.904016
O O2 0.015840 0.794098 0.173398
O O3 0.749653 0.799785 0.932259
O O4 0.157144 0.838858 0.627758
O O5 0.487966 0.754935 0.747605
O O6 0.597016 0.904522 0.383747
O O7 0.314629 0.919741 0.811215
O O8 0.976439 0.342311 0.354734
O O9 0.636290 0.280623 0.752222
O O10 0.931290 0.361532 0.850567
O O11 0.291997 0.369231 0.935545
O O12 0.500000 0.000000 0.000000
O O13 0.000000 0.500000 0.000000
#
# Coordination Sequence:
#
# PCOD9009957 Si02
#       6
#     2   2   2   2   2   2
#     4  10  21  40  61  87 120 164 207 253 306 369
#     4  10  22  39  57  86 117 162 208 255 309 364
#     4  10  24  42  67  95 128 167 205 255 313 372
#     4  10  22  42  63  90 124 165 208 255 313 375
#     4  11  21  37  58  84 121 157 207 260 308 359
#     4  11  24  43  68  98 127 162 207 256 313 376
#
# _framework density 23.884331
#
# number of rings (size 3 to 8) (size 9 to 14) (size 15 to 20)
#    0.000    1.667    1.667    2.000    0.000    8.667 
#    3.000    0.000    0.000    0.000    0.000    0.000 
#    0.000    0.000    0.000    0.000    0.000    0.000 
#
# Total GULP energy -66903.017865 kJ/mol
# GULP energy per Si atom -5575.251489 kJ/mol
# Density = 2.382997 g / cm^3
# Si number density = 23.884331 Si / 1000 Ang^3
#
#
#
# Elastic Constant Matrix: (Units=GPa)
#
#
# Indices 1 2 3 4 5 6 
#
# 1 114.9105 19.3601 2.4700 14.2664 -3.0639 -21.3556
# 2 19.3601 116.8803 -4.3946 -2.7874 7.2219 -18.6376
# 3 2.4700 -4.3946 70.2979 4.7744 4.0607 7.1773
# 4 14.2664 -2.7874 4.7744 26.5058 0.2165 3.4437
# 5 -3.0639 7.2219 4.0607 0.2165 24.1439 3.5267
# 6 -21.3556 -18.6376 7.1773 3.4437 3.5267 37.8815
#
#
#
# Elastic Compliance Matrix: (Units=1/GPa)
#
#
# Indices 1 2 3 4 5 6 
#
# 1 0.010919 -0.001051 -0.000692 -0.006687 0.000958 0.006289
# 2 -0.001051 0.009694 0.000346 0.000985 -0.003738 0.004370
# 3 -0.000692 0.000346 0.014801 -0.001895 -0.002278 -0.002640
# 4 -0.006687 0.000985 -0.001895 0.042655 -0.000216 -0.006784
# 5 0.000958 -0.003738 -0.002278 -0.000216 0.043762 -0.004922
# 6 0.006289 0.004370 -0.002640 -0.006784 -0.004922 0.033669
#
#
# Mechanical properties :
#
#
# Convention : Reuss Voigt Hill
#
# Bulk Modulus (GPa) = 30.65659 37.43997 34.04828
# Shear Modulus (GPa) = 29.55651 36.68312 33.11981
#
# Velocity S-wave (km/s) = 3.52161 3.92326 3.72785
# Velocity P-wave (km/s) = 5.42208 6.01932 5.72849
#
# Compressibility (1/GPa) = 0.03261942
#
# Stress axis : x y z
#
# Youngs Moduli (GPa) = 91.58501 103.15527 67.56301
#
# Poissons Ratio (x) = 0.10837 0.04679
# Poissons Ratio (y) = 0.09621 -0.02336
# Poissons Ratio (z) = 0.06342 -0.03567
#
# Static dielectric constant tensor:
#      x y z
#    x 2.117580 0.090260 0.038750 
#    y 0.090260 1.913850 0.113750 
#    z 0.038750 0.113750 1.758580 
# 
# From -- ./inp_files/3165.got.cif
#   From: 2010.05.17/outbox.cif.g08.bks.cpg/sg2_2_cif.got.tgz:3165.got - 2010.06.03 11:33:40.
