data_PCOD9009898
_publ_section_title
;
Structure prediction by ZEFSAII (Michael W. Deem and Ramdas Pophale) SiO2 
 PCOD9009898
Probable space group: P -1
;
_chemical_formula_sum "Si O2"
_cell_formula_units_Z 14
_cell_length_a 7.955652
_cell_length_b 14.507860
_cell_length_c 12.393144
_cell_angle_alpha 152.810009
_cell_angle_beta 109.511764
_cell_angle_gamma 78.788740
_cell_volume 598.321740
_symmetry_space_group_name_H-M "P -1"
_symmetry_group_IT_number 2
_symmetry_cell_setting 'triclinic'
loop_
_space_group_symop_operation_xyz
x,y,z
-x,-y,-z
loop_
_atom_site_type_symbol
_atom_site_label
_atom_site_fract_x
_atom_site_fract_y
_atom_site_fract_z
Si Si1 0.855227 0.283146 0.377387
Si Si2 0.988740 0.949402 0.650913
Si Si3 0.959963 0.772919 0.866313
Si Si4 0.566439 0.191072 0.628834
Si Si5 0.542276 0.745474 0.781707
Si Si6 0.284916 0.368720 0.858807
Si Si7 0.366807 0.154154 0.859703
O O1 0.946249 0.216826 0.433728
O O2 0.911371 0.532618 0.640515
O O3 0.634161 0.197226 0.251013
O O4 0.942083 0.211318 0.212047
O O5 0.889052 0.820035 0.394211
O O6 0.158263 0.116976 0.814360
O O7 0.913243 0.084273 0.866573
O O8 0.756465 0.824813 0.875042
O O9 0.404720 0.312916 0.725950
O O10 0.500000 0.000000 0.500000
O O11 0.603075 0.066387 0.403503
O O12 0.731717 0.393530 0.900302
O O13 0.500000 0.500000 0.500000
O O14 0.518535 0.775423 0.935721
O O15 0.383009 0.316062 0.934091
#
# Coordination Sequence:
#
# PCOD9009898 Si02
#       7
#     2   2   2   2   2   2   2
#     4  10  21  40  60  92 127 172 217 262 322 370
#     4  11  23  38  62  94 126 165 212 264 316 383
#     4   9  21  40  58  91 128 169 215 266 317 377
#     4   9  21  42  61  89 122 162 215 254 317 379
#     4   9  20  40  63  91 126 169 212 267 310 382
#     4  10  22  42  61  93 126 163 210 264 314 382
#     4  10  22  39  63  91 126 168 208 257 323 377
#
# _framework density 23.398782000000001
#
# number of rings (size 3 to 8) (size 9 to 14) (size 15 to 20)
#    0.000    2.286    0.000    0.857    2.000    8.571 
#   23.143    0.000    0.000    0.000    0.000    0.000 
#    0.000    0.000    0.000    0.000    0.000    0.000 
#
# Total GULP energy -77999.538141 kJ/mol
# GULP energy per Si atom -5571.395582 kJ/mol
# Density = 2.334553 g / cm^3
# Si number density = 23.398782 Si / 1000 Ang^3
#
#
#
# Elastic Constant Matrix: (Units=GPa)
#
#
# Indices 1 2 3 4 5 6 
#
# 1 43.1694 12.1615 9.1201 5.5649 -21.1375 5.6858
# 2 12.1615 83.5788 30.8408 9.0706 -9.6535 6.4629
# 3 9.1201 30.8408 150.1657 4.5826 -26.7325 -1.6906
# 4 5.5649 9.0706 4.5826 38.0627 5.1014 0.6245
# 5 -21.1375 -9.6535 -26.7325 5.1014 39.8922 5.2138
# 6 5.6858 6.4629 -1.6906 0.6245 5.2138 24.8645
#
#
#
# Elastic Compliance Matrix: (Units=1/GPa)
#
#
# Indices 1 2 3 4 5 6 
#
# 1 0.037582 -0.001712 0.002429 -0.008368 0.023867 -0.012778
# 2 -0.001712 0.013899 -0.002399 -0.002941 0.001704 -0.003668
# 3 0.002429 -0.002399 0.008204 -0.001632 0.006504 -0.000697
# 4 -0.008368 -0.002941 -0.001632 0.029744 -0.010570 0.004037
# 5 0.023867 0.001704 0.006504 -0.010570 0.045770 -0.014790
# 6 -0.012778 -0.003668 -0.000697 0.004037 -0.014790 0.047046
#
#
# Mechanical properties :
#
#
# Convention : Reuss Voigt Hill
#
# Bulk Modulus (GPa) = 17.75494 42.35098 30.05296
# Shear Modulus (GPa) = 24.46417 35.54999 30.00708
#
# Velocity S-wave (km/s) = 3.23698 3.90206 3.58498
# Velocity P-wave (km/s) = 4.64490 6.20003 5.47793
#
# Compressibility (1/GPa) = 0.05632234
#
# Stress axis : x y z
#
# Youngs Moduli (GPa) = 26.60871 71.94949 121.88795
#
# Poissons Ratio (x) = 0.12318 -0.29613
# Poissons Ratio (y) = 0.04555 0.29236
# Poissons Ratio (z) = -0.06465 0.17258
#
# Static dielectric constant tensor:
#      x y z
#    x 2.075410 0.033400 0.103530 
#    y 0.033400 1.925700 0.037800 
#    z 0.103530 0.037800 1.995210 
# 
# From -- ./inp_files/400141.got.cif
#   From: 2010.05.17/outbox.cif.g08.bks.cpg/sg2_201_cif.got.tgz:400141.got - 2010.06.03 11:33:40.
