data_PCOD9009758
_publ_section_title
;
Structure prediction by ZEFSAII (Michael W. Deem and Ramdas Pophale) SiO2 
 PCOD9009758
Probable space group: P -1
;
_chemical_formula_sum "Si O2"
_cell_formula_units_Z 16
_cell_length_a 15.848353
_cell_length_b 8.534146
_cell_length_c 18.105966
_cell_angle_alpha 125.934462
_cell_angle_beta 156.742768
_cell_angle_gamma 65.488466
_cell_volume 721.346784
_symmetry_space_group_name_H-M "P -1"
_symmetry_group_IT_number 2
_symmetry_cell_setting 'triclinic'
loop_
_space_group_symop_operation_xyz
x,y,z
-x,-y,-z
loop_
_atom_site_type_symbol
_atom_site_label
_atom_site_fract_x
_atom_site_fract_y
_atom_site_fract_z
Si Si1 0.931085 0.899887 0.575149
Si Si2 0.629021 0.745170 0.982811
Si Si3 0.591351 0.569623 0.509890
Si Si4 0.197505 0.518566 0.061112
Si Si5 0.890763 0.497520 0.493502
Si Si6 0.752100 0.646869 0.213850
Si Si7 0.273925 0.782122 0.446450
Si Si8 0.661617 0.007331 0.702129
O O1 0.842644 0.709235 0.509533
O O2 0.876255 0.812117 0.423942
O O3 0.808436 0.060593 0.532216
O O4 0.203081 0.025378 0.845677
O O5 0.694322 0.573077 0.943214
O O6 0.356667 0.688885 0.745679
O O7 0.708660 0.739841 0.129118
O O8 0.500000 0.500000 0.500000
O O9 0.369733 0.536053 0.271790
O O10 0.696030 0.396848 0.527644
O O11 0.750003 0.819072 0.705122
O O12 0.189593 0.745405 0.101634
O O13 0.937328 0.348043 0.814621
O O14 0.000000 0.500000 0.500000
O O15 0.083051 0.482387 0.698632
O O16 0.500000 0.500000 0.000000
O O17 0.499328 0.919515 0.619016
O O18 0.500000 0.000000 0.500000
#
# Coordination Sequence:
#
# PCOD9009758 Si02
#       8
#     2   2   2   2   2   2   2   2
#     4  10  22  40  61  88 121 167 204 254 308 350
#     4  11  22  40  61  91 122 160 210 251 302 358
#     4   9  20  39  61  90 120 155 196 244 298 366
#     4  10  22  39  61  90 121 159 200 250 300 355
#     4  10  21  40  59  82 121 157 202 256 300 354
#     4  11  22  41  61  88 122 164 206 251 303 362
#     4  10  21  40  60  86 127 156 200 251 300 352
#     4   9  19  36  61  88 118 157 194 243 298 361
#
# _framework density 22.180731999999999
#
# number of rings (size 3 to 8) (size 9 to 14) (size 15 to 20)
#    0.000    2.000    2.500    1.125    0.000    9.000 
#    6.750    3.750    0.000    0.000    0.000    0.000 
#    0.000    0.000    0.000    0.000    0.000    0.000 
#
# Total GULP energy -89296.363852 kJ/mol
# GULP energy per Si atom -5581.022741 kJ/mol
# Density = 2.213025 g / cm^3
# Si number density = 22.180732 Si / 1000 Ang^3
#
#
#
# Elastic Constant Matrix: (Units=GPa)
#
#
# Indices 1 2 3 4 5 6 
#
# 1 34.2392 17.1465 13.8063 6.3497 -1.7300 -6.1480
# 2 17.1465 118.5785 34.2959 0.7136 -12.9624 -13.7969
# 3 13.8063 34.2959 75.8377 -6.7683 -0.8544 4.3729
# 4 6.3497 0.7136 -6.7683 39.6000 -3.7257 -0.7946
# 5 -1.7300 -12.9624 -0.8544 -3.7257 26.8018 -0.9302
# 6 -6.1480 -13.7969 4.3729 -0.7946 -0.9302 26.0362
#
#
#
# Elastic Compliance Matrix: (Units=1/GPa)
#
#
# Indices 1 2 3 4 5 6 
#
# 1 0.035668 -0.002239 -0.006535 -0.006597 0.000377 0.008146
# 2 -0.002239 0.011645 -0.005191 -0.000082 0.005544 0.006710
# 3 -0.006535 -0.005191 0.017451 0.003782 -0.002099 -0.007184
# 4 -0.006597 -0.000082 0.003782 0.027252 0.003399 -0.001283
# 5 0.000377 0.005544 -0.002099 0.003399 0.040593 0.004933
# 6 0.008146 0.006710 -0.007184 -0.001283 0.004933 0.045231
#
#
# Mechanical properties :
#
#
# Convention : Reuss Voigt Hill
#
# Bulk Modulus (GPa) = 27.14774 39.90587 33.52680
# Shear Modulus (GPa) = 22.93077 29.38138 26.15608
#
# Velocity S-wave (km/s) = 3.21879 3.64350 3.43771
# Velocity P-wave (km/s) = 5.10686 5.97749 5.55925
#
# Compressibility (1/GPa) = 0.03683548
#
# Stress axis : x y z
#
# Youngs Moduli (GPa) = 28.03665 85.87101 57.30261
#
# Poissons Ratio (x) = 0.19225 0.37448
# Poissons Ratio (y) = 0.06277 0.29743
# Poissons Ratio (z) = 0.18322 0.44571
#
# Static dielectric constant tensor:
#      x y z
#    x 1.864010 -0.066230 0.025260 
#    y -0.066230 1.928520 0.018350 
#    z 0.025260 0.018350 1.822330 
# 
# From -- ./inp_files/599576.got.cif
#   From: 2010.05.17/outbox.cif.g08.bks.cpg/sg2_300_cif.got.tgz:599576.got - 2010.06.03 11:33:40.
