data_PCOD9009232
_publ_section_title
;
Structure prediction by ZEFSAII (Michael W. Deem and Ramdas Pophale) SiO2 
 PCOD9009232
Probable space group: P -1
;
_chemical_formula_sum "Si O2"
_cell_formula_units_Z 10
_cell_length_a 10.961213
_cell_length_b 10.508437
_cell_length_c 13.053907
_cell_angle_alpha 157.362326
_cell_angle_beta 130.081474
_cell_angle_gamma 57.095328
_cell_volume 436.117750
_symmetry_space_group_name_H-M "P -1"
_symmetry_group_IT_number 2
_symmetry_cell_setting 'triclinic'
loop_
_space_group_symop_operation_xyz
x,y,z
-x,-y,-z
loop_
_atom_site_type_symbol
_atom_site_label
_atom_site_fract_x
_atom_site_fract_y
_atom_site_fract_z
Si Si1 0.582111 0.809328 0.205084
Si Si2 0.893156 0.237015 0.673097
Si Si3 0.696371 0.590753 0.660044
Si Si4 0.463197 0.287607 0.617195
Si Si5 0.815040 0.383377 0.346969
O O1 0.756299 0.976022 0.463044
O O2 0.479407 0.105977 0.383238
O O3 0.500000 0.500000 0.000000
O O4 0.585338 0.633774 0.965634
O O5 0.789474 0.416924 0.670397
O O6 0.000000 0.000000 0.500000
O O7 0.000000 0.500000 0.000000
O O8 0.500000 0.500000 0.500000
O O9 0.765081 0.460553 0.493925
O O10 0.756448 0.990196 0.001803
O O11 0.291551 0.398304 0.614828
O O12 0.500000 0.000000 0.500000
O O13 0.000000 0.500000 0.500000
#
# Coordination Sequence:
#
# PCOD9009232 Si02
#       5
#     2   2   2   2   2
#     4  10  22  41  67  97 131 176 230 286 343 415
#     4  12  26  45  70 105 141 181 236 301 358 417
#     4  12  27  48  72 102 147 196 235 289 369 441
#     4  10  21  39  67  97 130 175 231 285 340 412
#     4  12  26  45  70 105 143 186 240 301 358 419
#
# _framework density 22.929587000000001
#
# number of rings (size 3 to 8) (size 9 to 14) (size 15 to 20)
#    0.000    0.800    0.000    7.200    0.000    9.600 
#    0.000    0.000    0.000    0.000    0.000    0.000 
#    0.000    0.000    0.000    0.000    0.000    0.000 
#
# Total GULP energy -55838.092778 kJ/mol
# GULP energy per Si atom -5583.809278 kJ/mol
# Density = 2.287740 g / cm^3
# Si number density = 22.929587 Si / 1000 Ang^3
#
#
#
# Elastic Constant Matrix: (Units=GPa)
#
#
# Indices 1 2 3 4 5 6 
#
# 1 163.1175 68.9180 122.6521 2.3099 6.0638 -18.8699
# 2 68.9180 171.0818 71.4317 -3.5349 9.2572 -15.3145
# 3 122.6521 71.4317 262.1911 -0.7692 -12.5284 -26.3543
# 4 2.3099 -3.5349 -0.7692 36.4099 -8.7251 -5.5122
# 5 6.0638 9.2572 -12.5284 -8.7251 64.2295 -2.3639
# 6 -18.8699 -15.3145 -26.3543 -5.5122 -2.3639 48.4528
#
#
#
# Elastic Compliance Matrix: (Units=1/GPa)
#
#
# Indices 1 2 3 4 5 6 
#
# 1 0.010497 -0.002305 -0.004283 -0.001250 -0.001634 0.000808
# 2 -0.002305 0.007277 -0.000843 0.000780 -0.000853 0.000991
# 3 -0.004283 -0.000843 0.006317 0.001054 0.001964 0.001717
# 4 -0.001250 0.000780 0.001054 0.029266 0.004329 0.003874
# 5 -0.001634 -0.000853 0.001964 0.004329 0.016872 0.001478
# 6 0.000808 0.000991 0.001717 0.003874 0.001478 0.022713
#
#
# Mechanical properties :
#
#
# Convention : Reuss Voigt Hill
#
# Bulk Modulus (GPa) = 108.36530 124.71045 116.53788
# Shear Modulus (GPa) = 45.09366 52.04436 48.56901
#
# Velocity S-wave (km/s) = 4.43946 4.76935 4.60736
# Velocity P-wave (km/s) = 8.58144 9.21062 8.90159
#
# Compressibility (1/GPa) = 0.00922805
#
# Stress axis : x y z
#
# Youngs Moduli (GPa) = 95.26637 137.42352 158.31001
#
# Poissons Ratio (x) = 0.31681 0.67802
# Poissons Ratio (y) = 0.21962 0.13344
# Poissons Ratio (z) = 0.40801 0.11584
#
# Static dielectric constant tensor:
#      x y z
#    x 2.257850 -0.029810 -0.054770 
#    y -0.029810 2.123180 -0.134760 
#    z -0.054770 -0.134760 1.938980 
# 
# From -- ./inp_files/44964.got.cif
#   From: 2010.05.17/outbox.cif.g08.bks.cpg/sg2_23_cif.got.tgz:44964.got - 2010.06.03 11:33:40.
