data_PCOD9009244
_publ_section_title
;
Structure prediction by ZEFSAII (Michael W. Deem and Ramdas Pophale) SiO2 
 PCOD9009244
Probable space group: P -1
;
_chemical_formula_sum "Si O2"
_cell_formula_units_Z 16
_cell_length_a 22.021024
_cell_length_b 5.019011
_cell_length_c 8.284801
_cell_angle_alpha 99.504730
_cell_angle_beta 134.157650
_cell_angle_gamma 76.836709
_cell_volume 639.635091
_symmetry_space_group_name_H-M "P -1"
_symmetry_group_IT_number 2
_symmetry_cell_setting 'triclinic'
loop_
_space_group_symop_operation_xyz
x,y,z
-x,-y,-z
loop_
_atom_site_type_symbol
_atom_site_label
_atom_site_fract_x
_atom_site_fract_y
_atom_site_fract_z
Si Si1 0.598124 0.823725 0.480619
Si Si2 0.563297 0.301477 0.712776
Si Si3 0.779153 0.009810 0.375164
Si Si4 0.888795 0.098664 0.993605
Si Si5 0.699029 0.228904 0.557149
Si Si6 0.935378 0.230491 0.768926
Si Si7 0.914215 0.391919 0.378294
Si Si8 0.737179 0.488659 0.125206
O O1 0.597027 0.013144 0.658252
O O2 0.500919 0.765293 0.272520
O O3 0.660379 0.533120 0.572652
O O4 0.631120 0.024597 0.434169
O O5 0.500000 0.500000 0.500000
O O6 0.640925 0.464842 0.902114
O O7 0.726577 0.223684 0.422588
O O8 0.877887 0.987185 0.607546
O O9 0.769029 0.176011 0.207633
O O10 0.739440 0.735651 0.278336
O O11 0.787366 0.097855 0.798024
O O12 0.902885 0.320835 0.899079
O O13 0.916498 0.140853 0.232794
O O14 0.963167 0.858487 0.048958
O O15 0.915747 0.379468 0.575273
O O16 0.818049 0.550056 0.172320
O O17 0.000000 0.500000 0.500000
#
# Coordination Sequence:
#
# PCOD9009244 Si02
#       8
#     2   2   2   2   2   2   2   2
#     4  11  24  42  69  98 135 169 228 301 346 416
#     4  11  25  45  71  96 137 178 230 295 362 426
#     4  10  23  44  68  96 142 183 230 286 361 424
#     4  10  21  39  67  97 138 194 238 286 367 412
#     4  11  23  43  69 102 135 182 236 294 346 431
#     4   9  21  42  63  97 144 188 237 297 346 431
#     4  11  23  38  65 104 142 181 240 298 349 429
#     4  11  25  43  69  99 135 187 228 286 366 422
#
# _framework density 25.014264000000001
#
# number of rings (size 3 to 8) (size 9 to 14) (size 15 to 20)
#    0.000    1.500    1.250    2.625    3.500    2.500 
#    0.000    6.250    0.000    0.000    0.000    0.000 
#    0.000    0.000    0.000    0.000    0.000    0.000 
#
# Total GULP energy -89107.014270 kJ/mol
# GULP energy per Si atom -5569.188392 kJ/mol
# Density = 2.495733 g / cm^3
# Si number density = 25.014264 Si / 1000 Ang^3
#
#
#
# Elastic Constant Matrix: (Units=GPa)
#
#
# Indices 1 2 3 4 5 6 
#
# 1 128.2151 42.5151 39.2519 7.1380 26.0167 5.1621
# 2 42.5151 122.3716 46.6325 19.4771 22.6173 6.5523
# 3 39.2519 46.6325 121.7834 9.9138 40.0427 10.9406
# 4 7.1380 19.4771 9.9138 26.7547 9.2177 5.4739
# 5 26.0167 22.6173 40.0427 9.2177 50.7800 -5.2664
# 6 5.1621 6.5523 10.9406 5.4739 -5.2664 36.0042
#
#
#
# Elastic Compliance Matrix: (Units=1/GPa)
#
#
# Indices 1 2 3 4 5 6 
#
# 1 0.009588 -0.002409 -0.001041 0.000985 -0.003327 -0.001256
# 2 -0.002409 0.011170 -0.002899 -0.006337 -0.000293 0.000114
# 3 -0.001041 -0.002899 0.012994 0.001761 -0.009249 -0.004892
# 4 0.000985 -0.006337 0.001761 0.045426 -0.008106 -0.007615
# 5 -0.003327 -0.000293 -0.009249 -0.008106 0.031241 0.009143
# 6 -0.001256 0.000114 -0.004892 -0.007615 0.009143 0.031916
#
#
# Mechanical properties :
#
#
# Convention : Reuss Voigt Hill
#
# Bulk Modulus (GPa) = 47.49572 69.90767 58.70170
# Shear Modulus (GPa) = 30.85470 38.97248 34.91359
#
# Velocity S-wave (km/s) = 3.51591 3.95145 3.74002
# Velocity P-wave (km/s) = 5.95910 6.98759 6.49374
#
# Compressibility (1/GPa) = 0.02105453
#
# Stress axis : x y z
#
# Youngs Moduli (GPa) = 104.29921 89.52494 76.95778
#
# Poissons Ratio (x) = 0.21565 0.08012
# Poissons Ratio (y) = 0.25124 0.22309
# Poissons Ratio (z) = 0.10859 0.25952
#
# Static dielectric constant tensor:
#      x y z
#    x 2.103210 0.006300 -0.049070 
#    y 0.006300 2.116720 -0.023990 
#    z -0.049070 -0.023990 2.084780 
# 
# From -- ./inp_files/339435.got.cif
#   From: 2010.05.17/outbox.cif.g08.bks.cpg/sg2_170_cif.got.tgz:339435.got - 2010.06.03 11:33:40.
