data_PCOD9009812
_publ_section_title
;
Structure prediction by ZEFSAII (Michael W. Deem and Ramdas Pophale) SiO2 
 PCOD9009812
Probable space group: P -1
;
_chemical_formula_sum "Si O2"
_cell_formula_units_Z 16
_cell_length_a 9.958315
_cell_length_b 16.826337
_cell_length_c 5.104058
_cell_angle_alpha 120.422410
_cell_angle_beta 72.451971
_cell_angle_gamma 105.243280
_cell_volume 696.822549
_symmetry_space_group_name_H-M "P -1"
_symmetry_group_IT_number 2
_symmetry_cell_setting 'triclinic'
loop_
_space_group_symop_operation_xyz
x,y,z
-x,-y,-z
loop_
_atom_site_type_symbol
_atom_site_label
_atom_site_fract_x
_atom_site_fract_y
_atom_site_fract_z
Si Si1 0.355502 0.428359 0.674671
Si Si2 0.385670 0.275044 0.036789
Si Si3 0.688019 0.010803 0.656301
Si Si4 0.136862 0.280511 0.845670
Si Si5 0.592056 0.900356 0.009119
Si Si6 0.382397 0.619862 0.215156
Si Si7 0.849863 0.277766 0.243446
Si Si8 0.121480 0.827304 0.435050
O O1 0.361824 0.379370 0.309022
O O2 0.502487 0.411513 0.702103
O O3 0.223815 0.366581 0.789564
O O4 0.343104 0.536057 0.893699
O O5 0.251664 0.236923 0.877138
O O6 0.397316 0.208568 0.164165
O O7 0.532189 0.289083 0.818084
O O8 0.567643 0.077189 0.906930
O O9 0.626796 0.940699 0.346013
O O10 0.823106 0.072243 0.548138
O O11 0.696200 0.953645 0.822473
O O12 0.016921 0.312067 0.161253
O O13 0.044491 0.207769 0.585213
O O14 0.244049 0.647067 0.479462
O O15 0.805650 0.240351 0.918284
O O16 0.842019 0.194908 0.325971
#
# Coordination Sequence:
#
# PCOD9009812 Si02
#       8
#     2   2   2   2   2   2   2   2
#     4  10  22  42  62  92 135 163 214 265 318 382
#     4  11  22  40  64  92 131 172 206 263 325 383
#     4  10  21  40  59  99 123 161 209 269 308 375
#     4   9  23  40  63  91 128 178 210 258 314 382
#     4  10  23  36  64  92 130 161 207 261 323 370
#     4  10  23  38  65  98 121 170 216 267 316 376
#     4  10  22  39  67  95 121 175 211 260 313 372
#     4  10  21  41  66  90 130 165 212 259 316 371
#
# _framework density 22.961369999999999
#
# number of rings (size 3 to 8) (size 9 to 14) (size 15 to 20)
#    0.750    1.250    0.000    2.625    7.000    1.500 
#    0.000    2.500    0.000    0.000    0.000    0.000 
#    0.000    0.000    0.000    0.000    0.000    0.000 
#
# Total GULP energy -89345.384485 kJ/mol
# GULP energy per Si atom -5584.086530 kJ/mol
# Density = 2.290911 g / cm^3
# Si number density = 22.961370 Si / 1000 Ang^3
#
#
#
# Elastic Constant Matrix: (Units=GPa)
#
#
# Indices 1 2 3 4 5 6 
#
# 1 72.1226 32.9472 11.2092 -4.1092 -10.9796 14.9446
# 2 32.9472 88.6699 -0.9148 -17.2571 -18.6718 18.8692
# 3 11.2092 -0.9148 59.3299 -12.8801 -8.9492 3.1705
# 4 -4.1092 -17.2571 -12.8801 39.2575 2.4586 -1.0913
# 5 -10.9796 -18.6718 -8.9492 2.4586 27.3103 -6.5192
# 6 14.9446 18.8692 3.1705 -1.0913 -6.5192 24.8034
#
#
#
# Elastic Compliance Matrix: (Units=1/GPa)
#
#
# Indices 1 2 3 4 5 6 
#
# 1 0.018323 -0.005722 -0.003499 -0.001979 0.001041 -0.006053
# 2 -0.005722 0.019004 0.005145 0.008603 0.009505 -0.008790
# 3 -0.003499 0.005145 0.020623 0.008126 0.007642 -0.002076
# 4 -0.001979 0.008603 0.008126 0.031354 0.003980 -0.003966
# 5 0.001041 0.009505 0.007642 0.003980 0.046531 0.003570
# 6 -0.006053 -0.008790 -0.002076 -0.003966 0.003570 0.051680
#
#
# Mechanical properties :
#
#
# Convention : Reuss Voigt Hill
#
# Bulk Modulus (GPa) = 20.08134 34.06726 27.07430
# Shear Modulus (GPa) = 23.55522 30.06630 26.81076
#
# Velocity S-wave (km/s) = 3.20638 3.62253 3.42079
# Velocity P-wave (km/s) = 4.74052 5.68911 5.23634
#
# Compressibility (1/GPa) = 0.04979746
#
# Stress axis : x y z
#
# Youngs Moduli (GPa) = 54.57572 52.62142 48.48957
#
# Poissons Ratio (x) = 0.30112 0.16967
# Poissons Ratio (y) = 0.31230 -0.24950
# Poissons Ratio (z) = 0.19097 -0.27076
#
# Static dielectric constant tensor:
#      x y z
#    x 1.835390 -0.004600 0.009070 
#    y -0.004600 1.880700 0.019480 
#    z 0.009070 0.019480 1.883880 
# 
# From -- ./inp_files/80908.got.cif
#   From: 2010.05.17/outbox.cif.g08.bks.cpg/sg2_41_cif.got.tgz:80908.got - 2010.06.03 11:33:40.
