data_PCOD9009578
_publ_section_title
;
Structure prediction by ZEFSAII (Michael W. Deem and Ramdas Pophale) SiO2 
 PCOD9009578
Probable space group: P -1
;
_chemical_formula_sum "Si O2"
_cell_formula_units_Z 16
_cell_length_a 25.220600
_cell_length_b 14.546300
_cell_length_c 16.033453
_cell_angle_alpha 25.879965
_cell_angle_beta 16.626910
_cell_angle_gamma 26.051302
_cell_volume 702.923745
_symmetry_space_group_name_H-M "P -1"
_symmetry_group_IT_number 2
_symmetry_cell_setting 'triclinic'
loop_
_space_group_symop_operation_xyz
x,y,z
-x,-y,-z
loop_
_atom_site_type_symbol
_atom_site_label
_atom_site_fract_x
_atom_site_fract_y
_atom_site_fract_z
Si Si1 0.621744 0.894452 0.243161
Si Si2 0.153410 0.027068 0.313300
Si Si3 0.024834 0.693539 0.866340
Si Si4 0.960025 0.764619 0.349948
Si Si5 0.348330 0.229903 0.065987
Si Si6 0.728783 0.734783 0.570063
Si Si7 0.918451 0.526116 0.862694
Si Si8 0.616428 0.435687 0.116421
O O1 0.809704 0.866407 0.040452
O O2 0.438066 0.102815 0.365036
O O3 0.677606 0.929886 0.033176
O O4 0.553157 0.677343 0.532886
O O5 0.056280 0.241236 0.337954
O O6 0.180772 0.811226 0.503040
O O7 0.000000 0.000000 0.500000
O O8 0.079357 0.604657 0.948798
O O9 0.000000 0.500000 0.000000
O O10 0.837115 0.833195 0.562972
O O11 0.821166 0.850515 0.410303
O O12 0.000000 0.500000 0.500000
O O13 0.181158 0.764450 0.016301
O O14 0.277700 0.392500 0.961549
O O15 0.400102 0.383507 0.933504
O O16 0.500000 0.000000 0.000000
O O17 0.910322 0.608222 0.344416
O O18 0.637145 0.563531 0.895979
#
# Coordination Sequence:
#
# PCOD9009578 Si02
#       8
#     2   2   2   2   2   2   2   2
#     4  11  25  41  71 101 126 190 232 266 346 407
#     4  10  24  46  67  94 130 180 231 283 342 394
#     4  11  25  45  70  95 131 177 234 282 343 399
#     4   8  16  40  62  91 140 177 213 261 343 388
#     4  10  21  39  70 110 136 180 228 276 334 410
#     4  10  22  40  68 101 139 178 220 278 338 404
#     4  12  22  44  72  98 138 180 221 284 349 386
#     4  10  21  44  69  98 145 175 224 276 340 415
#
# _framework density 22.762070999999999
#
# number of rings (size 3 to 8) (size 9 to 14) (size 15 to 20)
#    0.000    2.000    6.250    0.000    5.250    2.000 
#    0.000    6.250    0.000    0.000    0.000    0.000 
#    0.000    0.000    0.000    0.000    0.000    0.000 
#
# Total GULP energy -89323.895010 kJ/mol
# GULP energy per Si atom -5582.743438 kJ/mol
# Density = 2.271026 g / cm^3
# Si number density = 22.762071 Si / 1000 Ang^3
#
#
#
# Elastic Constant Matrix: (Units=GPa)
#
#
# Indices 1 2 3 4 5 6 
#
# 1 90.0192 29.2416 30.7837 4.1959 25.1068 -28.6768
# 2 29.2416 88.4823 40.6457 3.9047 15.2373 -37.2985
# 3 30.7837 40.6457 106.9340 12.0900 0.1037 -15.1644
# 4 4.1959 3.9047 12.0900 55.6259 -7.5869 0.7328
# 5 25.1068 15.2373 0.1037 -7.5869 31.3398 0.1397
# 6 -28.6768 -37.2985 -15.1644 0.7328 0.1397 34.5618
#
#
#
# Elastic Compliance Matrix: (Units=1/GPa)
#
#
# Indices 1 2 3 4 5 6 
#
# 1 0.032997 0.018630 -0.009521 -0.007410 -0.037449 0.043615
# 2 0.018630 0.039696 -0.012041 -0.007210 -0.036168 0.053313
# 3 -0.009521 -0.012041 0.014537 0.000452 0.013608 -0.014581
# 4 -0.007410 -0.007210 0.000452 0.021125 0.014618 -0.014238
# 5 -0.037449 -0.036168 0.013608 0.014618 0.083277 -0.064781
# 6 0.043615 0.053313 -0.014581 -0.014238 -0.064781 0.116823
#
#
# Mechanical properties :
#
#
# Convention : Reuss Voigt Hill
#
# Bulk Modulus (GPa) = 12.29011 54.08638 33.18824
# Shear Modulus (GPa) = 14.64373 36.62312 25.63342
#
# Velocity S-wave (km/s) = 2.53917 4.01553 3.35945
# Velocity P-wave (km/s) = 3.74267 6.73146 5.44610
#
# Compressibility (1/GPa) = 0.08136626
#
# Stress axis : x y z
#
# Youngs Moduli (GPa) = 30.30563 25.19127 68.78836
#
# Poissons Ratio (x) = -0.46932 0.65496
# Poissons Ratio (y) = -0.56460 0.82829
# Poissons Ratio (z) = 0.28855 0.30333
#
# Static dielectric constant tensor:
#      x y z
#    x 1.825760 -0.070210 0.037510 
#    y -0.070210 1.860530 0.028240 
#    z 0.037510 0.028240 1.888720 
# 
# From -- ./inp_files/541267.got.cif
#   From: 2010.05.17/outbox.cif.g08.bks.cpg/sg2_271_cif.got.tgz:541267.got - 2010.06.03 11:33:40.
