data_PCOD9009808
_publ_section_title
;
Structure prediction by ZEFSAII (Michael W. Deem and Ramdas Pophale) SiO2 
 PCOD9009808
Probable space group: P -1
;
_chemical_formula_sum "Si O2"
_cell_formula_units_Z 16
_cell_length_a 9.261410
_cell_length_b 13.720866
_cell_length_c 14.832436
_cell_angle_alpha 138.943999
_cell_angle_beta 83.087821
_cell_angle_gamma 64.732002
_cell_volume 747.352476
_symmetry_space_group_name_H-M "P -1"
_symmetry_group_IT_number 2
_symmetry_cell_setting 'triclinic'
loop_
_space_group_symop_operation_xyz
x,y,z
-x,-y,-z
loop_
_atom_site_type_symbol
_atom_site_label
_atom_site_fract_x
_atom_site_fract_y
_atom_site_fract_z
Si Si1 0.517815 0.751529 0.540082
Si Si2 0.627802 0.835396 0.073902
Si Si3 0.755948 0.277563 0.730185
Si Si4 0.169690 0.464463 0.796936
Si Si5 0.365355 0.364768 0.893542
Si Si6 0.021983 0.048337 0.842123
Si Si7 0.693624 0.318685 0.280097
Si Si8 0.562743 0.280029 0.074402
O O1 0.614379 0.737060 0.428809
O O2 0.723030 0.466641 0.352396
O O3 0.468937 0.920220 0.734044
O O4 0.259662 0.876185 0.643451
O O5 0.563057 0.800048 0.145736
O O6 0.516534 0.825987 0.997568
O O7 0.916276 0.601207 0.883157
O O8 0.579054 0.291796 0.787683
O O9 0.630665 0.462515 0.784399
O O10 0.796991 0.374486 0.868135
O O11 0.000000 0.000000 0.500000
O O12 0.244425 0.368575 0.826267
O O13 0.114114 0.685561 0.960522
O O14 0.813341 0.099091 0.874671
O O15 0.108741 0.933468 0.856261
O O16 0.500000 0.500000 0.500000
O O17 0.598723 0.309437 0.193391
#
# Coordination Sequence:
#
# PCOD9009808 Si02
#       8
#     2   2   2   2   2   2   2   2
#     4  10  22  41  62  96 122 165 221 255 315 382
#     4  10  25  40  60  92 138 167 208 263 321 379
#     4  10  22  38  63  98 130 164 218 268 310 372
#     4  11  21  41  63  91 130 174 212 261 315 381
#     4  10  21  40  59  95 128 171 218 252 322 373
#     4  10  21  40  71  91 126 162 217 271 310 379
#     4  10  21  40  70 100 117 165 226 260 318 388
#     4  11  21  44  65  96 131 167 206 274 326 362
#
# _framework density 21.408908
#
# number of rings (size 3 to 8) (size 9 to 14) (size 15 to 20)
#    0.000    1.750    2.500    0.750    0.000    7.500 
#    4.500    6.250    0.000    0.000    0.000    0.000 
#    0.000    0.000    0.000    0.000    0.000    0.000 
#
# Total GULP energy -89251.479148 kJ/mol
# GULP energy per Si atom -5578.217447 kJ/mol
# Density = 2.136018 g / cm^3
# Si number density = 21.408908 Si / 1000 Ang^3
#
#
#
# Elastic Constant Matrix: (Units=GPa)
#
#
# Indices 1 2 3 4 5 6 
#
# 1 100.9013 10.8386 27.5343 -7.6708 7.6743 -25.9167
# 2 10.8386 72.7388 29.3371 -4.4638 -0.4015 -11.0121
# 3 27.5343 29.3371 100.8825 -4.5269 1.5527 -20.4911
# 4 -7.6708 -4.4638 -4.5269 26.7921 4.7486 2.7702
# 5 7.6743 -0.4015 1.5527 4.7486 18.9826 4.1799
# 6 -25.9167 -11.0121 -20.4911 2.7702 4.1799 19.7112
#
#
#
# Elastic Compliance Matrix: (Units=1/GPa)
#
#
# Indices 1 2 3 4 5 6 
#
# 1 0.018309 0.001468 0.000754 0.005360 -0.014960 0.028096
# 2 0.001468 0.016180 -0.003443 0.002138 -0.002166 0.007548
# 3 0.000754 -0.003443 0.013731 0.001375 -0.004972 0.014203
# 4 0.005360 0.002138 0.001375 0.041230 -0.014058 0.006858
# 5 -0.014960 -0.002166 -0.004972 -0.014058 0.071232 -0.039178
# 6 0.028096 0.007548 0.014203 0.006858 -0.039178 0.113999
#
#
# Mechanical properties :
#
#
# Convention : Reuss Voigt Hill
#
# Bulk Modulus (GPa) = 21.84541 45.54917 33.69729
# Shear Modulus (GPa) = 17.10074 26.88466 21.99270
#
# Velocity S-wave (km/s) = 2.82931 3.54753 3.20858
# Velocity P-wave (km/s) = 4.57159 6.17268 5.43145
#
# Compressibility (1/GPa) = 0.04577620
#
# Stress axis : x y z
#
# Youngs Moduli (GPa) = 54.61757 61.80519 72.82658
#
# Poissons Ratio (x) = -0.09071 -0.05488
# Poissons Ratio (y) = -0.08016 0.25076
# Poissons Ratio (z) = -0.04116 0.21281
#
# Static dielectric constant tensor:
#      x y z
#    x 1.818360 0.029670 -0.018390 
#    y 0.029670 1.862760 -0.018270 
#    z -0.018390 -0.018270 1.819650 
# 
# From -- ./inp_files/504438.got.cif
#   From: 2010.05.17/outbox.cif.g08.bks.cpg/sg2_253_cif.got.tgz:504438.got - 2010.06.03 11:33:40.
