data_PCOD9009749
_publ_section_title
;
Structure prediction by ZEFSAII (Michael W. Deem and Ramdas Pophale) SiO2 
 PCOD9009749
Probable space group: P -1
;
_chemical_formula_sum "Si O2"
_cell_formula_units_Z 12
_cell_length_a 13.923427
_cell_length_b 13.490292
_cell_length_c 17.883796
_cell_angle_alpha 20.347276
_cell_angle_beta 149.944162
_cell_angle_gamma 149.512218
_cell_volume 560.147840
_symmetry_space_group_name_H-M "P -1"
_symmetry_group_IT_number 2
_symmetry_cell_setting 'triclinic'
loop_
_space_group_symop_operation_xyz
x,y,z
-x,-y,-z
loop_
_atom_site_type_symbol
_atom_site_label
_atom_site_fract_x
_atom_site_fract_y
_atom_site_fract_z
Si Si1 0.310247 0.223207 0.080097
Si Si2 0.092633 0.804117 0.106228
Si Si3 0.654049 0.784422 0.442312
Si Si4 0.884907 0.349308 0.934333
Si Si5 0.313477 0.689200 0.022069
Si Si6 0.402763 0.674345 0.496220
O O1 0.192346 0.109559 0.002695
O O2 0.377943 0.930649 0.353672
O O3 0.500000 0.500000 0.000000
O O4 0.144556 0.281327 0.982157
O O5 0.150416 0.819817 0.048034
O O6 0.191703 0.577493 0.377391
O O7 0.500000 0.500000 0.500000
O O8 0.847135 0.670825 0.666597
O O9 0.559278 0.827113 0.427869
O O10 0.677959 0.061780 0.209121
O O11 0.114527 0.414455 0.066952
O O12 0.732749 0.210983 0.996442
O O13 0.506909 0.571080 0.235820
#
# Coordination Sequence:
#
# PCOD9009749 Si02
#       6
#     2   2   2   2   2   2
#     4   9  19  38  68  89 119 168 210 258 316 361
#     4   9  19  39  65  89 125 162 213 251 309 379
#     4  11  20  38  61  90 125 165 201 248 317 374
#     4  10  21  40  58  96 126 164 208 249 312 378
#     4  10  23  37  63  93 130 162 203 259 304 377
#     4   9  20  39  59  92 120 163 211 250 312 363
#
# _framework density 21.422917000000002
#
# number of rings (size 3 to 8) (size 9 to 14) (size 15 to 20)
#    1.000    1.333    1.667    0.500    2.333    2.667 
#    0.000    0.833    0.000    3.000    0.000    0.000 
#    0.000    0.000    0.000    0.000    0.000    0.000 
#
# Total GULP energy -66932.178366 kJ/mol
# GULP energy per Si atom -5577.681531 kJ/mol
# Density = 2.137416 g / cm^3
# Si number density = 21.422917 Si / 1000 Ang^3
#
#
#
# Elastic Constant Matrix: (Units=GPa)
#
#
# Indices 1 2 3 4 5 6 
#
# 1 85.4500 5.6682 40.7103 6.9815 11.5598 13.9305
# 2 5.6682 60.7468 17.6392 7.0648 9.9262 18.8061
# 3 40.7103 17.6392 107.4120 8.7544 0.3826 14.6414
# 4 6.9815 7.0648 8.7544 22.5260 9.1460 -2.0841
# 5 11.5598 9.9262 0.3826 9.1460 31.4216 7.6647
# 6 13.9305 18.8061 14.6414 -2.0841 7.6647 23.8589
#
#
#
# Elastic Compliance Matrix: (Units=1/GPa)
#
#
# Indices 1 2 3 4 5 6 
#
# 1 0.016107 0.003503 -0.005354 -0.003034 -0.004181 -0.007802
# 2 0.003503 0.024304 -0.001737 -0.009463 -0.001169 -0.020588
# 3 -0.005354 -0.001737 0.012803 -0.005434 0.005295 -0.005537
# 4 -0.003034 -0.009463 -0.005434 0.060472 -0.019296 0.024046
# 5 -0.004181 -0.001169 0.005295 -0.019296 0.043041 -0.015399
# 6 -0.007802 -0.020588 -0.005537 0.024046 -0.015399 0.073141
#
#
# Mechanical properties :
#
#
# Convention : Reuss Voigt Hill
#
# Bulk Modulus (GPa) = 21.72134 42.40489 32.06312
# Shear Modulus (GPa) = 19.81048 28.20072 24.00560
#
# Velocity S-wave (km/s) = 3.04424 3.63213 3.35110
# Velocity P-wave (km/s) = 4.74530 6.11776 5.47471
#
# Compressibility (1/GPa) = 0.04603767
#
# Stress axis : x y z
#
# Youngs Moduli (GPa) = 62.08646 41.14468 78.10477
#
# Poissons Ratio (x) = -0.14413 0.41819
# Poissons Ratio (y) = -0.21749 0.13568
# Poissons Ratio (z) = 0.33242 0.07148
#
# Static dielectric constant tensor:
#      x y z
#    x 1.796180 -0.000630 0.028600 
#    y -0.000630 1.828910 0.036070 
#    z 0.028600 0.036070 1.798200 
# 
# From -- ./inp_files/573796.got.cif
#   From: 2010.05.17/outbox.cif.g08.bks.cpg/sg2_287_cif.got.tgz:573796.got - 2010.06.03 11:33:40.
