data_PCOD9009930
_publ_section_title
;
Structure prediction by ZEFSAII (Michael W. Deem and Ramdas Pophale) SiO2 
 PCOD9009930
Probable space group: P -1
;
_chemical_formula_sum "Si O2"
_cell_formula_units_Z 16
_cell_length_a 18.928900
_cell_length_b 6.743871
_cell_length_c 15.727105
_cell_angle_alpha 43.297087
_cell_angle_beta 144.740182
_cell_angle_gamma 137.830028
_cell_volume 738.084219
_symmetry_space_group_name_H-M "P -1"
_symmetry_group_IT_number 2
_symmetry_cell_setting 'triclinic'
loop_
_space_group_symop_operation_xyz
x,y,z
-x,-y,-z
loop_
_atom_site_type_symbol
_atom_site_label
_atom_site_fract_x
_atom_site_fract_y
_atom_site_fract_z
Si Si1 0.792916 0.606838 0.600689
Si Si2 0.696544 0.631601 0.168390
Si Si3 0.272080 0.869754 0.157933
Si Si4 0.382426 0.823025 0.107268
Si Si5 0.950650 0.172903 0.325001
Si Si6 0.444465 0.859629 0.579932
Si Si7 0.648378 0.994602 0.400409
Si Si8 0.782287 0.556756 0.091181
O O1 0.767228 0.377304 0.727956
O O2 0.931836 0.673415 0.673361
O O3 0.678687 0.449340 0.467595
O O4 0.769856 0.911945 0.515337
O O5 0.668087 0.352915 0.293420
O O6 0.718685 0.500074 0.139980
O O7 0.830464 0.909940 0.241333
O O8 0.598326 0.818722 0.006433
O O9 0.283512 0.733862 0.118917
O O10 0.423342 0.112023 0.248064
O O11 0.182335 0.075908 0.002857
O O12 0.518621 0.803977 0.277845
O O13 0.320812 0.621772 0.027701
O O14 0.897701 0.424316 0.235421
O O15 0.000000 0.000000 0.500000
O O16 0.386123 0.069220 0.514442
O O17 0.500000 0.000000 0.500000
#
# Coordination Sequence:
#
# PCOD9009930 Si02
#       8
#     2   2   2   2   2   2   2   2
#     4  11  23  36  58  89 116 154 196 229 281 345
#     4  10  22  39  59  86 114 151 196 235 283 338
#     4   9  20  38  59  87 116 145 190 236 286 346
#     4   9  20  38  60  86 115 148 188 236 290 344
#     4  11  24  41  59  83 115 151 197 239 279 339
#     4   9  20  37  58  88 120 148 186 232 285 344
#     4  11  21  35  60  88 120 152 184 237 289 335
#     4  10  21  40  61  79 116 156 186 241 289 324
#
# _framework density 21.677744000000001
#
# number of rings (size 3 to 8) (size 9 to 14) (size 15 to 20)
#    0.000    2.000    0.000    2.625    0.000   11.500 
#    0.000    5.625    0.000    0.000    0.000    0.000 
#    0.000    0.000    0.000    0.000    0.000    0.000 
#
# Total GULP energy -89354.133296 kJ/mol
# GULP energy per Si atom -5584.633331 kJ/mol
# Density = 2.162840 g / cm^3
# Si number density = 21.677744 Si / 1000 Ang^3
#
#
#
# Elastic Constant Matrix: (Units=GPa)
#
#
# Indices 1 2 3 4 5 6 
#
# 1 89.4328 20.9702 29.7705 -6.2338 0.9572 -19.7345
# 2 20.9702 39.0324 12.4376 0.7050 -2.7565 -4.0256
# 3 29.7705 12.4376 59.2064 -10.3182 -2.1715 -12.8406
# 4 -6.2338 0.7050 -10.3182 31.4430 -7.8625 -2.8966
# 5 0.9572 -2.7565 -2.1715 -7.8625 42.7124 -2.3987
# 6 -19.7345 -4.0256 -12.8406 -2.8966 -2.3987 37.4302
#
#
#
# Elastic Compliance Matrix: (Units=1/GPa)
#
#
# Indices 1 2 3 4 5 6 
#
# 1 0.015813 -0.006354 -0.004925 0.002156 -0.000275 0.006114
# 2 -0.006354 0.030288 -0.004016 -0.003099 0.001231 -0.001632
# 3 -0.004925 -0.004016 0.022894 0.007837 0.002773 0.005610
# 4 0.002156 -0.003099 0.007837 0.037357 0.007412 0.006858
# 5 -0.000275 0.001231 0.002773 0.007412 0.025179 0.003126
# 6 0.006114 -0.001632 0.005610 0.006858 0.003126 0.032420
#
#
# Mechanical properties :
#
#
# Convention : Reuss Voigt Hill
#
# Bulk Modulus (GPa) = 26.03873 34.89203 30.46538
# Shear Modulus (GPa) = 24.11455 30.61666 27.36560
#
# Velocity S-wave (km/s) = 3.33890 3.76221 3.55686
# Velocity P-wave (km/s) = 5.18673 5.91633 5.56350
#
# Compressibility (1/GPa) = 0.03840434
#
# Stress axis : x y z
#
# Youngs Moduli (GPa) = 63.23840 33.01636 43.67918
#
# Poissons Ratio (x) = 0.20979 0.21511
# Poissons Ratio (y) = 0.40183 0.17544
# Poissons Ratio (z) = 0.31144 0.13261
#
# Static dielectric constant tensor:
#      x y z
#    x 1.784750 0.005130 -0.009070 
#    y 0.005130 1.811190 0.002720 
#    z -0.009070 0.002720 1.818580 
# 
# From -- ./inp_files/69388.got.cif
#   From: 2010.05.17/outbox.cif.g08.bks.cpg/sg2_35_cif.got.tgz:69388.got - 2010.06.03 11:33:40.
