data_PCOD9009627
_publ_section_title
;
Structure prediction by ZEFSAII (Michael W. Deem and Ramdas Pophale) SiO2 
 PCOD9009627
Probable space group: P -1
;
_chemical_formula_sum "Si O2"
_cell_formula_units_Z 16
_cell_length_a 7.968739
_cell_length_b 18.107128
_cell_length_c 5.772963
_cell_angle_alpha 100.677719
_cell_angle_beta 116.834134
_cell_angle_gamma 58.085428
_cell_volume 629.363275
_symmetry_space_group_name_H-M "P -1"
_symmetry_group_IT_number 2
_symmetry_cell_setting 'triclinic'
loop_
_space_group_symop_operation_xyz
x,y,z
-x,-y,-z
loop_
_atom_site_type_symbol
_atom_site_label
_atom_site_fract_x
_atom_site_fract_y
_atom_site_fract_z
Si Si1 0.412562 0.078914 0.665409
Si Si2 0.754018 0.422039 0.597375
Si Si3 0.849992 0.261713 0.807869
Si Si4 0.998251 0.910416 0.426863
Si Si5 0.726285 0.772899 0.678585
Si Si6 0.395973 0.331251 0.781041
Si Si7 0.248871 0.521644 0.871817
Si Si8 0.390236 0.837438 0.890369
O O1 0.268585 0.169997 0.496048
O O2 0.246787 0.069881 0.723561
O O3 0.500000 0.000000 0.500000
O O4 0.598799 0.090673 0.905426
O O5 0.500000 0.500000 0.500000
O O6 0.793648 0.324277 0.584179
O O7 0.839913 0.432614 0.407849
O O8 0.843346 0.433831 0.909537
O O9 0.882528 0.166102 0.732467
O O10 0.634283 0.314849 0.855471
O O11 0.067456 0.250723 0.049533
O O12 0.145282 0.859764 0.713822
O O13 0.000000 0.000000 0.500000
O O14 0.697291 0.695583 0.512252
O O15 0.504266 0.835342 0.717709
O O16 0.255006 0.430363 0.823922
O O17 0.449729 0.258446 0.965162
O O18 0.500000 0.500000 0.000000
#
# Coordination Sequence:
#
# PCOD9009627 Si02
#       8
#     2   2   2   2   2   2   2   2
#     4  11  26  46  69  99 145 185 237 310 361 433
#     4  10  22  41  70 108 140 197 243 298 380 438
#     4  12  24  45  74  99 146 187 239 309 360 443
#     4  12  27  43  74 108 137 192 243 293 371 441
#     4  11  25  45  66 105 134 192 241 291 371 428
#     4  11  24  43  73 101 136 191 239 297 360 443
#     4  10  21  39  71 105 144 184 248 302 367 439
#     4  11  25  44  71  98 143 185 238 296 362 437
#
# _framework density 25.422521
#
# number of rings (size 3 to 8) (size 9 to 14) (size 15 to 20)
#    0.000    1.000    5.000    1.500    8.750    2.500 
#    0.000    1.250    0.000    0.000    0.000    0.000 
#    0.000    0.000    0.000    0.000    0.000    0.000 
#
# Total GULP energy -89466.399947 kJ/mol
# GULP energy per Si atom -5591.649997 kJ/mol
# Density = 2.536466 g / cm^3
# Si number density = 25.422521 Si / 1000 Ang^3
#
#
#
# Elastic Constant Matrix: (Units=GPa)
#
#
# Indices 1 2 3 4 5 6 
#
# 1 51.8847 7.8482 17.9559 -1.1391 11.4055 -0.3429
# 2 7.8482 133.0136 31.2528 22.1476 -12.1600 19.0802
# 3 17.9559 31.2528 107.3731 12.2717 2.1044 8.3893
# 4 -1.1391 22.1476 12.2717 45.3546 5.3670 -3.4499
# 5 11.4055 -12.1600 2.1044 5.3670 49.6415 -1.1364
# 6 -0.3429 19.0802 8.3893 -3.4499 -1.1364 35.2019
#
#
#
# Elastic Compliance Matrix: (Units=1/GPa)
#
#
# Indices 1 2 3 4 5 6 
#
# 1 0.022135 -0.001841 -0.003600 0.003270 -0.005687 0.002209
# 2 -0.001841 0.009983 -0.001633 -0.005294 0.003385 -0.005449
# 3 -0.003600 -0.001633 0.010813 -0.002389 0.000182 -0.001955
# 4 0.003270 -0.005294 -0.002389 0.026363 -0.004662 0.005904
# 5 -0.005687 0.003385 0.000182 -0.004662 0.022739 -0.001657
# 6 0.002209 -0.005449 -0.001955 0.005904 -0.001657 0.032374
#
#
# Mechanical properties :
#
#
# Convention : Reuss Voigt Hill
#
# Bulk Modulus (GPa) = 34.74559 45.15390 39.94975
# Shear Modulus (GPa) = 33.74956 41.72057 37.73506
#
# Velocity S-wave (km/s) = 3.64750 4.05543 3.85686
# Velocity P-wave (km/s) = 5.60678 6.30306 5.96509
#
# Compressibility (1/GPa) = 0.02878063
#
# Stress axis : x y z
#
# Youngs Moduli (GPa) = 45.17817 100.16864 92.48106
#
# Poissons Ratio (x) = 0.18444 0.33298
# Poissons Ratio (y) = 0.08318 0.15105
# Poissons Ratio (z) = 0.16266 0.16361
#
# Static dielectric constant tensor:
#      x y z
#    x 2.011280 0.015510 -0.030290 
#    y 0.015510 2.040600 -0.021520 
#    z -0.030290 -0.021520 2.031730 
# 
# From -- ./inp_files/48429.got.cif
#   From: 2010.05.17/outbox.cif.g08.bks.cpg/sg2_25_cif.got.tgz:48429.got - 2010.06.03 11:33:40.
