data_PCOD9009102
_publ_section_title
;
Structure prediction by ZEFSAII (Michael W. Deem and Ramdas Pophale) SiO2 
 PCOD9009102
Probable space group: P -1
;
_chemical_formula_sum "Si O2"
_cell_formula_units_Z 14
_cell_length_a 10.791177
_cell_length_b 9.732917
_cell_length_c 12.149687
_cell_angle_alpha 131.681783
_cell_angle_beta 35.931749
_cell_angle_gamma 111.391236
_cell_volume 513.450944
_symmetry_space_group_name_H-M "P -1"
_symmetry_group_IT_number 2
_symmetry_cell_setting 'triclinic'
loop_
_space_group_symop_operation_xyz
x,y,z
-x,-y,-z
loop_
_atom_site_type_symbol
_atom_site_label
_atom_site_fract_x
_atom_site_fract_y
_atom_site_fract_z
Si Si1 0.259213 0.353682 0.630333
Si Si2 0.048142 0.855674 0.780169
Si Si3 0.242288 0.419391 0.142060
Si Si4 0.456215 0.746198 0.955331
Si Si5 0.562620 0.762621 0.330321
Si Si6 0.737645 0.246275 0.122347
Si Si7 0.129214 0.185994 0.434209
O O1 0.259199 0.315349 0.738430
O O2 0.523597 0.232872 0.335729
O O3 0.202432 0.585715 0.770951
O O4 0.113923 0.276493 0.615626
O O5 0.927099 0.698937 0.780631
O O6 0.319975 0.746014 0.517247
O O7 0.000000 0.000000 0.000000
O O8 0.933388 0.025567 0.859797
O O9 0.433613 0.357919 0.066420
O O10 0.100634 0.658489 0.373331
O O11 0.343525 0.339162 0.907017
O O12 0.360017 0.662301 0.877634
O O13 0.665167 0.785530 0.767569
O O14 0.235356 0.949279 0.247323
O O15 0.500000 0.000000 0.500000
#
# Coordination Sequence:
#
# PCOD9009102 Si02
#       7
#     2   2   2   2   2   2   2
#     4  10  21  39  67 103 134 173 233 291 340 408
#     4  12  22  41  70 102 138 182 226 286 357 403
#     4  12  25  44  70 102 141 186 230 285 348 414
#     4  10  22  43  71 100 142 187 234 280 340 424
#     4  12  25  42  67 107 144 175 230 292 347 416
#     4  10  21  41  69 101 137 180 231 286 344 408
#     4  10  21  40  70 100 135 187 233 281 349 407
#
# _framework density 27.266480000000001
#
# number of rings (size 3 to 8) (size 9 to 14) (size 15 to 20)
#    0.000    1.143    2.857    4.714    4.000    0.571 
#    2.571    1.429    0.000    0.000    0.000    0.000 
#    0.000    0.000    0.000    0.000    0.000    0.000 
#
# Total GULP energy -78563.527999 kJ/mol
# GULP energy per Si atom -5611.680571 kJ/mol
# Density = 2.720442 g / cm^3
# Si number density = 27.266480 Si / 1000 Ang^3
#
#
#
# Elastic Constant Matrix: (Units=GPa)
#
#
# Indices 1 2 3 4 5 6 
#
# 1 138.6129 59.3267 52.4164 5.8971 0.6286 -36.6746
# 2 59.3267 84.8916 42.6230 9.9913 -12.3539 -18.4954
# 3 52.4164 42.6230 155.0408 11.4477 -15.4613 -16.9839
# 4 5.8971 9.9913 11.4477 64.1621 -6.7078 -3.7380
# 5 0.6286 -12.3539 -15.4613 -6.7078 45.6455 0.3286
# 6 -36.6746 -18.4954 -16.9839 -3.7380 0.3286 63.5506
#
#
#
# Elastic Compliance Matrix: (Units=1/GPa)
#
#
# Indices 1 2 3 4 5 6 
#
# 1 0.012113 -0.006917 -0.001995 0.000298 -0.002703 0.004476
# 2 -0.006917 0.018648 -0.002185 -0.001396 0.004192 0.000748
# 3 -0.001995 -0.002185 0.008012 -0.000674 0.002049 0.000304
# 4 0.000298 -0.001396 -0.000674 0.016110 0.001753 0.000524
# 5 -0.002703 0.004192 0.002049 0.001753 0.024030 0.000186
# 6 0.004476 0.000748 0.000304 0.000524 0.000186 0.018647
#
#
# Mechanical properties :
#
#
# Convention : Reuss Voigt Hill
#
# Bulk Modulus (GPa) = 60.31500 76.36418 68.33959
# Shear Modulus (GPa) = 39.91060 49.61692 44.76376
#
# Velocity S-wave (km/s) = 3.83002 4.27043 4.05620
# Velocity P-wave (km/s) = 6.45967 7.23760 6.85967
#
# Compressibility (1/GPa) = 0.01657962
#
# Stress axis : x y z
#
# Youngs Moduli (GPa) = 82.55691 53.62526 124.80577
#
# Poissons Ratio (x) = 0.37092 0.24897
# Poissons Ratio (y) = 0.57103 0.27272
# Poissons Ratio (z) = 0.16469 0.11718
#
# Static dielectric constant tensor:
#      x y z
#    x 2.108930 -0.011600 -0.002600 
#    y -0.011600 2.163680 -0.020730 
#    z -0.002600 -0.020730 2.074930 
# 
# From -- ./inp_files/383455.got.cif
#   From: 2010.05.17/outbox.cif.g08.bks.cpg/sg2_192_cif.got.tgz:383455.got - 2010.06.03 11:33:40.
