data_PCOD9009475
_publ_section_title
;
Structure prediction by ZEFSAII (Michael W. Deem and Ramdas Pophale) SiO2 
 PCOD9009475
Probable space group: P -1
;
_chemical_formula_sum "Si O2"
_cell_formula_units_Z 14
_cell_length_a 5.513423
_cell_length_b 22.945606
_cell_length_c 13.991694
_cell_angle_alpha 156.170280
_cell_angle_beta 102.877677
_cell_angle_gamma 89.681830
_cell_volume 602.330173
_symmetry_space_group_name_H-M "P -1"
_symmetry_group_IT_number 2
_symmetry_cell_setting 'triclinic'
loop_
_space_group_symop_operation_xyz
x,y,z
-x,-y,-z
loop_
_atom_site_type_symbol
_atom_site_label
_atom_site_fract_x
_atom_site_fract_y
_atom_site_fract_z
Si Si1 0.798598 0.058293 0.169324
Si Si2 0.896629 0.931180 0.283082
Si Si3 0.071721 0.681924 0.681763
Si Si4 0.791327 0.582368 0.705955
Si Si5 0.755028 0.323669 0.673640
Si Si6 0.326977 0.266430 0.384136
Si Si7 0.596127 0.981864 0.695154
O O1 0.859123 0.194565 0.458293
O O2 0.068947 0.157660 0.272868
O O3 0.500000 0.000000 0.000000
O O4 0.732982 0.874160 0.912327
O O5 0.159970 0.992833 0.322475
O O6 0.000000 0.000000 0.500000
O O7 0.652989 0.979529 0.306342
O O8 0.797682 0.735028 0.988759
O O9 0.190912 0.571437 0.478190
O O10 0.034607 0.652819 0.749361
O O11 0.769327 0.619336 0.507847
O O12 0.264838 0.882958 0.002657
O O13 0.500000 0.500000 0.500000
O O14 0.603119 0.340733 0.588974
O O15 0.528475 0.205872 0.557311
O O16 0.000000 0.500000 0.000000
#
# Coordination Sequence:
#
# PCOD9009475 Si02
#       7
#     2   2   2   2   2   2   2
#     4   9  19  37  65  92 127 171 230 287 340 418
#     4  11  25  48  74 104 145 187 239 292 363 439
#     4  10  21  39  69 103 132 182 237 292 360 411
#     4  10  21  40  66  99 139 171 232 300 344 425
#     4  11  26  45  63 100 145 188 241 294 354 433
#     4  10  21  40  67  96 133 179 235 293 349 433
#     4  11  24  45  77 101 141 199 234 296 368 423
#
# _framework density 23.243068000000001
#
# number of rings (size 3 to 8) (size 9 to 14) (size 15 to 20)
#    0.000    1.714    1.429    3.000    6.000    2.857 
#    5.143    0.000    0.000    0.000    0.000    0.000 
#    0.000    0.000    0.000    0.000    0.000    0.000 
#
# Total GULP energy -78014.931745 kJ/mol
# GULP energy per Si atom -5572.495125 kJ/mol
# Density = 2.319017 g / cm^3
# Si number density = 23.243068 Si / 1000 Ang^3
#
#
#
# Elastic Constant Matrix: (Units=GPa)
#
#
# Indices 1 2 3 4 5 6 
#
# 1 113.8986 45.5884 45.9718 -10.5182 -7.8241 -18.6564
# 2 45.5884 97.2707 60.3356 -11.7202 0.0342 -24.7613
# 3 45.9718 60.3356 203.6837 -15.9304 1.9652 -10.8438
# 4 -10.5182 -11.7202 -15.9304 35.3897 4.5135 2.6932
# 5 -7.8241 0.0342 1.9652 4.5135 30.1333 9.1828
# 6 -18.6564 -24.7613 -10.8438 2.6932 9.1828 59.0003
#
#
#
# Elastic Compliance Matrix: (Units=1/GPa)
#
#
# Indices 1 2 3 4 5 6 
#
# 1 0.011402 -0.004157 -0.001221 0.001050 0.002523 0.001196
# 2 -0.004157 0.015843 -0.003262 0.002516 -0.002802 0.005057
# 3 -0.001221 -0.003262 0.006248 0.001511 -0.000778 -0.000555
# 4 0.001050 0.002516 0.001511 0.030608 -0.004719 0.001003
# 5 0.002523 -0.002802 -0.000778 -0.004719 0.036422 -0.005975
# 6 0.001196 0.005057 -0.000555 0.001003 -0.005975 0.020232
#
#
# Mechanical properties :
#
#
# Convention : Reuss Voigt Hill
#
# Bulk Modulus (GPa) = 61.67370 79.84939 70.76155
# Shear Modulus (GPa) = 34.85810 42.43514 38.64662
#
# Velocity S-wave (km/s) = 3.87682 4.27747 4.08206
# Velocity P-wave (km/s) = 6.82873 7.66970 7.26140
#
# Compressibility (1/GPa) = 0.01621437
#
# Stress axis : x y z
#
# Youngs Moduli (GPa) = 87.70068 63.11765 160.06396
#
# Poissons Ratio (x) = 0.26236 0.19540
# Poissons Ratio (y) = 0.36455 0.52213
# Poissons Ratio (z) = 0.10706 0.20589
#
# Static dielectric constant tensor:
#      x y z
#    x 2.054440 0.026150 0.018150 
#    y 0.026150 2.043560 0.110290 
#    z 0.018150 0.110290 1.843650 
# 
# From -- ./inp_files/486040.got.cif
#   From: 2010.05.17/outbox.cif.g08.bks.cpg/sg2_244_cif.got.tgz:486040.got - 2010.06.03 11:33:40.
