data_PCOD9009280
_publ_section_title
;
Structure prediction by ZEFSAII (Michael W. Deem and Ramdas Pophale) SiO2 
 PCOD9009280
Probable space group: P -1
;
_chemical_formula_sum "Si O2"
_cell_formula_units_Z 16
_cell_length_a 11.935555
_cell_length_b 18.168768
_cell_length_c 9.310978
_cell_angle_alpha 134.289576
_cell_angle_beta 47.644124
_cell_angle_gamma 149.726321
_cell_volume 714.524959
_symmetry_space_group_name_H-M "P -1"
_symmetry_group_IT_number 2
_symmetry_cell_setting 'triclinic'
loop_
_space_group_symop_operation_xyz
x,y,z
-x,-y,-z
loop_
_atom_site_type_symbol
_atom_site_label
_atom_site_fract_x
_atom_site_fract_y
_atom_site_fract_z
Si Si1 0.964994 0.494949 0.756878
Si Si2 0.360543 0.422052 0.163275
Si Si3 0.586696 0.263931 0.983206
Si Si4 0.450946 0.651037 0.592595
Si Si5 0.796894 0.944934 0.506338
Si Si6 0.237467 0.129977 0.894952
Si Si7 0.881492 0.282701 0.311457
Si Si8 0.581965 0.045068 0.826965
O O1 0.796718 0.420679 0.933254
O O2 0.852754 0.366670 0.555268
O O3 0.186614 0.545199 0.681920
O O4 0.046221 0.637722 0.799243
O O5 0.471779 0.550460 0.364189
O O6 0.101176 0.329574 0.236737
O O7 0.500000 0.500000 0.000000
O O8 0.345841 0.296799 0.047820
O O9 0.411118 0.144170 0.846958
O O10 0.651527 0.192714 0.914920
O O11 0.469119 0.280817 0.223600
O O12 0.571910 0.790726 0.569890
O O13 0.796135 0.903872 0.289995
O O14 0.778212 0.058457 0.665860
O O15 0.000000 0.000000 0.500000
O O16 0.000000 0.000000 0.000000
O O17 0.644658 0.104312 0.266209
O O18 0.500000 0.000000 0.000000
#
# Coordination Sequence:
#
# PCOD9009280 Si02
#       8
#     2   2   2   2   2   2   2   2
#     4  10  21  40  69  98 138 177 231 308 348 412
#     4  11  23  41  72 100 142 196 236 282 361 440
#     4  12  25  43  72 106 145 180 238 309 357 419
#     4  11  23  45  68 103 139 182 245 286 356 434
#     4  12  26  47  74 102 144 191 241 296 359 440
#     4  12  27  46  69 106 149 186 236 303 362 422
#     4  10  21  39  67  99 136 187 243 280 355 438
#     4  12  25  43  73 103 139 195 240 290 366 434
#
# _framework density 22.392499000000001
#
# number of rings (size 3 to 8) (size 9 to 14) (size 15 to 20)
#    0.000    0.750    3.750    3.375    3.500    4.500 
#    0.000    1.250    0.000    0.000    0.000    0.000 
#    0.000    0.000    0.000    0.000    0.000    0.000 
#
# Total GULP energy -89490.543554 kJ/mol
# GULP energy per Si atom -5593.158972 kJ/mol
# Density = 2.234153 g / cm^3
# Si number density = 22.392499 Si / 1000 Ang^3
#
#
#
# Elastic Constant Matrix: (Units=GPa)
#
#
# Indices 1 2 3 4 5 6 
#
# 1 107.4587 15.5877 44.1211 0.7366 7.9489 -6.9041
# 2 15.5877 79.1798 38.6850 -12.6118 8.3226 -15.6406
# 3 44.1211 38.6850 128.1463 -4.6967 17.0194 -15.3769
# 4 0.7366 -12.6118 -4.6967 42.7204 -8.0837 0.6033
# 5 7.9489 8.3226 17.0194 -8.0837 40.4441 0.5504
# 6 -6.9041 -15.6406 -15.3769 0.6033 0.5504 43.5420
#
#
#
# Elastic Compliance Matrix: (Units=1/GPa)
#
#
# Indices 1 2 3 4 5 6 
#
# 1 0.010893 -0.000412 -0.003514 -0.000843 -0.000751 0.000359
# 2 -0.000412 0.016259 -0.003988 0.004153 -0.000815 0.004320
# 3 -0.003514 -0.003988 0.010847 -0.000554 -0.003190 0.001889
# 4 -0.000843 0.004153 -0.000554 0.025452 0.004621 0.000751
# 5 -0.000751 -0.000815 -0.003190 0.004621 0.027333 -0.001948
# 6 0.000359 0.004320 0.001889 0.000751 -0.001948 0.025256
#
#
# Mechanical properties :
#
#
# Convention : Reuss Voigt Hill
#
# Bulk Modulus (GPa) = 45.10166 56.84138 50.97152
# Shear Modulus (GPa) = 35.90423 39.76737 37.83580
#
# Velocity S-wave (km/s) = 4.00860 4.21874 4.11501
# Velocity P-wave (km/s) = 6.45060 7.01210 6.73721
#
# Compressibility (1/GPa) = 0.02217213
#
# Stress axis : x y z
#
# Youngs Moduli (GPa) = 91.80271 61.50282 92.18804
#
# Poissons Ratio (x) = 0.02533 0.32397
# Poissons Ratio (y) = 0.03781 0.36762
# Poissons Ratio (z) = 0.32261 0.24526
#
# Static dielectric constant tensor:
#      x y z
#    x 1.854040 0.040010 0.017830 
#    y 0.040010 1.799800 0.035330 
#    z 0.017830 0.035330 1.868200 
# 
# From -- ./inp_files/272385.got.cif
#   From: 2010.05.17/outbox.cif.g08.bks.cpg/sg2_137_cif.got.tgz:272385.got - 2010.06.03 11:33:40.
