data_PCOD9009252
_publ_section_title
;
Structure prediction by ZEFSAII (Michael W. Deem and Ramdas Pophale) SiO2 
 PCOD9009252
Probable space group: P -1
;
_chemical_formula_sum "Si O2"
_cell_formula_units_Z 16
_cell_length_a 11.194072
_cell_length_b 14.151305
_cell_length_c 14.795445
_cell_angle_alpha 130.841387
_cell_angle_beta 28.834384
_cell_angle_gamma 144.337474
_cell_volume 644.945280
_symmetry_space_group_name_H-M "P -1"
_symmetry_group_IT_number 2
_symmetry_cell_setting 'triclinic'
loop_
_space_group_symop_operation_xyz
x,y,z
-x,-y,-z
loop_
_atom_site_type_symbol
_atom_site_label
_atom_site_fract_x
_atom_site_fract_y
_atom_site_fract_z
Si Si1 0.106272 0.284668 0.058380
Si Si2 0.362226 0.713108 0.263546
Si Si3 0.280452 0.896770 0.967458
Si Si4 0.982476 0.252945 0.771267
Si Si5 0.184278 0.945259 0.727136
Si Si6 0.817133 0.723352 0.677767
Si Si7 0.276223 0.186883 0.397361
Si Si8 0.815971 0.435587 0.903006
O O1 0.896067 0.139186 0.032261
O O2 0.978712 0.208543 0.194274
O O3 0.491543 0.372810 0.856638
O O4 0.033006 0.402383 0.154189
O O5 0.044398 0.674520 0.493992
O O6 0.667365 0.900050 0.209880
O O7 0.314043 0.692869 0.174933
O O8 0.417446 0.799674 0.816059
O O9 0.606159 0.087397 0.888190
O O10 0.017060 0.804785 0.165216
O O11 0.268371 0.285318 0.543151
O O12 0.999817 0.404920 0.831490
O O13 0.943339 0.874616 0.756933
O O14 0.500000 0.000000 0.500000
O O15 0.822812 0.779787 0.608831
O O16 0.454205 0.583935 0.868645
O O17 0.000000 0.000000 0.500000
#
# Coordination Sequence:
#
# PCOD9009252 Si02
#       8
#     2   2   2   2   2   2   2   2
#     4  12  26  43  64 101 139 177 215 274 333 399
#     4  11  24  44  68  91 136 175 221 275 325 389
#     4  10  23  41  67  97 131 165 230 271 321 393
#     4  10  21  42  69  95 124 181 214 276 334 381
#     4  10  24  42  68  99 127 169 222 279 322 388
#     4  11  23  42  69  99 129 174 224 272 331 391
#     4  10  21  39  67  98 126 164 221 279 325 384
#     4  12  24  43  67  94 141 177 220 267 336 403
#
# _framework density 24.808305000000001
#
# number of rings (size 3 to 8) (size 9 to 14) (size 15 to 20)
#    0.000    1.250    3.750    1.500    7.000    1.000 
#    4.500    0.625    0.000    0.000    0.000    0.000 
#    0.000    0.000    0.000    0.000    0.000    0.000 
#
# Total GULP energy -89335.489132 kJ/mol
# GULP energy per Si atom -5583.468071 kJ/mol
# Density = 2.475184 g / cm^3
# Si number density = 24.808305 Si / 1000 Ang^3
#
#
#
# Elastic Constant Matrix: (Units=GPa)
#
#
# Indices 1 2 3 4 5 6 
#
# 1 84.7135 4.7610 14.9978 -1.0362 22.7659 -8.6875
# 2 4.7610 54.0928 18.3370 9.9154 5.8521 -16.6151
# 3 14.9978 18.3370 104.7398 1.5944 21.8550 -12.0250
# 4 -1.0362 9.9154 1.5944 17.8552 -5.5885 -0.8775
# 5 22.7659 5.8521 21.8550 -5.5885 44.2118 4.2841
# 6 -8.6875 -16.6151 -12.0250 -0.8775 4.2841 35.9383
#
#
#
# Elastic Compliance Matrix: (Units=1/GPa)
#
#
# Indices 1 2 3 4 5 6 
#
# 1 0.014508 0.001716 0.000051 -0.002534 -0.008555 0.005276
# 2 0.001716 0.026401 -0.001801 -0.015887 -0.006700 0.012429
# 3 0.000051 -0.001801 0.011584 -0.001756 -0.006099 0.003740
# 4 -0.002534 -0.015887 -0.001756 0.068736 0.013789 -0.008510
# 5 -0.008555 -0.006700 -0.006099 0.013789 0.033723 -0.010890
# 6 0.005276 0.012429 0.003740 -0.008510 -0.010890 0.037189
#
#
# Mechanical properties :
#
#
# Convention : Reuss Voigt Hill
#
# Bulk Modulus (GPa) = 19.07455 35.52642 27.30048
# Shear Modulus (GPa) = 23.84557 33.29774 28.57165
#
# Velocity S-wave (km/s) = 3.10367 3.66758 3.39735
# Velocity P-wave (km/s) = 4.53312 5.68211 5.13982
#
# Compressibility (1/GPa) = 0.05242588
#
# Stress axis : x y z
#
# Youngs Moduli (GPa) = 68.92781 37.87762 86.32526
#
# Poissons Ratio (x) = -0.06500 -0.00444
# Poissons Ratio (y) = -0.11828 0.15546
# Poissons Ratio (z) = -0.00354 0.06821
#
# Static dielectric constant tensor:
#      x y z
#    x 1.944950 0.101990 -0.030060 
#    y 0.101990 2.104150 0.052350 
#    z -0.030060 0.052350 1.945630 
# 
# From -- ./inp_files/522411.got.cif
#   From: 2010.05.17/outbox.cif.g08.bks.cpg/sg2_262_cif.got.tgz:522411.got - 2010.06.03 11:33:40.
