data_PCOD9009841
_publ_section_title
;
Structure prediction by ZEFSAII (Michael W. Deem and Ramdas Pophale) SiO2 
 PCOD9009841
Probable space group: P -1
;
_chemical_formula_sum "Si O2"
_cell_formula_units_Z 14
_cell_length_a 23.521888
_cell_length_b 12.139028
_cell_length_c 15.060373
_cell_angle_alpha 149.442234
_cell_angle_beta 18.830842
_cell_angle_gamma 147.226593
_cell_volume 696.902456
_symmetry_space_group_name_H-M "P -1"
_symmetry_group_IT_number 2
_symmetry_cell_setting 'triclinic'
loop_
_space_group_symop_operation_xyz
x,y,z
-x,-y,-z
loop_
_atom_site_type_symbol
_atom_site_label
_atom_site_fract_x
_atom_site_fract_y
_atom_site_fract_z
Si Si1 0.095416 0.277145 0.802819
Si Si2 0.235090 0.035108 0.960054
Si Si3 0.567374 0.977256 0.527175
Si Si4 0.677972 0.058411 0.832421
Si Si5 0.979527 0.391435 0.551390
Si Si6 0.393539 0.649057 0.696867
Si Si7 0.056025 0.810953 0.844590
O O1 0.220297 0.504889 0.805227
O O2 0.217746 0.148671 0.471519
O O3 0.040987 0.170565 0.905528
O O4 0.894377 0.205093 0.008576
O O5 0.348726 0.068041 0.723741
O O6 0.379346 0.055485 0.839328
O O7 0.114331 0.225451 0.264588
O O8 0.524741 0.769426 0.510906
O O9 0.728931 0.152865 0.446961
O O10 0.789054 0.247213 0.740466
O O11 0.657285 0.160544 0.030766
O O12 0.500000 0.000000 0.000000
O O13 0.990321 0.578600 0.738281
O O14 0.000000 0.500000 0.500000
O O15 0.500000 0.500000 0.500000
O O16 0.000000 0.000000 0.000000
#
# Coordination Sequence:
#
# PCOD9009841 Si02
#       7
#     2   2   2   2   2   2   2
#     4  10  21  40  60  86 125 161 203 255 306 372
#     4   9  22  44  63  87 124 167 213 250 312 367
#     4  10  23  41  63  90 125 168 204 259 307 374
#     4  11  23  37  58  93 128 157 200 259 312 368
#     4  11  23  37  64  92 121 163 213 258 307 367
#     4  12  23  37  64  95 126 159 208 255 321 367
#     4  11  21  38  63  91 123 160 208 259 311 363
#
# _framework density 20.088894
#
# number of rings (size 3 to 8) (size 9 to 14) (size 15 to 20)
#    0.000    1.429    2.857    3.429    4.000    1.143 
#    0.000    2.857    0.000    0.000    0.000    0.000 
#    0.000    0.000    0.000    0.000    0.000    0.000 
#
# Total GULP energy -77984.432481 kJ/mol
# GULP energy per Si atom -5570.316606 kJ/mol
# Density = 2.004317 g / cm^3
# Si number density = 20.088894 Si / 1000 Ang^3
#
#
#
# Elastic Constant Matrix: (Units=GPa)
#
#
# Indices 1 2 3 4 5 6 
#
# 1 64.3637 32.7857 38.3152 2.3121 -11.5954 12.5145
# 2 32.7857 103.9286 42.6978 -13.5719 -6.8103 22.8218
# 3 38.3152 42.6978 87.3610 -5.5212 -4.1573 22.5016
# 4 2.3121 -13.5719 -5.5212 34.7534 7.2683 6.9231
# 5 -11.5954 -6.8103 -4.1573 7.2683 30.6478 1.6584
# 6 12.5145 22.8218 22.5016 6.9231 1.6584 30.9261
#
#
#
# Elastic Compliance Matrix: (Units=1/GPa)
#
#
# Indices 1 2 3 4 5 6 
#
# 1 0.024864 -0.004753 -0.008855 -0.006939 0.008743 0.000973
# 2 -0.004753 0.015150 -0.002477 0.007685 -0.000094 -0.009170
# 3 -0.008855 -0.002477 0.019237 0.005000 -0.001958 -0.009599
# 4 -0.006939 0.007685 0.005000 0.037671 -0.008390 -0.014484
# 5 0.008743 -0.000094 -0.001958 -0.008390 0.037758 -0.002191
# 6 0.000973 -0.009170 -0.009599 -0.014484 -0.002191 0.049052
#
#
# Mechanical properties :
#
#
# Convention : Reuss Voigt Hill
#
# Bulk Modulus (GPa) = 36.92689 53.69451 45.31070
# Shear Modulus (GPa) = 22.22913 28.72244 25.47578
#
# Velocity S-wave (km/s) = 3.33008 3.78533 3.56498
# Velocity P-wave (km/s) = 5.76260 6.77432 6.28884
#
# Compressibility (1/GPa) = 0.02708054
#
# Stress axis : x y z
#
# Youngs Moduli (GPa) = 40.21826 66.00653 51.98435
#
# Poissons Ratio (x) = 0.31371 0.46035
# Poissons Ratio (y) = 0.19114 0.12877
# Poissons Ratio (z) = 0.35615 0.16350
#
# Static dielectric constant tensor:
#      x y z
#    x 1.724790 0.065720 -0.014500 
#    y 0.065720 1.733770 0.005240 
#    z -0.014500 0.005240 1.749950 
# 
# From -- ./inp_files/320728.got.cif
#   From: 2010.05.17/outbox.cif.g08.bks.cpg/sg2_161_cif.got.tgz:320728.got - 2010.06.03 11:33:40.
