data_PCOD9009974
_publ_section_title
;
Structure prediction by ZEFSAII (Michael W. Deem and Ramdas Pophale) SiO2 
 PCOD9009974
Probable space group: P -1
;
_chemical_formula_sum "Si O2"
_cell_formula_units_Z 12
_cell_length_a 14.915696
_cell_length_b 13.970256
_cell_length_c 4.959968
_cell_angle_alpha 79.952401
_cell_angle_beta 80.422243
_cell_angle_gamma 27.942623
_cell_volume 476.706913
_symmetry_space_group_name_H-M "P -1"
_symmetry_group_IT_number 2
_symmetry_cell_setting 'triclinic'
loop_
_space_group_symop_operation_xyz
x,y,z
-x,-y,-z
loop_
_atom_site_type_symbol
_atom_site_label
_atom_site_fract_x
_atom_site_fract_y
_atom_site_fract_z
Si Si1 0.284263 0.564006 0.043211
Si Si2 0.167824 0.303694 0.710009
Si Si3 0.271546 0.697685 0.493439
Si Si4 0.201638 0.082032 0.563301
Si Si5 0.884552 0.457944 0.166795
Si Si6 0.287509 0.876243 0.127735
O O1 0.210539 0.718168 0.805305
O O2 0.212412 0.528957 0.983401
O O3 0.513175 0.343843 0.995618
O O4 0.243322 0.637531 0.326443
O O5 0.285674 0.107706 0.601356
O O6 0.250873 0.326050 0.773459
O O7 0.000000 0.500000 0.500000
O O8 0.056631 0.349688 0.975612
O O9 0.500000 0.500000 0.500000
O O10 0.194759 0.869630 0.320909
O O11 0.994786 0.301644 0.432013
O O12 0.314691 0.924133 0.341855
O O13 0.184823 0.027632 0.857818
#
# Coordination Sequence:
#
# PCOD9009974 Si02
#       6
#     2   2   2   2   2   2
#     4  11  23  39  66  92 118 157 214 248 282 358
#     4   9  20  40  67  82 122 164 201 233 313 369
#     4  10  21  40  61  88 124 166 198 238 302 365
#     4  11  21  39  63  89 122 163 196 243 310 361
#     4  10  22  41  65  91 117 161 207 247 292 366
#     4  11  21  39  62  89 122 162 197 248 305 351
#
# _framework density 25.172702000000001
#
# number of rings (size 3 to 8) (size 9 to 14) (size 15 to 20)
#    0.000    1.667    1.667    5.000    4.667    0.000 
#    0.000    6.667    0.000    0.000    0.000    0.000 
#    0.000    0.000    0.000    0.000    0.000    0.000 
#
# Total GULP energy -67107.256504 kJ/mol
# GULP energy per Si atom -5592.271375 kJ/mol
# Density = 2.511541 g / cm^3
# Si number density = 25.172702 Si / 1000 Ang^3
#
#
#
# Elastic Constant Matrix: (Units=GPa)
#
#
# Indices 1 2 3 4 5 6 
#
# 1 -12.1068 7.4390 14.7361 -83.4549 14.0406 -34.0218
# 2 7.4390 77.1455 18.9899 -14.5570 -0.5913 18.8339
# 3 14.7361 18.9899 155.2921 -23.9265 -6.2652 12.2001
# 4 -83.4549 -14.5570 -23.9265 0.5557 17.4330 -37.3524
# 5 14.0406 -0.5913 -6.2652 17.4330 34.3158 8.6100
# 6 -34.0218 18.8339 12.2001 -37.3524 8.6100 -2.4387
#
#
#
# Elastic Compliance Matrix: (Units=1/GPa)
#
#
# Indices 1 2 3 4 5 6 
#
# 1 0.008908 0.003099 -0.000263 -0.004558 0.003534 -0.019360
# 2 0.003099 0.017331 -0.000368 0.006491 -0.000882 -0.013758
# 3 -0.000263 -0.000368 0.007256 0.002847 0.000852 -0.003477
# 4 -0.004558 0.006491 0.002847 0.010168 0.002281 -0.019726
# 5 0.003534 -0.000882 0.000852 0.002281 0.025692 0.003927
# 6 -0.019360 -0.013758 -0.003477 -0.019726 0.003927 0.052383
#
#
# Mechanical properties :
#
#
# Convention : Reuss Voigt Hill
#
# Bulk Modulus (GPa) = 26.02102 33.62898 29.82500
# Shear Modulus (GPa) = 38.57700 18.43093 28.50396
#
# Velocity S-wave (km/s) = 3.91895 2.70882 3.36867
# Velocity P-wave (km/s) = 5.55311 4.81372 5.19658
#
# Compressibility (1/GPa) = 0.03843047
#
# Stress axis : x y z
#
# Youngs Moduli (GPa) = 112.26308 57.69987 137.82416
#
# Poissons Ratio (x) = -0.17882 0.03625
# Poissons Ratio (y) = -0.34793 0.05074
# Poissons Ratio (z) = 0.02953 0.02124
#
# Static dielectric constant tensor:
#      x y z
#    x 2.028180 0.032200 -0.009720 
#    y 0.032200 2.066850 0.000340 
#    z -0.009720 0.000340 2.021280 
# 
# From -- ./inp_files/50022.got.cif
#   From: 2010.05.17/outbox.cif.g08.bks.cpg/sg2_26_cif.got.tgz:50022.got - 2010.06.03 11:33:40.
