data_PCOD9009489
_publ_section_title
;
Structure prediction by ZEFSAII (Michael W. Deem and Ramdas Pophale) SiO2 
 PCOD9009489
Probable space group: P -1
;
_chemical_formula_sum "Si O2"
_cell_formula_units_Z 16
_cell_length_a 9.867094
_cell_length_b 9.147511
_cell_length_c 10.567762
_cell_angle_alpha 114.741953
_cell_angle_beta 66.405234
_cell_angle_gamma 130.985299
_cell_volume 642.837742
_symmetry_space_group_name_H-M "P -1"
_symmetry_group_IT_number 2
_symmetry_cell_setting 'triclinic'
loop_
_space_group_symop_operation_xyz
x,y,z
-x,-y,-z
loop_
_atom_site_type_symbol
_atom_site_label
_atom_site_fract_x
_atom_site_fract_y
_atom_site_fract_z
Si Si1 0.719302 0.125736 0.673293
Si Si2 0.861095 0.519324 0.640039
Si Si3 0.900735 0.749075 0.341764
Si Si4 0.833450 0.027116 0.065657
Si Si5 0.436737 0.143437 0.136649
Si Si6 0.832761 0.373251 0.109028
Si Si7 0.643504 0.593831 0.592522
Si Si8 0.820857 0.024438 0.337442
O O1 0.778897 0.350218 0.717027
O O2 0.721419 0.052310 0.502278
O O3 0.888039 0.149057 0.690061
O O4 0.567846 0.968597 0.771497
O O5 0.686816 0.458120 0.599048
O O6 0.000000 0.500000 0.500000
O O7 0.987059 0.760910 0.691929
O O8 0.816531 0.522909 0.254114
O O9 0.830137 0.753889 0.507500
O O10 0.854715 0.863406 0.308063
O O11 0.886857 0.249671 0.121433
O O12 0.722790 0.946493 0.210079
O O13 0.709414 0.943475 0.954958
O O14 0.000000 0.000000 0.000000
O O15 0.418807 0.312668 0.254516
O O16 0.355651 0.760619 0.947878
O O17 0.000000 0.500000 0.000000
O O18 0.500000 0.500000 0.500000
#
# Coordination Sequence:
#
# PCOD9009489 Si02
#       8
#     2   2   2   2   2   2   2   2
#     4  11  22  41  76 112 148 197 257 317 382 447
#     4  10  21  39  69 110 157 197 250 313 378 450
#     4  12  22  43  78 109 150 204 252 312 390 450
#     4  12  27  48  74 110 155 206 255 314 380 467
#     4  12  27  49  78 112 155 206 261 316 384 469
#     4  12  28  52  77 106 153 210 262 315 390 467
#     4  12  23  43  72 115 156 197 254 320 380 453
#     4  11  22  40  72 110 151 195 252 307 378 450
#
# _framework density 24.88964
#
# number of rings (size 3 to 8) (size 9 to 14) (size 15 to 20)
#    0.000    0.500    5.000    5.250    1.750    0.000 
#    2.250    5.000    0.000    0.000    0.000    0.875 
#    0.000    0.000    0.000    0.000    0.000    0.000 
#
# Total GULP energy -89357.928793 kJ/mol
# GULP energy per Si atom -5584.870550 kJ/mol
# Density = 2.483299 g / cm^3
# Si number density = 24.889640 Si / 1000 Ang^3
#
#
#
# Elastic Constant Matrix: (Units=GPa)
#
#
# Indices 1 2 3 4 5 6 
#
# 1 138.6187 62.4797 60.1883 -3.7727 0.3434 -36.8151
# 2 62.4797 113.7180 33.7125 -9.1487 -0.2446 -38.1407
# 3 60.1883 33.7125 127.1512 0.4875 18.6095 -18.5993
# 4 -3.7727 -9.1487 0.4875 48.1896 -9.6979 -7.0976
# 5 0.3434 -0.2446 18.6095 -9.6979 40.1828 -3.4041
# 6 -36.8151 -38.1407 -18.5993 -7.0976 -3.4041 51.0522
#
#
#
# Elastic Compliance Matrix: (Units=1/GPa)
#
#
# Indices 1 2 3 4 5 6 
#
# 1 0.012078 -0.003560 -0.004475 0.001576 0.002736 0.004822
# 2 -0.003560 0.014267 -0.001240 0.004161 0.002406 0.008379
# 3 -0.004475 -0.001240 0.011026 -0.001941 -0.005610 -0.000780
# 4 0.001576 0.004161 -0.001941 0.024263 0.007394 0.007404
# 5 0.002736 0.002406 -0.005610 0.007394 0.029661 0.004732
# 6 0.004822 0.008379 -0.000780 0.007404 0.004732 0.030385
#
#
# Mechanical properties :
#
#
# Convention : Reuss Voigt Hill
#
# Bulk Modulus (GPa) = 53.12797 76.91655 65.02226
# Shear Modulus (GPa) = 34.12883 42.75877 38.44380
#
# Velocity S-wave (km/s) = 3.70700 4.14929 3.93437
# Velocity P-wave (km/s) = 6.30192 7.34341 6.84251
#
# Compressibility (1/GPa) = 0.01882248
#
# Stress axis : x y z
#
# Youngs Moduli (GPa) = 82.79472 70.09027 90.69458
#
# Poissons Ratio (x) = 0.24949 0.40583
# Poissons Ratio (y) = 0.29471 0.11248
# Poissons Ratio (z) = 0.37048 0.08693
#
# Static dielectric constant tensor:
#      x y z
#    x 1.345570 -0.229740 0.409040 
#    y -0.229740 2.017720 0.197420 
#    z 0.409040 0.197420 2.071360 
# 
# From -- ./inp_files/419721.got.cif
#   From: 2010.05.17/outbox.cif.g08.bks.cpg/sg2_210_cif.got.tgz:419721.got - 2010.06.03 11:33:40.
