data_PCOD9009353
_publ_section_title
;
Structure prediction by ZEFSAII (Michael W. Deem and Ramdas Pophale) SiO2 
 PCOD9009353
Probable space group: P -1
;
_chemical_formula_sum "Si O2"
_cell_formula_units_Z 16
_cell_length_a 20.643927
_cell_length_b 8.863338
_cell_length_c 12.592778
_cell_angle_alpha 47.437920
_cell_angle_beta 36.731555
_cell_angle_gamma 31.892273
_cell_volume 727.989052
_symmetry_space_group_name_H-M "P -1"
_symmetry_group_IT_number 2
_symmetry_cell_setting 'triclinic'
loop_
_space_group_symop_operation_xyz
x,y,z
-x,-y,-z
loop_
_atom_site_type_symbol
_atom_site_label
_atom_site_fract_x
_atom_site_fract_y
_atom_site_fract_z
Si Si1 0.329861 0.749744 0.140733
Si Si2 0.304375 0.953238 0.529923
Si Si3 0.401955 0.442412 0.785173
Si Si4 0.218068 0.864713 0.998107
Si Si5 0.111810 0.843070 0.526365
Si Si6 0.179652 0.363667 0.103580
Si Si7 0.993451 0.809241 0.302479
Si Si8 0.122458 0.369183 0.749143
O O1 0.235149 0.839482 0.113694
O O2 0.275250 0.673375 0.342836
O O3 0.287798 0.028777 0.106458
O O4 0.500000 0.500000 0.000000
O O5 0.373473 0.690965 0.641634
O O6 0.430899 0.849735 0.327987
O O7 0.162648 0.028876 0.626957
O O8 0.235188 0.217529 0.571416
O O9 0.363809 0.559925 0.899551
O O10 0.279226 0.434089 0.916220
O O11 0.078574 0.910490 0.118406
O O12 0.189775 0.128028 0.863671
O O13 0.107628 0.621710 0.686268
O O14 0.052415 0.098993 0.559643
O O15 0.000000 0.000000 0.500000
O O16 0.109740 0.490223 0.253551
O O17 0.036091 0.511493 0.144535
#
# Coordination Sequence:
#
# PCOD9009353 Si02
#       8
#     2   2   2   2   2   2   2   2
#     4  12  28  45  62  92 137 170 205 260 325 383
#     4   9  19  36  60  97 127 165 208 267 310 371
#     4   9  19  36  60  93 135 162 207 259 320 374
#     4  10  21  42  66  96 127 168 213 260 316 377
#     4  12  24  45  63  95 130 168 210 265 314 375
#     4  10  21  41  64  96 122 168 209 264 314 372
#     4  10  21  39  68  93 122 163 218 265 307 368
#     4  10  21  40  70  96 124 165 218 264 310 370
#
# _framework density 21.978352000000001
#
# number of rings (size 3 to 8) (size 9 to 14) (size 15 to 20)
#    0.000    1.750    2.500    0.750    3.500    6.500 
#    0.000    3.125    0.000    0.000    0.000    0.000 
#    0.000    0.000    0.000    0.000    0.000    0.000 
#
# Total GULP energy -89303.896445 kJ/mol
# GULP energy per Si atom -5581.493528 kJ/mol
# Density = 2.192833 g / cm^3
# Si number density = 21.978352 Si / 1000 Ang^3
#
#
#
# Elastic Constant Matrix: (Units=GPa)
#
#
# Indices 1 2 3 4 5 6 
#
# 1 43.8115 19.6450 16.8094 11.1584 15.4127 21.4934
# 2 19.6450 91.6079 37.8188 26.5420 -2.0652 20.3107
# 3 16.8094 37.8188 106.9984 32.5271 -3.9763 15.2179
# 4 11.1584 26.5420 32.5271 48.5564 5.9484 -1.8459
# 5 15.4127 -2.0652 -3.9763 5.9484 31.0744 5.9313
# 6 21.4934 20.3107 15.2179 -1.8459 5.9313 30.8197
#
#
#
# Elastic Compliance Matrix: (Units=1/GPa)
#
#
# Indices 1 2 3 4 5 6 
#
# 1 0.044720 -0.001093 -0.000757 -0.008325 -0.015486 -0.027611
# 2 -0.001093 0.017026 -0.001143 -0.009405 0.005527 -0.011521
# 3 -0.000757 -0.001143 0.013971 -0.009480 0.005276 -0.007200
# 4 -0.008325 -0.009405 -0.009480 0.035815 -0.008470 0.020460
# 5 -0.015486 0.005527 0.005276 -0.008470 0.043346 -0.004297
# 6 -0.027611 -0.011521 -0.007200 0.020460 -0.004297 0.064903
#
#
# Mechanical properties :
#
#
# Convention : Reuss Voigt Hill
#
# Bulk Modulus (GPa) = 14.34084 43.44046 28.89065
# Shear Modulus (GPa) = 20.07949 33.29974 26.68961
#
# Velocity S-wave (km/s) = 3.02587 3.89667 3.48855
# Velocity P-wave (km/s) = 4.32978 6.32878 5.42219
#
# Compressibility (1/GPa) = 0.06973090
#
# Stress axis : x y z
#
# Youngs Moduli (GPa) = 22.36155 58.73268 71.57657
#
# Poissons Ratio (x) = 0.06418 0.05418
# Poissons Ratio (y) = 0.02444 0.08183
# Poissons Ratio (z) = 0.01693 0.06715
#
# Static dielectric constant tensor:
#      x y z
#    x 1.794290 0.015700 0.005970 
#    y 0.015700 1.807420 0.045720 
#    z 0.005970 0.045720 1.877050 
# 
# From -- ./inp_files/180492.got.cif
#   From: 2010.05.17/outbox.cif.g08.bks.cpg/sg2_91_cif.got.tgz:180492.got - 2010.06.03 11:33:40.
