data_PCOD9009398
_publ_section_title
;
Structure prediction by ZEFSAII (Michael W. Deem and Ramdas Pophale) SiO2 
 PCOD9009398
Probable space group: P -1
;
_chemical_formula_sum "Si O2"
_cell_formula_units_Z 14
_cell_length_a 16.617613
_cell_length_b 28.963428
_cell_length_c 15.968970
_cell_angle_alpha 160.640909
_cell_angle_beta 16.905870
_cell_angle_gamma 163.278265
_cell_volume 608.324047
_symmetry_space_group_name_H-M "P -1"
_symmetry_group_IT_number 2
_symmetry_cell_setting 'triclinic'
loop_
_space_group_symop_operation_xyz
x,y,z
-x,-y,-z
loop_
_atom_site_type_symbol
_atom_site_label
_atom_site_fract_x
_atom_site_fract_y
_atom_site_fract_z
Si Si1 0.695472 0.499370 0.691301
Si Si2 0.503938 0.380490 0.221186
Si Si3 0.547994 0.857866 0.243517
Si Si4 0.948900 0.002999 0.262263
Si Si5 0.282056 0.762734 0.103277
Si Si6 0.196601 0.494791 0.598556
Si Si7 0.578530 0.300434 0.628422
O O1 0.715401 0.461475 0.510881
O O2 0.592683 0.347927 0.598561
O O3 0.063982 0.656743 0.624936
O O4 0.456969 0.563160 0.053005
O O5 0.500000 0.500000 0.500000
O O6 0.740610 0.335669 0.958270
O O7 0.467964 0.470620 0.330263
O O8 0.270067 0.188897 0.086672
O O9 0.739443 0.899295 0.211537
O O10 0.174391 0.682065 0.327428
O O11 0.500000 0.000000 0.500000
O O12 0.731663 0.884397 0.353010
O O13 0.336427 0.069635 0.993201
O O14 0.955658 0.172713 0.546017
O O15 0.206338 0.638971 0.889923
#
# Coordination Sequence:
#
# PCOD9009398 Si02
#       7
#     2   2   2   2   2   2   2
#     4  10  21  40  66 101 123 171 214 274 328 396
#     4  10  24  41  63  92 135 177 217 270 332 394
#     4  12  24  39  69  95 128 167 233 274 319 386
#     4  12  24  43  65 100 132 172 220 279 328 380
#     4  11  27  42  64  93 141 179 212 267 341 397
#     4  11  25  42  66  94 131 180 220 269 331 404
#     4  10  21  39  68  96 133 159 218 277 334 374
#
# _framework density 23.014050999999998
#
# number of rings (size 3 to 8) (size 9 to 14) (size 15 to 20)
#    0.000    1.143    2.857    2.571    6.000    2.286 
#    0.000    1.429    0.000    0.000    0.000    0.000 
#    0.000    0.000    0.000    0.000    0.000    0.000 
#
# Total GULP energy -78178.642099 kJ/mol
# GULP energy per Si atom -5584.188721 kJ/mol
# Density = 2.296167 g / cm^3
# Si number density = 23.014051 Si / 1000 Ang^3
#
#
#
# Elastic Constant Matrix: (Units=GPa)
#
#
# Indices 1 2 3 4 5 6 
#
# 1 162.9734 50.8127 24.9771 10.6453 31.6771 -11.9286
# 2 50.8127 135.1003 1.5544 -6.4994 6.8019 -2.2953
# 3 24.9771 1.5544 90.4609 16.3160 11.0288 6.8592
# 4 10.6453 -6.4994 16.3160 42.2093 10.2882 6.1780
# 5 31.6771 6.8019 11.0288 10.2882 36.3052 0.9789
# 6 -11.9286 -2.2953 6.8592 6.1780 0.9789 27.2473
#
#
#
# Elastic Compliance Matrix: (Units=1/GPa)
#
#
# Indices 1 2 3 4 5 6 
#
# 1 0.009049 -0.003027 -0.001792 -0.001130 -0.006589 0.004651
# 2 -0.003027 0.008595 0.000365 0.002024 0.000377 -0.001165
# 3 -0.001792 0.000365 0.012574 -0.003608 -0.001220 -0.003057
# 4 -0.001130 0.002024 -0.003608 0.027974 -0.006075 -0.005541
# 5 -0.006589 0.000377 -0.001220 -0.006075 0.035381 -0.002439
# 6 0.004651 -0.001165 -0.003057 -0.005541 -0.002439 0.040752
#
#
# Mechanical properties :
#
#
# Convention : Reuss Voigt Hill
#
# Bulk Modulus (GPa) = 46.92295 60.35811 53.64053
# Shear Modulus (GPa) = 33.25878 41.89839 37.57858
#
# Velocity S-wave (km/s) = 3.80564 4.27143 4.04524
# Velocity P-wave (km/s) = 6.30425 7.11410 6.72138
#
# Compressibility (1/GPa) = 0.02131153
#
# Stress axis : x y z
#
# Youngs Moduli (GPa) = 110.50638 116.35228 79.52765
#
# Poissons Ratio (x) = 0.35214 0.14252
# Poissons Ratio (y) = 0.33445 -0.02905
# Poissons Ratio (z) = 0.19803 -0.04250
#
# Static dielectric constant tensor:
#      x y z
#    x 1.843500 -0.033390 0.061710 
#    y -0.033390 1.973630 -0.097030 
#    z 0.061710 -0.097030 1.943930 
# 
# From -- ./inp_files/34093.got.cif
#   From: 2010.05.17/outbox.cif.g08.bks.cpg/sg2_18_cif.got.tgz:34093.got - 2010.06.03 11:33:40.
