data_PCOD9009439
_publ_section_title
;
Structure prediction by ZEFSAII (Michael W. Deem and Ramdas Pophale) SiO2 
 PCOD9009439
Probable space group: P -1
;
_chemical_formula_sum "Si O2"
_cell_formula_units_Z 15
_cell_length_a 10.671376
_cell_length_b 11.660951
_cell_length_c 12.768651
_cell_angle_alpha 127.360408
_cell_angle_beta 58.122524
_cell_angle_gamma 154.057552
_cell_volume 551.781177
_symmetry_space_group_name_H-M "P -1"
_symmetry_group_IT_number 2
_symmetry_cell_setting 'triclinic'
loop_
_space_group_symop_operation_xyz
x,y,z
-x,-y,-z
loop_
_atom_site_type_symbol
_atom_site_label
_atom_site_fract_x
_atom_site_fract_y
_atom_site_fract_z
Si Si1 0.039434 0.087638 0.202279
Si Si2 0.500000 0.500000 0.000000
Si Si3 0.850929 0.222207 0.402006
Si Si4 0.490559 0.221005 0.064656
Si Si5 0.679458 0.112054 0.646918
Si Si6 0.887504 0.831703 0.560122
Si Si7 0.074760 0.409531 0.104060
Si Si8 0.422583 0.671381 0.677494
O O1 0.328686 0.242401 0.131320
O O2 0.076085 0.289128 0.308147
O O3 0.773506 0.823757 0.102381
O O4 0.943685 0.977163 0.304538
O O5 0.729180 0.552650 0.912035
O O6 0.703924 0.069675 0.494948
O O7 0.000000 0.500000 0.500000
O O8 0.607842 0.030742 0.316108
O O9 0.587345 0.276339 0.171904
O O10 0.243093 0.909173 0.959064
O O11 0.766908 0.439070 0.992950
O O12 0.913387 0.427887 0.751594
O O13 0.602381 0.927043 0.664522
O O14 0.592849 0.665588 0.623966
O O15 0.835032 0.619612 0.436124
O O16 0.000000 0.000000 0.500000
#
# Coordination Sequence:
#
# PCOD9009439 Si02
#       8
#     2   1   2   2   2   2   2   2
#     4  10  21  43  67 105 135 186 239 303 358 428
#     4  10  22  40  70  98 142 184 238 294 350 426
#     4  11  24  43  67 102 141 188 236 302 359 442
#     4  10  26  45  74 104 143 189 247 299 358 428
#     4  11  25  43  67 101 145 189 241 292 372 428
#     4  10  21  39  68  98 138 183 240 299 357 431
#     4  11  25  47  70 107 145 195 240 298 360 436
#     4  10  23  42  64 103 137 190 235 302 359 430
#
# _framework density 27.18469
#
# number of rings (size 3 to 8) (size 9 to 14) (size 15 to 20)
#    0.000    1.600    1.333    1.600    7.467    4.267 
#    7.200    0.000    0.000    0.000    0.000    0.000 
#    0.000    0.000    0.000    0.000    0.000    0.000 
#
# Total GULP energy -83750.607842 kJ/mol
# GULP energy per Si atom -5583.373856 kJ/mol
# Density = 2.712282 g / cm^3
# Si number density = 27.184690 Si / 1000 Ang^3
#
#
#
# Elastic Constant Matrix: (Units=GPa)
#
#
# Indices 1 2 3 4 5 6 
#
# 1 91.9369 -7.1560 40.8076 9.8832 -13.3989 -7.4990
# 2 -7.1560 66.1179 41.7299 -1.1513 6.0870 -20.1515
# 3 40.8076 41.7299 154.2821 -4.7145 -7.2480 -21.6354
# 4 9.8832 -1.1513 -4.7145 58.8273 -6.4525 -1.4580
# 5 -13.3989 6.0870 -7.2480 -6.4525 64.2011 16.3452
# 6 -7.4990 -20.1515 -21.6354 -1.4580 16.3452 25.2391
#
#
#
# Elastic Compliance Matrix: (Units=1/GPa)
#
#
# Indices 1 2 3 4 5 6 
#
# 1 0.014110 0.005694 -0.004736 -0.002474 0.000559 0.004174
# 2 0.005694 0.027556 -0.006048 -0.001221 -0.008291 0.023808
# 3 -0.004736 -0.006048 0.009707 0.001541 0.000338 0.001956
# 4 -0.002474 -0.001221 0.001541 0.017686 0.001664 -0.000446
# 5 0.000559 -0.008291 0.000338 0.001664 0.021828 -0.020204
# 6 0.004174 0.023808 0.001956 -0.000446 -0.020204 0.074605
#
#
# Mechanical properties :
#
#
# Convention : Reuss Voigt Hill
#
# Bulk Modulus (GPa) = 24.27541 51.45554 37.86547
# Shear Modulus (GPa) = 26.39862 45.45053 35.92458
#
# Velocity S-wave (km/s) = 3.11960 4.09334 3.63919
# Velocity P-wave (km/s) = 4.68242 6.42727 5.62294
#
# Compressibility (1/GPa) = 0.04119396
#
# Stress axis : x y z
#
# Youngs Moduli (GPa) = 70.86974 36.28984 103.01477
#
# Poissons Ratio (x) = -0.20664 0.48791
# Poissons Ratio (y) = -0.40353 0.62298
# Poissons Ratio (z) = 0.33566 0.21946
#
# Static dielectric constant tensor:
#      x y z
#    x 2.297250 0.047490 0.001530 
#    y 0.047490 2.184850 -0.048160 
#    z 0.001530 -0.048160 2.113050 
# 
# From -- ./inp_files/428710.got.cif
#   From: 2010.05.17/outbox.cif.g08.bks.cpg/sg2_215_cif.got.tgz:428710.got - 2010.06.03 11:33:40.
