data_PCOD9009670
_publ_section_title
;
Structure prediction by ZEFSAII (Michael W. Deem and Ramdas Pophale) SiO2 
 PCOD9009670
Probable space group: P -1
;
_chemical_formula_sum "Si O2"
_cell_formula_units_Z 16
_cell_length_a 11.597040
_cell_length_b 8.974131
_cell_length_c 16.561556
_cell_angle_alpha 37.504096
_cell_angle_beta 137.773596
_cell_angle_gamma 113.442817
_cell_volume 624.947019
_symmetry_space_group_name_H-M "P -1"
_symmetry_group_IT_number 2
_symmetry_cell_setting 'triclinic'
loop_
_space_group_symop_operation_xyz
x,y,z
-x,-y,-z
loop_
_atom_site_type_symbol
_atom_site_label
_atom_site_fract_x
_atom_site_fract_y
_atom_site_fract_z
Si Si1 0.970534 0.492857 0.618865
Si Si2 0.024878 0.529586 0.182501
Si Si3 0.407772 0.825060 0.794817
Si Si4 0.653662 0.874010 0.759146
Si Si5 0.929813 0.039925 0.548821
Si Si6 0.777106 0.388331 0.900473
Si Si7 0.194875 0.859622 0.389002
Si Si8 0.591130 0.993257 0.963282
O O1 0.958458 0.780665 0.461413
O O2 0.917788 0.483177 0.689507
O O3 0.841099 0.395598 0.542767
O O4 0.197217 0.273486 0.821468
O O5 0.181825 0.494114 0.211970
O O6 0.962072 0.287934 0.244900
O O7 0.836843 0.807786 0.941753
O O8 0.493206 0.905321 0.726169
O O9 0.192482 0.897934 0.623198
O O10 0.459273 0.965011 0.836491
O O11 0.500000 0.500000 0.000000
O O12 0.707047 0.617600 0.835612
O O13 0.643401 0.113324 0.591861
O O14 0.779344 0.141078 0.502344
O O15 0.637412 0.251309 0.872452
O O16 0.988829 0.135451 0.144650
O O17 0.500000 0.000000 0.000000
#
# Coordination Sequence:
#
# PCOD9009670 Si02
#       8
#     2   2   2   2   2   2   2   2
#     4  11  24  40  68  98 128 173 223 274 316 386
#     4  11  21  42  67  99 129 171 220 270 328 375
#     4  12  25  43  65  95 131 178 217 261 328 394
#     4  11  20  42  71  93 132 172 224 262 324 396
#     4  12  23  44  63  98 139 169 216 266 329 388
#     4  10  21  39  72  95 129 168 224 272 318 387
#     4  10  22  40  66  99 126 169 217 277 323 367
#     4  11  24  44  66  96 130 176 219 266 326 391
#
# _framework density 25.602173000000001
#
# number of rings (size 3 to 8) (size 9 to 14) (size 15 to 20)
#    0.000    1.000    5.000    2.250    1.750    2.000 
#    6.750    0.625    0.000    0.000    0.000    0.000 
#    0.000    0.000    0.000    0.000    0.000    0.000 
#
# Total GULP energy -89692.035790 kJ/mol
# GULP energy per Si atom -5605.752237 kJ/mol
# Density = 2.554390 g / cm^3
# Si number density = 25.602173 Si / 1000 Ang^3
#
#
#
# Elastic Constant Matrix: (Units=GPa)
#
#
# Indices 1 2 3 4 5 6 
#
# 1 175.6636 69.9265 37.2459 5.3479 -28.6082 4.5047
# 2 69.9265 153.6690 35.0465 11.2695 -24.3721 8.1513
# 3 37.2459 35.0465 73.3958 6.3725 -13.4901 9.9037
# 4 5.3479 11.2695 6.3725 44.2459 3.6403 -9.9205
# 5 -28.6082 -24.3721 -13.4901 3.6403 48.7768 6.1166
# 6 4.5047 8.1513 9.9037 -9.9205 6.1166 48.1159
#
#
#
# Elastic Compliance Matrix: (Units=1/GPa)
#
#
# Indices 1 2 3 4 5 6 
#
# 1 0.007589 -0.002521 -0.002106 -0.000244 0.002657 -0.000238
# 2 -0.002521 0.008798 -0.002000 -0.002244 0.002739 -0.001654
# 3 -0.002106 -0.002000 0.017012 -0.002834 0.003178 -0.003954
# 4 -0.000244 -0.002244 -0.002834 0.025546 -0.004816 0.006866
# 5 0.002657 0.002739 0.003178 -0.004816 0.025367 -0.005584
# 6 -0.000238 -0.001654 -0.003954 0.006866 -0.005584 0.024025
#
#
# Mechanical properties :
#
#
# Convention : Reuss Voigt Hill
#
# Bulk Modulus (GPa) = 49.64069 76.35180 62.99625
# Shear Modulus (GPa) = 38.96964 45.59502 42.28233
#
# Velocity S-wave (km/s) = 3.90567 4.22465 4.06829
# Velocity P-wave (km/s) = 6.30638 7.32694 6.83573
#
# Compressibility (1/GPa) = 0.02014476
#
# Stress axis : x y z
#
# Youngs Moduli (GPa) = 131.76927 113.66777 58.78183
#
# Poissons Ratio (x) = 0.28658 0.12377
# Poissons Ratio (y) = 0.33222 0.11757
# Poissons Ratio (z) = 0.27746 0.22734
#
# Static dielectric constant tensor:
#      x y z
#    x 2.073790 -0.015330 0.068200 
#    y -0.015330 1.942300 -0.029080 
#    z 0.068200 -0.029080 2.054490 
# 
# From -- ./inp_files/283131.got.cif
#   From: 2010.05.17/outbox.cif.g08.bks.cpg/sg2_142_cif.got.tgz:283131.got - 2010.06.03 11:33:40.
