data_PCOD9009079
_publ_section_title
;
Structure prediction by ZEFSAII (Michael W. Deem and Ramdas Pophale) SiO2 
 PCOD9009079
Probable space group: P -1
;
_chemical_formula_sum "Si O2"
_cell_formula_units_Z 15
_cell_length_a 9.326627
_cell_length_b 15.830777
_cell_length_c 10.722488
_cell_angle_alpha 32.978288
_cell_angle_beta 44.140053
_cell_angle_gamma 48.828296
_cell_volume 593.472922
_symmetry_space_group_name_H-M "P -1"
_symmetry_group_IT_number 2
_symmetry_cell_setting 'triclinic'
loop_
_space_group_symop_operation_xyz
x,y,z
-x,-y,-z
loop_
_atom_site_type_symbol
_atom_site_label
_atom_site_fract_x
_atom_site_fract_y
_atom_site_fract_z
Si Si1 0.380271 0.504499 0.196537
Si Si2 0.252629 0.582054 0.781617
Si Si3 0.681813 0.799531 0.057104
Si Si4 0.125461 0.033555 0.059133
Si Si5 0.990657 0.497579 0.737796
Si Si6 0.810360 0.241475 0.828888
Si Si7 0.500000 0.500000 0.500000
Si Si8 0.080270 0.110879 0.415772
O O1 0.533020 0.381223 0.334183
O O2 0.155447 0.477962 0.323115
O O3 0.355533 0.669624 0.080910
O O4 0.500000 0.500000 0.000000
O O5 0.327284 0.481980 0.738952
O O6 0.084893 0.730921 0.673468
O O7 0.147227 0.480980 0.077604
O O8 0.510021 0.684727 0.310478
O O9 0.894712 0.678875 0.107450
O O10 0.704624 0.923588 0.000863
O O11 0.710484 0.860501 0.822317
O O12 0.218667 0.901458 0.065289
O O13 0.944064 0.969052 0.335777
O O14 0.010345 0.174135 0.871426
O O15 0.160586 0.612050 0.462768
O O16 0.000000 0.000000 0.500000
#
# Coordination Sequence:
#
# PCOD9009079 Si02
#       8
#     2   2   2   2   2   2   1   2
#     4  10  21  39  67 100 138 167 227 295 341 388
#     4  10  24  39  65 104 135 172 226 291 342 395
#     4  10  22  43  68 100 134 182 232 283 338 403
#     4  10  23  40  67 100 139 178 238 269 341 419
#     4  10  21  40  73  96 128 178 240 287 327 397
#     4  11  22  38  72 104 127 184 231 286 333 410
#     4  12  26  38  68 104 140 168 226 296 340 392
#     4   9  21  43  69  92 135 190 225 270 335 430
#
# _framework density 25.274954000000001
#
# number of rings (size 3 to 8) (size 9 to 14) (size 15 to 20)
#    0.000    1.867    1.333    1.200    9.333    1.067 
#    0.000    2.667    0.000   14.400    0.000    0.000 
#    0.000    0.000    0.000    0.000    0.000    0.000 
#
# Total GULP energy -83565.559925 kJ/mol
# GULP energy per Si atom -5571.037328 kJ/mol
# Density = 2.521743 g / cm^3
# Si number density = 25.274954 Si / 1000 Ang^3
#
#
#
# Elastic Constant Matrix: (Units=GPa)
#
#
# Indices 1 2 3 4 5 6 
#
# 1 91.2675 28.2373 14.6113 8.0403 9.8968 20.1224
# 2 28.2373 153.9206 38.6784 27.1113 3.2816 46.3487
# 3 14.6113 38.6784 107.2169 9.9388 13.2813 24.7646
# 4 8.0403 27.1113 9.9388 39.6725 6.1656 3.3036
# 5 9.8968 3.2816 13.2813 6.1656 48.0170 -4.2493
# 6 20.1224 46.3487 24.7646 3.3036 -4.2493 37.9397
#
#
#
# Elastic Compliance Matrix: (Units=1/GPa)
#
#
# Indices 1 2 3 4 5 6 
#
# 1 0.013022 0.000164 0.000501 -0.001728 -0.003289 -0.007652
# 2 0.000164 0.012014 -0.000332 -0.006811 -0.001134 -0.014081
# 3 0.000501 -0.000332 0.011818 -0.001583 -0.003842 -0.007867
# 4 -0.001728 -0.006811 -0.001583 0.030298 -0.001975 0.007412
# 5 -0.003289 -0.001134 -0.003842 -0.001975 0.023646 0.008459
# 6 -0.007652 -0.014081 -0.007867 0.007412 0.008459 0.053055
#
#
# Mechanical properties :
#
#
# Convention : Reuss Voigt Hill
#
# Bulk Modulus (GPa) = 26.65236 57.27322 41.96279
# Shear Modulus (GPa) = 32.11422 43.18438 37.64930
#
# Velocity S-wave (km/s) = 3.56841 4.13799 3.86371
# Velocity P-wave (km/s) = 5.24842 6.74832 6.04507
#
# Compressibility (1/GPa) = 0.03752014
#
# Stress axis : x y z
#
# Youngs Moduli (GPa) = 76.79443 83.23364 84.61557
#
# Poissons Ratio (x) = -0.01362 -0.04242
# Poissons Ratio (y) = -0.01257 0.02810
# Poissons Ratio (z) = -0.03850 0.02764
#
# Static dielectric constant tensor:
#      x y z
#    x 2.061410 0.053480 -0.061290 
#    y 0.053480 2.103880 0.008190 
#    z -0.061290 0.008190 2.068960 
# 
# From -- ./inp_files/435270.got.cif
#   From: 2010.05.17/outbox.cif.g08.bks.cpg/sg2_218_cif.got.tgz:435270.got - 2010.06.03 11:33:40.
