data_PCOD9009701
_publ_section_title
;
Structure prediction by ZEFSAII (Michael W. Deem and Ramdas Pophale) SiO2 
 PCOD9009701
Probable space group: P -1
;
_chemical_formula_sum "Si O2"
_cell_formula_units_Z 16
_cell_length_a 9.052447
_cell_length_b 10.987081
_cell_length_c 16.577348
_cell_angle_alpha 45.769157
_cell_angle_beta 42.414757
_cell_angle_gamma 42.623702
_cell_volume 708.807063
_symmetry_space_group_name_H-M "P -1"
_symmetry_group_IT_number 2
_symmetry_cell_setting 'triclinic'
loop_
_space_group_symop_operation_xyz
x,y,z
-x,-y,-z
loop_
_atom_site_type_symbol
_atom_site_label
_atom_site_fract_x
_atom_site_fract_y
_atom_site_fract_z
Si Si1 0.434880 0.016802 0.884591
Si Si2 0.055097 0.530291 0.556294
Si Si3 0.226384 0.046498 0.558171
Si Si4 0.367332 0.636936 0.616684
Si Si5 0.769394 0.456683 0.118148
Si Si6 0.606266 0.619546 0.948941
Si Si7 0.885655 0.573182 0.252964
Si Si8 0.885779 0.973166 0.838035
O O1 0.305888 0.219058 0.797931
O O2 0.496621 0.844501 0.876958
O O3 0.684466 0.985189 0.845913
O O4 0.254561 0.001666 0.032654
O O5 0.348352 0.446112 0.478258
O O6 0.011653 0.424519 0.700043
O O7 0.000000 0.500000 0.500000
O O8 0.889986 0.755552 0.534393
O O9 0.500000 0.000000 0.500000
O O10 0.253298 0.860980 0.582542
O O11 0.027078 0.085808 0.692735
O O12 0.343590 0.526841 0.756658
O O13 0.230998 0.574396 0.633462
O O14 0.884867 0.236572 0.150413
O O15 0.580028 0.589949 0.067840
O O16 0.000000 0.500000 0.000000
O O17 0.891333 0.517875 0.857407
O O18 0.500000 0.500000 0.000000
#
# Coordination Sequence:
#
# PCOD9009701 Si02
#       8
#     2   2   2   2   2   2   2   2
#     4  11  23  45  72 111 140 183 233 298 360 420
#     4  12  28  48  71  99 140 195 241 292 356 417
#     4  11  24  44  70 104 141 190 236 288 352 427
#     4  11  24  45  75 104 138 186 242 296 347 425
#     4  11  19  43  73 104 144 179 233 287 353 426
#     4  12  27  42  67 109 150 187 222 292 361 423
#     4  12  27  48  71 106 144 182 246 297 352 426
#     4  10  21  39  78 104 139 182 239 287 353 425
#
# _framework density 22.573138
#
# number of rings (size 3 to 8) (size 9 to 14) (size 15 to 20)
#    0.000    0.750    5.000    1.875    5.250    2.000 
#    4.500    0.000    0.000    0.000    0.000    0.000 
#    0.000    0.000    0.000    0.000    0.000    0.000 
#
# Total GULP energy -89369.267356 kJ/mol
# GULP energy per Si atom -5585.579210 kJ/mol
# Density = 2.252176 g / cm^3
# Si number density = 22.573138 Si / 1000 Ang^3
#
#
#
# Elastic Constant Matrix: (Units=GPa)
#
#
# Indices 1 2 3 4 5 6 
#
# 1 83.4189 32.4251 25.1894 -13.6259 8.7380 15.9123
# 2 32.4251 133.9832 18.1844 -30.3958 3.8495 1.1878
# 3 25.1894 18.1844 67.9117 1.3516 9.5369 -2.7860
# 4 -13.6259 -30.3958 1.3516 41.9880 -2.3260 -2.0841
# 5 8.7380 3.8495 9.5369 -2.3260 38.1876 0.2758
# 6 15.9123 1.1878 -2.7860 -2.0841 0.2758 27.4092
#
#
#
# Elastic Compliance Matrix: (Units=1/GPa)
#
#
# Indices 1 2 3 4 5 6 
#
# 1 0.017541 -0.002489 -0.006060 0.003460 -0.001964 -0.010409
# 2 -0.002489 0.009738 -0.001816 0.006389 0.000421 0.001320
# 3 -0.006060 -0.001816 0.018203 -0.003790 -0.003245 0.005192
# 4 0.003460 0.006389 -0.003790 0.029739 0.001325 -0.000423
# 5 -0.001964 0.000421 -0.003245 0.001325 0.027480 0.000616
# 6 -0.010409 0.001320 0.005192 -0.000423 0.000616 0.042959
#
#
# Mechanical properties :
#
#
# Convention : Reuss Voigt Hill
#
# Bulk Modulus (GPa) = 40.40114 48.54572 44.47343
# Shear Modulus (GPa) = 28.62992 35.48462 32.05727
#
# Velocity S-wave (km/s) = 3.56521 3.96913 3.77258
# Velocity P-wave (km/s) = 5.90630 6.52365 6.22263
#
# Compressibility (1/GPa) = 0.02475178
#
# Stress axis : x y z
#
# Youngs Moduli (GPa) = 57.00772 102.68838 54.93541
#
# Poissons Ratio (x) = 0.25559 0.33291
# Poissons Ratio (y) = 0.14189 0.09979
# Poissons Ratio (z) = 0.34547 0.18653
#
# Static dielectric constant tensor:
#      x y z
#    x 1.856330 0.044500 -0.009600 
#    y 0.044500 1.870100 -0.066750 
#    z -0.009600 -0.066750 1.966560 
# 
# From -- ./inp_files/559633.got.cif
#   From: 2010.05.17/outbox.cif.g08.bks.cpg/sg2_280_cif.got.tgz:559633.got - 2010.06.03 11:33:40.
