data_PCOD9009098
_publ_section_title
;
Structure prediction by ZEFSAII (Michael W. Deem and Ramdas Pophale) SiO2 
 PCOD9009098
Probable space group: P -1
;
_chemical_formula_sum "Si O2"
_cell_formula_units_Z 14
_cell_length_a 15.216930
_cell_length_b 12.041203
_cell_length_c 9.444553
_cell_angle_alpha 60.027172
_cell_angle_beta 28.271733
_cell_angle_gamma 50.450408
_cell_volume 623.089780
_symmetry_space_group_name_H-M "P -1"
_symmetry_group_IT_number 2
_symmetry_cell_setting 'triclinic'
loop_
_space_group_symop_operation_xyz
x,y,z
-x,-y,-z
loop_
_atom_site_type_symbol
_atom_site_label
_atom_site_fract_x
_atom_site_fract_y
_atom_site_fract_z
Si Si1 0.741786 0.446740 0.245905
Si Si2 0.484792 0.199349 0.249771
Si Si3 0.136595 0.826703 0.902371
Si Si4 0.078968 0.486522 0.554679
Si Si5 0.100861 0.769450 0.301094
Si Si6 0.614992 0.737313 0.346109
Si Si7 0.336601 0.058011 0.063597
O O1 0.500000 0.500000 0.500000
O O2 0.855762 0.269406 0.185052
O O3 0.710494 0.561074 0.343884
O O4 0.895036 0.482041 0.909772
O O5 0.298475 0.340324 0.352917
O O6 0.389502 0.190523 0.543011
O O7 0.688863 0.219513 0.977266
O O8 0.562667 0.063612 0.122273
O O9 0.374769 0.794068 0.605021
O O10 0.077371 0.766007 0.166004
O O11 0.000000 0.000000 0.000000
O O12 0.119117 0.623404 0.435668
O O13 0.000000 0.500000 0.500000
O O14 0.891617 0.905404 0.574371
O O15 0.699431 0.795420 0.060817
O O16 0.500000 0.000000 0.000000
#
# Coordination Sequence:
#
# PCOD9009098 Si02
#       7
#     2   2   2   2   2   2   2
#     4  10  22  42  68  99 137 178 229 286 345 414
#     4  11  27  44  67  99 144 186 226 290 357 410
#     4  10  21  39  67 102 137 177 226 282 343 412
#     4  12  23  44  73  99 135 183 237 290 341 415
#     4  11  23  45  65 102 144 179 232 286 350 411
#     4  10  23  44  63  97 139 182 226 280 347 417
#     4  12  24  43  73 102 138 184 238 286 344 413
#
# _framework density 22.468674
#
# number of rings (size 3 to 8) (size 9 to 14) (size 15 to 20)
#    0.000    1.143    2.857    3.000    2.000    0.571 
#    0.000    0.000    0.000    0.000    0.000    0.000 
#    0.000    0.000    0.000    0.000    0.000    0.000 
#
# Total GULP energy -78098.349995 kJ/mol
# GULP energy per Si atom -5578.453571 kJ/mol
# Density = 2.241753 g / cm^3
# Si number density = 22.468674 Si / 1000 Ang^3
#
#
#
# Elastic Constant Matrix: (Units=GPa)
#
#
# Indices 1 2 3 4 5 6 
#
# 1 73.8876 27.4272 16.8111 11.4869 -0.5714 6.6369
# 2 27.4272 134.5304 21.8612 23.9179 -8.9952 14.8893
# 3 16.8111 21.8612 103.8455 14.5840 -8.3954 -7.5728
# 4 11.4869 23.9179 14.5840 39.3117 4.1916 6.8279
# 5 -0.5714 -8.9952 -8.3954 4.1916 14.4382 11.0967
# 6 6.6369 14.8893 -7.5728 6.8279 11.0967 34.2314
#
#
#
# Elastic Compliance Matrix: (Units=1/GPa)
#
#
# Indices 1 2 3 4 5 6 
#
# 1 0.015287 -0.002169 -0.001837 -0.002141 0.000458 -0.002148
# 2 -0.002169 0.010805 -0.000530 -0.005890 0.014016 -0.007765
# 3 -0.001837 -0.000530 0.011261 -0.004295 0.005818 0.002048
# 4 -0.002141 -0.005890 -0.004295 0.032851 -0.016395 0.000789
# 5 0.000458 0.014016 0.005818 -0.016395 0.116407 -0.039363
# 6 -0.002148 -0.007765 0.002048 0.000789 -0.039363 0.046063
#
#
# Mechanical properties :
#
#
# Convention : Reuss Voigt Hill
#
# Bulk Modulus (GPa) = 35.35769 49.38472 42.37121
# Shear Modulus (GPa) = 19.90656 34.00718 26.95687
#
# Velocity S-wave (km/s) = 2.97975 3.89464 3.46750
# Velocity P-wave (km/s) = 5.25444 6.50011 5.91018
#
# Compressibility (1/GPa) = 0.02828239
#
# Stress axis : x y z
#
# Youngs Moduli (GPa) = 65.41705 92.54820 88.79814
#
# Poissons Ratio (x) = 0.20073 0.16312
# Poissons Ratio (y) = 0.14188 0.04703
# Poissons Ratio (z) = 0.12017 0.04901
#
# Static dielectric constant tensor:
#      x y z
#    x 1.848430 0.017410 0.047600 
#    y 0.017410 1.922320 -0.003600 
#    z 0.047600 -0.003600 1.816950 
# 
# From -- ./inp_files/157199.got.cif
#   From: 2010.05.17/outbox.cif.g08.bks.cpg/sg2_79_cif.got.tgz:157199.got - 2010.06.03 11:33:40.
