data_PCOD9009522
_publ_section_title
;
Structure prediction by ZEFSAII (Michael W. Deem and Ramdas Pophale) SiO2 
 PCOD9009522
Probable space group: P -1
;
_chemical_formula_sum "Si O2"
_cell_formula_units_Z 16
_cell_length_a 8.133736
_cell_length_b 11.657078
_cell_length_c 14.412825
_cell_angle_alpha 116.021161
_cell_angle_beta 139.997405
_cell_angle_gamma 84.714892
_cell_volume 715.567036
_symmetry_space_group_name_H-M "P -1"
_symmetry_group_IT_number 2
_symmetry_cell_setting 'triclinic'
loop_
_space_group_symop_operation_xyz
x,y,z
-x,-y,-z
loop_
_atom_site_type_symbol
_atom_site_label
_atom_site_fract_x
_atom_site_fract_y
_atom_site_fract_z
Si Si1 0.516652 0.375666 0.024603
Si Si2 0.290159 0.774135 0.074466
Si Si3 0.301840 0.628102 0.206343
Si Si4 0.762293 0.052765 0.409103
Si Si5 0.668507 0.465235 0.335623
Si Si6 0.960601 0.041545 0.873099
Si Si7 0.452945 0.184419 0.244415
Si Si8 0.118846 0.844357 0.307489
O O1 0.577470 0.412499 0.171664
O O2 0.500000 0.500000 0.000000
O O3 0.749203 0.329206 0.064047
O O4 0.205410 0.248567 0.836675
O O5 0.410791 0.711606 0.187025
O O6 0.066676 0.821590 0.042449
O O7 0.522449 0.927167 0.206108
O O8 0.529320 0.576652 0.326082
O O9 0.234215 0.733560 0.280529
O O10 0.000000 0.500000 0.000000
O O11 0.756099 0.185506 0.401343
O O12 0.705750 0.071901 0.498985
O O13 0.000000 0.000000 0.500000
O O14 0.517175 0.342058 0.301424
O O15 0.000000 0.500000 0.500000
O O16 0.889997 0.051762 0.740120
O O17 0.758611 0.900323 0.791443
O O18 0.288269 0.085794 0.051085
#
# Coordination Sequence:
#
# PCOD9009522 Si02
#       8
#     2   2   2   2   2   2   2   2
#     4  12  22  40  69 100 133 182 227 268 332 419
#     4  10  21  39  69  96 127 170 229 276 331 393
#     4  11  21  43  71  96 133 184 229 270 326 413
#     4  11  24  40  68  96 132 169 220 290 329 388
#     4  12  26  42  66 105 145 175 219 288 346 391
#     4   9  20  43  69  92 129 178 223 279 333 401
#     4  10  22  42  65  92 137 173 216 282 340 392
#     4  11  22  42  74  98 125 178 242 268 331 407
#
# _framework density 22.359891000000001
#
# number of rings (size 3 to 8) (size 9 to 14) (size 15 to 20)
#    0.000    1.250    5.000    0.750    3.500    4.500 
#    2.250    7.500    0.000    0.000    0.000    0.000 
#    0.000    0.000    0.000    0.000    0.000    0.000 
#
# Total GULP energy -89136.324966 kJ/mol
# GULP energy per Si atom -5571.020310 kJ/mol
# Density = 2.230900 g / cm^3
# Si number density = 22.359891 Si / 1000 Ang^3
#
#
#
# Elastic Constant Matrix: (Units=GPa)
#
#
# Indices 1 2 3 4 5 6 
#
# 1 57.3366 36.1103 6.2879 -0.9912 -11.5888 -7.5132
# 2 36.1103 160.3945 22.8199 -29.7263 -5.6788 15.8006
# 3 6.2879 22.8199 39.1843 -17.6435 2.2345 -5.7881
# 4 -0.9912 -29.7263 -17.6435 37.6797 -4.8415 5.5340
# 5 -11.5888 -5.6788 2.2345 -4.8415 47.5669 5.0033
# 6 -7.5132 15.8006 -5.7881 5.5340 5.0033 36.8051
#
#
#
# Elastic Compliance Matrix: (Units=1/GPa)
#
#
# Indices 1 2 3 4 5 6 
#
# 1 0.023635 -0.006928 -0.001625 -0.006330 0.003520 0.008017
# 2 -0.006928 0.010483 -0.002510 0.008218 0.001331 -0.007726
# 3 -0.001625 -0.002510 0.033810 0.012995 -0.001413 0.004301
# 4 -0.006330 0.008218 0.012995 0.040842 0.003981 -0.009459
# 5 0.003520 0.001331 -0.001413 0.003981 0.022909 -0.003788
# 6 0.008017 -0.007726 0.004301 -0.009459 -0.003788 0.034737
#
#
# Mechanical properties :
#
#
# Convention : Reuss Voigt Hill
#
# Bulk Modulus (GPa) = 21.83273 43.03906 32.43589
# Shear Modulus (GPa) = 24.53276 37.19016 30.86146
#
# Velocity S-wave (km/s) = 3.31596 4.08272 3.71916
# Velocity P-wave (km/s) = 4.94431 6.44321 5.74287
#
# Compressibility (1/GPa) = 0.04580280
#
# Stress axis : x y z
#
# Youngs Moduli (GPa) = 42.31044 95.39459 29.57690
#
# Poissons Ratio (x) = 0.66091 0.04805
# Poissons Ratio (y) = 0.29313 0.07423
# Poissons Ratio (z) = 0.06874 0.23942
#
# Static dielectric constant tensor:
#      x y z
#    x 1.929750 -0.054960 0.127390 
#    y -0.054960 1.919110 -0.035490 
#    z 0.127390 -0.035490 1.938360 
# 
# From -- ./inp_files/499356.got.cif
#   From: 2010.05.17/outbox.cif.g08.bks.cpg/sg2_250_cif.got.tgz:499356.got - 2010.06.03 11:33:40.
