data_PCOD9009901
_publ_section_title
;
Structure prediction by ZEFSAII (Michael W. Deem and Ramdas Pophale) SiO2 
 PCOD9009901
Probable space group: P -1
;
_chemical_formula_sum "Si O2"
_cell_formula_units_Z 16
_cell_length_a 11.053361
_cell_length_b 22.669607
_cell_length_c 4.874061
_cell_angle_alpha 78.962597
_cell_angle_beta 93.314009
_cell_angle_gamma 33.980301
_cell_volume 615.560100
_symmetry_space_group_name_H-M "P -1"
_symmetry_group_IT_number 2
_symmetry_cell_setting 'triclinic'
loop_
_space_group_symop_operation_xyz
x,y,z
-x,-y,-z
loop_
_atom_site_type_symbol
_atom_site_label
_atom_site_fract_x
_atom_site_fract_y
_atom_site_fract_z
Si Si1 0.618738 0.623679 0.407376
Si Si2 0.077664 0.735636 0.944933
Si Si3 0.129166 0.371189 0.524384
Si Si4 0.231442 0.249335 0.167578
Si Si5 0.397977 0.598771 0.586635
Si Si6 0.342363 0.009473 0.532261
Si Si7 0.201094 0.856459 0.815352
Si Si8 0.118951 0.020496 0.839402
O O1 0.684173 0.658571 0.535353
O O2 0.565690 0.586076 0.607359
O O3 0.865660 0.508261 0.389728
O O4 0.409406 0.726947 0.074759
O O5 0.287287 0.634366 0.840501
O O6 0.919327 0.743841 0.954635
O O7 0.911123 0.859825 0.713329
O O8 0.176712 0.711310 0.272360
O O9 0.109857 0.325712 0.352170
O O10 0.214878 0.307119 0.880872
O O11 0.486132 0.117679 0.419758
O O12 0.500000 0.500000 0.500000
O O13 0.278567 0.011232 0.825304
O O14 0.500000 0.000000 0.500000
O O15 0.116691 0.879363 0.474998
O O16 0.251807 0.904790 0.847315
O O17 0.969318 0.947760 0.894279
#
# Coordination Sequence:
#
# PCOD9009901 Si02
#       8
#     2   2   2   2   2   2   2   2
#     4  11  25  44  67  98 129 172 219 266 330 383
#     4  11  24  43  68 100 131 171 223 268 318 390
#     4  11  27  44  67  94 132 171 219 272 318 397
#     4  11  24  46  67  95 132 174 218 267 330 379
#     4  12  25  43  70  97 134 173 214 271 326 385
#     4  10  23  41  67  95 131 172 213 267 322 385
#     4  10  22  38  65  89 124 162 205 264 311 373
#     4  10  21  40  60  93 124 160 208 255 317 375
#
# _framework density 25.99259
#
# number of rings (size 3 to 8) (size 9 to 14) (size 15 to 20)
#    0.000    1.250    0.000    4.875    0.000   11.000 
#    0.000    6.875    0.000    0.000    0.000    0.000 
#    0.000    0.000    0.000    0.000    0.000    0.000 
#
# Total GULP energy -89477.491926 kJ/mol
# GULP energy per Si atom -5592.343245 kJ/mol
# Density = 2.593343 g / cm^3
# Si number density = 25.992590 Si / 1000 Ang^3
#
#
#
# Elastic Constant Matrix: (Units=GPa)
#
#
# Indices 1 2 3 4 5 6 
#
# 1 -245.3271 264.2175 61.4409 -56.7970 0.8290 -17.1878
# 2 264.2175 -78.0627 -5.1484 19.6430 -19.4633 2.6531
# 3 61.4409 -5.1484 87.9758 4.0462 -10.0765 -1.4762
# 4 -56.7970 19.6430 4.0462 36.0849 6.5727 -4.8953
# 5 0.8290 -19.4633 -10.0765 6.5727 40.5353 2.7132
# 6 -17.1878 2.6531 -1.4762 -4.8953 2.7132 37.2747
#
#
#
# Elastic Compliance Matrix: (Units=1/GPa)
#
#
# Indices 1 2 3 4 5 6 
#
# 1 0.001848 0.005554 -0.000651 -0.000477 0.002532 0.000184
# 2 0.005554 0.007253 -0.003484 0.005251 0.001485 0.002488
# 3 -0.000651 -0.003484 0.011809 -0.000671 0.001370 0.000228
# 4 -0.000477 0.005251 -0.000671 0.024894 -0.001858 0.002784
# 5 0.002532 0.001485 0.001370 -0.001858 0.026041 -0.001023
# 6 0.000184 0.002488 0.000228 0.002784 -0.001023 0.027185
#
#
# Mechanical properties :
#
#
# Convention : Reuss Voigt Hill
#
# Bulk Modulus (GPa) = 42.10861 45.06733 43.58797
# Shear Modulus (GPa) = 48.02690 -14.28264 16.87213
#
# Velocity S-wave (km/s) = 4.30317 -2.34666 2.55053
# Velocity P-wave (km/s) = 6.39727 3.16761 5.04771
#
# Compressibility (1/GPa) = 0.02374811
#
# Stress axis : x y z
#
# Youngs Moduli (GPa) = 541.03470 137.87838 84.68196
#
# Poissons Ratio (x) = -0.76574 0.05511
# Poissons Ratio (y) = -3.00475 0.29502
# Poissons Ratio (z) = 0.35208 0.48035
#
# Static dielectric constant tensor:
#      x y z
#    x 2.233580 -0.067130 0.008580 
#    y -0.067130 2.074560 -0.085470 
#    z 0.008580 -0.085470 2.014610 
# 
# From -- ./inp_files/84782.got.cif
#   From: 2010.05.17/outbox.cif.g08.bks.cpg/sg2_43_cif.got.tgz:84782.got - 2010.06.03 11:33:40.
