data_PCOD9009639
_publ_section_title
;
Structure prediction by ZEFSAII (Michael W. Deem and Ramdas Pophale) SiO2 
 PCOD9009639
Probable space group: P -1
;
_chemical_formula_sum "Si O2"
_cell_formula_units_Z 13
_cell_length_a 10.842652
_cell_length_b 7.081238
_cell_length_c 10.332982
_cell_angle_alpha 82.308581
_cell_angle_beta 127.199203
_cell_angle_gamma 122.781435
_cell_volume 508.636320
_symmetry_space_group_name_H-M "P -1"
_symmetry_group_IT_number 2
_symmetry_cell_setting 'triclinic'
loop_
_space_group_symop_operation_xyz
x,y,z
-x,-y,-z
loop_
_atom_site_type_symbol
_atom_site_label
_atom_site_fract_x
_atom_site_fract_y
_atom_site_fract_z
Si Si1 0.213571 0.578839 0.731920
Si Si2 0.883703 0.101089 0.457638
Si Si3 0.506456 0.238727 0.620446
Si Si4 0.093876 0.361028 0.070479
Si Si5 0.500000 0.500000 0.000000
Si Si6 0.153110 0.109580 0.926190
Si Si7 0.512874 0.791638 0.681375
O O1 0.173544 0.775547 0.693728
O O2 0.322101 0.621013 0.658943
O O3 0.015712 0.322018 0.619430
O O4 0.374773 0.611384 0.927032
O O5 0.695010 0.887937 0.426759
O O6 0.000000 0.000000 0.500000
O O7 0.681946 0.458398 0.784029
O O8 0.499832 0.703591 0.537675
O O9 0.546498 0.040502 0.667255
O O10 0.057115 0.222161 0.925780
O O11 0.000000 0.500000 0.000000
O O12 0.000518 0.166551 0.142610
O O13 0.291102 0.242971 0.880501
O O14 0.318430 0.171704 0.129112
#
# Coordination Sequence:
#
# PCOD9009639 Si02
#       7
#     2   2   2   2   1   2   2
#     4   9  21  44  64  93 137 174 220 282 334 398
#     4  10  22  41  67  97 133 170 221 279 339 403
#     4  10  21  39  71  95 128 171 222 275 344 397
#     4  11  23  43  65  98 133 171 220 284 339 403
#     4  10  22  46  70  92 138 188 222 274 346 404
#     4  10  23  43  66  92 137 172 220 278 335 400
#     4   9  19  41  67  94 125 170 219 278 329 399
#
# _framework density 25.558537000000001
#
# number of rings (size 3 to 8) (size 9 to 14) (size 15 to 20)
#    0.000    2.154    1.538    0.000    4.308    3.077 
#    8.308    1.538    0.000    0.000    0.000    0.000 
#    0.000    0.000    0.000    0.000    0.000    0.000 
#
# Total GULP energy -72476.046612 kJ/mol
# GULP energy per Si atom -5575.080509 kJ/mol
# Density = 2.550036 g / cm^3
# Si number density = 25.558537 Si / 1000 Ang^3
#
#
#
# Elastic Constant Matrix: (Units=GPa)
#
#
# Indices 1 2 3 4 5 6 
#
# 1 103.3516 67.8448 32.6709 11.1576 32.3199 -5.2515
# 2 67.8448 130.0071 31.0658 24.6677 21.3939 1.8133
# 3 32.6709 31.0658 93.6589 -8.2948 23.3605 -2.7444
# 4 11.1576 24.6677 -8.2948 46.7407 2.3259 34.0380
# 5 32.3199 21.3939 23.3605 2.3259 42.9901 -0.1408
# 6 -5.2515 1.8133 -2.7444 34.0380 -0.1408 54.1639
#
#
#
# Elastic Compliance Matrix: (Units=1/GPa)
#
#
# Indices 1 2 3 4 5 6 
#
# 1 0.018296 -0.006946 -0.002041 -0.003661 -0.008977 0.004180
# 2 -0.006946 0.013680 -0.002961 -0.009555 0.000556 0.004725
# 3 -0.002041 -0.002961 0.014251 0.008100 -0.005189 -0.004480
# 4 -0.003661 -0.009555 0.008100 0.052488 0.000160 -0.032609
# 5 -0.008977 0.000556 -0.005189 0.000160 0.032541 -0.001168
# 6 0.004180 0.004725 -0.004480 -0.032609 -0.001168 0.038972
#
#
# Mechanical properties :
#
#
# Convention : Reuss Voigt Hill
#
# Bulk Modulus (GPa) = 44.78038 65.57561 55.17799
# Shear Modulus (GPa) = 24.80554 41.80803 33.30678
#
# Velocity S-wave (km/s) = 3.11873 4.04886 3.61384
# Velocity P-wave (km/s) = 5.52516 6.89713 6.24891
#
# Compressibility (1/GPa) = 0.02233121
#
# Stress axis : x y z
#
# Youngs Moduli (GPa) = 54.65751 73.09863 70.16861
#
# Poissons Ratio (x) = 0.50778 0.14319
# Poissons Ratio (y) = 0.37968 0.20776
# Poissons Ratio (z) = 0.11154 0.21644
#
# Static dielectric constant tensor:
#      x y z
#    x 1.961200 0.022330 -0.029370 
#    y 0.022330 2.138020 -0.099250 
#    z -0.029370 -0.099250 2.021460 
# 
# From -- ./inp_files/73374.got.cif
#   From: 2010.05.17/outbox.cif.g08.bks.cpg/sg2_37_cif.got.tgz:73374.got - 2010.06.03 11:33:40.
