data_PCOD9009199
_publ_section_title
;
Structure prediction by ZEFSAII (Michael W. Deem and Ramdas Pophale) SiO2 
 PCOD9009199
Probable space group: P -1
;
_chemical_formula_sum "Si O2"
_cell_formula_units_Z 14
_cell_length_a 7.026462
_cell_length_b 27.656975
_cell_length_c 30.396616
_cell_angle_alpha 9.125008
_cell_angle_beta 49.508442
_cell_angle_gamma 49.502241
_cell_volume 710.737299
_symmetry_space_group_name_H-M "P -1"
_symmetry_group_IT_number 2
_symmetry_cell_setting 'triclinic'
loop_
_space_group_symop_operation_xyz
x,y,z
-x,-y,-z
loop_
_atom_site_type_symbol
_atom_site_label
_atom_site_fract_x
_atom_site_fract_y
_atom_site_fract_z
Si Si1 0.158937 0.731177 0.293845
Si Si2 0.310163 0.349440 0.722142
Si Si3 0.690202 0.411413 0.397175
Si Si4 0.008891 0.823081 0.919012
Si Si5 0.278162 0.085429 0.393932
Si Si6 0.592747 0.514295 0.902042
Si Si7 0.155892 0.198491 0.639354
O O1 0.424233 0.541612 0.432209
O O2 0.000000 0.500000 0.500000
O O3 0.977873 0.884792 0.220413
O O4 0.264943 0.036494 0.984307
O O5 0.338807 0.364236 0.757727
O O6 0.057881 0.552812 0.568249
O O7 0.421409 0.322027 0.500215
O O8 0.846894 0.105361 0.666491
O O9 0.831094 0.584360 0.182408
O O10 0.165407 0.949114 0.823507
O O11 0.195401 0.660258 0.002274
O O12 0.284888 0.307643 0.235804
O O13 0.439050 0.774289 0.662881
O O14 0.411052 0.271763 0.168170
O O15 0.000000 0.000000 0.500000
#
# Coordination Sequence:
#
# PCOD9009199 Si02
#       7
#     2   2   2   2   2   2   2
#     4  11  21  39  61  85 114 157 203 259 319 370
#     4  10  23  39  58  86 116 152 206 260 315 369
#     4  11  24  41  62  88 120 165 206 253 306 370
#     4  11  25  42  63  90 129 163 206 250 303 363
#     4  10  21  39  67  95 130 161 206 248 297 353
#     4  10  22  40  62  96 128 165 203 251 296 357
#     4  11  24  39  61  85 123 158 206 258 312 368
#
# _framework density 19.697852999999999
#
# number of rings (size 3 to 8) (size 9 to 14) (size 15 to 20)
#    0.000    1.429    2.857    1.714    2.000    2.857 
#    0.000    0.000    0.000    0.000    0.000    0.000 
#    0.000    0.000    0.000    0.000    0.000    0.000 
#
# Total GULP energy -78020.245678 kJ/mol
# GULP energy per Si atom -5572.874691 kJ/mol
# Density = 1.965302 g / cm^3
# Si number density = 19.697853 Si / 1000 Ang^3
#
#
#
# Elastic Constant Matrix: (Units=GPa)
#
#
# Indices 1 2 3 4 5 6 
#
# 1 130.0546 66.2001 69.7313 6.7879 -32.0920 -27.0170
# 2 66.2001 172.7094 75.6307 -6.8163 -9.0892 -7.6383
# 3 69.7313 75.6307 127.4022 14.3100 -11.1729 -13.5862
# 4 6.7879 -6.8163 14.3100 35.7963 -3.3478 -2.6111
# 5 -32.0920 -9.0892 -11.1729 -3.3478 31.4722 11.5518
# 6 -27.0170 -7.6383 -13.5862 -2.6111 11.5518 21.4246
#
#
#
# Elastic Compliance Matrix: (Units=1/GPa)
#
#
# Indices 1 2 3 4 5 6 
#
# 1 0.017128 -0.003147 -0.005382 0.000117 0.010460 0.011438
# 2 -0.003147 0.008877 -0.004321 0.003746 -0.000808 -0.002652
# 3 -0.005382 -0.004321 0.013871 -0.005519 -0.002898 0.001358
# 4 0.000117 0.003746 -0.005519 0.031091 0.002367 0.000496
# 5 0.010460 -0.000808 -0.002898 0.002367 0.046457 -0.013696
# 6 0.011438 -0.002652 0.001358 0.000496 -0.013696 0.068460
#
#
# Mechanical properties :
#
#
# Convention : Reuss Voigt Hill
#
# Bulk Modulus (GPa) = 70.55330 94.81003 82.68166
# Shear Modulus (GPa) = 23.11499 32.31223 27.71361
#
# Velocity S-wave (km/s) = 3.42932 4.05457 3.75498
# Velocity P-wave (km/s) = 7.18163 8.37592 7.80166
#
# Compressibility (1/GPa) = 0.01417368
#
# Stress axis : x y z
#
# Youngs Moduli (GPa) = 58.38380 112.65295 72.09218
#
# Poissons Ratio (x) = 0.35455 0.38804
# Poissons Ratio (y) = 0.18375 0.31154
# Poissons Ratio (z) = 0.31425 0.48682
#
# Static dielectric constant tensor:
#      x y z
#    x 1.733400 0.053320 0.130190 
#    y 0.053320 1.740980 0.060100 
#    z 0.130190 0.060100 2.004360 
# 
# From -- ./inp_files/9045.got.cif
#   From: 2010.05.17/outbox.cif.g08.bks.cpg/sg2_5_cif.got.tgz:9045.got - 2010.06.03 11:33:40.
