data_PCOD9009954
_publ_section_title
;
Structure prediction by ZEFSAII (Michael W. Deem and Ramdas Pophale) SiO2 
 PCOD9009954
Probable space group: P -1
;
_chemical_formula_sum "Si O2"
_cell_formula_units_Z 16
_cell_length_a 16.765259
_cell_length_b 17.818789
_cell_length_c 17.833456
_cell_angle_alpha 156.420271
_cell_angle_beta 155.895751
_cell_angle_gamma 30.608991
_cell_volume 860.850298
_symmetry_space_group_name_H-M "P -1"
_symmetry_group_IT_number 2
_symmetry_cell_setting 'triclinic'
loop_
_space_group_symop_operation_xyz
x,y,z
-x,-y,-z
loop_
_atom_site_type_symbol
_atom_site_label
_atom_site_fract_x
_atom_site_fract_y
_atom_site_fract_z
Si Si1 0.725455 0.245306 0.969963
Si Si2 0.735074 0.660535 0.387975
Si Si3 0.820861 0.850460 0.940796
Si Si4 0.901589 0.578681 0.883847
Si Si5 0.361956 0.099115 0.330507
Si Si6 0.819486 0.003720 0.684188
Si Si7 0.539788 0.855304 0.833714
Si Si8 0.894482 0.208848 0.622065
O O1 0.494678 0.298907 0.798633
O O2 0.825244 0.143858 0.888971
O O3 0.725894 0.090710 0.894076
O O4 0.803542 0.437332 0.235633
O O5 0.725667 0.744035 0.540051
O O6 0.839390 0.794034 0.544756
O O7 0.004374 0.961835 0.187226
O O8 0.666854 0.936761 0.951798
O O9 0.901352 0.644654 0.857921
O O10 0.704731 0.843438 0.757359
O O11 0.682393 0.663409 0.803009
O O12 0.941295 0.359284 0.736830
O O13 0.036726 0.701617 0.160230
O O14 0.599959 0.055263 0.506912
O O15 0.335235 0.804561 0.583016
O O16 0.500000 0.000000 0.000000
O O17 0.000000 0.000000 0.500000
#
# Coordination Sequence:
#
# PCOD9009954 Si02
#       8
#     2   2   2   2   2   2   2   2
#     4   8  15  31  56  78 108 147 200 225 268 344
#     4   8  15  31  56  78 105 155 189 228 275 335
#     4  10  22  35  55  85 120 143 190 238 289 343
#     4   9  23  37  61  89 111 151 191 239 296 348
#     4   9  18  34  55  78 111 152 184 233 289 323
#     4   9  18  34  54  79 114 150 185 233 282 331
#     4  10  21  40  61  87 117 154 191 243 294 356
#     4  11  19  40  68  84 108 148 199 239 289 360
#
# _framework density 18.586275000000001
#
# number of rings (size 3 to 8) (size 9 to 14) (size 15 to 20)
#    0.750    2.000    1.250    1.875    1.750    2.000 
#    0.000    7.500    5.500    0.000    0.000    0.000 
#    0.000    0.000    0.000    0.000    0.000    0.000 
#
# Total GULP energy -89150.308236 kJ/mol
# GULP energy per Si atom -5571.894265 kJ/mol
# Density = 1.854397 g / cm^3
# Si number density = 18.586275 Si / 1000 Ang^3
#
#
#
# Elastic Constant Matrix: (Units=GPa)
#
#
# Indices 1 2 3 4 5 6 
#
# 1 103.7980 47.4652 63.0405 5.6629 10.0319 26.7659
# 2 47.4652 94.9787 74.0071 10.8189 -12.8441 19.1960
# 3 63.0405 74.0071 114.8847 11.0610 14.1256 0.2704
# 4 5.6629 10.8189 11.0610 41.7506 -5.3096 1.0551
# 5 10.0319 -12.8441 14.1256 -5.3096 19.9623 -9.3651
# 6 26.7659 19.1960 0.2704 1.0551 -9.3651 30.0823
#
#
#
# Elastic Compliance Matrix: (Units=1/GPa)
#
#
# Indices 1 2 3 4 5 6 
#
# 1 0.026350 -0.002037 -0.010229 -0.002330 -0.021362 -0.028622
# 2 -0.002037 0.055134 -0.042427 0.005387 0.061348 -0.014079
# 3 -0.010229 -0.042427 0.048223 -0.007071 -0.048338 0.020941
# 4 -0.002330 0.005387 -0.007071 0.027005 0.018465 0.003500
# 5 -0.021362 0.061348 -0.048338 0.018465 0.152080 0.026991
# 6 -0.028622 -0.014079 0.020941 0.003500 0.026991 0.075784
#
#
# Mechanical properties :
#
#
# Convention : Reuss Voigt Hill
#
# Bulk Modulus (GPa) = 49.20956 75.85413 62.53185
# Shear Modulus (GPa) = 9.98529 26.96896 18.47713
#
# Velocity S-wave (km/s) = 2.32036 3.81335 3.15640
# Velocity P-wave (km/s) = 5.80625 7.76462 6.85572
#
# Compressibility (1/GPa) = 0.02032125
#
# Stress axis : x y z
#
# Youngs Moduli (GPa) = 37.95045 18.13772 20.73689
#
# Poissons Ratio (x) = 0.03694 0.21212
# Poissons Ratio (y) = 0.07729 0.87981
# Poissons Ratio (z) = 0.38819 0.76954
#
# Static dielectric constant tensor:
#      x y z
#    x 1.613100 -0.000020 -0.009630 
#    y -0.000020 1.685300 -0.004560 
#    z -0.009630 -0.004560 1.556090 
# 
# From -- ./inp_files/534637.got.cif
#   From: 2010.05.17/outbox.cif.g08.bks.cpg/sg2_268_cif.got.tgz:534637.got - 2010.06.03 11:33:40.
