data_PCOD9009800
_publ_section_title
;
Structure prediction by ZEFSAII (Michael W. Deem and Ramdas Pophale) SiO2 
 PCOD9009800
Probable space group: P -1
;
_chemical_formula_sum "Si O2"
_cell_formula_units_Z 14
_cell_length_a 5.414258
_cell_length_b 22.218702
_cell_length_c 5.272270
_cell_angle_alpha 64.416057
_cell_angle_beta 83.254584
_cell_angle_gamma 76.695193
_cell_volume 556.584837
_symmetry_space_group_name_H-M "P -1"
_symmetry_group_IT_number 2
_symmetry_cell_setting 'triclinic'
loop_
_space_group_symop_operation_xyz
x,y,z
-x,-y,-z
loop_
_atom_site_type_symbol
_atom_site_label
_atom_site_fract_x
_atom_site_fract_y
_atom_site_fract_z
Si Si1 0.974637 0.547351 0.664280
Si Si2 0.653000 0.765796 0.666410
Si Si3 0.549328 0.953254 0.324583
Si Si4 0.432204 0.578925 0.786698
Si Si5 0.053563 0.921214 0.552975
Si Si6 0.124720 0.195019 0.936326
Si Si7 0.181685 0.698008 0.910607
O O1 0.207560 0.585545 0.597078
O O2 0.000000 0.500000 0.500000
O O3 0.694310 0.594366 0.618457
O O4 0.000000 0.500000 0.000000
O O5 0.730227 0.802629 0.343340
O O6 0.387801 0.741879 0.709810
O O7 0.909421 0.706295 0.784921
O O8 0.674146 0.803672 0.862001
O O9 0.337323 0.907326 0.440249
O O10 0.843247 0.918904 0.369996
O O11 0.500000 0.000000 0.500000
O O12 0.500000 0.000000 0.000000
O O13 0.330012 0.622848 0.964832
O O14 0.500000 0.500000 0.000000
O O15 0.000000 0.000000 0.500000
O O16 0.001782 0.869416 0.869387
O O17 0.912263 0.264059 0.883388
#
# Coordination Sequence:
#
# PCOD9009800 Si02
#       7
#     2   2   2   2   2   2   2
#     4  10  21  40  59  93 128 164 205 260 324 385
#     4  10  25  43  69  96 134 181 227 273 334 403
#     4  10  22  39  60  92 129 164 207 262 325 386
#     4  10  21  43  67  99 130 172 218 277 330 394
#     4  10  23  42  67  99 130 173 219 276 333 392
#     4  10  26  45  70  96 139 175 229 275 337 400
#     4  10  24  46  67 100 134 178 227 275 336 402
#
# _framework density 25.153397999999999
#
# number of rings (size 3 to 8) (size 9 to 14) (size 15 to 20)
#    0.857    1.143    0.000    1.714    4.000    4.571 
#   15.429    0.000    0.000    0.000    0.000    0.000 
#    0.000    0.000    0.000    0.000    0.000    0.000 
#
# Total GULP energy -78167.988933 kJ/mol
# GULP energy per Si atom -5583.427781 kJ/mol
# Density = 2.509615 g / cm^3
# Si number density = 25.153398 Si / 1000 Ang^3
#
#
#
# Elastic Constant Matrix: (Units=GPa)
#
#
# Indices 1 2 3 4 5 6 
#
# 1 206.4216 13.2143 9.8136 15.2652 -12.2863 -10.3157
# 2 13.2143 127.2450 26.8723 18.0118 -2.6943 -3.4689
# 3 9.8136 26.8723 99.4251 29.4520 -10.2248 4.1938
# 4 15.2652 18.0118 29.4520 36.7579 0.6154 -5.7324
# 5 -12.2863 -2.6943 -10.2248 0.6154 20.3733 -1.2272
# 6 -10.3157 -3.4689 4.1938 -5.7324 -1.2272 36.8772
#
#
#
# Elastic Compliance Matrix: (Units=1/GPa)
#
#
# Indices 1 2 3 4 5 6 
#
# 1 0.005281 -0.000220 0.000581 -0.002434 0.003589 0.001132
# 2 -0.000220 0.008617 -0.001417 -0.002930 0.000413 0.000469
# 3 0.000581 -0.001417 0.014927 -0.012152 0.007823 -0.003297
# 4 -0.002434 -0.002930 -0.012152 0.040539 -0.008791 0.006434
# 5 0.003589 0.000413 0.007823 -0.008791 0.055533 0.000635
# 6 0.001132 0.000469 -0.003297 0.006434 0.000635 0.028874
#
#
# Mechanical properties :
#
#
# Convention : Reuss Voigt Hill
#
# Bulk Modulus (GPa) = 37.43450 59.21025 48.32237
# Shear Modulus (GPa) = 30.34232 44.34778 37.34505
#
# Velocity S-wave (km/s) = 3.47694 4.20348 3.85735
# Velocity P-wave (km/s) = 5.57078 6.86656 6.25233
#
# Compressibility (1/GPa) = 0.02671332
#
# Stress axis : x y z
#
# Youngs Moduli (GPa) = 189.35466 116.04812 66.99436
#
# Poissons Ratio (x) = 0.02549 -0.03889
# Poissons Ratio (y) = 0.04158 0.09491
# Poissons Ratio (z) = -0.10993 0.16440
#
# Static dielectric constant tensor:
#      x y z
#    x 2.061080 -0.021230 0.042880 
#    y -0.021230 2.026900 -0.039710 
#    z 0.042880 -0.039710 1.831690 
# 
# From -- ./inp_files/8726.got.cif
#   From: 2010.05.17/outbox.cif.g08.bks.cpg/sg2_5_cif.got.tgz:8726.got - 2010.06.03 11:33:40.
