data_PCOD9009819
_publ_section_title
;
Structure prediction by ZEFSAII (Michael W. Deem and Ramdas Pophale) SiO2 
 PCOD9009819
Probable space group: P -1
;
_chemical_formula_sum "Si O2"
_cell_formula_units_Z 16
_cell_length_a 6.498972
_cell_length_b 13.352400
_cell_length_c 9.833413
_cell_angle_alpha 104.420374
_cell_angle_beta 94.375592
_cell_angle_gamma 50.131568
_cell_volume 630.299954
_symmetry_space_group_name_H-M "P -1"
_symmetry_group_IT_number 2
_symmetry_cell_setting 'triclinic'
loop_
_space_group_symop_operation_xyz
x,y,z
-x,-y,-z
loop_
_atom_site_type_symbol
_atom_site_label
_atom_site_fract_x
_atom_site_fract_y
_atom_site_fract_z
Si Si1 0.740791 0.900381 0.585016
Si Si2 0.863292 0.167653 0.640453
Si Si3 0.342318 0.996778 0.824976
Si Si4 0.023641 0.772728 0.912621
Si Si5 0.994665 0.469480 0.190114
Si Si6 0.335420 0.304914 0.535053
Si Si7 0.443735 0.724731 0.751889
Si Si8 0.463018 0.627346 0.092990
O O1 0.593236 0.966387 0.744970
O O2 0.799683 0.758448 0.535401
O O3 0.991916 0.871030 0.510715
O O4 0.500000 0.000000 0.500000
O O5 0.590137 0.191728 0.607378
O O6 0.712067 0.314403 0.755421
O O7 0.097001 0.063819 0.724339
O O8 0.416161 0.856307 0.821401
O O9 0.231881 0.098820 0.979464
O O10 0.009245 0.653649 0.865055
O O11 0.152764 0.768310 0.776755
O O12 0.261145 0.740874 0.012835
O O13 0.862490 0.554196 0.350786
O O14 0.758945 0.581817 0.111726
O O15 0.305677 0.401256 0.189949
O O16 0.458285 0.316709 0.411739
O O17 0.500000 0.500000 0.000000
#
# Coordination Sequence:
#
# PCOD9009819 Si02
#       8
#     2   2   2   2   2   2   2   2
#     4   9  19  35  59  86 112 145 186 235 286 329
#     4   9  18  37  62  84 112 150 187 236 291 324
#     4   9  20  39  58  85 117 146 195 243 275 336
#     4  10  21  40  60  81 115 154 190 233 288 339
#     4  10  22  39  58  84 116 149 190 239 284 333
#     4  10  22  38  58  88 118 145 192 239 275 342
#     4  11  23  36  57  85 118 156 189 229 284 345
#     4   8  17  36  59  83 112 144 188 236 275 337
#
# _framework density 25.384737999999999
#
# number of rings (size 3 to 8) (size 9 to 14) (size 15 to 20)
#    0.000    2.500    0.000    0.750    0.000   11.000 
#    0.000   17.500    0.000    0.000    0.000    0.000 
#    0.000    0.000    0.000    0.000    0.000    0.000 
#
# Total GULP energy -89276.902305 kJ/mol
# GULP energy per Si atom -5579.806394 kJ/mol
# Density = 2.532696 g / cm^3
# Si number density = 25.384738 Si / 1000 Ang^3
#
#
#
# Elastic Constant Matrix: (Units=GPa)
#
#
# Indices 1 2 3 4 5 6 
#
# 1 70.9429 38.6564 30.7736 16.6345 -14.7081 -32.9181
# 2 38.6564 99.5202 42.2803 17.3965 -6.1232 -40.9939
# 3 30.7736 42.2803 170.5411 44.4413 -8.7647 -0.3388
# 4 16.6345 17.3965 44.4413 47.7018 -10.4226 -6.1353
# 5 -14.7081 -6.1232 -8.7647 -10.4226 33.1761 2.7812
# 6 -32.9181 -40.9939 -0.3388 -6.1353 2.7812 42.4643
#
#
#
# Elastic Compliance Matrix: (Units=1/GPa)
#
#
# Indices 1 2 3 4 5 6 
#
# 1 0.027639 0.000598 -0.004340 -0.001097 0.009094 0.021214
# 2 0.000598 0.020185 -0.004979 -0.000173 0.000959 0.019822
# 3 -0.004340 -0.004979 0.009651 -0.007216 -0.001804 -0.009018
# 4 -0.001097 -0.000173 -0.007216 0.029970 0.006755 0.002813
# 5 0.009094 0.000959 -0.001804 0.006755 0.035442 0.006616
# 6 0.021214 0.019822 -0.009018 0.002813 0.006616 0.059031
#
#
# Mechanical properties :
#
#
# Convention : Reuss Voigt Hill
#
# Bulk Modulus (GPa) = 24.97912 62.71385 43.84649
# Shear Modulus (GPa) = 23.50685 39.95471 31.73078
#
# Velocity S-wave (km/s) = 3.04636 3.97163 3.53936
# Velocity P-wave (km/s) = 4.71544 6.76689 5.83207
#
# Compressibility (1/GPa) = 0.04003344
#
# Stress axis : x y z
#
# Youngs Moduli (GPa) = 36.18107 49.54066 103.61641
#
# Poissons Ratio (x) = -0.02961 0.44970
# Poissons Ratio (y) = -0.02163 0.51586
# Poissons Ratio (z) = 0.15703 0.24664
#
# Static dielectric constant tensor:
#      x y z
#    x 1.986870 -0.063510 0.010770 
#    y -0.063510 2.076770 -0.100130 
#    z 0.010770 -0.100130 2.071790 
# 
# From -- ./inp_files/367856.got.cif
#   From: 2010.05.17/outbox.cif.g08.bks.cpg/sg2_184_cif.got.tgz:367856.got - 2010.06.03 11:33:40.
