data_PCOD9009354
_publ_section_title
;
Structure prediction by ZEFSAII (Michael W. Deem and Ramdas Pophale) SiO2 
 PCOD9009354
Probable space group: P -1
;
_chemical_formula_sum "Si O2"
_cell_formula_units_Z 16
_cell_length_a 13.283880
_cell_length_b 7.337415
_cell_length_c 8.885937
_cell_angle_alpha 63.833131
_cell_angle_beta 115.391989
_cell_angle_gamma 122.768674
_cell_volume 632.555846
_symmetry_space_group_name_H-M "P -1"
_symmetry_group_IT_number 2
_symmetry_cell_setting 'triclinic'
loop_
_space_group_symop_operation_xyz
x,y,z
-x,-y,-z
loop_
_atom_site_type_symbol
_atom_site_label
_atom_site_fract_x
_atom_site_fract_y
_atom_site_fract_z
Si Si1 0.127502 0.643778 0.181070
Si Si2 0.518797 0.160057 0.224546
Si Si3 0.678395 0.998946 0.602273
Si Si4 0.311953 0.969214 0.953802
Si Si5 0.913125 0.747074 0.892349
Si Si6 0.272196 0.387158 0.910063
Si Si7 0.819787 0.022056 0.416330
Si Si8 0.058318 0.207095 0.644020
O O1 0.108387 0.392586 0.226681
O O2 0.216201 0.789252 0.318446
O O3 0.002250 0.671312 0.076615
O O4 0.200748 0.763950 0.033872
O O5 0.416761 0.166567 0.276288
O O6 0.604173 0.385662 0.108952
O O7 0.600283 0.086274 0.413331
O O8 0.435129 0.984385 0.107800
O O9 0.745378 0.903896 0.561960
O O10 0.300784 0.192406 0.923343
O O11 0.277229 0.940408 0.767568
O O12 0.793999 0.690490 0.942281
O O13 0.993355 0.005280 0.798833
O O14 0.167970 0.405784 0.728017
O O15 0.873796 0.883324 0.401116
O O16 0.944837 0.229929 0.481475
#
# Coordination Sequence:
#
# PCOD9009354 Si02
#       8
#     2   2   2   2   2   2   2   2
#     4  10  22  40  62  95 129 160 212 258 311 386
#     4  10  24  43  62  91 125 170 223 250 304 376
#     4  10  23  43  65  89 129 169 205 270 313 359
#     4  10  22  43  64  89 131 161 214 264 299 375
#     4  11  22  38  65  97 127 168 204 257 323 377
#     4  11  22  39  66  94 125 172 207 258 315 373
#     4  10  21  39  68  93 122 169 198 263 327 363
#     4  10  22  39  63  99 133 154 208 262 317 385
#
# _framework density 25.29421
#
# number of rings (size 3 to 8) (size 9 to 14) (size 15 to 20)
#    0.000    1.750    2.500    1.500    5.250    3.500 
#    4.500    4.375    0.000    0.000    0.000    0.000 
#    0.000    0.000    0.000    0.000    0.000    0.000 
#
# Total GULP energy -89436.304123 kJ/mol
# GULP energy per Si atom -5589.769008 kJ/mol
# Density = 2.523664 g / cm^3
# Si number density = 25.294210 Si / 1000 Ang^3
#
#
#
# Elastic Constant Matrix: (Units=GPa)
#
#
# Indices 1 2 3 4 5 6 
#
# 1 120.1410 32.5595 51.5426 12.1877 -26.6350 16.0010
# 2 32.5595 78.8217 18.6193 13.1491 -2.7710 18.3905
# 3 51.5426 18.6193 153.4972 28.8935 -5.0286 18.2186
# 4 12.1877 13.1491 28.8935 31.8048 12.0377 2.6397
# 5 -26.6350 -2.7710 -5.0286 12.0377 65.5668 0.0246
# 6 16.0010 18.3905 18.2186 2.6397 0.0246 41.2468
#
#
#
# Elastic Compliance Matrix: (Units=1/GPa)
#
#
# Indices 1 2 3 4 5 6 
#
# 1 0.012005 -0.003299 -0.002798 -0.002426 0.004969 -0.001798
# 2 -0.003299 0.016249 0.001014 -0.006080 0.000543 -0.006024
# 3 -0.002798 0.001014 0.009191 -0.007853 0.001054 -0.002924
# 4 -0.002426 -0.006080 -0.007853 0.045532 -0.010206 0.004213
# 5 0.004969 0.000543 0.001054 -0.010206 0.019248 -0.001993
# 6 -0.001798 -0.006024 -0.002924 0.004213 -0.001993 0.028651
#
#
# Mechanical properties :
#
#
# Convention : Reuss Voigt Hill
#
# Bulk Modulus (GPa) = 36.65833 61.98921 49.32377
# Shear Modulus (GPa) = 33.30288 44.37291 38.83789
#
# Velocity S-wave (km/s) = 3.63246 4.19295 3.92273
# Velocity P-wave (km/s) = 5.66721 6.92831 6.32925
#
# Compressibility (1/GPa) = 0.02727893
#
# Stress axis : x y z
#
# Youngs Moduli (GPa) = 83.29639 61.54177 108.79956
#
# Poissons Ratio (x) = 0.20304 0.30445
# Poissons Ratio (y) = 0.27482 -0.11034
# Poissons Ratio (z) = 0.23308 -0.06241
#
# Static dielectric constant tensor:
#      x y z
#    x 2.077310 -0.044750 0.053260 
#    y -0.044750 1.976560 0.013840 
#    z 0.053260 0.013840 2.024180 
# 
# From -- ./inp_files/297953.got.cif
#   From: 2010.05.17/outbox.cif.g08.bks.cpg/sg2_149_cif.got.tgz:297953.got - 2010.06.03 11:33:40.
