data_PCOD9009643
_publ_section_title
;
Structure prediction by ZEFSAII (Michael W. Deem and Ramdas Pophale) SiO2 
 PCOD9009643
Probable space group: P -1
;
_chemical_formula_sum "Si O2"
_cell_formula_units_Z 16
_cell_length_a 13.786041
_cell_length_b 16.822581
_cell_length_c 8.807837
_cell_angle_alpha 145.243627
_cell_angle_beta 41.311485
_cell_angle_gamma 140.425654
_cell_volume 701.738002
_symmetry_space_group_name_H-M "P -1"
_symmetry_group_IT_number 2
_symmetry_cell_setting 'triclinic'
loop_
_space_group_symop_operation_xyz
x,y,z
-x,-y,-z
loop_
_atom_site_type_symbol
_atom_site_label
_atom_site_fract_x
_atom_site_fract_y
_atom_site_fract_z
Si Si1 0.353737 0.050659 0.717836
Si Si2 0.919857 0.268684 0.138724
Si Si3 0.870971 0.949518 0.737635
Si Si4 0.423363 0.314256 0.467649
Si Si5 0.428575 0.634829 0.966921
Si Si6 0.630176 0.171408 0.142453
Si Si7 0.930618 0.404288 0.660315
Si Si8 0.115708 0.824106 0.398255
O O1 0.500000 0.000000 0.500000
O O2 0.238802 0.953655 0.567513
O O3 0.237796 0.029189 0.964361
O O4 0.441260 0.233125 0.878538
O O5 0.727276 0.205645 0.238678
O O6 0.969336 0.333712 0.351286
O O7 0.997721 0.414080 0.164154
O O8 0.956303 0.120149 0.837951
O O9 0.742398 0.832409 0.590730
O O10 0.989816 0.882295 0.564499
O O11 0.400269 0.464430 0.776576
O O12 0.506283 0.340702 0.244667
O O13 0.539388 0.279406 0.390666
O O14 0.260813 0.650144 0.190901
O O15 0.768510 0.199499 0.899264
O O16 0.500000 0.000000 0.000000
O O17 0.974977 0.330125 0.638473
#
# Coordination Sequence:
#
# PCOD9009643 Si02
#       8
#     2   2   2   2   2   2   2   2
#     4  11  20  40  73 100 131 178 233 277 333 406
#     4  11  26  43  68  99 146 176 222 291 351 395
#     4  11  23  43  71 103 139 177 231 287 339 415
#     4  10  22  43  67 100 136 174 226 290 338 406
#     4  10  21  39  71  97 131 174 232 284 334 402
#     4  12  26  45  70 101 135 183 233 284 347 414
#     4  11  24  45  69  99 139 182 228 281 349 411
#     4  12  25  42  76 102 131 188 236 278 342 418
#
# _framework density 22.800530999999999
#
# number of rings (size 3 to 8) (size 9 to 14) (size 15 to 20)
#    0.000    1.000    5.000    1.125    3.500    5.000 
#    2.250    0.625    0.000    0.000    0.000    0.000 
#    0.000    0.000    0.000    0.000    0.000    0.000 
#
# Total GULP energy -89551.841343 kJ/mol
# GULP energy per Si atom -5596.990084 kJ/mol
# Density = 2.274864 g / cm^3
# Si number density = 22.800531 Si / 1000 Ang^3
#
#
#
# Elastic Constant Matrix: (Units=GPa)
#
#
# Indices 1 2 3 4 5 6 
#
# 1 101.4871 35.8457 37.3464 4.3296 -31.4085 -10.0164
# 2 35.8457 122.1101 49.8750 27.3194 -3.1140 -5.8470
# 3 37.3464 49.8750 77.9418 15.9374 -18.9024 -10.4649
# 4 4.3296 27.3194 15.9374 51.5887 -2.4894 -7.0408
# 5 -31.4085 -3.1140 -18.9024 -2.4894 44.3962 9.5362
# 6 -10.0164 -5.8470 -10.4649 -7.0408 9.5362 32.2718
#
#
#
# Elastic Compliance Matrix: (Units=1/GPa)
#
#
# Indices 1 2 3 4 5 6 
#
# 1 0.014938 -0.003254 -0.003216 0.002003 0.008909 0.000808
# 2 -0.003254 0.012863 -0.006872 -0.004715 -0.004457 -0.000620
# 3 -0.003216 -0.006872 0.020819 -0.001922 0.005468 0.002473
# 4 0.002003 -0.004715 -0.001922 0.022877 0.000708 0.003926
# 5 0.008909 -0.004457 0.005468 0.000708 0.032084 -0.005596
# 6 0.000808 -0.000620 0.002473 0.003926 -0.005596 0.034437
#
#
# Mechanical properties :
#
#
# Convention : Reuss Voigt Hill
#
# Bulk Modulus (GPa) = 45.58488 60.85258 53.21873
# Shear Modulus (GPa) = 29.06756 37.54946 33.30851
#
# Velocity S-wave (km/s) = 3.57440 4.06256 3.82627
# Velocity P-wave (km/s) = 6.08863 6.98233 6.55074
#
# Compressibility (1/GPa) = 0.02193710
#
# Stress axis : x y z
#
# Youngs Moduli (GPa) = 66.94502 77.74358 48.03244
#
# Poissons Ratio (x) = 0.25296 0.15447
# Poissons Ratio (y) = 0.21782 0.33006
# Poissons Ratio (z) = 0.21529 0.53423
#
# Static dielectric constant tensor:
#      x y z
#    x 1.809440 -0.025610 0.014660 
#    y -0.025610 1.904760 0.005810 
#    z 0.014660 0.005810 1.834620 
# 
# From -- ./inp_files/274570.got.cif
#   From: 2010.05.17/outbox.cif.g08.bks.cpg/sg2_138_cif.got.tgz:274570.got - 2010.06.03 11:33:40.
