data_PCOD9009047
_publ_section_title
;
Structure prediction by ZEFSAII (Michael W. Deem and Ramdas Pophale) SiO2 
 PCOD9009047
Probable space group: P -1
;
_chemical_formula_sum "Si O2"
_cell_formula_units_Z 14
_cell_length_a 9.341490
_cell_length_b 7.422757
_cell_length_c 9.302627
_cell_angle_alpha 100.436510
_cell_angle_beta 58.727719
_cell_angle_gamma 78.726797
_cell_volume 509.024545
_symmetry_space_group_name_H-M "P -1"
_symmetry_group_IT_number 2
_symmetry_cell_setting 'triclinic'
loop_
_space_group_symop_operation_xyz
x,y,z
-x,-y,-z
loop_
_atom_site_type_symbol
_atom_site_label
_atom_site_fract_x
_atom_site_fract_y
_atom_site_fract_z
Si Si1 0.473480 0.431684 0.238647
Si Si2 0.034246 0.977585 0.148461
Si Si3 0.659276 0.102014 0.304973
Si Si4 0.661223 0.704716 0.280813
Si Si5 0.832404 0.623153 0.462128
Si Si6 0.205065 0.651156 0.220886
Si Si7 0.320229 0.020052 0.189260
O O1 0.611373 0.235660 0.207968
O O2 0.493976 0.196956 0.508371
O O3 0.296520 0.498233 0.441781
O O4 0.371078 0.455497 0.143580
O O5 0.829036 0.073651 0.314151
O O6 0.116976 0.757102 0.133573
O O7 0.154485 0.088318 0.173161
O O8 0.000000 0.000000 0.000000
O O9 0.682044 0.884507 0.212982
O O10 0.722152 0.824327 0.636117
O O11 0.822194 0.608929 0.292035
O O12 0.592786 0.565896 0.203854
O O13 0.036381 0.612380 0.379044
O O14 0.287231 0.824690 0.242030
O O15 0.500000 0.000000 0.000000
#
# Coordination Sequence:
#
# PCOD9009047 Si02
#       7
#     2   2   2   2   2   2   2
#     4  11  25  38  69 111 143 173 231 290 348 416
#     4  10  24  43  69  95 137 187 240 281 346 419
#     4  10  21  39  66  98 138 178 223 281 348 400
#     4  10  22  38  68 102 141 179 222 284 346 409
#     4  11  21  44  67 106 142 182 228 289 348 413
#     4  10  24  42  68 103 141 177 228 297 347 402
#     4  10  25  43  70 100 138 188 234 283 346 415
#
# _framework density 27.503584
#
# number of rings (size 3 to 8) (size 9 to 14) (size 15 to 20)
#    0.857    0.857    1.429    2.571   12.000    0.000 
#    2.571    2.857    0.000    2.571    0.000    0.000 
#    0.000    0.000    0.000    0.000    0.000    0.000 
#
# Total GULP energy -77968.369296 kJ/mol
# GULP energy per Si atom -5569.169235 kJ/mol
# Density = 2.744098 g / cm^3
# Si number density = 27.503584 Si / 1000 Ang^3
#
#
#
# Elastic Constant Matrix: (Units=GPa)
#
#
# Indices 1 2 3 4 5 6 
#
# 1 228.2903 76.0426 42.4966 -9.6534 -12.9963 -14.9745
# 2 76.0426 107.7206 21.1129 -17.7099 5.8879 -10.8255
# 3 42.4966 21.1129 92.5539 -20.8275 -11.9176 2.7904
# 4 -9.6534 -17.7099 -20.8275 22.6990 0.8418 3.8389
# 5 -12.9963 5.8879 -11.9176 0.8418 53.0342 -20.7947
# 6 -14.9745 -10.8255 2.7904 3.8389 -20.7947 51.9573
#
#
#
# Elastic Compliance Matrix: (Units=1/GPa)
#
#
# Indices 1 2 3 4 5 6 
#
# 1 0.006527 -0.004614 -0.002502 -0.003607 0.002520 0.002329
# 2 -0.004614 0.014147 0.000776 0.009938 -0.002793 -0.000276
# 3 -0.002502 0.000776 0.015131 0.013635 0.001840 -0.001643
# 4 -0.003607 0.009938 0.013635 0.063738 -0.001974 -0.005201
# 5 0.002520 -0.002793 0.001840 -0.001974 0.024083 0.009830
# 6 0.002329 -0.000276 -0.001643 -0.005201 0.009830 0.024267
#
#
# Mechanical properties :
#
#
# Convention : Reuss Voigt Hill
#
# Bulk Modulus (GPa) = 43.24090 78.65211 60.94650
# Shear Modulus (GPa) = 29.71278 44.79895 37.25586
#
# Velocity S-wave (km/s) = 3.29039 4.04027 3.68446
# Velocity P-wave (km/s) = 5.49469 7.10100 6.34885
#
# Compressibility (1/GPa) = 0.02312625
#
# Stress axis : x y z
#
# Youngs Moduli (GPa) = 153.22023 70.68787 66.09046
#
# Poissons Ratio (x) = 0.32612 0.16533
# Poissons Ratio (y) = 0.70689 -0.05131
# Poissons Ratio (z) = 0.38330 -0.05488
#
# Static dielectric constant tensor:
#      x y z
#    x 2.218530 -0.004480 -0.122480 
#    y -0.004480 2.223740 -0.055970 
#    z -0.122480 -0.055970 2.382760 
# 
# From -- ./inp_files/378633.got.cif
#   From: 2010.05.17/outbox.cif.g08.bks.cpg/sg2_190_cif.got.tgz:378633.got - 2010.06.03 11:33:40.
