data_PCOD9009337
_publ_section_title
;
Structure prediction by ZEFSAII (Michael W. Deem and Ramdas Pophale) SiO2 
 PCOD9009337
Probable space group: P -1
;
_chemical_formula_sum "Si O2"
_cell_formula_units_Z 14
_cell_length_a 8.289451
_cell_length_b 27.261838
_cell_length_c 10.011161
_cell_angle_alpha 26.716660
_cell_angle_beta 134.161712
_cell_angle_gamma 140.418376
_cell_volume 647.814909
_symmetry_space_group_name_H-M "P -1"
_symmetry_group_IT_number 2
_symmetry_cell_setting 'triclinic'
loop_
_space_group_symop_operation_xyz
x,y,z
-x,-y,-z
loop_
_atom_site_type_symbol
_atom_site_label
_atom_site_fract_x
_atom_site_fract_y
_atom_site_fract_z
Si Si1 0.864691 0.514971 0.616977
Si Si2 0.247659 0.753046 0.153564
Si Si3 0.119965 0.715345 0.671827
Si Si4 0.672454 0.652841 0.377413
Si Si5 0.026091 0.925206 0.570488
Si Si6 0.494225 0.128050 0.714535
Si Si7 0.501152 0.153809 0.210658
O O1 0.802472 0.595682 0.491920
O O2 0.620967 0.449656 0.538602
O O3 0.111453 0.608235 0.453509
O O4 0.899304 0.410768 0.972574
O O5 0.419120 0.824181 0.204029
O O6 0.035233 0.800242 0.913253
O O7 0.398014 0.793663 0.004253
O O8 0.315428 0.770944 0.525665
O O9 0.262280 0.812773 0.635398
O O10 0.848129 0.692865 0.513204
O O11 0.649893 0.769389 0.020553
O O12 0.789584 0.896804 0.411223
O O13 0.294745 0.013634 0.442626
O O14 0.000000 0.000000 0.500000
O O15 0.500000 0.000000 0.000000
#
# Coordination Sequence:
#
# PCOD9009337 Si02
#       7
#     2   2   2   2   2   2   2
#     4  10  23  39  66  97 125 167 218 263 305 369
#     4  12  26  42  63  96 135 162 208 267 322 374
#     4  11  22  40  69  94 128 167 216 261 307 379
#     4  10  21  39  68  90 127 166 216 257 305 375
#     4  12  23  41  69  92 123 166 217 260 310 374
#     4  12  24  40  69  98 121 165 218 262 313 375
#     4  11  25  43  62  96 133 167 203 266 326 370
#
# _framework density 21.611111999999999
#
# number of rings (size 3 to 8) (size 9 to 14) (size 15 to 20)
#    0.000    0.857    4.286    2.571    4.000    4.000 
#    0.000    1.429    0.000    0.000    0.000    0.000 
#    0.000    0.000    0.000    0.000    0.000    0.000 
#
# Total GULP energy -78278.296500 kJ/mol
# GULP energy per Si atom -5591.306893 kJ/mol
# Density = 2.156192 g / cm^3
# Si number density = 21.611112 Si / 1000 Ang^3
#
#
#
# Elastic Constant Matrix: (Units=GPa)
#
#
# Indices 1 2 3 4 5 6 
#
# 1 48.9326 22.4363 14.0484 5.2219 -19.4906 -2.0019
# 2 22.4363 177.0108 49.1535 35.5592 -11.0499 23.2395
# 3 14.0484 49.1535 83.3126 -0.4737 -3.3486 12.9421
# 4 5.2219 35.5592 -0.4737 46.1428 1.7602 1.6352
# 5 -19.4906 -11.0499 -3.3486 1.7602 42.3559 10.1440
# 6 -2.0019 23.2395 12.9421 1.6352 10.1440 22.9007
#
#
#
# Elastic Compliance Matrix: (Units=1/GPa)
#
#
# Indices 1 2 3 4 5 6 
#
# 1 0.027004 -0.001299 -0.003417 -0.002560 0.011787 0.000572
# 2 -0.001299 0.009879 -0.004061 -0.007342 0.004157 -0.009161
# 3 -0.003417 -0.004061 0.015803 0.003876 -0.000284 -0.005259
# 4 -0.002560 -0.007342 0.003876 0.027668 -0.005224 0.005374
# 5 0.011787 0.004157 -0.000284 -0.005224 0.034621 -0.017991
# 6 0.000572 -0.009161 -0.005259 0.005374 -0.017991 0.063571
#
#
# Mechanical properties :
#
#
# Convention : Reuss Voigt Hill
#
# Bulk Modulus (GPa) = 28.46375 53.39247 40.92811
# Shear Modulus (GPa) = 24.06053 37.18774 30.62413
#
# Velocity S-wave (km/s) = 3.34030 4.15272 3.76846
# Velocity P-wave (km/s) = 5.29870 6.91036 6.15749
#
# Compressibility (1/GPa) = 0.03513240
#
# Stress axis : x y z
#
# Youngs Moduli (GPa) = 37.03119 101.22762 63.28057
#
# Poissons Ratio (x) = 0.13150 0.21621
# Poissons Ratio (y) = 0.04810 0.25697
# Poissons Ratio (z) = 0.12652 0.41107
#
# Static dielectric constant tensor:
#      x y z
#    x 1.805080 -0.019480 -0.001070 
#    y -0.019480 1.784840 -0.026990 
#    z -0.001070 -0.026990 1.766630 
# 
# From -- ./inp_files/177258.got.cif
#   From: 2010.05.17/outbox.cif.g08.bks.cpg/sg2_89_cif.got.tgz:177258.got - 2010.06.03 11:33:40.
