data_PCOD9009220
_publ_section_title
;
Structure prediction by ZEFSAII (Michael W. Deem and Ramdas Pophale) SiO2 
 PCOD9009220
Probable space group: P -1
;
_chemical_formula_sum "Si O2"
_cell_formula_units_Z 16
_cell_length_a 12.794876
_cell_length_b 7.604220
_cell_length_c 13.126288
_cell_angle_alpha 83.901180
_cell_angle_beta 46.938386
_cell_angle_gamma 64.635453
_cell_volume 808.895487
_symmetry_space_group_name_H-M "P -1"
_symmetry_group_IT_number 2
_symmetry_cell_setting 'triclinic'
loop_
_space_group_symop_operation_xyz
x,y,z
-x,-y,-z
loop_
_atom_site_type_symbol
_atom_site_label
_atom_site_fract_x
_atom_site_fract_y
_atom_site_fract_z
Si Si1 0.622728 0.827351 0.852385
Si Si2 0.988206 0.107321 0.158883
Si Si3 0.035953 0.263954 0.909538
Si Si4 0.623481 0.037323 0.297688
Si Si5 0.435372 0.903761 0.295208
Si Si6 0.666053 0.210989 0.054291
Si Si7 0.737523 0.581357 0.980354
Si Si8 0.637000 0.281396 0.461370
O O1 0.503806 0.758476 0.879419
O O2 0.679347 0.935622 0.723738
O O3 0.747341 0.658556 0.856640
O O4 0.500000 0.000000 0.000000
O O5 0.824672 0.232289 0.325316
O O6 0.983888 0.244836 0.059161
O O7 0.973695 0.916558 0.134480
O O8 0.174171 0.988121 0.086484
O O9 0.227190 0.193261 0.784074
O O10 0.911200 0.471831 0.927737
O O11 0.472664 0.031959 0.346041
O O12 0.673759 0.155669 0.172739
O O13 0.608378 0.136486 0.410167
O O14 0.601881 0.757887 0.130928
O O15 0.384629 0.767695 0.404784
O O16 0.682083 0.410111 0.017345
O O17 0.500000 0.500000 0.500000
#
# Coordination Sequence:
#
# PCOD9009220 Si02
#       8
#     2   2   2   2   2   2   2   2
#     4   9  19  32  47  69  95 124 154 194 238 267
#     4   8  15  27  46  71  94 119 148 192 240 268
#     4   8  14  27  47  70  95 117 151 194 231 274
#     4   9  18  31  47  71 100 126 146 187 247 278
#     4  10  20  31  45  68 101 127 150 190 236 280
#     4   9  16  31  53  72  92 118 158 197 228 275
#     4  10  17  29  49  73  92 120 163 196 224 267
#     4  11  19  30  48  70  97 126 158 187 225 287
#
# _framework density 19.780058
#
# number of rings (size 3 to 8) (size 9 to 14) (size 15 to 20)
#    0.000    2.750    0.000    4.500    0.000    0.500 
#    0.000    2.500    0.000    9.750    0.000    5.250 
#    0.000    0.000    0.000    0.000    0.000    0.000 
#
# Total GULP energy -89147.524344 kJ/mol
# GULP energy per Si atom -5571.720271 kJ/mol
# Density = 1.973504 g / cm^3
# Si number density = 19.780058 Si / 1000 Ang^3
#
#
#
# Elastic Constant Matrix: (Units=GPa)
#
#
# Indices 1 2 3 4 5 6 
#
# 1 28.7843 17.5507 5.0896 -1.8989 11.9619 -3.7286
# 2 17.5507 114.9280 41.3451 -19.6275 7.7059 -27.1487
# 3 5.0896 41.3451 81.5779 -17.4730 7.2437 -14.2474
# 4 -1.8989 -19.6275 -17.4730 27.4928 -4.2516 7.0547
# 5 11.9619 7.7059 7.2437 -4.2516 14.9636 -3.1650
# 6 -3.7286 -27.1487 -14.2474 7.0547 -3.1650 21.4269
#
#
#
# Elastic Compliance Matrix: (Units=1/GPa)
#
#
# Indices 1 2 3 4 5 6 
#
# 1 0.057603 -0.008774 0.002834 -0.006561 -0.045565 -0.003780
# 2 -0.008774 0.015423 -0.004192 0.004894 0.005545 0.014435
# 3 0.002834 -0.004192 0.016590 0.005991 -0.005717 0.003395
# 4 -0.006561 0.004894 0.005991 0.046209 0.012024 -0.004395
# 5 -0.045565 0.005545 -0.005717 0.012024 0.108127 0.007308
# 6 -0.003780 0.014435 0.003395 -0.004395 0.007308 0.069087
#
#
# Mechanical properties :
#
#
# Convention : Reuss Voigt Hill
#
# Bulk Modulus (GPa) = 14.41957 39.25119 26.83538
# Shear Modulus (GPa) = 14.02836 23.53032 18.77934
#
# Velocity S-wave (km/s) = 2.66600 3.45280 3.08459
# Velocity P-wave (km/s) = 4.09665 5.98186 5.12665
#
# Compressibility (1/GPa) = 0.06935022
#
# Stress axis : x y z
#
# Youngs Moduli (GPa) = 17.36023 64.83796 60.27694
#
# Poissons Ratio (x) = 0.56890 -0.17080
# Poissons Ratio (y) = 0.15232 0.25271
# Poissons Ratio (z) = -0.04919 0.27183
#
# Static dielectric constant tensor:
#      x y z
#    x 1.758900 0.012070 -0.022940 
#    y 0.012070 1.757500 -0.009870 
#    z -0.022940 -0.009870 1.717260 
# 
# From -- ./inp_files/222610.got.cif
#   From: 2010.05.17/outbox.cif.g08.bks.cpg/sg2_112_cif.got.tgz:222610.got - 2010.06.03 11:33:40.
