data_PCOD9009459
_publ_section_title
;
Structure prediction by ZEFSAII (Michael W. Deem and Ramdas Pophale) SiO2 
 PCOD9009459
Probable space group: P -1
;
_chemical_formula_sum "Si O2"
_cell_formula_units_Z 13
_cell_length_a 11.265051
_cell_length_b 11.778827
_cell_length_c 11.131977
_cell_angle_alpha 140.468318
_cell_angle_beta 41.267100
_cell_angle_gamma 138.283944
_cell_volume 569.111038
_symmetry_space_group_name_H-M "P -1"
_symmetry_group_IT_number 2
_symmetry_cell_setting 'triclinic'
loop_
_space_group_symop_operation_xyz
x,y,z
-x,-y,-z
loop_
_atom_site_type_symbol
_atom_site_label
_atom_site_fract_x
_atom_site_fract_y
_atom_site_fract_z
Si Si1 0.245083 0.577879 0.756946
Si Si2 0.518873 0.566484 0.349814
Si Si3 0.131932 0.729114 0.334330
Si Si4 0.161932 0.166761 0.245336
Si Si5 0.274352 0.932989 0.155738
Si Si6 0.701268 0.592600 0.995240
Si Si7 0.000000 0.000000 0.000000
O O1 0.406180 0.664008 0.598511
O O2 0.350556 0.500748 0.714799
O O3 0.065054 0.406635 0.695582
O O4 0.173773 0.728253 0.996769
O O5 0.347150 0.371483 0.267782
O O6 0.650907 0.672975 0.224583
O O7 0.249877 0.894372 0.284123
O O8 0.045688 0.808646 0.575526
O O9 0.236592 0.587076 0.172709
O O10 0.141507 0.027391 0.035567
O O11 0.187448 0.074658 0.277546
O O12 0.500000 0.000000 0.000000
O O13 0.868380 0.769715 0.946134
O O14 0.500000 0.500000 0.000000
#
# Coordination Sequence:
#
# PCOD9009459 Si02
#       7
#     2   2   2   2   2   2   1
#     4  10  21  39  69 101 133 178 221 280 362 408
#     4  10  21  43  67  97 140 184 219 285 353 415
#     4  11  25  43  70  98 141 184 225 295 356 406
#     4  11  24  45  65 104 141 180 237 285 345 416
#     4  12  22  39  69 102 137 174 226 287 349 413
#     4  12  25  49  72  96 143 190 237 282 347 409
#     4  12  28  44  74  98 138 190 242 286 328 422
#
# _framework density 22.842642999999999
#
# number of rings (size 3 to 8) (size 9 to 14) (size 15 to 20)
#    0.000    0.923    4.615    1.846    2.154    1.846 
#    2.769    0.769    0.000    0.000    0.000    0.000 
#    0.000    0.000    0.000    0.000    0.000    0.000 
#
# Total GULP energy -72431.753666 kJ/mol
# GULP energy per Si atom -5571.673359 kJ/mol
# Density = 2.279065 g / cm^3
# Si number density = 22.842643 Si / 1000 Ang^3
#
#
#
# Elastic Constant Matrix: (Units=GPa)
#
#
# Indices 1 2 3 4 5 6 
#
# 1 103.7926 27.1565 12.6799 -5.0293 -9.4761 -1.7246
# 2 27.1565 88.3727 1.3362 -8.8117 -9.1371 -12.1988
# 3 12.6799 1.3362 50.9805 -11.8632 -19.8962 -10.8312
# 4 -5.0293 -8.8117 -11.8632 29.0067 4.4282 11.0221
# 5 -9.4761 -9.1371 -19.8962 4.4282 20.9636 1.2293
# 6 -1.7246 -12.1988 -10.8312 11.0221 1.2293 42.3951
#
#
#
# Elastic Compliance Matrix: (Units=1/GPa)
#
#
# Indices 1 2 3 4 5 6 
#
# 1 0.010897 -0.003326 -0.002327 0.000182 0.001299 -0.001193
# 2 -0.003326 0.014083 0.005609 0.002970 0.009078 0.004315
# 3 -0.002327 0.005609 0.037029 0.008220 0.034340 0.007847
# 4 0.000182 0.002970 0.008220 0.041639 0.000846 -0.007888
# 5 0.001299 0.009078 0.034340 0.000846 0.084143 0.008778
# 6 -0.001193 0.004315 0.007847 -0.007888 0.008778 0.028581
#
#
# Mechanical properties :
#
#
# Convention : Reuss Voigt Hill
#
# Bulk Modulus (GPa) = 16.14985 36.16568 26.15776
# Shear Modulus (GPa) = 21.08808 31.93794 26.51301
#
# Velocity S-wave (km/s) = 3.04170 3.74327 3.41057
# Velocity P-wave (km/s) = 4.40696 5.87790 5.19476
#
# Compressibility (1/GPa) = 0.06192010
#
# Stress axis : x y z
#
# Youngs Moduli (GPa) = 91.77179 71.00701 27.00594
#
# Poissons Ratio (x) = 0.23614 0.06285
# Poissons Ratio (y) = 0.30519 -0.15146
# Poissons Ratio (z) = 0.21358 -0.39825
#
# Static dielectric constant tensor:
#      x y z
#    x 1.798110 -0.011990 0.044760 
#    y -0.011990 1.905180 -0.020700 
#    z 0.044760 -0.020700 1.964530 
# 
# From -- ./inp_files/156068.got.cif
#   From: 2010.05.17/outbox.cif.g08.bks.cpg/sg2_79_cif.got.tgz:156068.got - 2010.06.03 11:33:40.
