data_PCOD9009041
_publ_section_title
;
Structure prediction by ZEFSAII (Michael W. Deem and Ramdas Pophale) SiO2 
 PCOD9009041
Probable space group: P -1
;
_chemical_formula_sum "Si O2"
_cell_formula_units_Z 16
_cell_length_a 10.123116
_cell_length_b 9.804842
_cell_length_c 18.970557
_cell_angle_alpha 25.339489
_cell_angle_beta 88.306924
_cell_angle_gamma 83.038900
_cell_volume 785.611676
_symmetry_space_group_name_H-M "P -1"
_symmetry_group_IT_number 2
_symmetry_cell_setting 'triclinic'
loop_
_space_group_symop_operation_xyz
x,y,z
-x,-y,-z
loop_
_atom_site_type_symbol
_atom_site_label
_atom_site_fract_x
_atom_site_fract_y
_atom_site_fract_z
Si Si1 0.411539 0.281735 0.005764
Si Si2 0.877696 0.179310 0.466582
Si Si3 0.227092 0.826152 0.272747
Si Si4 0.048282 0.324204 0.654765
Si Si5 0.390984 0.597505 0.712000
Si Si6 0.317994 0.774218 0.900150
Si Si7 0.714885 0.883881 0.716964
Si Si8 0.564908 0.762953 0.512379
O O1 0.552911 0.118850 0.117429
O O2 0.300013 0.071237 0.115564
O O3 0.430156 0.358943 0.888414
O O4 0.359980 0.612139 0.898794
O O5 0.930696 0.411791 0.412011
O O6 0.754952 0.394770 0.322516
O O7 0.809621 0.924307 0.630749
O O8 0.000000 0.000000 0.500000
O O9 0.317017 0.465454 0.426363
O O10 0.074063 0.845502 0.243099
O O11 0.236179 0.928469 0.305995
O O12 0.000000 0.500000 0.500000
O O13 0.187624 0.062438 0.764542
O O14 0.502073 0.554221 0.668790
O O15 0.383578 0.958825 0.575517
O O16 0.287930 0.478632 0.087295
O O17 0.562357 0.062121 0.614703
#
# Coordination Sequence:
#
# PCOD9009041 Si02
#       8
#     2   2   2   2   2   2   2   2
#     4  10  23  42  69 101 130 179 214 284 330 391
#     4  11  25  43  67  99 135 181 221 268 340 399
#     4  11  24  39  67  98 131 173 227 271 333 386
#     4  12  27  46  66 100 133 178 224 278 325 400
#     4  10  22  40  64  95 133 178 218 269 337 390
#     4  10  24  43  69  99 134 167 229 272 336 390
#     4  10  21  42  68  99 128 173 218 284 327 390
#     4  10  21  39  66  98 130 171 225 270 332 392
#
# _framework density 20.366295999999998
#
# number of rings (size 3 to 8) (size 9 to 14) (size 15 to 20)
#    0.000    1.500    2.500    1.125    7.000    3.500 
#    0.000    1.250    0.000    0.000    0.000    0.000 
#    0.000    0.000    0.000    0.000    0.000    0.000 
#
# Total GULP energy -89501.058247 kJ/mol
# GULP energy per Si atom -5593.816140 kJ/mol
# Density = 2.031994 g / cm^3
# Si number density = 20.366296 Si / 1000 Ang^3
#
#
#
# Elastic Constant Matrix: (Units=GPa)
#
#
# Indices 1 2 3 4 5 6 
#
# 1 137.4754 37.9079 31.2791 -4.2438 3.9113 5.4751
# 2 37.9079 52.5905 17.1699 2.6516 12.9097 12.2727
# 3 31.2791 17.1699 58.9033 16.3119 3.1312 -3.9988
# 4 -4.2438 2.6516 16.3119 26.1545 2.4705 -1.0467
# 5 3.9113 12.9097 3.1312 2.4705 32.0604 -6.6485
# 6 5.4751 12.2727 -3.9988 -1.0467 -6.6485 43.4517
#
#
#
# Elastic Compliance Matrix: (Units=1/GPa)
#
#
# Indices 1 2 3 4 5 6 
#
# 1 0.010354 -0.006537 -0.005148 0.005425 0.001544 0.000435
# 2 -0.006537 0.031382 -0.005731 0.000182 -0.013497 -0.010628
# 3 -0.005148 -0.005731 0.026165 -0.016634 0.002632 0.004677
# 4 0.005425 0.000182 -0.016634 0.049716 -0.003267 -0.001568
# 5 0.001544 -0.013497 0.002632 -0.003267 0.038436 0.009662
# 6 0.000435 -0.010628 0.004677 -0.001568 0.009662 0.027832
#
#
# Mechanical properties :
#
#
# Convention : Reuss Voigt Hill
#
# Bulk Modulus (GPa) = 30.23817 46.85366 38.54591
# Shear Modulus (GPa) = 21.76387 31.17414 26.46901
#
# Velocity S-wave (km/s) = 3.27252 3.91663 3.60897
# Velocity P-wave (km/s) = 5.39987 6.59611 6.02774
#
# Compressibility (1/GPa) = 0.03307079
#
# Stress axis : x y z
#
# Youngs Moduli (GPa) = 96.58236 31.86558 38.21903
#
# Poissons Ratio (x) = 0.20829 0.19674
# Poissons Ratio (y) = 0.63131 0.21903
# Poissons Ratio (z) = 0.49717 0.18262
#
# Static dielectric constant tensor:
#      x y z
#    x 1.702760 -0.004390 -0.037140 
#    y -0.004390 1.706290 0.005330 
#    z -0.037140 0.005330 1.749890 
# 
# From -- ./inp_files/407247.got.cif
#   From: 2010.05.17/outbox.cif.g08.bks.cpg/sg2_204_cif.got.tgz:407247.got - 2010.06.03 11:33:40.
