data_PCOD9009922
_publ_section_title
;
Structure prediction by ZEFSAII (Michael W. Deem and Ramdas Pophale) SiO2 
 PCOD9009922
Probable space group: P -1
;
_chemical_formula_sum "Si O2"
_cell_formula_units_Z 15
_cell_length_a 9.696207
_cell_length_b 17.962088
_cell_length_c 9.093206
_cell_angle_alpha 61.711923
_cell_angle_beta 70.836798
_cell_angle_gamma 32.748857
_cell_volume 746.142532
_symmetry_space_group_name_H-M "P -1"
_symmetry_group_IT_number 2
_symmetry_cell_setting 'triclinic'
loop_
_space_group_symop_operation_xyz
x,y,z
-x,-y,-z
loop_
_atom_site_type_symbol
_atom_site_label
_atom_site_fract_x
_atom_site_fract_y
_atom_site_fract_z
Si Si1 0.469297 0.795616 0.261164
Si Si2 0.690886 0.330465 0.062702
Si Si3 0.577570 0.688215 0.009093
Si Si4 0.096624 0.372099 0.274683
Si Si5 0.262521 0.078296 0.102295
Si Si6 0.135286 0.850113 0.535874
Si Si7 0.000000 0.500000 0.500000
Si Si8 0.777104 0.870017 0.596346
O O1 0.440346 0.796243 0.095824
O O2 0.347079 0.776037 0.412110
O O3 0.767184 0.655381 0.335476
O O4 0.321432 0.950648 0.215019
O O5 0.742041 0.258433 0.267514
O O6 0.971796 0.227473 0.004777
O O7 0.500000 0.500000 0.000000
O O8 0.574751 0.316559 0.006262
O O9 0.841450 0.525799 0.137563
O O10 0.661923 0.713659 0.829248
O O11 0.118253 0.400981 0.400983
O O12 0.075353 0.281515 0.374213
O O13 0.255477 0.123137 0.223197
O O14 0.500000 0.000000 0.000000
O O15 0.928238 0.885005 0.506190
O O16 0.000000 0.000000 0.500000
O O17 0.500000 0.000000 0.500000
#
# Coordination Sequence:
#
# PCOD9009922 Si02
#       8
#     2   2   2   2   2   2   1   2
#     4  11  22  41  63  97 129 177 228 268 339 404
#     4  11  24  43  69  95 131 183 228 275 347 403
#     4  10  22  38  65  92 132 172 222 280 331 403
#     4  10  21  40  60  98 130 173 222 279 333 399
#     4  11  24  41  62  94 136 170 221 281 333 397
#     4  11  23  44  66  94 134 179 219 278 335 402
#     4  10  22  38  68  92 132 178 220 272 338 412
#     4  11  23  38  65  93 128 169 225 272 330 393
#
# _framework density 20.103396
#
# number of rings (size 3 to 8) (size 9 to 14) (size 15 to 20)
#    0.000    1.333    2.667    4.000    1.867    4.800 
#    0.000    7.333    0.000    0.000    0.000    0.000 
#    0.000    0.000    0.000    0.000    0.000    0.000 
#
# Total GULP energy -83529.630967 kJ/mol
# GULP energy per Si atom -5568.642064 kJ/mol
# Density = 2.005764 g / cm^3
# Si number density = 20.103396 Si / 1000 Ang^3
#
#
#
# Elastic Constant Matrix: (Units=GPa)
#
#
# Indices 1 2 3 4 5 6 
#
# 1 98.7597 19.7072 43.9412 6.1563 8.9353 3.3104
# 2 19.7072 91.9519 29.8731 -1.4157 -2.2781 11.1453
# 3 43.9412 29.8731 72.4846 13.1704 7.7316 9.8668
# 4 6.1563 -1.4157 13.1704 43.3434 2.8734 0.7224
# 5 8.9353 -2.2781 7.7316 2.8734 40.3596 2.4841
# 6 3.3104 11.1453 9.8668 0.7224 2.4841 28.5457
#
#
#
# Elastic Compliance Matrix: (Units=1/GPa)
#
#
# Indices 1 2 3 4 5 6 
#
# 1 0.014050 -0.000484 -0.008479 0.000648 -0.001659 0.001618
# 2 -0.000484 0.013183 -0.005236 0.002021 0.001926 -0.003500
# 3 -0.008479 -0.005236 0.022988 -0.005734 -0.002131 -0.004587
# 4 0.000648 0.002021 -0.005734 0.024827 -0.000733 0.000553
# 5 -0.001659 0.001926 -0.002131 -0.000733 0.025840 -0.002053
# 6 0.001618 -0.003500 -0.004587 0.000553 -0.002053 0.037961
#
#
# Mechanical properties :
#
#
# Convention : Reuss Voigt Hill
#
# Bulk Modulus (GPa) = 45.82296 50.02658 47.92477
# Shear Modulus (GPa) = 28.64977 33.76140 31.20558
#
# Velocity S-wave (km/s) = 3.77917 4.10248 3.94414
# Velocity P-wave (km/s) = 6.47194 6.88325 6.68076
#
# Compressibility (1/GPa) = 0.02182312
#
# Stress axis : x y z
#
# Youngs Moduli (GPa) = 71.17320 75.85487 43.50140
#
# Poissons Ratio (x) = 0.03671 0.36885
# Poissons Ratio (y) = 0.03444 0.22777
# Poissons Ratio (z) = 0.60348 0.39718
#
# Static dielectric constant tensor:
#      x y z
#    x 1.760610 0.056600 -0.046600 
#    y 0.056600 1.938870 -0.044440 
#    z -0.046600 -0.044440 1.721130 
# 
# From -- ./inp_files/200767.got.cif
#   From: 2010.05.17/outbox.cif.g08.bks.cpg/sg2_101_cif.got.tgz:200767.got - 2010.06.03 11:33:40.
