data_PCOD9009458
_publ_section_title
;
Structure prediction by ZEFSAII (Michael W. Deem and Ramdas Pophale) SiO2 
 PCOD9009458
Probable space group: P -1
;
_chemical_formula_sum "Si O2"
_cell_formula_units_Z 14
_cell_length_a 8.901297
_cell_length_b 12.595108
_cell_length_c 8.007384
_cell_angle_alpha 57.707306
_cell_angle_beta 56.757466
_cell_angle_gamma 70.936344
_cell_volume 633.969829
_symmetry_space_group_name_H-M "P -1"
_symmetry_group_IT_number 2
_symmetry_cell_setting 'triclinic'
loop_
_space_group_symop_operation_xyz
x,y,z
-x,-y,-z
loop_
_atom_site_type_symbol
_atom_site_label
_atom_site_fract_x
_atom_site_fract_y
_atom_site_fract_z
Si Si1 0.058209 0.697234 0.111563
Si Si2 0.180825 0.959847 0.820123
Si Si3 0.197781 0.189254 0.365820
Si Si4 0.174063 0.458362 0.813015
Si Si5 0.834245 0.286578 0.585151
Si Si6 0.681832 0.541793 0.930802
Si Si7 0.471168 0.889671 0.982727
O O1 0.071589 0.714622 0.288175
O O2 0.872477 0.663175 0.165069
O O3 0.178630 0.570969 0.109748
O O4 0.139962 0.823381 0.883434
O O5 0.213042 0.070614 0.578749
O O6 0.350283 0.938887 0.857387
O O7 0.000000 0.000000 0.000000
O O8 0.334294 0.159347 0.157910
O O9 0.986435 0.217343 0.433879
O O10 0.262526 0.322988 0.282581
O O11 0.202298 0.573430 0.575961
O O12 0.324139 0.445158 0.875300
O O13 0.000000 0.500000 0.000000
O O14 0.652903 0.213850 0.773265
O O15 0.500000 0.500000 0.000000
O O16 0.500000 0.000000 0.000000
#
# Coordination Sequence:
#
# PCOD9009458 Si02
#       7
#     2   2   2   2   2   2   2
#     4  10  21  41  70  99 137 180 235 283 343 418
#     4  11  23  45  71 103 137 188 233 281 356 415
#     4  12  24  46  73 100 141 186 235 284 354 414
#     4  10  21  39  69 101 132 183 232 281 348 412
#     4  11  22  45  72 101 140 184 235 290 348 411
#     4  11  24  43  68 106 140 180 232 286 350 414
#     4  11  27  45  66 107 145 178 236 294 345 419
#
# _framework density 22.083069999999999
#
# number of rings (size 3 to 8) (size 9 to 14) (size 15 to 20)
#    0.000    1.143    5.714    2.571    0.000    5.143 
#    0.000    2.857    0.000    0.000    0.000    0.000 
#    0.000    0.000    0.000    0.000    0.000    0.000 
#
# Total GULP energy -78218.439877 kJ/mol
# GULP energy per Si atom -5587.031420 kJ/mol
# Density = 2.203281 g / cm^3
# Si number density = 22.083070 Si / 1000 Ang^3
#
#
#
# Elastic Constant Matrix: (Units=GPa)
#
#
# Indices 1 2 3 4 5 6 
#
# 1 110.1221 34.0366 52.1782 -14.4647 2.0104 27.0525
# 2 34.0366 140.8130 73.0196 -24.6207 -9.0434 13.9502
# 3 52.1782 73.0196 147.4628 -38.9279 -16.1430 6.0647
# 4 -14.4647 -24.6207 -38.9279 61.5079 -17.3357 -7.6983
# 5 2.0104 -9.0434 -16.1430 -17.3357 24.1574 -2.7238
# 6 27.0525 13.9502 6.0647 -7.6983 -2.7238 33.7750
#
#
#
# Elastic Compliance Matrix: (Units=1/GPa)
#
#
# Indices 1 2 3 4 5 6 
#
# 1 0.015783 -0.000302 -0.008280 -0.007238 -0.013708 -0.013786
# 2 -0.000302 0.009947 -0.004141 0.001441 0.001716 -0.002657
# 3 -0.008280 -0.004141 0.018158 0.015965 0.023930 0.010651
# 4 -0.007238 0.001441 0.015965 0.038653 0.041179 0.014467
# 5 -0.013708 0.001716 0.023930 0.041179 0.091282 0.022722
# 6 -0.013786 -0.002657 0.010651 0.014467 0.022722 0.044964
#
#
# Mechanical properties :
#
#
# Convention : Reuss Voigt Hill
#
# Bulk Modulus (GPa) = 54.22232 79.65186 66.93709
# Shear Modulus (GPa) = 19.96946 39.83230 29.90088
#
# Velocity S-wave (km/s) = 3.01040 4.25166 3.68369
# Velocity P-wave (km/s) = 6.05726 7.76207 6.96204
#
# Compressibility (1/GPa) = 0.01844259
#
# Stress axis : x y z
#
# Youngs Moduli (GPa) = 63.35785 100.52822 55.07249
#
# Poissons Ratio (x) = 0.03033 0.45599
# Poissons Ratio (y) = 0.01912 0.22808
# Poissons Ratio (z) = 0.52459 0.41634
#
# Static dielectric constant tensor:
#      x y z
#    x 1.798270 0.008430 -0.011690 
#    y 0.008430 1.823360 0.033510 
#    z -0.011690 0.033510 1.833950 
# 
# From -- ./inp_files/184688.got.cif
#   From: 2010.05.17/outbox.cif.g08.bks.cpg/sg2_93_cif.got.tgz:184688.got - 2010.06.03 11:33:40.
