data_PCOD9009843
_publ_section_title
;
Structure prediction by ZEFSAII (Michael W. Deem and Ramdas Pophale) SiO2 
 PCOD9009843
Probable space group: P -1
;
_chemical_formula_sum "Si O2"
_cell_formula_units_Z 16
_cell_length_a 22.782688
_cell_length_b 9.768314
_cell_length_c 16.107565
_cell_angle_alpha 61.745077
_cell_angle_beta 163.008227
_cell_angle_gamma 127.852162
_cell_volume 720.293554
_symmetry_space_group_name_H-M "P -1"
_symmetry_group_IT_number 2
_symmetry_cell_setting 'triclinic'
loop_
_space_group_symop_operation_xyz
x,y,z
-x,-y,-z
loop_
_atom_site_type_symbol
_atom_site_label
_atom_site_fract_x
_atom_site_fract_y
_atom_site_fract_z
Si Si1 0.671219 0.272357 0.286783
Si Si2 0.764705 0.533826 0.594026
Si Si3 0.647908 0.805548 0.372943
Si Si4 0.837687 0.267719 0.339244
Si Si5 0.037618 0.692133 0.739648
Si Si6 0.119399 0.052062 0.530619
Si Si7 0.631434 0.985045 0.449076
Si Si8 0.720127 0.169127 0.688107
O O1 0.748592 0.204143 0.332257
O O2 0.877810 0.509033 0.512256
O O3 0.650525 0.154214 0.373294
O O4 0.396233 0.205700 0.905508
O O5 0.575697 0.588105 0.336827
O O6 0.881416 0.591013 0.642915
O O7 0.650424 0.310824 0.524193
O O8 0.009244 0.685912 0.940274
O O9 0.839385 0.909539 0.523826
O O10 0.751067 0.914615 0.569337
O O11 0.403011 0.794862 0.023916
O O12 0.000000 0.500000 0.500000
O O13 0.957694 0.164829 0.499850
O O14 0.043239 0.880912 0.678232
O O15 0.335051 0.790513 0.118821
O O16 0.743821 0.074844 0.665442
O O17 0.500000 0.000000 0.500000
#
# Coordination Sequence:
#
# PCOD9009843 Si02
#       8
#     2   2   2   2   2   2   2   2
#     4  11  21  39  59  92 125 167 206 254 296 361
#     4  10  23  43  66  89 122 157 205 257 317 373
#     4  10  21  42  60  89 126 165 201 250 305 368
#     4  11  21  39  62  91 134 174 204 247 303 363
#     4  11  23  38  62  95 121 166 208 253 307 362
#     4  10  21  40  60  86 134 166 205 248 300 362
#     4  12  22  39  66  90 125 156 212 258 307 368
#     4  11  23  44  68  91 119 158 202 265 323 366
#
# _framework density 22.213165
#
# number of rings (size 3 to 8) (size 9 to 14) (size 15 to 20)
#    0.000    1.250    5.000    1.875    0.000    2.000 
#    2.250    0.625    0.000    0.000    0.000    0.000 
#    0.000    0.000    0.000    0.000    0.000    0.000 
#
# Total GULP energy -89388.822723 kJ/mol
# GULP energy per Si atom -5586.801420 kJ/mol
# Density = 2.216261 g / cm^3
# Si number density = 22.213165 Si / 1000 Ang^3
#
#
#
# Elastic Constant Matrix: (Units=GPa)
#
#
# Indices 1 2 3 4 5 6 
#
# 1 130.5288 28.1819 8.8926 -1.4035 -25.2708 -12.0202
# 2 28.1819 148.5482 20.4001 5.5065 -0.0124 -2.3844
# 3 8.8926 20.4001 22.5336 16.2307 -12.0681 -6.4434
# 4 -1.4035 5.5065 16.2307 29.7289 -4.5094 -1.3836
# 5 -25.2708 -0.0124 -12.0681 -4.5094 25.6154 12.9414
# 6 -12.0202 -2.3844 -6.4434 -1.3836 12.9414 36.1601
#
#
#
# Elastic Compliance Matrix: (Units=1/GPa)
#
#
# Indices 1 2 3 4 5 6 
#
# 1 0.010328 -0.002636 0.004814 0.000256 0.012714 -0.000424
# 2 -0.002636 0.009294 -0.016515 0.005736 -0.009592 0.000446
# 3 0.004814 -0.016515 0.129848 -0.059245 0.054547 0.001860
# 4 0.000256 0.005736 -0.059245 0.062469 -0.015585 -0.002125
# 5 0.012714 -0.009592 0.054547 -0.015585 0.083140 -0.017038
# 6 -0.000424 0.000446 0.001860 -0.002125 -0.017038 0.033891
#
#
# Mechanical properties :
#
#
# Convention : Reuss Voigt Hill
#
# Bulk Modulus (GPa) = 8.27838 46.28441 27.28140
# Shear Modulus (GPa) = 12.56572 34.57662 23.57117
#
# Velocity S-wave (km/s) = 2.38100 3.94964 3.26104
# Velocity P-wave (km/s) = 3.36062 6.45610 5.14660
#
# Compressibility (1/GPa) = 0.12079653
#
# Stress axis : x y z
#
# Youngs Moduli (GPa) = 96.82849 107.60176 7.70131
#
# Poissons Ratio (x) = 0.28360 -0.03708
# Poissons Ratio (y) = 0.25521 0.12719
# Poissons Ratio (z) = -0.46615 1.77701
#
# Static dielectric constant tensor:
#      x y z
#    x 1.863620 0.031750 0.004950 
#    y 0.031750 1.872530 0.009150 
#    z 0.004950 0.009150 1.829210 
# 
# From -- ./inp_files/201271.got.cif
#   From: 2010.05.17/outbox.cif.g08.bks.cpg/sg2_101_cif.got.tgz:201271.got - 2010.06.03 11:33:40.
