data_PCOD9009674
_publ_section_title
;
Structure prediction by ZEFSAII (Michael W. Deem and Ramdas Pophale) SiO2 
 PCOD9009674
Probable space group: P -1
;
_chemical_formula_sum "Si O2"
_cell_formula_units_Z 14
_cell_length_a 7.986934
_cell_length_b 16.301875
_cell_length_c 9.679995
_cell_angle_alpha 42.976117
_cell_angle_beta 69.743243
_cell_angle_gamma 45.178724
_cell_volume 570.749447
_symmetry_space_group_name_H-M "P -1"
_symmetry_group_IT_number 2
_symmetry_cell_setting 'triclinic'
loop_
_space_group_symop_operation_xyz
x,y,z
-x,-y,-z
loop_
_atom_site_type_symbol
_atom_site_label
_atom_site_fract_x
_atom_site_fract_y
_atom_site_fract_z
Si Si1 0.618730 0.143575 0.780842
Si Si2 0.199806 0.586642 0.921448
Si Si3 0.017695 0.439043 0.243720
Si Si4 0.563357 0.503687 0.688266
Si Si5 0.459057 0.745000 0.047457
Si Si6 0.055563 0.889851 0.751963
Si Si7 0.918501 0.674738 0.340694
O O1 0.540776 0.317422 0.545625
O O2 0.682283 0.121160 0.953045
O O3 0.369743 0.180344 0.796540
O O4 0.830415 0.003080 0.787536
O O5 0.018157 0.627037 0.798331
O O6 0.436186 0.530718 0.838732
O O7 0.085812 0.745058 0.851649
O O8 0.227576 0.444406 0.167017
O O9 0.753323 0.640164 0.084530
O O10 0.064078 0.330165 0.493256
O O11 0.494776 0.417732 0.726764
O O12 0.864936 0.357568 0.760393
O O13 0.298833 0.818861 0.860897
O O14 0.000000 0.000000 0.500000
O O15 0.000000 0.500000 0.500000
#
# Coordination Sequence:
#
# PCOD9009674 Si02
#       7
#     2   2   2   2   2   2   2
#     4  11  23  44  68 103 144 177 226 287 349 418
#     4  10  24  43  67 100 144 179 229 286 352 407
#     4  10  22  44  70 106 135 177 237 300 336 403
#     4  10  21  41  75 102 130 176 240 290 336 399
#     4  11  24  42  72 102 136 185 241 287 337 407
#     4  12  27  45  67 101 149 191 225 276 361 431
#     4  10  21  39  73 101 135 172 236 290 343 399
#
# _framework density 24.529153000000001
#
# number of rings (size 3 to 8) (size 9 to 14) (size 15 to 20)
#    0.000    1.429    4.286    0.857    6.000    5.714 
#    0.000    7.143    0.000    0.000    0.000    0.000 
#    0.000    0.000    0.000    0.000    0.000    0.000 
#
# Total GULP energy -78204.792184 kJ/mol
# GULP energy per Si atom -5586.056585 kJ/mol
# Density = 2.447332 g / cm^3
# Si number density = 24.529153 Si / 1000 Ang^3
#
#
#
# Elastic Constant Matrix: (Units=GPa)
#
#
# Indices 1 2 3 4 5 6 
#
# 1 117.0342 63.4172 46.0903 12.2392 -8.7978 -3.6286
# 2 63.4172 213.8604 49.6680 17.4488 -3.1751 15.2183
# 3 46.0903 49.6680 104.6448 14.4647 -1.8361 4.8654
# 4 12.2392 17.4488 14.4647 42.0089 -5.3983 2.5835
# 5 -8.7978 -3.1751 -1.8361 -5.3983 38.7618 19.8010
# 6 -3.6286 15.2183 4.8654 2.5835 19.8010 47.0605
#
#
#
# Elastic Compliance Matrix: (Units=1/GPa)
#
#
# Indices 1 2 3 4 5 6 
#
# 1 0.011717 -0.002602 -0.003850 -0.000944 0.001288 0.001653
# 2 -0.002602 0.006047 -0.001463 -0.000993 0.000883 -0.002322
# 3 -0.003850 -0.001463 0.012325 -0.002508 -0.000342 -0.000816
# 4 -0.000944 -0.000993 -0.002508 0.026140 0.004713 -0.002910
# 5 0.001288 0.000883 -0.000342 0.004713 0.034408 -0.014887
# 6 0.001653 -0.002322 -0.000816 -0.002910 -0.014887 0.028635
#
#
# Mechanical properties :
#
#
# Convention : Reuss Voigt Hill
#
# Bulk Modulus (GPa) = 70.13023 83.76560 76.94792
# Shear Modulus (GPa) = 35.75114 43.99048 39.87081
#
# Velocity S-wave (km/s) = 3.82186 4.23944 4.03606
# Velocity P-wave (km/s) = 6.93744 7.62807 7.29094
#
# Compressibility (1/GPa) = 0.01425919
#
# Stress axis : x y z
#
# Youngs Moduli (GPa) = 85.34400 165.37848 81.13713
#
# Poissons Ratio (x) = 0.43032 0.31235
# Poissons Ratio (y) = 0.22207 0.11872
# Poissons Ratio (z) = 0.32854 0.24198
#
# Static dielectric constant tensor:
#      x y z
#    x 2.046800 -0.033770 -0.027050 
#    y -0.033770 2.056140 0.172990 
#    z -0.027050 0.172990 2.131790 
# 
# From -- ./inp_files/395209.got.cif
#   From: 2010.05.17/outbox.cif.g08.bks.cpg/sg2_198_cif.got.tgz:395209.got - 2010.06.03 11:33:40.
