data_PCOD9009425
_publ_section_title
;
Structure prediction by ZEFSAII (Michael W. Deem and Ramdas Pophale) SiO2 
 PCOD9009425
Probable space group: P -1
;
_chemical_formula_sum "Si O2"
_cell_formula_units_Z 16
_cell_length_a 17.830046
_cell_length_b 8.657096
_cell_length_c 14.133711
_cell_angle_alpha 40.190777
_cell_angle_beta 141.190431
_cell_angle_gamma 148.606410
_cell_volume 678.890576
_symmetry_space_group_name_H-M "P -1"
_symmetry_group_IT_number 2
_symmetry_cell_setting 'triclinic'
loop_
_space_group_symop_operation_xyz
x,y,z
-x,-y,-z
loop_
_atom_site_type_symbol
_atom_site_label
_atom_site_fract_x
_atom_site_fract_y
_atom_site_fract_z
Si Si1 0.036267 0.784027 0.677716
Si Si2 0.035406 0.409814 0.675457
Si Si3 0.313102 0.397287 0.920802
Si Si4 0.628832 0.922424 0.096141
Si Si5 0.266678 0.058455 0.321029
Si Si6 0.434159 0.892675 0.661201
Si Si7 0.230360 0.833688 0.191076
Si Si8 0.488596 0.759566 0.236839
O O1 0.040781 0.603133 0.677967
O O2 0.910251 0.523203 0.752690
O O3 0.208612 0.002205 0.788421
O O4 0.000000 0.000000 0.500000
O O5 0.182802 0.425405 0.806927
O O6 0.000000 0.500000 0.500000
O O7 0.883198 0.058242 0.713471
O O8 0.379581 0.576079 0.802414
O O9 0.464913 0.616560 0.035724
O O10 0.239802 0.038395 0.019333
O O11 0.600658 0.911420 0.186024
O O12 0.639531 0.199572 0.930262
O O13 0.410948 0.404459 0.327451
O O14 0.312408 0.843794 0.491100
O O15 0.235317 0.021882 0.196780
O O16 0.605264 0.092816 0.691696
O O17 0.436254 0.073809 0.668436
#
# Coordination Sequence:
#
# PCOD9009425 Si02
#       8
#     2   2   2   2   2   2   2   2
#     4  11  27  45  69  99 140 181 222 279 344 404
#     4  11  24  44  68 102 136 173 224 282 340 393
#     4  11  23  47  74  98 135 182 231 279 332 407
#     4  10  22  43  71  98 131 179 230 274 335 400
#     4  11  23  39  69  99 136 176 223 281 339 400
#     4  11  23  41  65 101 139 177 227 274 340 400
#     4  11  26  43  66 101 136 181 222 279 341 403
#     4  10  21  39  68  98 127 180 227 277 324 406
#
# _framework density 23.567862000000002
#
# number of rings (size 3 to 8) (size 9 to 14) (size 15 to 20)
#    0.000    1.250    2.500    3.375    3.500    4.000 
#    4.500    2.500    0.000    0.000    0.000    0.000 
#    0.000    0.000    0.000    0.000    0.000    0.000 
#
# Total GULP energy -89446.487996 kJ/mol
# GULP energy per Si atom -5590.405500 kJ/mol
# Density = 2.351422 g / cm^3
# Si number density = 23.567862 Si / 1000 Ang^3
#
#
#
# Elastic Constant Matrix: (Units=GPa)
#
#
# Indices 1 2 3 4 5 6 
#
# 1 81.4187 28.9438 30.9132 10.9865 8.6755 25.5897
# 2 28.9438 91.4664 52.1293 -4.2176 4.4799 26.5897
# 3 30.9132 52.1293 116.7553 2.6653 8.2040 29.9773
# 4 10.9865 -4.2176 2.6653 36.5399 9.0065 4.3618
# 5 8.6755 4.4799 8.2040 9.0065 42.7662 10.1477
# 6 25.5897 26.5897 29.9773 4.3618 10.1477 42.5941
#
#
#
# Elastic Compliance Matrix: (Units=1/GPa)
#
#
# Indices 1 2 3 4 5 6 
#
# 1 0.016475 -0.002677 -0.001302 -0.004283 -0.000296 -0.006801
# 2 -0.002677 0.016590 -0.005423 0.003672 0.000351 -0.005391
# 3 -0.001302 -0.005423 0.012526 -0.000514 -0.000394 -0.004502
# 4 -0.004283 0.003672 -0.000514 0.030634 -0.005593 -0.001163
# 5 -0.000296 0.000351 -0.000394 -0.005593 0.025934 -0.005370
# 6 -0.006801 -0.005391 -0.004502 -0.001163 -0.005370 0.035496
#
#
# Mechanical properties :
#
#
# Convention : Reuss Voigt Hill
#
# Bulk Modulus (GPa) = 37.33035 57.06811 47.19923
# Shear Modulus (GPa) = 30.23193 36.22366 33.22779
#
# Velocity S-wave (km/s) = 3.58545 3.92470 3.75891
# Velocity P-wave (km/s) = 5.74583 6.69363 6.23776
#
# Compressibility (1/GPa) = 0.02678785
#
# Stress axis : x y z
#
# Youngs Moduli (GPa) = 60.69656 60.27687 79.83363
#
# Poissons Ratio (x) = 0.16138 0.10394
# Poissons Ratio (y) = 0.16250 0.43291
# Poissons Ratio (z) = 0.07903 0.32686
#
# Static dielectric constant tensor:
#      x y z
#    x 1.885860 -0.004990 -0.001720 
#    y -0.004990 1.908000 -0.032990 
#    z -0.001720 -0.032990 1.896570 
# 
# From -- ./inp_files/537584.got.cif
#   From: 2010.05.17/outbox.cif.g08.bks.cpg/sg2_269_cif.got.tgz:537584.got - 2010.06.03 11:33:40.
