data_PCOD9009069
_publ_section_title
;
Structure prediction by ZEFSAII (Michael W. Deem and Ramdas Pophale) SiO2 
 PCOD9009069
Probable space group: P -1
;
_chemical_formula_sum "Si O2"
_cell_formula_units_Z 16
_cell_length_a 16.003753
_cell_length_b 14.881500
_cell_length_c 6.285021
_cell_angle_alpha 72.512217
_cell_angle_beta 93.476318
_cell_angle_gamma 38.219989
_cell_volume 763.474642
_symmetry_space_group_name_H-M "P -1"
_symmetry_group_IT_number 2
_symmetry_cell_setting 'triclinic'
loop_
_space_group_symop_operation_xyz
x,y,z
-x,-y,-z
loop_
_atom_site_type_symbol
_atom_site_label
_atom_site_fract_x
_atom_site_fract_y
_atom_site_fract_z
Si Si1 0.090296 0.859412 0.801781
Si Si2 0.939740 0.283220 0.365234
Si Si3 0.391762 0.880764 0.299267
Si Si4 0.167368 0.373867 0.348726
Si Si5 0.460564 0.145042 0.323784
Si Si6 0.319134 0.331385 0.757634
Si Si7 0.853606 0.020128 0.024531
Si Si8 0.128423 0.244236 0.133722
O O1 0.151400 0.711353 0.785914
O O2 0.192530 0.841316 0.950531
O O3 0.000000 0.000000 0.500000
O O4 0.973151 0.934736 0.914833
O O5 0.814846 0.474113 0.308139
O O6 0.050035 0.135962 0.677163
O O7 0.048213 0.230614 0.241976
O O8 0.434927 0.868433 0.560172
O O9 0.560601 0.725485 0.330068
O O10 0.267469 0.084419 0.111178
O O11 0.292964 0.889244 0.180253
O O12 0.284759 0.324220 0.258224
O O13 0.231412 0.331395 0.620925
O O14 0.175504 0.263264 0.329244
O O15 0.996942 0.576897 0.143175
O O16 0.500000 0.000000 0.500000
O O17 0.438950 0.172158 0.053882
#
# Coordination Sequence:
#
# PCOD9009069 Si02
#       8
#     2   2   2   2   2   2   2   2
#     4   9  20  38  66  97 129 149 198 259 317 365
#     4  11  22  39  67  92 125 162 207 260 309 366
#     4  11  24  38  62  90 125 159 209 252 303 376
#     4  10  23  42  59  87 127 163 216 258 306 362
#     4  11  23  42  56  85 130 169 204 260 311 361
#     4  11  26  40  60  89 125 174 204 250 319 364
#     4  10  21  39  67 100 118 160 206 253 312 375
#     4  11  21  41  63  91 123 161 213 271 296 353
#
# _framework density 20.956817999999998
#
# number of rings (size 3 to 8) (size 9 to 14) (size 15 to 20)
#    0.000    1.500    3.750    0.750    1.750    3.500 
#    0.000    0.625    0.000    7.500    0.000    0.000 
#    0.000    0.000    0.000    0.000    0.000    0.000 
#
# Total GULP energy -89082.282592 kJ/mol
# GULP energy per Si atom -5567.642662 kJ/mol
# Density = 2.090912 g / cm^3
# Si number density = 20.956818 Si / 1000 Ang^3
#
#
#
# Elastic Constant Matrix: (Units=GPa)
#
#
# Indices 1 2 3 4 5 6 
#
# 1 97.6879 19.5720 52.9643 10.0040 37.7817 28.2061
# 2 19.5720 56.8568 6.1771 1.5697 21.5541 1.4432
# 3 52.9643 6.1771 97.3493 23.4528 28.7593 21.6398
# 4 10.0040 1.5697 23.4528 20.9217 6.5626 11.6671
# 5 37.7817 21.5541 28.7593 6.5626 51.7153 18.8811
# 6 28.2061 1.4432 21.6398 11.6671 18.8811 24.7636
#
#
#
# Elastic Compliance Matrix: (Units=1/GPa)
#
#
# Indices 1 2 3 4 5 6 
#
# 1 0.022074 -0.005332 -0.009314 0.012582 -0.002859 -0.020441
# 2 -0.005332 0.023500 0.003619 -0.007448 -0.012209 0.014358
# 3 -0.009314 0.003619 0.020264 -0.020496 -0.005860 0.006814
# 4 0.012582 -0.007448 -0.020496 0.087185 0.010778 -0.045281
# 5 -0.002859 -0.012209 -0.005860 0.010778 0.037333 -0.024454
# 6 -0.020441 0.014358 0.006814 -0.045281 -0.024454 0.096852
#
#
# Mechanical properties :
#
#
# Convention : Reuss Voigt Hill
#
# Bulk Modulus (GPa) = 22.83928 45.48008 34.15968
# Shear Modulus (GPa) = 15.43898 31.02549 23.23224
#
# Velocity S-wave (km/s) = 2.71717 3.85183 3.33314
# Velocity P-wave (km/s) = 4.55697 6.44446 5.58109
#
# Compressibility (1/GPa) = 0.04378422
#
# Stress axis : x y z
#
# Youngs Moduli (GPa) = 45.30229 42.55390 49.34804
#
# Poissons Ratio (x) = 0.22688 0.45964
# Poissons Ratio (y) = 0.24153 -0.17859
# Poissons Ratio (z) = 0.42195 -0.15400
#
# Static dielectric constant tensor:
#      x y z
#    x 1.820370 -0.022310 0.022610 
#    y -0.022310 1.795710 0.021490 
#    z 0.022610 0.021490 1.828740 
# 
# From -- ./inp_files/52478.got.cif
#   From: 2010.05.17/outbox.cif.g08.bks.cpg/sg2_27_cif.got.tgz:52478.got - 2010.06.03 11:33:40.
