data_PCOD9009688
_publ_section_title
;
Structure prediction by ZEFSAII (Michael W. Deem and Ramdas Pophale) SiO2 
 PCOD9009688
Probable space group: P -1
;
_chemical_formula_sum "Si O2"
_cell_formula_units_Z 12
_cell_length_a 8.269315
_cell_length_b 11.103437
_cell_length_c 14.075984
_cell_angle_alpha 47.159111
_cell_angle_beta 148.379342
_cell_angle_gamma 121.002386
_cell_volume 489.933082
_symmetry_space_group_name_H-M "P -1"
_symmetry_group_IT_number 2
_symmetry_cell_setting 'triclinic'
loop_
_space_group_symop_operation_xyz
x,y,z
-x,-y,-z
loop_
_atom_site_type_symbol
_atom_site_label
_atom_site_fract_x
_atom_site_fract_y
_atom_site_fract_z
Si Si1 0.215209 0.903087 0.893069
Si Si2 0.011832 0.461219 0.270219
Si Si3 0.817818 0.966270 0.833410
Si Si4 0.636688 0.349525 0.513996
Si Si5 0.311458 0.532616 0.083011
Si Si6 0.836543 0.123065 0.433011
O O1 0.317611 0.729607 0.984001
O O2 0.059819 0.866723 0.934225
O O3 0.959207 0.028040 0.640772
O O4 0.500000 0.000000 0.000000
O O5 0.325161 0.405049 0.392764
O O6 0.088771 0.593636 0.315427
O O7 0.945864 0.298606 0.379905
O O8 0.741978 0.511238 0.029549
O O9 0.685224 0.152107 0.630078
O O10 0.530242 0.874173 0.758738
O O11 0.000000 0.000000 0.000000
O O12 0.584553 0.436764 0.337942
O O13 0.000000 0.500000 0.000000
O O14 0.000000 0.000000 0.500000
#
# Coordination Sequence:
#
# PCOD9009688 Si02
#       6
#     2   2   2   2   2   2
#     4  12  26  45  74 102 137 187 234 291 350 417
#     4  10  21  39  74 100 135 188 225 283 355 418
#     4  12  28  45  69 104 142 183 237 290 347 418
#     4  10  22  43  68 101 141 182 230 286 350 414
#     4  10  21  40  70  99 136 182 230 278 354 410
#     4  12  21  44  70 105 140 179 234 288 349 413
#
# _framework density 24.493141000000001
#
# number of rings (size 3 to 8) (size 9 to 14) (size 15 to 20)
#    0.000    1.000    3.333    3.500    7.000    0.000 
#    0.000    5.833    0.000    0.000    0.000    0.000 
#    0.000    0.000    0.000    0.000    0.000    0.000 
#
# Total GULP energy -67282.421146 kJ/mol
# GULP energy per Si atom -5606.868429 kJ/mol
# Density = 2.443739 g / cm^3
# Si number density = 24.493141 Si / 1000 Ang^3
#
#
#
# Elastic Constant Matrix: (Units=GPa)
#
#
# Indices 1 2 3 4 5 6 
#
# 1 89.5719 28.9955 29.3991 14.5776 -4.2189 -1.9799
# 2 28.9955 176.3444 48.3794 2.0495 -1.0835 5.2688
# 3 29.3991 48.3794 115.2346 11.4450 -31.6191 -10.1239
# 4 14.5776 2.0495 11.4450 51.6330 -1.5207 0.6499
# 5 -4.2189 -1.0835 -31.6191 -1.5207 42.3253 1.5213
# 6 -1.9799 5.2688 -10.1239 0.6499 1.5213 35.2554
#
#
#
# Elastic Compliance Matrix: (Units=1/GPa)
#
#
# Indices 1 2 3 4 5 6 
#
# 1 0.012935 -0.001387 -0.002616 -0.003045 -0.000820 0.000274
# 2 -0.001387 0.006886 -0.003470 0.000841 -0.002452 -0.002013
# 3 -0.002616 -0.003470 0.014087 -0.002004 0.009958 0.004024
# 4 -0.003045 0.000841 -0.002004 0.020624 -0.000994 -0.001209
# 5 -0.000820 -0.002452 0.009958 -0.000994 0.030818 0.001868
# 6 0.000274 -0.002013 0.004024 -0.001209 0.001868 0.029778
#
#
# Mechanical properties :
#
#
# Convention : Reuss Voigt Hill
#
# Bulk Modulus (GPa) = 52.73939 66.07767 59.40853
# Shear Modulus (GPa) = 36.65821 44.13455 40.39638
#
# Velocity S-wave (km/s) = 3.87288 4.24950 4.06556
# Velocity P-wave (km/s) = 6.44810 7.14943 6.80780
#
# Compressibility (1/GPa) = 0.01896116
#
# Stress axis : x y z
#
# Youngs Moduli (GPa) = 77.31087 145.21887 70.98655
#
# Poissons Ratio (x) = 0.20140 0.18572
# Poissons Ratio (y) = 0.10722 0.24635
# Poissons Ratio (z) = 0.20226 0.50396
#
# Static dielectric constant tensor:
#      x y z
#    x 1.975160 -0.064070 -0.145030 
#    y -0.064070 1.958780 0.147850 
#    z -0.145030 0.147850 2.319700 
# 
# From -- ./inp_files/150594.got.cif
#   From: 2010.05.17/outbox.cif.g08.bks.cpg/sg2_76_cif.got.tgz:150594.got - 2010.06.03 11:33:40.
