data_PCOD9009815
_publ_section_title
;
Structure prediction by ZEFSAII (Michael W. Deem and Ramdas Pophale) SiO2 
 PCOD9009815
Probable space group: P -1
;
_chemical_formula_sum "Si O2"
_cell_formula_units_Z 14
_cell_length_a 10.419914
_cell_length_b 12.644065
_cell_length_c 17.328347
_cell_angle_alpha 36.347264
_cell_angle_beta 146.849587
_cell_angle_gamma 121.685994
_cell_volume 656.996397
_symmetry_space_group_name_H-M "P -1"
_symmetry_group_IT_number 2
_symmetry_cell_setting 'triclinic'
loop_
_space_group_symop_operation_xyz
x,y,z
-x,-y,-z
loop_
_atom_site_type_symbol
_atom_site_label
_atom_site_fract_x
_atom_site_fract_y
_atom_site_fract_z
Si Si1 0.478251 0.519895 0.384892
Si Si2 0.478777 0.481854 0.134750
Si Si3 0.895823 0.631613 0.794536
Si Si4 0.805223 0.041067 0.490705
Si Si5 0.386493 0.902253 0.810201
Si Si6 0.325910 0.969733 0.998614
Si Si7 0.155577 0.623482 0.479178
O O1 0.500000 0.500000 0.500000
O O2 0.305222 0.416516 0.326868
O O3 0.759914 0.413622 0.545361
O O4 0.356556 0.748445 0.156533
O O5 0.581373 0.455435 0.290032
O O6 0.638693 0.266116 0.303593
O O7 0.530888 0.660380 0.023018
O O8 0.164994 0.567772 0.918933
O O9 0.780867 0.862887 0.627023
O O10 0.000000 0.500000 0.000000
O O11 0.115427 0.981137 0.676957
O O12 0.707085 0.023324 0.366180
O O13 0.568815 0.979163 0.899274
O O14 0.029942 0.142774 0.735326
O O15 0.500000 0.000000 0.000000
O O16 0.000000 0.500000 0.500000
#
# Coordination Sequence:
#
# PCOD9009815 Si02
#       7
#     2   2   2   2   2   2   2
#     4  12  28  48  70 102 144 183 225 290 348 399
#     4  11  22  41  70  96 130 176 225 275 341 405
#     4  11  25  45  64  94 137 175 229 272 329 417
#     4  10  23  38  66  94 131 175 215 279 344 391
#     4  10  21  40  60 101 135 161 222 283 334 407
#     4  12  24  41  73  99 137 183 228 280 347 403
#     4  12  24  43  70 104 134 177 237 281 330 422
#
# _framework density 21.309097000000001
#
# number of rings (size 3 to 8) (size 9 to 14) (size 15 to 20)
#    0.000    0.857    4.286    2.143    4.000    3.429 
#    0.000    0.000    0.000    0.000    0.000    0.000 
#    0.000    0.000    0.000    0.000    0.000    0.000 
#
# Total GULP energy -78253.663963 kJ/mol
# GULP energy per Si atom -5589.547426 kJ/mol
# Density = 2.126060 g / cm^3
# Si number density = 21.309097 Si / 1000 Ang^3
#
#
#
# Elastic Constant Matrix: (Units=GPa)
#
#
# Indices 1 2 3 4 5 6 
#
# 1 75.7625 6.8538 10.3758 -3.8671 6.5291 -11.3425
# 2 6.8538 80.2163 12.9672 -9.6071 19.5672 3.2209
# 3 10.3758 12.9672 85.5441 -22.2538 8.0542 1.1111
# 4 -3.8671 -9.6071 -22.2538 59.8346 -4.8075 -3.1064
# 5 6.5291 19.5672 8.0542 -4.8075 27.1137 5.2754
# 6 -11.3425 3.2209 1.1111 -3.1064 5.2754 22.3632
#
#
#
# Elastic Compliance Matrix: (Units=1/GPa)
#
#
# Indices 1 2 3 4 5 6 
#
# 1 0.015186 -0.000218 -0.001339 0.000533 -0.004758 0.008997
# 2 -0.000218 0.015363 -0.000983 0.001256 -0.010598 0.000400
# 3 -0.001339 -0.000983 0.013389 0.004561 -0.002123 -0.000068
# 4 0.000533 0.001256 0.004561 0.018807 0.000485 0.002361
# 5 -0.004758 -0.010598 -0.002123 0.000485 0.048770 -0.012219
# 6 0.008997 0.000400 -0.000068 0.002361 -0.012219 0.052435
#
#
# Mechanical properties :
#
#
# Convention : Reuss Voigt Hill
#
# Bulk Modulus (GPa) = 25.73440 33.54628 29.64034
# Shear Modulus (GPa) = 27.47504 35.95069 31.71287
#
# Velocity S-wave (km/s) = 3.59466 4.11189 3.86195
# Velocity P-wave (km/s) = 5.41587 6.19035 5.81602
#
# Compressibility (1/GPa) = 0.03885849
#
# Stress axis : x y z
#
# Youngs Moduli (GPa) = 65.84828 65.08982 74.69025
#
# Poissons Ratio (x) = 0.01418 0.10002
# Poissons Ratio (y) = 0.01435 0.07342
# Poissons Ratio (z) = 0.08818 0.06398
#
# Static dielectric constant tensor:
#      x y z
#    x 1.851890 0.037460 -0.007050 
#    y 0.037460 1.769470 -0.011220 
#    z -0.007050 -0.011220 1.786780 
# 
# From -- ./inp_files/568615.got.cif
#   From: 2010.05.17/outbox.cif.g08.bks.cpg/sg2_285_cif.got.tgz:568615.got - 2010.06.03 11:33:40.
