data_PCOD9009230
_publ_section_title
;
Structure prediction by ZEFSAII (Michael W. Deem and Ramdas Pophale) SiO2 
 PCOD9009230
Probable space group: P -1
;
_chemical_formula_sum "Si O2"
_cell_formula_units_Z 16
_cell_length_a 21.782882
_cell_length_b 20.698293
_cell_length_c 11.366583
_cell_angle_alpha 31.654468
_cell_angle_beta 150.179469
_cell_angle_gamma 161.865435
_cell_volume 781.297514
_symmetry_space_group_name_H-M "P -1"
_symmetry_group_IT_number 2
_symmetry_cell_setting 'triclinic'
loop_
_space_group_symop_operation_xyz
x,y,z
-x,-y,-z
loop_
_atom_site_type_symbol
_atom_site_label
_atom_site_fract_x
_atom_site_fract_y
_atom_site_fract_z
Si Si1 0.209434 0.904498 0.161362
Si Si2 0.546317 0.077759 0.305731
Si Si3 0.219954 0.522821 0.773963
Si Si4 0.369860 0.557851 0.514705
Si Si5 0.341676 0.791658 0.980124
Si Si6 0.205242 0.082233 0.196926
Si Si7 0.636597 0.722374 0.103116
Si Si8 0.041792 0.366862 0.467561
O O1 0.366846 0.981339 0.408256
O O2 0.977918 0.684193 0.159423
O O3 0.305000 0.911018 0.198229
O O4 0.234420 0.070613 0.930957
O O5 0.678738 0.285460 0.279260
O O6 0.588192 0.130590 0.157937
O O7 0.138988 0.494193 0.554004
O O8 0.394349 0.558940 0.984064
O O9 0.350227 0.657455 0.241511
O O10 0.610814 0.745906 0.669576
O O11 0.314732 0.381458 0.640197
O O12 0.220655 0.463407 0.526220
O O13 0.104247 0.651197 0.810195
O O14 0.500000 0.000000 0.000000
O O15 0.307291 0.198431 0.061127
O O16 0.114664 0.871449 0.386813
O O17 0.000000 0.000000 0.000000
#
# Coordination Sequence:
#
# PCOD9009230 Si02
#       8
#     2   2   2   2   2   2   2   2
#     4  10  21  39  67  97 127 158 220 287 320 366
#     4  10  23  42  66  99 124 168 219 272 334 376
#     4  11  21  39  70 101 124 164 222 282 322 371
#     4  12  26  41  62  99 139 178 216 259 329 409
#     4  12  26  47  65  93 139 180 213 263 326 410
#     4  12  21  37  64  95 136 166 213 275 323 378
#     4  11  22  37  63  99 133 168 213 273 327 377
#     4  12  23  41  67 100 132 172 219 269 331 377
#
# _framework density 20.478755
#
# number of rings (size 3 to 8) (size 9 to 14) (size 15 to 20)
#    0.000    0.750    6.250    1.875    0.000    1.000 
#    2.250    2.500    0.000    1.500    0.000    0.000 
#    0.000    0.000    0.000    0.000    0.000    0.000 
#
# Total GULP energy -89452.880688 kJ/mol
# GULP energy per Si atom -5590.805043 kJ/mol
# Density = 2.043214 g / cm^3
# Si number density = 20.478755 Si / 1000 Ang^3
#
#
#
# Elastic Constant Matrix: (Units=GPa)
#
#
# Indices 1 2 3 4 5 6 
#
# 1 106.7062 52.2167 38.2702 -3.8434 13.8713 12.7258
# 2 52.2167 103.5435 39.9456 1.3644 14.8134 22.9272
# 3 38.2702 39.9456 122.6824 -18.4657 25.1846 0.1346
# 4 -3.8434 1.3644 -18.4657 36.1885 5.4707 9.1594
# 5 13.8713 14.8134 25.1846 5.4707 30.1479 0.1464
# 6 12.7258 22.9272 0.1346 9.1594 0.1464 40.4738
#
#
#
# Elastic Compliance Matrix: (Units=1/GPa)
#
#
# Indices 1 2 3 4 5 6 
#
# 1 0.013098 -0.005350 -0.001660 0.001443 -0.002266 -0.001401
# 2 -0.005350 0.015363 -0.002871 -0.000479 -0.002569 -0.006894
# 3 -0.001660 -0.002871 0.012845 0.007908 -0.009992 0.000352
# 4 0.001443 -0.000479 0.007908 0.035985 -0.013524 -0.008303
# 5 -0.002266 -0.002569 -0.009992 -0.013524 0.046251 0.005094
# 6 -0.001401 -0.006894 0.000352 -0.008303 0.005094 0.030912
#
#
# Mechanical properties :
#
#
# Convention : Reuss Voigt Hill
#
# Bulk Modulus (GPa) = 46.41355 65.97747 56.19551
# Shear Modulus (GPa) = 27.56358 34.86200 31.21279
#
# Velocity S-wave (km/s) = 3.67271 4.13043 3.90828
# Velocity P-wave (km/s) = 6.37954 7.41854 6.91857
#
# Compressibility (1/GPa) = 0.02154543
#
# Stress axis : x y z
#
# Youngs Moduli (GPa) = 76.34494 65.09003 77.85218
#
# Poissons Ratio (x) = 0.34821 0.12925
# Poissons Ratio (y) = 0.40842 0.22349
# Poissons Ratio (z) = 0.12675 0.18686
#
# Static dielectric constant tensor:
#      x y z
#    x 1.733290 0.001300 0.031660 
#    y 0.001300 1.756270 -0.010470 
#    z 0.031660 -0.010470 1.724370 
# 
# From -- ./inp_files/472666.got.cif
#   From: 2010.05.17/outbox.cif.g08.bks.cpg/sg2_237_cif.got.tgz:472666.got - 2010.06.03 11:33:40.
