data_PCOD9009298
_publ_section_title
;
Structure prediction by ZEFSAII (Michael W. Deem and Ramdas Pophale) SiO2 
 PCOD9009298
Probable space group: P -1
;
_chemical_formula_sum "Si O2"
_cell_formula_units_Z 12
_cell_length_a 8.818411
_cell_length_b 4.990704
_cell_length_c 12.802165
_cell_angle_alpha 60.028359
_cell_angle_beta 87.778194
_cell_angle_gamma 87.741243
_cell_volume 487.581423
_symmetry_space_group_name_H-M "P -1"
_symmetry_group_IT_number 2
_symmetry_cell_setting 'triclinic'
loop_
_space_group_symop_operation_xyz
x,y,z
-x,-y,-z
loop_
_atom_site_type_symbol
_atom_site_label
_atom_site_fract_x
_atom_site_fract_y
_atom_site_fract_z
Si Si1 0.115990 0.410655 0.717131
Si Si2 0.073557 0.660129 0.066134
Si Si3 0.601103 0.589899 0.851944
Si Si4 0.122422 0.095098 0.565152
Si Si5 0.571812 0.820363 0.198411
Si Si6 0.595279 0.703145 0.594834
O O1 0.191617 0.749001 0.651705
O O2 0.249520 0.167148 0.793301
O O3 0.985005 0.453590 0.797329
O O4 0.061272 0.272433 0.635151
O O5 0.253368 0.592674 0.072576
O O6 0.000000 0.500000 0.000000
O O7 0.000000 0.000000 0.000000
O O8 0.465867 0.367332 0.867566
O O9 0.643963 0.732331 0.709303
O O10 0.527192 0.869173 0.862573
O O11 0.253375 0.308086 0.475203
O O12 0.000000 0.000000 0.500000
O O13 0.503981 0.606590 0.336048
O O14 0.500000 0.000000 0.500000
#
# Coordination Sequence:
#
# PCOD9009298 Si02
#       6
#     2   2   2   2   2   2
#     4  12  25  46  67 101 140 177 241 292 340 417
#     4  12  27  50  74  96 132 189 238 302 366 399
#     4  10  23  42  68 102 139 179 235 277 342 425
#     4  12  25  39  64 105 146 189 224 275 339 422
#     4  10  22  41  70  99 144 179 223 281 341 402
#     4  10  21  39  68 100 147 185 221 259 348 422
#
# _framework density 24.611270999999999
#
# number of rings (size 3 to 8) (size 9 to 14) (size 15 to 20)
#    1.000    0.000    1.667    5.500    2.333    2.667 
#    0.000    5.000    0.000    0.000    0.000    0.000 
#    0.000    0.000    0.000    0.000    0.000    0.000 
#
# Total GULP energy -67083.214250 kJ/mol
# GULP energy per Si atom -5590.267854 kJ/mol
# Density = 2.455525 g / cm^3
# Si number density = 24.611271 Si / 1000 Ang^3
#
#
#
# Elastic Constant Matrix: (Units=GPa)
#
#
# Indices 1 2 3 4 5 6 
#
# 1 115.9388 16.1229 27.6865 5.2632 19.3906 -20.3289
# 2 16.1229 142.0962 35.1789 7.3191 10.5608 -9.4886
# 3 27.6865 35.1789 104.1405 22.5777 7.2492 -3.3517
# 4 5.2632 7.3191 22.5777 33.2071 -10.7792 16.0229
# 5 19.3906 10.5608 7.2492 -10.7792 44.6375 -1.5984
# 6 -20.3289 -9.4886 -3.3517 16.0229 -1.5984 36.9948
#
#
#
# Elastic Compliance Matrix: (Units=1/GPa)
#
#
# Indices 1 2 3 4 5 6 
#
# 1 0.012068 0.000440 -0.000647 -0.008747 -0.006990 0.010172
# 2 0.000440 0.008005 -0.001936 -0.002846 -0.002341 0.003251
# 3 -0.000647 -0.001936 0.013773 -0.013121 -0.004455 0.005886
# 4 -0.008747 -0.002846 -0.013121 0.064007 0.020859 -0.033546
# 5 -0.006990 -0.002341 -0.004455 0.020859 0.031305 -0.012527
# 6 0.010172 0.003251 0.005886 -0.033546 -0.012527 0.047976
#
#
# Mechanical properties :
#
#
# Convention : Reuss Voigt Hill
#
# Bulk Modulus (GPa) = 33.82984 57.79469 45.81226
# Shear Modulus (GPa) = 26.14073 41.84703 33.99388
#
# Velocity S-wave (km/s) = 3.26259 4.12797 3.72053
# Velocity P-wave (km/s) = 5.28850 6.80104 6.09189
#
# Compressibility (1/GPa) = 0.02955971
#
# Stress axis : x y z
#
# Youngs Moduli (GPa) = 82.86229 124.92751 72.60719
#
# Poissons Ratio (x) = -0.05498 0.04696
# Poissons Ratio (y) = -0.03647 0.14059
# Poissons Ratio (z) = 0.05359 0.24190
#
# Static dielectric constant tensor:
#      x y z
#    x 1.895650 -0.004650 0.013950 
#    y -0.004650 1.934950 -0.103850 
#    z 0.013950 -0.103850 2.125070 
# 
# From -- ./inp_files/371670.got.cif
#   From: 2010.05.17/outbox.cif.g08.bks.cpg/sg2_186_cif.got.tgz:371670.got - 2010.06.03 11:33:40.
