data_PCOD9009705
_publ_section_title
;
Structure prediction by ZEFSAII (Michael W. Deem and Ramdas Pophale) SiO2 
 PCOD9009705
Probable space group: P -1
;
_chemical_formula_sum "Si O2"
_cell_formula_units_Z 16
_cell_length_a 12.627969
_cell_length_b 15.798395
_cell_length_c 16.977510
_cell_angle_alpha 154.579897
_cell_angle_beta 32.831337
_cell_angle_gamma 128.473011
_cell_volume 637.760754
_symmetry_space_group_name_H-M "P -1"
_symmetry_group_IT_number 2
_symmetry_cell_setting 'triclinic'
loop_
_space_group_symop_operation_xyz
x,y,z
-x,-y,-z
loop_
_atom_site_type_symbol
_atom_site_label
_atom_site_fract_x
_atom_site_fract_y
_atom_site_fract_z
Si Si1 0.082751 0.043536 0.176305
Si Si2 0.169183 0.324277 0.620219
Si Si3 0.811406 0.450997 0.358525
Si Si4 0.551440 0.519651 0.883928
Si Si5 0.252083 0.347078 0.264592
Si Si6 0.033908 0.899676 0.521495
Si Si7 0.626059 0.835711 0.207233
Si Si8 0.262907 0.199988 0.627460
O O1 0.240778 0.130331 0.119553
O O2 0.797696 0.245054 0.498852
O O3 0.075674 0.046352 0.277454
O O4 0.186929 0.778209 0.857126
O O5 0.264106 0.378719 0.528338
O O6 0.296943 0.268863 0.577964
O O7 0.142367 0.108728 0.434559
O O8 0.911503 0.573139 0.015579
O O9 0.706224 0.559474 0.601217
O O10 0.092083 0.334778 0.101085
O O11 0.577485 0.653578 0.905938
O O12 0.275259 0.620386 0.133167
O O13 0.550087 0.662756 0.081964
O O14 0.000000 0.500000 0.500000
O O15 0.119726 0.074397 0.603534
O O16 0.500000 0.000000 0.500000
O O17 0.521014 0.027322 0.362626
#
# Coordination Sequence:
#
# PCOD9009705 Si02
#       8
#     2   2   2   2   2   2   2   2
#     4  11  21  34  60  88 120 158 198 243 299 359
#     4  11  21  38  57  89 122 158 189 253 297 353
#     4  12  21  36  63  87 123 159 201 239 305 352
#     4  10  22  37  56  88 131 147 203 244 299 350
#     4  10  21  40  54  88 128 160 191 251 294 359
#     4  11  20  37  60  87 112 162 196 249 292 357
#     4  11  19  36  58  88 121 152 189 249 294 345
#     4  10  23  35  55  90 127 148 199 245 302 349
#
# _framework density 25.087776999999999
#
# number of rings (size 3 to 8) (size 9 to 14) (size 15 to 20)
#    0.000    1.250    6.250    1.500    1.750    3.000 
#    0.000    0.000    0.000    3.000    0.000    5.250 
#    0.000    0.000    0.000    0.000    0.000    0.000 
#
# Total GULP energy -89449.348107 kJ/mol
# GULP energy per Si atom -5590.584257 kJ/mol
# Density = 2.503068 g / cm^3
# Si number density = 25.087777 Si / 1000 Ang^3
#
#
#
# Elastic Constant Matrix: (Units=GPa)
#
#
# Indices 1 2 3 4 5 6 
#
# 1 107.1725 45.6117 23.6037 14.0455 39.6704 -23.4861
# 2 45.6117 78.2735 26.3230 8.2217 27.8837 -13.1144
# 3 23.6037 26.3230 75.1925 0.0120 29.9470 -0.2755
# 4 14.0455 8.2217 0.0120 30.3998 -2.1025 6.8101
# 5 39.6704 27.8837 29.9470 -2.1025 44.8772 6.6910
# 6 -23.4861 -13.1144 -0.2755 6.8101 6.6910 46.4285
#
#
#
# Elastic Compliance Matrix: (Units=1/GPa)
#
#
# Indices 1 2 3 4 5 6 
#
# 1 0.026618 -0.001020 0.003730 -0.018559 -0.029258 0.020138
# 2 -0.001020 0.020534 -0.002025 -0.007743 -0.012084 0.008150
# 3 0.003730 -0.002025 0.019026 -0.003180 -0.015500 0.004128
# 4 -0.018559 -0.007743 -0.003180 0.050792 0.029185 -0.023250
# 5 -0.029258 -0.012084 -0.015500 0.029185 0.072286 -0.033004
# 6 0.020138 0.008150 0.004128 -0.023250 -0.033004 0.042218
#
#
# Mechanical properties :
#
#
# Convention : Reuss Voigt Hill
#
# Bulk Modulus (GPa) = 14.80366 50.19059 32.49712
# Shear Modulus (GPa) = 19.79267 35.34778 27.57023
#
# Velocity S-wave (km/s) = 2.81185 3.75769 3.31864
# Velocity P-wave (km/s) = 4.05654 6.23509 5.25985
#
# Compressibility (1/GPa) = 0.06755085
#
# Stress axis : x y z
#
# Youngs Moduli (GPa) = 37.56837 48.69908 52.55987
#
# Poissons Ratio (x) = 0.04965 -0.19607
# Poissons Ratio (y) = 0.03830 0.10641
# Poissons Ratio (z) = -0.14015 0.09860
#
# Static dielectric constant tensor:
#      x y z
#    x 2.070630 -0.002030 0.010910 
#    y -0.002030 2.027950 0.040350 
#    z 0.010910 0.040350 2.038780 
# 
# From -- ./inp_files/522565.got.cif
#   From: 2010.05.17/outbox.cif.g08.bks.cpg/sg2_262_cif.got.tgz:522565.got - 2010.06.03 11:33:40.
