data_PCOD9009065
_publ_section_title
;
Structure prediction by ZEFSAII (Michael W. Deem and Ramdas Pophale) SiO2 
 PCOD9009065
Probable space group: P -1
;
_chemical_formula_sum "Si O2"
_cell_formula_units_Z 16
_cell_length_a 15.642982
_cell_length_b 9.719352
_cell_length_c 14.523180
_cell_angle_alpha 47.191432
_cell_angle_beta 143.782148
_cell_angle_gamma 147.492851
_cell_volume 701.134156
_symmetry_space_group_name_H-M "P -1"
_symmetry_group_IT_number 2
_symmetry_cell_setting 'triclinic'
loop_
_space_group_symop_operation_xyz
x,y,z
-x,-y,-z
loop_
_atom_site_type_symbol
_atom_site_label
_atom_site_fract_x
_atom_site_fract_y
_atom_site_fract_z
Si Si1 0.870745 0.338230 0.548250
Si Si2 0.970203 0.493615 0.867941
Si Si3 0.806704 0.438094 0.146348
Si Si4 0.451955 0.808543 0.365828
Si Si5 0.415855 0.715581 0.566456
Si Si6 0.655676 0.897924 0.331264
Si Si7 0.548330 0.614794 0.171973
Si Si8 0.009340 0.966012 0.634220
O O1 0.663969 0.088439 0.440423
O O2 0.802131 0.445148 0.508794
O O3 0.000000 0.500000 0.500000
O O4 0.004993 0.330338 0.734972
O O5 0.978716 0.721400 0.743887
O O6 0.118359 0.523242 0.911603
O O7 0.741326 0.233622 0.772587
O O8 0.000000 0.500000 0.000000
O O9 0.738401 0.175343 0.246581
O O10 0.619938 0.408911 0.008351
O O11 0.426431 0.646412 0.503603
O O12 0.470312 0.748058 0.307067
O O13 0.520567 0.658982 0.747538
O O14 0.500000 0.000000 0.500000
O O15 0.590213 0.746037 0.248160
O O16 0.827161 0.936877 0.518004
O O17 0.771182 0.800691 0.241245
O O18 0.000000 0.000000 0.500000
#
# Coordination Sequence:
#
# PCOD9009065 Si02
#       8
#     2   2   2   2   2   2   2   2
#     4  11  23  43  73  91 126 195 247 273 333 423
#     4  12  25  39  66 108 150 177 223 302 368 402
#     4  12  23  42  67 102 144 180 233 292 351 418
#     4  11  23  40  69  98 138 182 235 282 348 412
#     4  10  23  45  70  95 134 183 232 294 343 415
#     4  11  22  39  72 101 137 183 234 285 344 436
#     4  11  23  39  71 103 136 181 227 289 367 412
#     4  10  21  39  66  99 137 188 231 272 348 432
#
# _framework density 22.820170000000001
#
# number of rings (size 3 to 8) (size 9 to 14) (size 15 to 20)
#    0.000    1.000    5.000    3.375    1.750    3.000 
#    0.000    3.125    5.500    0.000    0.000    0.000 
#    0.000    0.000    0.000    0.000    0.000    0.000 
#
# Total GULP energy -89208.133578 kJ/mol
# GULP energy per Si atom -5575.508349 kJ/mol
# Density = 2.276823 g / cm^3
# Si number density = 22.820170 Si / 1000 Ang^3
#
#
#
# Elastic Constant Matrix: (Units=GPa)
#
#
# Indices 1 2 3 4 5 6 
#
# 1 79.4789 11.4600 3.0104 -2.4606 -6.2330 37.0615
# 2 11.4600 91.4478 51.4734 1.0460 5.7060 2.2984
# 3 3.0104 51.4734 139.8719 8.9755 11.5767 3.2689
# 4 -2.4606 1.0460 8.9755 35.0236 2.5896 1.9597
# 5 -6.2330 5.7060 11.5767 2.5896 39.9053 4.6495
# 6 37.0615 2.2984 3.2689 1.9597 4.6495 35.3079
#
#
#
# Elastic Compliance Matrix: (Units=1/GPa)
#
#
# Indices 1 2 3 4 5 6 
#
# 1 0.028003 -0.003605 0.000572 0.003035 0.008074 -0.030444
# 2 -0.003605 0.014302 -0.005175 0.000565 -0.001552 0.003505
# 3 0.000572 -0.005175 0.009327 -0.002029 -0.001652 -0.000797
# 4 0.003035 0.000565 -0.002029 0.029557 -0.000398 -0.004623
# 5 0.008074 -0.001552 -0.001652 -0.000398 0.028439 -0.011943
# 6 -0.030444 0.003505 -0.000797 -0.004623 -0.011943 0.061954
#
#
# Mechanical properties :
#
#
# Convention : Reuss Voigt Hill
#
# Bulk Modulus (GPa) = 28.39514 49.18736 38.79125
# Shear Modulus (GPa) = 25.03296 38.37102 31.70199
#
# Velocity S-wave (km/s) = 3.31564 4.10500 3.73125
# Velocity P-wave (km/s) = 5.20845 6.63846 5.96645
#
# Compressibility (1/GPa) = 0.03521729
#
# Stress axis : x y z
#
# Youngs Moduli (GPa) = 35.70985 69.91867 107.21334
#
# Poissons Ratio (x) = 0.25205 -0.06137
# Poissons Ratio (y) = 0.12873 0.55488
# Poissons Ratio (z) = -0.02044 0.36186
#
# Static dielectric constant tensor:
#      x y z
#    x 1.986080 -0.042840 0.016360 
#    y -0.042840 1.979800 0.035150 
#    z 0.016360 0.035150 1.871380 
# 
# From -- ./inp_files/575740.got.cif
#   From: 2010.05.17/outbox.cif.g08.bks.cpg/sg2_288_cif.got.tgz:575740.got - 2010.06.03 11:33:40.
