data_PCOD9009485
_publ_section_title
;
Structure prediction by ZEFSAII (Michael W. Deem and Ramdas Pophale) SiO2 
 PCOD9009485
Probable space group: P -1
;
_chemical_formula_sum "Si O2"
_cell_formula_units_Z 16
_cell_length_a 9.453330
_cell_length_b 11.891156
_cell_length_c 16.574374
_cell_angle_alpha 124.525183
_cell_angle_beta 135.086055
_cell_angle_gamma 90.959027
_cell_volume 753.492634
_symmetry_space_group_name_H-M "P -1"
_symmetry_group_IT_number 2
_symmetry_cell_setting 'triclinic'
loop_
_space_group_symop_operation_xyz
x,y,z
-x,-y,-z
loop_
_atom_site_type_symbol
_atom_site_label
_atom_site_fract_x
_atom_site_fract_y
_atom_site_fract_z
Si Si1 0.727250 0.056357 0.789360
Si Si2 0.081344 0.975179 0.911352
Si Si3 0.691734 0.323107 0.265412
Si Si4 0.105341 0.410022 0.966532
Si Si5 0.199080 0.748444 0.940474
Si Si6 0.743375 0.625326 0.321209
Si Si7 0.195073 0.926478 0.765689
Si Si8 0.072226 0.676429 0.326265
O O1 0.851629 0.975637 0.841949
O O2 0.407542 0.873175 0.553924
O O3 0.734847 0.174529 0.909891
O O4 0.943794 0.213661 0.871915
O O5 0.046321 0.807044 0.864379
O O6 0.085824 0.964016 0.810699
O O7 0.405616 0.185212 0.148383
O O8 0.661101 0.429886 0.233483
O O9 0.727011 0.180406 0.204106
O O10 0.000000 0.500000 0.500000
O O11 0.449413 0.565414 0.176113
O O12 0.000000 0.500000 0.000000
O O13 0.020602 0.353477 0.815907
O O14 0.006468 0.519334 0.763575
O O15 0.510610 0.879679 0.078201
O O16 0.960519 0.786681 0.543790
O O17 0.898445 0.687792 0.322970
#
# Coordination Sequence:
#
# PCOD9009485 Si02
#       8
#     2   2   2   2   2   2   2   2
#     4  12  26  47  69 101 144 182 229 284 354 409
#     4  11  22  40  68 104 142 184 216 284 348 409
#     4   9  18  36  66  99 136 176 222 271 338 412
#     4  12  27  49  71  97 138 183 235 294 341 402
#     4  11  23  45  68 104 146 174 228 285 338 421
#     4  11  22  44  73 102 132 184 236 279 342 409
#     4  10  21  39  69 107 141 175 228 277 341 419
#     4  12  26  47  72  99 136 186 232 288 343 400
#
# _framework density 21.234449000000001
#
# number of rings (size 3 to 8) (size 9 to 14) (size 15 to 20)
#    0.000    1.000    3.750    4.125    1.750    0.500 
#    0.000    1.250    0.000    0.000    0.000    0.000 
#    0.000    0.000    0.000    0.000    0.000    0.000 
#
# Total GULP energy -89396.952872 kJ/mol
# GULP energy per Si atom -5587.309555 kJ/mol
# Density = 2.118612 g / cm^3
# Si number density = 21.234449 Si / 1000 Ang^3
#
#
#
# Elastic Constant Matrix: (Units=GPa)
#
#
# Indices 1 2 3 4 5 6 
#
# 1 111.2399 23.4850 56.0436 -13.7753 -7.3075 4.0027
# 2 23.4850 52.8810 31.0288 -6.6242 -1.9265 6.9101
# 3 56.0436 31.0288 142.0170 -9.4319 2.2943 -8.7964
# 4 -13.7753 -6.6242 -9.4319 34.8267 -5.3754 4.3640
# 5 -7.3075 -1.9265 2.2943 -5.3754 28.8401 -2.9795
# 6 4.0027 6.9101 -8.7964 4.3640 -2.9795 31.9170
#
#
#
# Elastic Compliance Matrix: (Units=1/GPa)
#
#
# Indices 1 2 3 4 5 6 
#
# 1 0.012531 -0.001921 -0.004464 0.004317 0.003937 -0.002609
# 2 -0.001921 0.023845 -0.004644 0.003565 0.001463 -0.006552
# 3 -0.004464 -0.004644 0.010063 -0.000758 -0.001943 0.004261
# 4 0.004317 0.003565 -0.000758 0.032631 0.006923 -0.005337
# 5 0.003937 0.001463 -0.001943 0.006923 0.037337 0.001193
# 6 -0.002609 -0.006552 0.004261 -0.005337 0.001193 0.035092
#
#
# Mechanical properties :
#
#
# Convention : Reuss Voigt Hill
#
# Bulk Modulus (GPa) = 41.01706 58.58363 49.80034
# Shear Modulus (GPa) = 27.52018 32.15546 29.83782
#
# Velocity S-wave (km/s) = 3.60393 3.89563 3.75261
# Velocity P-wave (km/s) = 6.05607 6.91979 6.50228
#
# Compressibility (1/GPa) = 0.02438010
#
# Stress axis : x y z
#
# Youngs Moduli (GPa) = 79.80125 41.93793 99.37664
#
# Poissons Ratio (x) = 0.08056 0.44361
# Poissons Ratio (y) = 0.15329 0.46155
# Poissons Ratio (z) = 0.35623 0.19478
#
# Static dielectric constant tensor:
#      x y z
#    x 1.762010 0.026200 -0.037690 
#    y 0.026200 1.779280 -0.002390 
#    z -0.037690 -0.002390 1.740700 
# 
# From -- ./inp_files/559967.got.cif
#   From: 2010.05.17/outbox.cif.g08.bks.cpg/sg2_280_cif.got.tgz:559967.got - 2010.06.03 11:33:40.
