data_PCOD9009520
_publ_section_title
;
Structure prediction by ZEFSAII (Michael W. Deem and Ramdas Pophale) SiO2 
 PCOD9009520
Probable space group: P -1
;
_chemical_formula_sum "Si O2"
_cell_formula_units_Z 14
_cell_length_a 9.211654
_cell_length_b 7.895995
_cell_length_c 12.217674
_cell_angle_alpha 136.872587
_cell_angle_beta 99.558874
_cell_angle_gamma 71.453272
_cell_volume 572.952053
_symmetry_space_group_name_H-M "P -1"
_symmetry_group_IT_number 2
_symmetry_cell_setting 'triclinic'
loop_
_space_group_symop_operation_xyz
x,y,z
-x,-y,-z
loop_
_atom_site_type_symbol
_atom_site_label
_atom_site_fract_x
_atom_site_fract_y
_atom_site_fract_z
Si Si1 0.263224 0.240159 0.588141
Si Si2 0.920334 0.607811 0.683245
Si Si3 0.351304 0.725536 0.064941
Si Si4 0.204496 0.829135 0.651347
Si Si5 0.171158 0.989149 0.975156
Si Si6 0.493758 0.906790 0.627071
Si Si7 0.890272 0.071430 0.717917
O O1 0.386785 0.270810 0.527476
O O2 0.211118 0.991329 0.421451
O O3 0.370566 0.146936 0.662187
O O4 0.291672 0.769214 0.955688
O O5 0.845315 0.411314 0.519960
O O6 0.917164 0.832203 0.698195
O O7 0.099077 0.460243 0.667406
O O8 0.828678 0.735315 0.841315
O O9 0.402394 0.976451 0.226477
O O10 0.213698 0.699214 0.114182
O O11 0.500000 0.500000 0.000000
O O12 0.198407 0.921677 0.820798
O O13 0.377324 0.785669 0.615250
O O14 0.059204 0.065746 0.698357
O O15 0.000000 0.000000 0.000000
#
# Coordination Sequence:
#
# PCOD9009520 Si02
#       7
#     2   2   2   2   2   2   2
#     4   9  19  39  61  85 131 174 215 260 333 380
#     4  10  21  39  69  96 122 176 225 261 316 401
#     4  10  22  40  62  91 132 173 213 265 328 389
#     4  11  21  40  67  97 134 167 218 279 314 379
#     4  11  23  41  71  97 123 174 228 258 319 398
#     4  10  23  38  60  97 133 172 217 271 331 388
#     4   9  19  37  62  92 122 169 226 253 311 406
#
# _framework density 24.434854000000001
#
# number of rings (size 3 to 8) (size 9 to 14) (size 15 to 20)
#    0.000    2.000    2.857    1.714    2.000    2.857 
#    0.000   18.571    0.000    1.714    0.000    0.000 
#    0.000    0.000    0.000    0.000    0.000    0.000 
#
# Total GULP energy -78106.929949 kJ/mol
# GULP energy per Si atom -5579.066425 kJ/mol
# Density = 2.437924 g / cm^3
# Si number density = 24.434854 Si / 1000 Ang^3
#
#
#
# Elastic Constant Matrix: (Units=GPa)
#
#
# Indices 1 2 3 4 5 6 
#
# 1 140.9832 43.1484 45.6322 -10.4026 -12.7622 -22.1134
# 2 43.1484 59.8650 29.8864 -10.6495 -4.2473 -35.1800
# 3 45.6322 29.8864 134.0342 -19.1017 -9.5802 -2.0375
# 4 -10.4026 -10.6495 -19.1017 34.1046 -21.2379 -1.2234
# 5 -12.7622 -4.2473 -9.5802 -21.2379 39.5750 -2.8633
# 6 -22.1134 -35.1800 -2.0375 -1.2234 -2.8633 40.3847
#
#
#
# Elastic Compliance Matrix: (Units=1/GPa)
#
#
# Indices 1 2 3 4 5 6 
#
# 1 0.009879 -0.003951 -0.001565 0.003869 0.004628 0.002334
# 2 -0.003951 0.061574 -0.004958 0.033336 0.025936 0.054074
# 3 -0.001565 -0.004958 0.010289 0.006471 0.004628 -0.004132
# 4 0.003869 0.033336 0.006471 0.077416 0.050645 0.037421
# 5 0.004628 0.025936 0.004628 0.050645 0.060098 0.031156
# 6 0.002334 0.054074 -0.004132 0.037421 0.031156 0.076279
#
#
# Mechanical properties :
#
#
# Convention : Reuss Voigt Hill
#
# Bulk Modulus (GPa) = 16.44866 63.57963 40.01414
# Shear Modulus (GPa) = 14.84791 37.22721 26.03756
#
# Velocity S-wave (km/s) = 2.46774 3.90748 3.26788
# Velocity P-wave (km/s) = 3.85563 6.81428 5.53626
#
# Compressibility (1/GPa) = 0.06079523
#
# Stress axis : x y z
#
# Youngs Moduli (GPa) = 101.22135 16.24055 97.18976
#
# Poissons Ratio (x) = 0.06417 0.15207
# Poissons Ratio (y) = 0.39996 0.48184
# Poissons Ratio (z) = 0.15838 0.08052
#
# Static dielectric constant tensor:
#      x y z
#    x 1.988080 0.046540 -0.034220 
#    y 0.046540 2.059860 0.084160 
#    z -0.034220 0.084160 2.068520 
# 
# From -- ./inp_files/498634.got.cif
#   From: 2010.05.17/outbox.cif.g08.bks.cpg/sg2_250_cif.got.tgz:498634.got - 2010.06.03 11:33:40.
