data_PCOD9009190
_publ_section_title
;
Structure prediction by ZEFSAII (Michael W. Deem and Ramdas Pophale) SiO2 
 PCOD9009190
Probable space group: P -1
;
_chemical_formula_sum "Si O2"
_cell_formula_units_Z 13
_cell_length_a 10.634177
_cell_length_b 11.351660
_cell_length_c 10.491300
_cell_angle_alpha 122.436600
_cell_angle_beta 40.129123
_cell_angle_gamma 140.773555
_cell_volume 511.303661
_symmetry_space_group_name_H-M "P -1"
_symmetry_group_IT_number 2
_symmetry_cell_setting 'triclinic'
loop_
_space_group_symop_operation_xyz
x,y,z
-x,-y,-z
loop_
_atom_site_type_symbol
_atom_site_label
_atom_site_fract_x
_atom_site_fract_y
_atom_site_fract_z
Si Si1 0.314945 0.043454 0.646831
Si Si2 0.688582 0.069702 0.014141
Si Si3 0.237573 0.202547 0.586564
Si Si4 0.867834 0.659393 0.728879
Si Si5 0.000000 0.500000 0.000000
Si Si6 0.348557 0.719148 0.265383
Si Si7 0.517251 0.593194 0.734242
O O1 0.024141 0.853506 0.796590
O O2 0.500000 0.000000 0.500000
O O3 0.302711 0.089300 0.538530
O O4 0.460667 0.221491 0.727567
O O5 0.945542 0.106375 0.794534
O O6 0.811619 0.279803 0.075097
O O7 0.500000 0.000000 0.000000
O O8 0.523811 0.897475 0.140847
O O9 0.431266 0.407565 0.623629
O O10 0.283537 0.238108 0.422148
O O11 0.756649 0.484952 0.803826
O O12 0.666466 0.631443 0.770518
O O13 0.091309 0.685455 0.486167
O O14 0.744612 0.439470 0.084861
#
# Coordination Sequence:
#
# PCOD9009190 Si02
#       7
#     2   2   2   2   1   2   2
#     4  10  22  38  62  97 124 167 216 257 319 378
#     4  11  25  44  65  96 130 170 212 269 319 379
#     4  10  22  41  65  94 129 172 210 265 324 375
#     4  10  21  39  67  95 124 171 216 257 321 383
#     4  10  26  42  64 100 128 164 220 264 322 370
#     4  10  22  42  63  93 133 165 212 265 316 378
#     4  10  21  42  67  93 131 168 214 269 315 380
#
# _framework density 25.425204999999998
#
# number of rings (size 3 to 8) (size 9 to 14) (size 15 to 20)
#    0.000    1.846    1.538    0.923    6.462    2.462 
#    0.000    0.769    0.000    0.000    0.000    0.000 
#    0.000    0.000    0.000    0.000    0.000    0.000 
#
# Total GULP energy -72469.083819 kJ/mol
# GULP energy per Si atom -5574.544909 kJ/mol
# Density = 2.536734 g / cm^3
# Si number density = 25.425205 Si / 1000 Ang^3
#
#
#
# Elastic Constant Matrix: (Units=GPa)
#
#
# Indices 1 2 3 4 5 6 
#
# 1 141.9594 39.9798 60.2098 -16.6406 -24.4171 -36.8972
# 2 39.9798 122.0974 39.1912 -43.5460 -5.6770 -25.5515
# 3 60.2098 39.1912 136.2900 -46.0137 -9.3473 -17.5351
# 4 -16.6406 -43.5460 -46.0137 41.4562 -7.9603 7.3810
# 5 -24.4171 -5.6770 -9.3473 -7.9603 33.1423 -9.9492
# 6 -36.8972 -25.5515 -17.5351 7.3810 -9.9492 45.8351
#
#
#
# Elastic Compliance Matrix: (Units=1/GPa)
#
#
# Indices 1 2 3 4 5 6 
#
# 1 0.014778 0.001978 -0.001819 0.006558 0.016757 0.014885
# 2 0.001978 0.020066 0.006693 0.030257 0.018389 0.014458
# 3 -0.001819 0.006693 0.016949 0.026321 0.013118 0.007360
# 4 0.006558 0.030257 0.026321 0.091996 0.047878 0.027794
# 5 0.016757 0.018389 0.013118 0.047878 0.071870 0.036650
# 6 0.014885 0.014458 0.007360 0.027794 0.036650 0.048155
#
#
# Mechanical properties :
#
#
# Convention : Reuss Voigt Hill
#
# Bulk Modulus (GPa) = 15.26791 75.45649 45.36220
# Shear Modulus (GPa) = 18.38614 41.48444 29.93529
#
# Velocity S-wave (km/s) = 2.69205 4.04372 3.43503
# Velocity P-wave (km/s) = 3.95992 7.17945 5.79765
#
# Compressibility (1/GPa) = 0.06549684
#
# Stress axis : x y z
#
# Youngs Moduli (GPa) = 67.66598 49.83513 58.99899
#
# Poissons Ratio (x) = -0.09856 0.10733
# Poissons Ratio (y) = -0.13383 -0.39486
# Poissons Ratio (z) = 0.12309 -0.33353
#
# Static dielectric constant tensor:
#      x y z
#    x 1.914830 0.040560 0.047660 
#    y 0.040560 2.120820 0.059510 
#    z 0.047660 0.059510 2.067660 
# 
# From -- ./inp_files/167394.got.cif
#   From: 2010.05.17/outbox.cif.g08.bks.cpg/sg2_84_cif.got.tgz:167394.got - 2010.06.03 11:33:40.
