data_PCOD9009074
_publ_section_title
;
Structure prediction by ZEFSAII (Michael W. Deem and Ramdas Pophale) SiO2 
 PCOD9009074
Probable space group: P -1
;
_chemical_formula_sum "Si O2"
_cell_formula_units_Z 16
_cell_length_a 17.804458
_cell_length_b 8.375864
_cell_length_c 11.455841
_cell_angle_alpha 78.785453
_cell_angle_beta 150.687839
_cell_angle_gamma 110.435689
_cell_volume 760.881911
_symmetry_space_group_name_H-M "P -1"
_symmetry_group_IT_number 2
_symmetry_cell_setting 'triclinic'
loop_
_space_group_symop_operation_xyz
x,y,z
-x,-y,-z
loop_
_atom_site_type_symbol
_atom_site_label
_atom_site_fract_x
_atom_site_fract_y
_atom_site_fract_z
Si Si1 0.344298 0.537566 0.343097
Si Si2 0.315599 0.997577 0.750687
Si Si3 0.507734 0.885336 0.639631
Si Si4 0.030760 0.244735 0.695025
Si Si5 0.780301 0.353971 0.072947
Si Si6 0.406211 0.116962 0.620331
Si Si7 0.860816 0.829181 0.890378
Si Si8 0.825696 0.001119 0.199133
O O1 0.500000 0.500000 0.500000
O O2 0.424667 0.682902 0.527131
O O3 0.257386 0.614885 0.116727
O O4 0.195933 0.365643 0.213715
O O5 0.166987 0.808350 0.562405
O O6 0.304758 0.099451 0.603662
O O7 0.275613 0.067929 0.808425
O O8 0.500000 0.000000 0.000000
O O9 0.500000 0.000000 0.500000
O O10 0.424317 0.937958 0.630893
O O11 0.695550 0.940002 0.924655
O O12 0.058777 0.107586 0.660032
O O13 0.127159 0.452202 0.776313
O O14 0.090809 0.198768 0.908521
O O15 0.590984 0.255374 0.874006
O O16 0.868878 0.213249 0.224590
O O17 0.311257 0.148868 0.374929
O O18 0.000000 0.000000 0.000000
#
# Coordination Sequence:
#
# PCOD9009074 Si02
#       8
#     2   2   2   2   2   2   2   2
#     4  11  19  33  60  97 128 164 219 265 324 399
#     4  12  24  46  66  91 135 183 214 269 339 393
#     4  11  18  34  63  96 123 162 216 268 318 387
#     4  11  25  42  72 100 126 171 232 268 330 392
#     4  10  21  39  67 100 130 168 217 276 324 393
#     4  11  21  40  64  91 134 173 214 260 339 384
#     4  11  22  39  63  94 135 168 202 277 337 381
#     4  11  23  41  69  95 131 174 225 273 322 386
#
# _framework density 21.028227999999999
#
# number of rings (size 3 to 8) (size 9 to 14) (size 15 to 20)
#    0.000    1.000    7.500    2.625    0.000    0.500 
#    0.000    2.500    5.500    0.000    0.000    0.000 
#    0.000    0.000    0.000    0.000    0.000    0.000 
#
# Total GULP energy -89091.837513 kJ/mol
# GULP energy per Si atom -5568.239845 kJ/mol
# Density = 2.098037 g / cm^3
# Si number density = 21.028228 Si / 1000 Ang^3
#
#
#
# Elastic Constant Matrix: (Units=GPa)
#
#
# Indices 1 2 3 4 5 6 
#
# 1 81.2471 58.3265 36.5854 14.4886 -3.9069 -0.9720
# 2 58.3265 156.7634 49.6057 32.4800 7.4485 -1.9591
# 3 36.5854 49.6057 110.7258 1.9920 11.9322 -7.1658
# 4 14.4886 32.4800 1.9920 52.7323 1.6860 -0.7016
# 5 -3.9069 7.4485 11.9322 1.6860 23.7604 -0.3548
# 6 -0.9720 -1.9591 -7.1658 -0.7016 -0.3548 24.5633
#
#
#
# Elastic Compliance Matrix: (Units=1/GPa)
#
#
# Indices 1 2 3 4 5 6 
#
# 1 0.019091 -0.005620 -0.004611 -0.001857 0.007333 -0.000985
# 2 -0.005620 0.010317 -0.002417 -0.004639 -0.002619 -0.000275
# 3 -0.004611 -0.002417 0.012493 0.002532 -0.006405 0.003249
# 4 -0.001857 -0.004639 0.002532 0.022302 -0.001691 0.000908
# 5 0.007333 -0.002619 -0.006405 -0.001691 0.047433 -0.001151
# 6 -0.000985 -0.000275 0.003249 0.000908 -0.001151 0.041607
#
#
# Mechanical properties :
#
#
# Convention : Reuss Voigt Hill
#
# Bulk Modulus (GPa) = 60.22384 70.86352 65.54368
# Shear Modulus (GPa) = 27.16292 33.82579 30.49436
#
# Velocity S-wave (km/s) = 3.59797 4.01507 3.81223
# Velocity P-wave (km/s) = 6.77955 7.43417 7.11439
#
# Compressibility (1/GPa) = 0.01660472
#
# Stress axis : x y z
#
# Youngs Moduli (GPa) = 52.38076 96.92518 80.04686
#
# Poissons Ratio (x) = 0.54473 0.36907
# Poissons Ratio (y) = 0.29438 0.19350
# Poissons Ratio (z) = 0.24151 0.23430
#
# Static dielectric constant tensor:
#      x y z
#    x 1.801120 0.009110 0.000390 
#    y 0.009110 1.853060 -0.062430 
#    z 0.000390 -0.062430 1.854940 
# 
# From -- ./inp_files/462181.got.cif
#   From: 2010.05.17/outbox.cif.g08.bks.cpg/sg2_232_cif.got.tgz:462181.got - 2010.06.03 11:33:40.
