data_PCOD9009648
_publ_section_title
;
Structure prediction by ZEFSAII (Michael W. Deem and Ramdas Pophale) SiO2 
 PCOD9009648
Probable space group: P -1
;
_chemical_formula_sum "Si O2"
_cell_formula_units_Z 14
_cell_length_a 7.428520
_cell_length_b 15.063233
_cell_length_c 8.481017
_cell_angle_alpha 57.938757
_cell_angle_beta 70.970874
_cell_angle_gamma 45.550046
_cell_volume 572.494630
_symmetry_space_group_name_H-M "P -1"
_symmetry_group_IT_number 2
_symmetry_cell_setting 'triclinic'
loop_
_space_group_symop_operation_xyz
x,y,z
-x,-y,-z
loop_
_atom_site_type_symbol
_atom_site_label
_atom_site_fract_x
_atom_site_fract_y
_atom_site_fract_z
Si Si1 0.433570 0.944932 0.430849
Si Si2 0.436310 0.296272 0.534940
Si Si3 0.706541 0.537053 0.304792
Si Si4 0.077281 0.152494 0.089871
Si Si5 0.890806 0.278030 0.709546
Si Si6 0.011790 0.043647 0.696155
Si Si7 0.675261 0.402622 0.183117
O O1 0.622678 0.779769 0.492217
O O2 0.188284 0.983257 0.550276
O O3 0.653981 0.964337 0.790794
O O4 0.500000 0.000000 0.500000
O O5 0.967320 0.080947 0.125961
O O6 0.501719 0.386167 0.353654
O O7 0.262704 0.378544 0.660458
O O8 0.825846 0.399683 0.503232
O O9 0.402339 0.652655 0.249389
O O10 0.786515 0.465795 0.177742
O O11 0.284260 0.839125 0.364896
O O12 0.903949 0.254349 0.186425
O O13 0.030871 0.243454 0.868165
O O14 0.052224 0.130336 0.712167
O O15 0.500000 0.500000 0.000000
#
# Coordination Sequence:
#
# PCOD9009648 Si02
#       7
#     2   2   2   2   2   2   2
#     4  11  22  36  54  74 106 149 181 215 262 307
#     4  10  17  34  52  78 109 133 173 220 266 312
#     4  10  17  29  49  84 111 134 157 220 273 310
#     4  11  19  31  53  83 103 136 180 220 262 310
#     4  10  17  29  50  81 111 131 167 218 273 310
#     4  10  18  33  53  75 107 132 172 230 268 299
#     4  12  17  28  55  87 109 128 168 219 270 315
#
# _framework density 24.454378999999999
#
# number of rings (size 3 to 8) (size 9 to 14) (size 15 to 20)
#    0.000    1.429    8.571    1.286    0.000    0.000 
#    0.000    0.714    0.000    6.857    0.000    0.000 
#    0.000    0.000    0.000    0.000    0.000    0.000 
#
# Total GULP energy -77939.723468 kJ/mol
# GULP energy per Si atom -5567.123105 kJ/mol
# Density = 2.439872 g / cm^3
# Si number density = 24.454379 Si / 1000 Ang^3
#
#
#
# Elastic Constant Matrix: (Units=GPa)
#
#
# Indices 1 2 3 4 5 6 
#
# 1 67.9648 26.0540 20.1657 -0.4995 10.8834 32.4793
# 2 26.0540 162.2132 17.9444 18.5190 2.1831 46.7530
# 3 20.1657 17.9444 110.5929 -3.7210 24.3204 9.8978
# 4 -0.4995 18.5190 -3.7210 32.4192 5.6200 13.4405
# 5 10.8834 2.1831 24.3204 5.6200 18.4946 4.2132
# 6 32.4793 46.7530 9.8978 13.4405 4.2132 38.6985
#
#
#
# Elastic Compliance Matrix: (Units=1/GPa)
#
#
# Indices 1 2 3 4 5 6 
#
# 1 0.033587 0.003227 0.001318 0.017150 -0.018814 -0.036333
# 2 0.003227 0.009997 -0.001363 -0.000115 0.002080 -0.014624
# 3 0.001318 -0.001363 0.014119 0.007408 -0.020659 -0.003395
# 4 0.017150 -0.000115 0.007408 0.049421 -0.027942 -0.030272
# 5 -0.018814 0.002080 -0.020659 -0.027942 0.096508 0.017759
# 6 -0.036333 -0.014624 -0.003395 -0.030272 0.017759 0.083452
#
#
# Mechanical properties :
#
#
# Convention : Reuss Voigt Hill
#
# Bulk Modulus (GPa) = 15.60845 52.12213 33.86529
# Shear Modulus (GPa) = 16.55211 36.36290 26.45751
#
# Velocity S-wave (km/s) = 2.60447 3.86031 3.29281
# Velocity P-wave (km/s) = 3.92949 6.42103 5.32309
#
# Compressibility (1/GPa) = 0.06406787
#
# Stress axis : x y z
#
# Youngs Moduli (GPa) = 29.77314 100.02646 70.82547
#
# Poissons Ratio (x) = -0.32276 -0.09336
# Poissons Ratio (y) = -0.09607 0.09653
# Poissons Ratio (z) = -0.03925 0.13633
#
# Static dielectric constant tensor:
#      x y z
#    x 2.195850 0.094820 -0.045260 
#    y 0.094820 2.033870 0.020720 
#    z -0.045260 0.020720 1.956650 
# 
# From -- ./inp_files/196177.got.cif
#   From: 2010.05.17/outbox.cif.g08.bks.cpg/sg2_99_cif.got.tgz:196177.got - 2010.06.03 11:33:40.
