data_PCOD9009571
_publ_section_title
;
Structure prediction by ZEFSAII (Michael W. Deem and Ramdas Pophale) SiO2 
 PCOD9009571
Probable space group: P -1
;
_chemical_formula_sum "Si O2"
_cell_formula_units_Z 16
_cell_length_a 19.907003
_cell_length_b 16.022985
_cell_length_c 11.807879
_cell_angle_alpha 151.735099
_cell_angle_beta 136.993861
_cell_angle_gamma 23.951944
_cell_volume 668.841693
_symmetry_space_group_name_H-M "P -1"
_symmetry_group_IT_number 2
_symmetry_cell_setting 'triclinic'
loop_
_space_group_symop_operation_xyz
x,y,z
-x,-y,-z
loop_
_atom_site_type_symbol
_atom_site_label
_atom_site_fract_x
_atom_site_fract_y
_atom_site_fract_z
Si Si1 0.252738 0.837498 0.038784
Si Si2 0.447846 0.901081 0.392110
Si Si3 0.588895 0.495593 0.750364
Si Si4 0.424695 0.086813 0.827896
Si Si5 0.773623 0.124559 0.309375
Si Si6 0.863171 0.988084 0.651393
Si Si7 0.096369 0.418805 0.907270
Si Si8 0.802183 0.337589 0.431572
O O1 0.320050 0.939110 0.226297
O O2 0.125829 0.027621 0.219355
O O3 0.396875 0.469131 0.815167
O O4 0.177844 0.864820 0.865806
O O5 0.500000 0.000000 0.500000
O O6 0.370999 0.099270 0.650473
O O7 0.717806 0.215603 0.480484
O O8 0.408316 0.651908 0.715139
O O9 0.698573 0.346687 0.824508
O O10 0.538707 0.761371 0.959002
O O11 0.269196 0.285897 0.965788
O O12 0.606994 0.713797 0.636067
O O13 0.841059 0.211371 0.453390
O O14 0.932531 0.753126 0.040055
O O15 0.821088 0.860984 0.398544
O O16 0.049335 0.757241 0.547777
O O17 0.000000 0.500000 0.000000
#
# Coordination Sequence:
#
# PCOD9009571 Si02
#       8
#     2   2   2   2   2   2   2   2
#     4  10  23  43  69 102 144 181 231 291 350 417
#     4  10  21  39  70 105 135 183 234 286 353 416
#     4  11  25  43  72  95 138 179 230 286 349 408
#     4  11  24  43  69 102 135 181 229 285 348 418
#     4  11  26  44  64 104 133 179 229 286 345 417
#     4  12  23  46  71  99 138 187 231 286 345 414
#     4  12  25  44  70  99 138 178 233 287 348 412
#     4  11  26  43  70 101 142 181 230 285 347 414
#
# _framework density 23.921953999999999
#
# number of rings (size 3 to 8) (size 9 to 14) (size 15 to 20)
#    0.000    1.000    2.500    3.375    8.750    1.500 
#    0.000    0.625    0.000    0.000    0.000    0.000 
#    0.000    0.000    0.000    0.000    0.000    0.000 
#
# Total GULP energy -89380.146739 kJ/mol
# GULP energy per Si atom -5586.259171 kJ/mol
# Density = 2.386751 g / cm^3
# Si number density = 23.921954 Si / 1000 Ang^3
#
#
#
# Elastic Constant Matrix: (Units=GPa)
#
#
# Indices 1 2 3 4 5 6 
#
# 1 160.4584 25.3498 16.7515 11.5991 2.7997 -13.1375
# 2 25.3498 54.3150 2.6026 5.5252 -5.3649 2.3962
# 3 16.7515 2.6026 49.8051 7.6050 19.7669 5.3765
# 4 11.5991 5.5252 7.6050 34.7763 -1.3533 3.2033
# 5 2.7997 -5.3649 19.7669 -1.3533 41.5626 1.0639
# 6 -13.1375 2.3962 5.3765 3.2033 1.0639 26.8581
#
#
#
# Elastic Compliance Matrix: (Units=1/GPa)
#
#
# Indices 1 2 3 4 5 6 
#
# 1 0.007568 -0.003415 -0.002651 -0.001834 0.000129 0.004751
# 2 -0.003415 0.020660 -0.000608 -0.001578 0.003220 -0.003331
# 3 -0.002651 -0.000608 0.027546 -0.005030 -0.013020 -0.005641
# 4 -0.001834 -0.001578 -0.005030 0.031183 0.003420 -0.003604
# 5 0.000129 0.003220 -0.013020 0.003420 0.030751 0.000756
# 6 0.004751 -0.003331 -0.005641 -0.003604 0.000756 0.041383
#
#
# Mechanical properties :
#
#
# Convention : Reuss Voigt Hill
#
# Bulk Modulus (GPa) = 23.57097 39.33183 31.45140
# Shear Modulus (GPa) = 26.79803 35.29770 31.04786
#
# Velocity S-wave (km/s) = 3.35061 3.84544 3.60652
# Velocity P-wave (km/s) = 4.98432 6.01614 5.52437
#
# Compressibility (1/GPa) = 0.04242507
#
# Stress axis : x y z
#
# Youngs Moduli (GPa) = 132.13960 48.40321 36.30283
#
# Poissons Ratio (x) = 0.16531 0.09623
# Poissons Ratio (y) = 0.45129 0.02208
# Poissons Ratio (z) = 0.35026 0.02944
#
# Static dielectric constant tensor:
#      x y z
#    x 1.920350 0.011050 0.023020 
#    y 0.011050 1.901700 -0.037800 
#    z 0.023020 -0.037800 1.924090 
# 
# From -- ./inp_files/466161.got.cif
#   From: 2010.05.17/outbox.cif.g08.bks.cpg/sg2_234_cif.got.tgz:466161.got - 2010.06.03 11:33:40.
