data_PCOD9009802
_publ_section_title
;
Structure prediction by ZEFSAII (Michael W. Deem and Ramdas Pophale) SiO2 
 PCOD9009802
Probable space group: P -1
;
_chemical_formula_sum "Si O2"
_cell_formula_units_Z 14
_cell_length_a 23.932902
_cell_length_b 5.425155
_cell_length_c 5.184318
_cell_angle_alpha 94.084724
_cell_angle_beta 80.565121
_cell_angle_gamma 124.788281
_cell_volume 545.134199
_symmetry_space_group_name_H-M "P -1"
_symmetry_group_IT_number 2
_symmetry_cell_setting 'triclinic'
loop_
_space_group_symop_operation_xyz
x,y,z
-x,-y,-z
loop_
_atom_site_type_symbol
_atom_site_label
_atom_site_fract_x
_atom_site_fract_y
_atom_site_fract_z
Si Si1 0.580310 0.704229 0.881043
Si Si2 0.450851 0.886410 0.282279
Si Si3 0.261702 0.221966 0.604049
Si Si4 0.951321 0.368400 0.272858
Si Si5 0.797084 0.688588 0.867810
Si Si6 0.690471 0.151432 0.224051
Si Si7 0.919942 0.803651 0.467121
O O1 0.594991 0.471701 0.739654
O O2 0.625122 0.879542 0.106807
O O3 0.587282 0.946848 0.696050
O O4 0.500000 0.500000 0.000000
O O5 0.500000 0.000000 0.500000
O O6 0.500000 0.000000 0.000000
O O7 0.208260 0.139044 0.874455
O O8 0.284434 0.994584 0.604499
O O9 0.316199 0.578823 0.661366
O O10 0.232503 0.237258 0.352682
O O11 0.904541 0.495959 0.342714
O O12 0.000000 0.500000 0.500000
O O13 0.915426 0.015033 0.284951
O O14 0.000000 0.500000 0.000000
O O15 0.869646 0.756730 0.730795
O O16 0.748824 0.342494 0.972765
O O17 0.000000 0.000000 0.500000
#
# Coordination Sequence:
#
# PCOD9009802 Si02
#       7
#     2   2   2   2   2   2   2
#     4  10  21  43  66  99 130 173 218 277 332 393
#     4  10  21  40  59  93 129 164 207 261 324 387
#     4  10  25  43  69  94 134 177 227 271 334 403
#     4  10  22  39  60  92 128 164 205 259 325 384
#     4  10  26  45  69  98 135 176 229 273 338 400
#     4  10  24  46  68  98 136 177 227 277 335 402
#     4  10  23  42  68  97 132 170 219 276 331 393
#
# _framework density 25.681750000000001
#
# number of rings (size 3 to 8) (size 9 to 14) (size 15 to 20)
#    0.857    1.143    0.000    1.714    4.000    4.571 
#   18.000    0.000    0.000    0.000    0.000    0.000 
#    0.000    0.000    0.000    0.000    0.000    0.000 
#
# Total GULP energy -78322.530208 kJ/mol
# GULP energy per Si atom -5594.466443 kJ/mol
# Density = 2.562330 g / cm^3
# Si number density = 25.681750 Si / 1000 Ang^3
#
#
#
# Elastic Constant Matrix: (Units=GPa)
#
#
# Indices 1 2 3 4 5 6 
#
# 1 123.3167 76.4973 38.1422 -2.2005 0.2761 -34.3398
# 2 76.4973 112.8344 46.2540 -5.9957 8.7450 -49.3104
# 3 38.1422 46.2540 157.0979 -5.0626 8.1613 -11.4898
# 4 -2.2005 -5.9957 -5.0626 48.9658 6.0630 5.9642
# 5 0.2761 8.7450 8.1613 6.0630 56.4496 -4.2990
# 6 -34.3398 -49.3104 -11.4898 5.9642 -4.2990 70.6941
#
#
#
# Elastic Compliance Matrix: (Units=1/GPa)
#
#
# Indices 1 2 3 4 5 6 
#
# 1 0.014226 -0.009278 -0.000798 -0.000837 0.001609 0.000477
# 2 -0.009278 0.020605 -0.003003 0.000941 -0.002115 0.009169
# 3 -0.000798 -0.003003 0.007403 0.000626 -0.000773 -0.001379
# 4 -0.000837 0.000941 0.000626 0.021082 -0.002617 -0.001586
# 5 0.001609 -0.002115 -0.000773 -0.002617 0.018468 0.000524
# 6 0.000477 0.009169 -0.001379 -0.001586 0.000524 0.020715
#
#
# Mechanical properties :
#
#
# Convention : Reuss Voigt Hill
#
# Bulk Modulus (GPa) = 62.20691 79.44845 70.82768
# Shear Modulus (GPa) = 37.30934 50.71226 44.01080
#
# Velocity S-wave (km/s) = 3.81564 4.44852 4.14418
# Velocity P-wave (km/s) = 6.60961 7.57553 7.10899
#
# Compressibility (1/GPa) = 0.01607538
#
# Stress axis : x y z
#
# Youngs Moduli (GPa) = 70.29432 48.53215 135.08272
#
# Poissons Ratio (x) = 0.45029 0.10778
# Poissons Ratio (y) = 0.65220 0.40568
# Poissons Ratio (z) = 0.05609 0.14575
#
# Static dielectric constant tensor:
#      x y z
#    x 2.022160 -0.035070 -0.005870 
#    y -0.035070 2.179800 -0.044000 
#    z -0.005870 -0.044000 1.952570 
# 
# From -- ./inp_files/125774.got.cif
#   From: 2010.05.17/outbox.cif.g08.bks.cpg/sg2_63_cif.got.tgz:125774.got - 2010.06.03 11:33:40.
