data_PCOD9009463
_publ_section_title
;
Structure prediction by ZEFSAII (Michael W. Deem and Ramdas Pophale) SiO2 
 PCOD9009463
Probable space group: P -1
;
_chemical_formula_sum "Si O2"
_cell_formula_units_Z 14
_cell_length_a 18.600988
_cell_length_b 5.305207
_cell_length_c 9.532904
_cell_angle_alpha 100.377256
_cell_angle_beta 139.174922
_cell_angle_gamma 92.600447
_cell_volume 580.298225
_symmetry_space_group_name_H-M "P -1"
_symmetry_group_IT_number 2
_symmetry_cell_setting 'triclinic'
loop_
_space_group_symop_operation_xyz
x,y,z
-x,-y,-z
loop_
_atom_site_type_symbol
_atom_site_label
_atom_site_fract_x
_atom_site_fract_y
_atom_site_fract_z
Si Si1 0.033991 0.237586 0.966471
Si Si2 0.469809 0.707618 0.363839
Si Si3 0.128696 0.122251 0.754008
Si Si4 0.408002 0.405349 0.732410
Si Si5 0.780540 0.288517 0.968534
Si Si6 0.191019 0.023696 0.535448
Si Si7 0.254853 0.642233 0.386740
O O1 0.171350 0.352488 0.190242
O O2 0.000000 0.500000 0.000000
O O3 0.947010 0.077517 0.703255
O O4 0.000000 0.000000 0.000000
O O5 0.500000 0.500000 0.500000
O O6 0.535392 0.732991 0.316050
O O7 0.500000 0.000000 0.500000
O O8 0.334051 0.651676 0.136191
O O9 0.133927 0.415646 0.851978
O O10 0.173151 0.933278 0.908458
O O11 0.204630 0.118649 0.725024
O O12 0.000000 0.000000 0.500000
O O13 0.379054 0.631181 0.614888
O O14 0.286419 0.242224 0.606828
O O15 0.500000 0.500000 0.000000
O O16 0.756765 0.211514 0.761496
O O17 0.215978 0.758855 0.482452
#
# Coordination Sequence:
#
# PCOD9009463 Si02
#       7
#     2   2   2   2   2   2   2
#     4  10  21  39  69 101 138 181 231 299 363 430
#     4  12  26  49  77 108 149 202 255 307 370 449
#     4  12  29  50  78 112 155 199 246 313 393 458
#     4  12  27  46  74 111 153 199 255 317 378 443
#     4  12  27  50  76 108 154 201 255 307 378 458
#     4  11  26  46  74 109 152 189 254 313 381 442
#     4  11  25  46  75 111 146 200 255 311 376 453
#
# _framework density 24.125527000000002
#
# number of rings (size 3 to 8) (size 9 to 14) (size 15 to 20)
#    0.000    0.571    2.857    3.857    6.000    2.857 
#    0.000    0.000    0.000    0.000    0.000    0.000 
#    0.000    0.000    0.000    0.000    0.000    0.000 
#
# Total GULP energy -77987.886091 kJ/mol
# GULP energy per Si atom -5570.563292 kJ/mol
# Density = 2.407062 g / cm^3
# Si number density = 24.125527 Si / 1000 Ang^3
#
#
#
# Elastic Constant Matrix: (Units=GPa)
#
#
# Indices 1 2 3 4 5 6 
#
# 1 115.0236 19.7316 39.9965 -12.3208 -23.7653 1.3389
# 2 19.7316 120.2941 48.6569 -10.6368 -14.0694 3.9048
# 3 39.9965 48.6569 151.0393 -6.4871 -12.3824 -1.4489
# 4 -12.3208 -10.6368 -6.4871 44.0879 -4.9885 3.2896
# 5 -23.7653 -14.0694 -12.3824 -4.9885 43.1895 12.9607
# 6 1.3389 3.9048 -1.4489 3.2896 12.9607 37.5567
#
#
#
# Elastic Compliance Matrix: (Units=1/GPa)
#
#
# Indices 1 2 3 4 5 6 
#
# 1 0.011423 0.000414 -0.002429 0.004002 0.007201 -0.003379
# 2 0.000414 0.010247 -0.003001 0.002790 0.003860 -0.002772
# 3 -0.002429 -0.003001 0.008207 -0.000284 -0.000241 0.000823
# 4 0.004002 0.002790 -0.000284 0.025687 0.007591 -0.005313
# 5 0.007201 0.003860 -0.000241 0.007591 0.032998 -0.012720
# 6 -0.003379 -0.002772 0.000823 -0.005313 -0.012720 0.031922
#
#
# Mechanical properties :
#
#
# Convention : Reuss Voigt Hill
#
# Bulk Modulus (GPa) = 50.38810 67.01411 58.70111
# Shear Modulus (GPa) = 36.46187 43.49829 39.98008
#
# Velocity S-wave (km/s) = 3.89181 4.25078 4.07525
# Velocity P-wave (km/s) = 6.41296 7.20623 6.82114
#
# Compressibility (1/GPa) = 0.01984595
#
# Stress axis : x y z
#
# Youngs Moduli (GPa) = 87.54271 97.58928 121.85226
#
# Poissons Ratio (x) = -0.04044 0.29593
# Poissons Ratio (y) = -0.03627 0.36569
# Poissons Ratio (z) = 0.21261 0.29288
#
# Static dielectric constant tensor:
#      x y z
#    x 2.845150 0.246520 -0.457960 
#    y 0.246520 1.994500 -0.173420 
#    z -0.457960 -0.173420 2.206600 
# 
# From -- ./inp_files/339909.got.cif
#   From: 2010.05.17/outbox.cif.g08.bks.cpg/sg2_170_cif.got.tgz:339909.got - 2010.06.03 11:33:40.
