data_PCOD9009713
_publ_section_title
;
Structure prediction by ZEFSAII (Michael W. Deem and Ramdas Pophale) SiO2 
 PCOD9009713
Probable space group: P -1
;
_chemical_formula_sum "Si O2"
_cell_formula_units_Z 16
_cell_length_a 13.734997
_cell_length_b 8.851773
_cell_length_c 12.253254
_cell_angle_alpha 138.396090
_cell_angle_beta 55.176140
_cell_angle_gamma 135.651956
_cell_volume 689.311192
_symmetry_space_group_name_H-M "P -1"
_symmetry_group_IT_number 2
_symmetry_cell_setting 'triclinic'
loop_
_space_group_symop_operation_xyz
x,y,z
-x,-y,-z
loop_
_atom_site_type_symbol
_atom_site_label
_atom_site_fract_x
_atom_site_fract_y
_atom_site_fract_z
Si Si1 0.874819 0.094873 0.935844
Si Si2 0.508810 0.145190 0.840670
Si Si3 0.223480 0.812888 0.725153
Si Si4 0.854566 0.730012 0.465958
Si Si5 0.376453 0.194329 0.395325
Si Si6 0.375686 0.450703 0.203420
Si Si7 0.350931 0.223269 0.672481
Si Si8 0.813784 0.522777 0.134295
O O1 0.854765 0.132692 0.097742
O O2 0.814308 0.250126 0.990010
O O3 0.037607 0.248296 0.886368
O O4 0.782914 0.780757 0.798834
O O5 0.613386 0.364821 0.805280
O O6 0.377514 0.918294 0.732849
O O7 0.571897 0.995704 0.782194
O O8 0.446505 0.287272 0.027339
O O9 0.148474 0.497286 0.580919
O O10 0.256182 0.997806 0.699394
O O11 0.739559 0.804269 0.602449
O O12 0.813873 0.588751 0.297123
O O13 0.000000 0.000000 0.500000
O O14 0.500000 0.500000 0.500000
O O15 0.322351 0.102921 0.504541
O O16 0.486043 0.644142 0.328342
O O17 0.307248 0.445690 0.822675
#
# Coordination Sequence:
#
# PCOD9009713 Si02
#       8
#     2   2   2   2   2   2   2   2
#     4   9  18  37  59  78 113 156 183 231 291 338
#     4   9  18  38  58  85 119 147 185 233 295 332
#     4   9  18  37  60  78 116 151 181 238 291 332
#     4  10  21  40  57  79 114 154 194 232 280 338
#     4  11  22  40  60  83 116 157 188 234 289 347
#     4   9  19  35  61  87 113 146 188 242 276 336
#     4  10  22  37  58  89 113 147 193 237 287 339
#     4   9  20  38  55  81 117 149 186 234 292 339
#
# _framework density 23.211576999999998
#
# number of rings (size 3 to 8) (size 9 to 14) (size 15 to 20)
#    0.000    2.500    1.250    0.750    1.750    4.000 
#   11.250    1.250    0.000    0.000    0.000    0.000 
#    0.000    0.000    0.000    0.000    0.000    0.000 
#
# Total GULP energy -89420.180130 kJ/mol
# GULP energy per Si atom -5588.761258 kJ/mol
# Density = 2.315875 g / cm^3
# Si number density = 23.211577 Si / 1000 Ang^3
#
#
#
# Elastic Constant Matrix: (Units=GPa)
#
#
# Indices 1 2 3 4 5 6 
#
# 1 30.3593 12.4887 4.5775 2.6553 -4.7864 -6.5118
# 2 12.4887 144.5477 11.8506 10.1854 5.3731 -9.0825
# 3 4.5775 11.8506 76.9623 4.6200 -7.8970 -11.5441
# 4 2.6553 10.1854 4.6200 35.2842 -2.8277 6.3135
# 5 -4.7864 5.3731 -7.8970 -2.8277 25.5516 -4.4476
# 6 -6.5118 -9.0825 -11.5441 6.3135 -4.4476 24.7754
#
#
#
# Elastic Compliance Matrix: (Units=1/GPa)
#
#
# Indices 1 2 3 4 5 6 
#
# 1 0.038424 -0.002752 0.001233 -0.003680 0.009905 0.012381
# 2 -0.002752 0.007596 -0.000816 -0.002399 -0.002304 0.001879
# 3 0.001233 -0.000816 0.015227 -0.002955 0.006350 0.009012
# 4 -0.003680 -0.002399 -0.002955 0.031744 0.000460 -0.011230
# 5 0.009905 -0.002304 0.006350 0.000460 0.045719 0.012808
# 6 0.012381 0.001879 0.009012 -0.011230 0.012808 0.053666
#
#
# Mechanical properties :
#
#
# Convention : Reuss Voigt Hill
#
# Bulk Modulus (GPa) = 17.67563 34.41142 26.04352
# Shear Modulus (GPa) = 23.15837 31.98573 27.57205
#
# Velocity S-wave (km/s) = 3.16208 3.71618 3.45027
# Velocity P-wave (km/s) = 4.57856 5.76807 5.20739
#
# Compressibility (1/GPa) = 0.05657507
#
# Stress axis : x y z
#
# Youngs Moduli (GPa) = 26.02544 131.65588 65.67472
#
# Poissons Ratio (x) = 0.36229 -0.08096
# Poissons Ratio (y) = 0.07162 0.05362
# Poissons Ratio (z) = -0.03208 0.10749
#
# Static dielectric constant tensor:
#      x y z
#    x 1.878920 -0.031680 0.001470 
#    y -0.031680 1.915850 -0.021890 
#    z 0.001470 -0.021890 1.938630 
# 
# From -- ./inp_files/175310.got.cif
#   From: 2010.05.17/outbox.cif.g08.bks.cpg/sg2_88_cif.got.tgz:175310.got - 2010.06.03 11:33:40.
