data_PCOD9009084
_publ_section_title
;
Structure prediction by ZEFSAII (Michael W. Deem and Ramdas Pophale) SiO2 
 PCOD9009084
Probable space group: P -1
;
_chemical_formula_sum "Si O2"
_cell_formula_units_Z 16
_cell_length_a 12.134688
_cell_length_b 9.267491
_cell_length_c 8.541630
_cell_angle_alpha 88.857712
_cell_angle_beta 76.634294
_cell_angle_gamma 49.497931
_cell_volume 699.529006
_symmetry_space_group_name_H-M "P -1"
_symmetry_group_IT_number 2
_symmetry_cell_setting 'triclinic'
loop_
_space_group_symop_operation_xyz
x,y,z
-x,-y,-z
loop_
_atom_site_type_symbol
_atom_site_label
_atom_site_fract_x
_atom_site_fract_y
_atom_site_fract_z
Si Si1 0.011945 0.644961 0.571954
Si Si2 0.287506 0.054335 0.516784
Si Si3 0.401219 0.755309 0.738750
Si Si4 0.340602 0.863010 0.234729
Si Si5 0.336269 0.526473 0.934833
Si Si6 0.216470 0.374023 0.764297
Si Si7 0.731629 0.386941 0.682225
Si Si8 0.643837 0.951738 0.036197
O O1 0.060446 0.560950 0.733544
O O2 0.145609 0.627284 0.453438
O O3 0.000000 0.500000 0.500000
O O4 0.856358 0.841633 0.552887
O O5 0.285881 0.208939 0.604792
O O6 0.300773 0.906954 0.630774
O O7 0.409778 0.910794 0.346339
O O8 0.319434 0.701682 0.867933
O O9 0.567679 0.553760 0.651601
O O10 0.430764 0.875521 0.822099
O O11 0.485844 0.661441 0.111566
O O12 0.246205 0.803855 0.321020
O O13 0.273170 0.020577 0.119442
O O14 0.278003 0.468337 0.820753
O O15 0.272801 0.564420 0.131850
O O16 0.238889 0.248074 0.907071
O O17 0.500000 0.000000 0.000000
#
# Coordination Sequence:
#
# PCOD9009084 Si02
#       8
#     2   2   2   2   2   2   2   2
#     4  10  25  49  62  90 136 178 220 266 323 392
#     4  10  25  43  63  95 136 173 218 267 323 385
#     4  10  21  39  67 101 132 163 216 271 323 392
#     4  11  22  39  66 102 136 163 210 276 327 383
#     4  11  21  41  65 106 132 162 216 275 332 383
#     4  10  23  40  66  90 132 177 210 265 328 384
#     4  11  22  41  73  94 132 172 215 267 334 380
#     4  11  19  37  63 100 135 163 209 269 325 379
#
# _framework density 22.872532
#
# number of rings (size 3 to 8) (size 9 to 14) (size 15 to 20)
#    0.000    1.500    3.750    0.750    3.500    6.000 
#    0.000    7.500    0.000    0.000    0.000    0.000 
#    0.000    0.000    0.000    0.000    0.000    0.000 
#
# Total GULP energy -89084.419628 kJ/mol
# GULP energy per Si atom -5567.776227 kJ/mol
# Density = 2.282047 g / cm^3
# Si number density = 22.872532 Si / 1000 Ang^3
#
#
#
# Elastic Constant Matrix: (Units=GPa)
#
#
# Indices 1 2 3 4 5 6 
#
# 1 86.9324 60.6053 27.0158 -19.3648 16.7749 16.3462
# 2 60.6053 132.8039 49.0588 -38.8729 23.4054 7.4627
# 3 27.0158 49.0588 70.7667 -15.3938 27.3753 3.0698
# 4 -19.3648 -38.8729 -15.3938 46.5205 -1.3473 13.6219
# 5 16.7749 23.4054 27.3753 -1.3473 31.0563 -2.9766
# 6 16.3462 7.4627 3.0698 13.6219 -2.9766 32.9914
#
#
#
# Elastic Compliance Matrix: (Units=1/GPa)
#
#
# Indices 1 2 3 4 5 6 
#
# 1 0.021101 -0.005148 0.002074 0.009008 -0.010310 -0.014133
# 2 -0.005148 0.016187 -0.004260 0.011567 -0.005738 -0.006008
# 3 0.002074 -0.004260 0.026826 0.007820 -0.021962 -0.007770
# 4 0.009008 0.011567 0.007820 0.045195 -0.021236 -0.028384
# 5 -0.010310 -0.005738 -0.021962 -0.021236 0.062723 0.022877
# 6 -0.014133 -0.006008 -0.007770 -0.028384 0.022877 0.053179
#
#
# Mechanical properties :
#
#
# Convention : Reuss Voigt Hill
#
# Bulk Modulus (GPa) = 20.22359 62.65143 41.43751
# Shear Modulus (GPa) = 19.50365 32.36851 25.93608
#
# Velocity S-wave (km/s) = 2.92329 3.76595 3.37106
# Velocity P-wave (km/s) = 4.50058 6.80888 5.77131
#
# Compressibility (1/GPa) = 0.04944721
#
# Stress axis : x y z
#
# Youngs Moduli (GPa) = 47.39105 61.77630 37.27686
#
# Poissons Ratio (x) = 0.31800 -0.07732
# Poissons Ratio (y) = 0.24395 0.15881
# Poissons Ratio (z) = -0.09830 0.26319
#
# Static dielectric constant tensor:
#      x y z
#    x 1.862960 -0.070190 -0.020300 
#    y -0.070190 2.042370 0.111090 
#    z -0.020300 0.111090 2.031460 
# 
# From -- ./inp_files/243971.got.cif
#   From: 2010.05.17/outbox.cif.g08.bks.cpg/sg2_122_cif.got.tgz:243971.got - 2010.06.03 11:33:40.
