data_PCOD9009456
_publ_section_title
;
Structure prediction by ZEFSAII (Michael W. Deem and Ramdas Pophale) SiO2 
 PCOD9009456
Probable space group: P -1
;
_chemical_formula_sum "Si O2"
_cell_formula_units_Z 16
_cell_length_a 14.465672
_cell_length_b 6.888489
_cell_length_c 22.852726
_cell_angle_alpha 129.822905
_cell_angle_beta 159.069732
_cell_angle_gamma 53.774341
_cell_volume 624.565269
_symmetry_space_group_name_H-M "P -1"
_symmetry_group_IT_number 2
_symmetry_cell_setting 'triclinic'
loop_
_space_group_symop_operation_xyz
x,y,z
-x,-y,-z
loop_
_atom_site_type_symbol
_atom_site_label
_atom_site_fract_x
_atom_site_fract_y
_atom_site_fract_z
Si Si1 0.534829 0.195669 0.286043
Si Si2 0.633346 0.671249 0.234907
Si Si3 0.797233 0.170741 0.699129
Si Si4 0.219418 0.340710 0.804437
Si Si5 0.088160 0.856115 0.101268
Si Si6 0.211893 0.745986 0.679672
Si Si7 0.261280 0.371155 0.426380
Si Si8 0.897039 0.353388 0.054178
O O1 0.222274 0.197697 0.096315
O O2 0.654082 0.225810 0.298238
O O3 0.615329 0.426691 0.418177
O O4 0.667619 0.938973 0.340337
O O5 0.825717 0.665381 0.293953
O O6 0.613559 0.400151 0.200000
O O7 0.333213 0.707940 0.049080
O O8 0.813582 0.192264 0.784614
O O9 0.517649 0.254631 0.526208
O O10 0.004958 0.364596 0.834780
O O11 0.853375 0.883927 0.661037
O O12 0.978855 0.490607 0.717639
O O13 0.196279 0.040311 0.748639
O O14 0.500000 0.500000 0.000000
O O15 0.196492 0.711549 0.080837
O O16 0.117284 0.153382 0.160225
O O17 0.000000 0.500000 0.500000
#
# Coordination Sequence:
#
# PCOD9009456 Si02
#       8
#     2   2   2   2   2   2   2   2
#     4  10  21  42  69 100 141 173 216 295 336 400
#     4  10  23  41  70 103 127 172 233 280 328 417
#     4  11  24  43  66  99 137 182 220 280 338 409
#     4  11  27  48  69  96 145 187 220 286 353 406
#     4  10  21  40  71  98 130 181 228 272 349 392
#     4  11  23  42  70 102 127 178 237 281 342 406
#     4  11  25  43  66  96 140 178 224 275 347 395
#     4  10  21  39  69 101 129 169 234 281 321 409
#
# _framework density 25.617819000000001
#
# number of rings (size 3 to 8) (size 9 to 14) (size 15 to 20)
#    0.000    1.500    1.250    2.625    8.750    2.500 
#    2.250    3.750    0.000    0.000    0.000    0.000 
#    0.000    0.000    0.000    0.000    0.000    0.000 
#
# Total GULP energy -89182.445645 kJ/mol
# GULP energy per Si atom -5573.902853 kJ/mol
# Density = 2.555951 g / cm^3
# Si number density = 25.617819 Si / 1000 Ang^3
#
#
#
# Elastic Constant Matrix: (Units=GPa)
#
#
# Indices 1 2 3 4 5 6 
#
# 1 65.8368 19.7407 15.1474 -0.4426 9.2367 6.6953
# 2 19.7407 210.0909 37.3392 24.9267 -0.1202 -11.1684
# 3 15.1474 37.3392 112.4896 13.6679 -0.3241 -12.2310
# 4 -0.4426 24.9267 13.6679 41.7120 3.5127 4.0547
# 5 9.2367 -0.1202 -0.3241 3.5127 29.1866 4.3851
# 6 6.6953 -11.1684 -12.2310 4.0547 4.3851 32.6231
#
#
#
# Elastic Compliance Matrix: (Units=1/GPa)
#
#
# Indices 1 2 3 4 5 6 
#
# 1 0.017606 -0.001804 -0.002694 0.003067 -0.005239 -0.004918
# 2 -0.001804 0.005617 -0.000970 -0.003332 0.000645 0.002257
# 3 -0.002694 -0.000970 0.010473 -0.003375 0.000699 0.004473
# 4 0.003067 -0.003332 -0.003375 0.027984 -0.003481 -0.006045
# 5 -0.005239 0.000645 0.000699 -0.003481 0.036794 -0.002955
# 6 -0.004918 0.002257 0.004473 -0.006045 -0.002955 0.035261
#
#
# Mechanical properties :
#
#
# Convention : Reuss Voigt Hill
#
# Bulk Modulus (GPa) = 43.93619 59.20798 51.57209
# Shear Modulus (GPa) = 32.83932 41.78368 37.31150
#
# Velocity S-wave (km/s) = 3.58424 4.04299 3.82051
# Velocity P-wave (km/s) = 5.85806 6.70497 6.29577
#
# Compressibility (1/GPa) = 0.02276028
#
# Stress axis : x y z
#
# Youngs Moduli (GPa) = 56.80011 178.02008 95.48599
#
# Poissons Ratio (x) = 0.32109 0.25728
# Poissons Ratio (y) = 0.10245 0.09258
# Poissons Ratio (z) = 0.15304 0.17260
#
# Static dielectric constant tensor:
#      x y z
#    x 2.077930 0.007140 -0.155880 
#    y 0.007140 2.350340 -0.124860 
#    z -0.155880 -0.124860 2.370680 
# 
# From -- ./inp_files/620166.got.cif
#   From: 2010.05.17/outbox.cif.g08.bks.cpg/sg2_311_cif.got.tgz:620166.got - 2010.06.03 11:33:40.
