data_PCOD9009861
_publ_section_title
;
Structure prediction by ZEFSAII (Michael W. Deem and Ramdas Pophale) SiO2 
 PCOD9009861
Probable space group: P -1
;
_chemical_formula_sum "Si O2"
_cell_formula_units_Z 16
_cell_length_a 5.537832
_cell_length_b 8.600143
_cell_length_c 22.845033
_cell_angle_alpha 46.911831
_cell_angle_beta 106.304346
_cell_angle_gamma 121.999929
_cell_volume 668.021813
_symmetry_space_group_name_H-M "P -1"
_symmetry_group_IT_number 2
_symmetry_cell_setting 'triclinic'
loop_
_space_group_symop_operation_xyz
x,y,z
-x,-y,-z
loop_
_atom_site_type_symbol
_atom_site_label
_atom_site_fract_x
_atom_site_fract_y
_atom_site_fract_z
Si Si1 0.615514 0.755878 0.320817
Si Si2 0.088588 0.683099 0.066207
Si Si3 0.595323 0.837771 0.967134
Si Si4 0.595171 0.264485 0.573896
Si Si5 0.247515 0.126989 0.270902
Si Si6 0.422339 0.788287 0.834104
Si Si7 0.635008 0.744227 0.629409
Si Si8 0.830807 0.262637 0.469920
O O1 0.641146 0.738118 0.397792
O O2 0.417596 0.496267 0.346249
O O3 0.499858 0.938684 0.247186
O O4 0.944508 0.910748 0.283942
O O5 0.914867 0.401702 0.144660
O O6 0.260716 0.877337 0.078616
O O7 0.310469 0.720831 0.019064
O O8 0.832334 0.748462 0.016537
O O9 0.512429 0.788134 0.906628
O O10 0.617760 0.267367 0.505321
O O11 0.876533 0.498033 0.558261
O O12 0.598174 0.019321 0.654434
O O13 0.421128 0.283400 0.187191
O O14 0.254020 0.263940 0.295946
O O15 0.318392 0.725733 0.603203
O O16 0.835450 0.010725 0.545834
#
# Coordination Sequence:
#
# PCOD9009861 Si02
#       8
#     2   2   2   2   2   2   2   2
#     4  11  24  40  59  90 127 165 215 261 319 400
#     4  10  23  44  71 107 138 168 226 278 322 389
#     4  10  23  44  73 106 137 171 224 278 323 390
#     4   9  19  40  60  86 119 158 212 273 323 387
#     4  10  23  42  57  87 130 165 212 259 320 396
#     4  11  25  41  68  92 130 181 204 262 331 390
#     4  10  21  40  60  89 119 165 211 272 323 388
#     4   9  18  39  65  82 120 162 210 275 339 375
#
# _framework density 23.951315000000001
#
# number of rings (size 3 to 8) (size 9 to 14) (size 15 to 20)
#    0.000    2.000    1.250    0.750    3.500    3.000 
#   11.250    0.000    0.000    0.000    0.000    0.000 
#    0.000    0.000    0.000    0.000    0.000    0.000 
#
# Total GULP energy -89257.857570 kJ/mol
# GULP energy per Si atom -5578.616098 kJ/mol
# Density = 2.389680 g / cm^3
# Si number density = 23.951315 Si / 1000 Ang^3
#
#
#
# Elastic Constant Matrix: (Units=GPa)
#
#
# Indices 1 2 3 4 5 6 
#
# 1 70.8391 14.7530 24.8752 4.6770 -18.3038 -4.2599
# 2 14.7530 149.5810 56.1248 -0.9654 -10.9873 2.1948
# 3 24.8752 56.1248 65.5548 0.1179 -16.1924 -4.3897
# 4 4.6770 -0.9654 0.1179 41.6288 -5.4583 2.5264
# 5 -18.3038 -10.9873 -16.1924 -5.4583 38.1499 -7.0551
# 6 -4.2599 2.1948 -4.3897 2.5264 -7.0551 26.7418
#
#
#
# Elastic Compliance Matrix: (Units=1/GPa)
#
#
# Indices 1 2 3 4 5 6 
#
# 1 0.018030 0.000718 -0.005442 -0.001302 0.007084 0.003912
# 2 0.000718 0.010082 -0.009369 0.000182 -0.001179 -0.002579
# 3 -0.005442 -0.009369 0.027685 0.000945 0.007761 0.006405
# 4 -0.001302 0.000182 0.000945 0.024668 0.003064 -0.001589
# 5 0.007084 -0.001179 0.007761 0.003064 0.035127 0.011477
# 6 0.003912 -0.002579 0.006405 -0.001589 0.011477 0.042459
#
#
# Mechanical properties :
#
#
# Convention : Reuss Voigt Hill
#
# Bulk Modulus (GPa) = 36.21725 53.05343 44.63534
# Shear Modulus (GPa) = 25.58343 33.98554 29.78449
#
# Velocity S-wave (km/s) = 3.27179 3.77097 3.53022
# Velocity P-wave (km/s) = 5.42465 6.41552 5.94078
#
# Compressibility (1/GPa) = 0.02761115
#
# Stress axis : x y z
#
# Youngs Moduli (GPa) = 55.46401 99.18510 36.12109
#
# Poissons Ratio (x) = -0.07125 0.19658
# Poissons Ratio (y) = -0.03984 0.33841
# Poissons Ratio (z) = 0.30185 0.92924
#
# Static dielectric constant tensor:
#      x y z
#    x 2.023220 -0.067290 0.017840 
#    y -0.067290 1.931040 -0.017510 
#    z 0.017840 -0.017510 1.954630 
# 
# From -- ./inp_files/576716.got.cif
#   From: 2010.05.17/outbox.cif.g08.bks.cpg/sg2_289_cif.got.tgz:576716.got - 2010.06.03 11:33:40.
