data_PCOD9009359
_publ_section_title
;
Structure prediction by ZEFSAII (Michael W. Deem and Ramdas Pophale) SiO2 
 PCOD9009359
Probable space group: P -1
;
_chemical_formula_sum "Si O2"
_cell_formula_units_Z 14
_cell_length_a 11.290830
_cell_length_b 8.914154
_cell_length_c 8.807272
_cell_angle_alpha 50.209957
_cell_angle_beta 72.450354
_cell_angle_gamma 55.647190
_cell_volume 559.841466
_symmetry_space_group_name_H-M "P -1"
_symmetry_group_IT_number 2
_symmetry_cell_setting 'triclinic'
loop_
_space_group_symop_operation_xyz
x,y,z
-x,-y,-z
loop_
_atom_site_type_symbol
_atom_site_label
_atom_site_fract_x
_atom_site_fract_y
_atom_site_fract_z
Si Si1 0.342918 0.540360 0.388515
Si Si2 0.883693 0.027161 0.648511
Si Si3 0.495021 0.225973 0.918194
Si Si4 0.248286 0.180972 0.384359
Si Si5 0.619928 0.572370 0.890793
Si Si6 0.984904 0.629905 0.078871
Si Si7 0.718614 0.841123 0.271880
O O1 0.308179 0.554324 0.212881
O O2 0.365413 0.299035 0.587854
O O3 0.208492 0.722115 0.417616
O O4 0.459829 0.623279 0.296299
O O5 0.779118 0.960633 0.639986
O O6 0.959765 0.865468 0.868804
O O7 0.000000 0.000000 0.500000
O O8 0.353194 0.406022 0.951937
O O9 0.624963 0.086761 0.077232
O O10 0.500000 0.000000 0.000000
O O11 0.395801 0.184206 0.304302
O O12 0.233717 0.130076 0.596798
O O13 0.127145 0.443606 0.229570
O O14 0.500000 0.500000 0.000000
O O15 0.851302 0.697806 0.198408
O O16 0.000000 0.500000 0.000000
#
# Coordination Sequence:
#
# PCOD9009359 Si02
#       7
#     2   2   2   2   2   2   2
#     4  10  21  41  64  97 131 169 226 273 333 396
#     4  11  22  42  65 103 137 173 226 273 334 416
#     4  11  23  42  69  94 133 181 231 276 334 392
#     4  10  22  41  67  97 135 177 219 276 342 391
#     4   9  21  41  65  94 132 170 226 275 324 395
#     4  10  21  39  68  93 132 174 215 276 337 394
#     4  11  23  43  67  95 136 175 221 280 339 402
#
# _framework density 25.007079999999998
#
# number of rings (size 3 to 8) (size 9 to 14) (size 15 to 20)
#    0.000    1.714    1.429    3.000    2.000    4.000 
#    7.714    5.000    0.000    0.000    0.000    0.000 
#    0.000    0.000    0.000    0.000    0.000    0.000 
#
# Total GULP energy -77943.918742 kJ/mol
# GULP energy per Si atom -5567.422767 kJ/mol
# Density = 2.495016 g / cm^3
# Si number density = 25.007080 Si / 1000 Ang^3
#
#
#
# Elastic Constant Matrix: (Units=GPa)
#
#
# Indices 1 2 3 4 5 6 
#
# 1 57.1782 32.4679 30.0817 -2.6167 -5.0218 18.7138
# 2 32.4679 152.2268 36.4090 9.6338 -15.8502 12.2990
# 3 30.0817 36.4090 159.2532 -2.0685 -2.8174 -6.8285
# 4 -2.6167 9.6338 -2.0685 55.7811 -4.4279 -10.6123
# 5 -5.0218 -15.8502 -2.8174 -4.4279 46.9149 2.8264
# 6 18.7138 12.2990 -6.8285 -10.6123 2.8264 35.6528
#
#
#
# Elastic Compliance Matrix: (Units=1/GPa)
#
#
# Indices 1 2 3 4 5 6 
#
# 1 0.026671 -0.003050 -0.004928 -0.000954 0.002304 -0.014358
# 2 -0.003050 0.008068 -0.001344 -0.001817 0.002277 -0.002161
# 3 -0.004928 -0.001344 0.007732 0.001171 -0.000704 0.004936
# 4 -0.000954 -0.001817 0.001171 0.019660 0.000780 0.007142
# 5 0.002304 0.002277 -0.000704 0.000780 0.022585 -0.003688
# 6 -0.014358 -0.002161 0.004936 0.007142 -0.003688 0.039694
#
#
# Mechanical properties :
#
#
# Convention : Reuss Voigt Hill
#
# Bulk Modulus (GPa) = 41.96953 62.95281 52.46117
# Shear Modulus (GPa) = 33.11337 45.64973 39.38155
#
# Velocity S-wave (km/s) = 3.64285 4.27719 3.97270
# Velocity P-wave (km/s) = 5.87480 7.04423 6.48592
#
# Compressibility (1/GPa) = 0.02382681
#
# Stress axis : x y z
#
# Youngs Moduli (GPa) = 37.49330 123.94861 129.33397
#
# Poissons Ratio (x) = 0.37801 0.63736
# Poissons Ratio (y) = 0.11435 0.17388
# Poissons Ratio (z) = 0.18477 0.16664
#
# Static dielectric constant tensor:
#      x y z
#    x 2.515110 0.173880 0.027000 
#    y 0.173880 2.685680 0.175520 
#    z 0.027000 0.175520 2.031490 
# 
# From -- ./inp_files/188143.got.cif
#   From: 2010.05.17/outbox.cif.g08.bks.cpg/sg2_95_cif.got.tgz:188143.got - 2010.06.03 11:33:40.
