data_PCOD9009854
_publ_section_title
;
Structure prediction by ZEFSAII (Michael W. Deem and Ramdas Pophale) SiO2 
 PCOD9009854
Probable space group: P -1
;
_chemical_formula_sum "Si O2"
_cell_formula_units_Z 14
_cell_length_a 7.745653
_cell_length_b 21.517027
_cell_length_c 6.231013
_cell_angle_alpha 123.600752
_cell_angle_beta 119.009888
_cell_angle_gamma 49.594299
_cell_volume 645.468737
_symmetry_space_group_name_H-M "P -1"
_symmetry_group_IT_number 2
_symmetry_cell_setting 'triclinic'
loop_
_space_group_symop_operation_xyz
x,y,z
-x,-y,-z
loop_
_atom_site_type_symbol
_atom_site_label
_atom_site_fract_x
_atom_site_fract_y
_atom_site_fract_z
Si Si1 0.856353 0.136592 0.016612
Si Si2 0.988975 0.387716 0.209896
Si Si3 0.642034 0.709566 0.130864
Si Si4 0.862458 0.770841 0.743809
Si Si5 0.871381 0.972300 0.648620
Si Si6 0.812938 0.547132 0.167345
Si Si7 0.561525 0.934231 0.107498
O O1 0.017875 0.175834 0.148058
O O2 0.914066 0.101518 0.228758
O O3 0.599164 0.211001 0.943611
O O4 0.914426 0.049218 0.753240
O O5 0.964354 0.313476 0.170494
O O6 0.077713 0.423036 0.523434
O O7 0.786396 0.471816 0.121850
O O8 0.191585 0.338109 0.061967
O O9 0.769409 0.743017 0.430606
O O10 0.617518 0.636653 0.110463
O O11 0.643293 0.838805 0.885121
O O12 0.777493 0.929994 0.348669
O O13 0.653592 0.024537 0.782290
O O14 0.000000 0.500000 0.000000
O O15 0.500000 0.000000 0.000000
#
# Coordination Sequence:
#
# PCOD9009854 Si02
#       7
#     2   2   2   2   2   2   2
#     4  11  23  41  56  88 122 156 200 249 296 351
#     4   9  18  36  63  90 118 157 195 237 296 351
#     4  10  21  40  60  88 125 154 194 245 295 356
#     4  11  23  37  60  89 118 158 200 250 292 350
#     4  10  24  41  58  82 121 159 201 253 296 351
#     4   8  16  35  65  91 116 156 195 234 292 356
#     4  11  21  41  63  82 114 160 205 249 300 344
#
# _framework density 21.689661999999998
#
# number of rings (size 3 to 8) (size 9 to 14) (size 15 to 20)
#    0.000    2.000    1.429    1.714    4.000    0.571 
#   10.286    0.714    0.000   29.143    0.000    0.000 
#    0.000    0.000    0.000    0.000    0.000    0.000 
#
# Total GULP energy -78115.357944 kJ/mol
# GULP energy per Si atom -5579.668425 kJ/mol
# Density = 2.164030 g / cm^3
# Si number density = 21.689662 Si / 1000 Ang^3
#
#
#
# Elastic Constant Matrix: (Units=GPa)
#
#
# Indices 1 2 3 4 5 6 
#
# 1 60.6958 38.2131 28.3389 -2.4453 6.2988 3.3005
# 2 38.2131 190.6059 44.4169 -12.9581 13.9876 19.6970
# 3 28.3389 44.4169 133.6944 1.1770 -14.7382 -14.8506
# 4 -2.4453 -12.9581 1.1770 32.3750 -10.9507 3.6348
# 5 6.2988 13.9876 -14.7382 -10.9507 23.7514 0.5668
# 6 3.3005 19.6970 -14.8506 3.6348 0.5668 17.3251
#
#
#
# Elastic Compliance Matrix: (Units=1/GPa)
#
#
# Indices 1 2 3 4 5 6 
#
# 1 0.021365 -0.001797 -0.005544 -0.001030 -0.008373 -0.006290
# 2 -0.001797 0.008876 -0.004849 0.003198 -0.005942 -0.014382
# 3 -0.005544 -0.004849 0.013589 -0.000835 0.011944 0.018002
# 4 -0.001030 0.003198 -0.000835 0.039038 0.016178 -0.012875
# 5 -0.008373 -0.005942 0.011944 0.016178 0.062379 0.013154
# 6 -0.006290 -0.014382 0.018002 -0.012875 0.013154 0.092970
#
#
# Mechanical properties :
#
#
# Convention : Reuss Voigt Hill
#
# Bulk Modulus (GPa) = 51.41175 67.43712 59.42444
# Shear Modulus (GPa) = 18.58172 32.95876 25.77024
#
# Velocity S-wave (km/s) = 2.93013 3.90238 3.45067
# Velocity P-wave (km/s) = 5.93316 7.17385 6.58280
#
# Compressibility (1/GPa) = 0.01945081
#
# Stress axis : x y z
#
# Youngs Moduli (GPa) = 46.80559 112.65988 73.58631
#
# Poissons Ratio (x) = 0.20244 0.40798
# Poissons Ratio (y) = 0.08411 0.35680
# Poissons Ratio (z) = 0.25950 0.54626
#
# Static dielectric constant tensor:
#      x y z
#    x 1.812290 0.035710 -0.014040 
#    y 0.035710 1.851260 0.004590 
#    z -0.014040 0.004590 1.776360 
# 
# From -- ./inp_files/46501.got.cif
#   From: 2010.05.17/outbox.cif.g08.bks.cpg/sg2_24_cif.got.tgz:46501.got - 2010.06.03 11:33:40.
