data_PCOD9009402
_publ_section_title
;
Structure prediction by ZEFSAII (Michael W. Deem and Ramdas Pophale) SiO2 
 PCOD9009402
Probable space group: P -1
;
_chemical_formula_sum "Si O2"
_cell_formula_units_Z 16
_cell_length_a 11.856300
_cell_length_b 11.623926
_cell_length_c 5.752026
_cell_angle_alpha 64.885228
_cell_angle_beta 86.994622
_cell_angle_gamma 96.187520
_cell_volume 709.342661
_symmetry_space_group_name_H-M "P -1"
_symmetry_group_IT_number 2
_symmetry_cell_setting 'triclinic'
loop_
_space_group_symop_operation_xyz
x,y,z
-x,-y,-z
loop_
_atom_site_type_symbol
_atom_site_label
_atom_site_fract_x
_atom_site_fract_y
_atom_site_fract_z
Si Si1 0.151395 0.822950 0.991524
Si Si2 0.519802 0.577605 0.181632
Si Si3 0.039551 0.178903 0.678601
Si Si4 0.446775 0.069310 0.657165
Si Si5 0.022760 0.357582 0.138866
Si Si6 0.215740 0.057990 0.490340
Si Si7 0.385972 0.798403 0.148252
Si Si8 0.771523 0.737585 0.035552
O O1 0.060391 0.716988 0.977107
O O2 0.205654 0.910626 0.695281
O O3 0.250108 0.771722 0.171382
O O4 0.069609 0.891955 0.110545
O O5 0.500000 0.500000 0.500000
O O6 0.438273 0.689388 0.094842
O O7 0.500000 0.500000 0.000000
O O8 0.648443 0.653819 0.126912
O O9 0.995268 0.294098 0.445847
O O10 0.095541 0.094905 0.556483
O O11 0.147766 0.237770 0.770960
O O12 0.329639 0.120988 0.560534
O O13 0.541145 0.183024 0.639326
O O14 0.500000 0.000000 0.500000
O O15 0.410259 0.946503 0.931764
O O16 0.151315 0.333962 0.087146
O O17 0.000000 0.500000 0.000000
O O18 0.237530 0.118915 0.182961
#
# Coordination Sequence:
#
# PCOD9009402 Si02
#       8
#     2   2   2   2   2   2   2   2
#     4  10  23  40  63 104 133 183 232 294 356 429
#     4  12  30  47  75 106 146 195 249 305 362 443
#     4  10  22  40  66  94 137 178 232 292 361 421
#     4  10  21  39  69  97 139 183 229 300 366 430
#     4  10  24  41  66  91 135 181 232 289 350 421
#     4  10  21  39  68  96 138 174 231 289 361 429
#     4  10  24  42  64 102 138 182 240 293 362 429
#     4  10  24  43  67  95 131 182 232 293 353 425
#
# _framework density 22.556096
#
# number of rings (size 3 to 8) (size 9 to 14) (size 15 to 20)
#    0.000    1.750    0.000    1.875    8.750   12.500 
#    0.000    0.000    0.000    0.000    0.000    0.000 
#    0.000    0.000    0.000    0.000    0.000    0.000 
#
# Total GULP energy -89201.142426 kJ/mol
# GULP energy per Si atom -5575.071402 kJ/mol
# Density = 2.250476 g / cm^3
# Si number density = 22.556096 Si / 1000 Ang^3
#
#
#
# Elastic Constant Matrix: (Units=GPa)
#
#
# Indices 1 2 3 4 5 6 
#
# 1 180.9141 51.6835 34.4691 2.7582 -0.0262 18.2095
# 2 51.6835 81.0925 16.8247 10.9389 7.0012 7.2564
# 3 34.4691 16.8247 63.6011 1.5954 1.7856 7.7791
# 4 2.7582 10.9389 1.5954 25.7951 -0.4640 5.2307
# 5 -0.0262 7.0012 1.7856 -0.4640 35.1920 -5.4878
# 6 18.2095 7.2564 7.7791 5.2307 -5.4878 33.2183
#
#
#
# Elastic Compliance Matrix: (Units=1/GPa)
#
#
# Indices 1 2 3 4 5 6 
#
# 1 0.007503 -0.004270 -0.002663 0.001738 0.000587 -0.002734
# 2 -0.004270 0.016621 -0.001775 -0.006459 -0.003369 -0.000414
# 3 -0.002663 -0.001775 0.017968 0.000434 -0.000958 -0.002587
# 4 0.001738 -0.006459 0.000434 0.042567 0.000858 -0.006204
# 5 0.000587 -0.003369 -0.000958 0.000858 0.029998 0.005459
# 6 -0.002734 -0.000414 -0.002587 -0.006204 0.005459 0.034177
#
#
# Mechanical properties :
#
#
# Convention : Reuss Voigt Hill
#
# Bulk Modulus (GPa) = 40.52539 59.06247 49.79393
# Shear Modulus (GPa) = 28.65729 33.68312 31.17021
#
# Velocity S-wave (km/s) = 3.56826 3.86852 3.72142
# Velocity P-wave (km/s) = 5.91457 6.79673 6.37094
#
# Compressibility (1/GPa) = 0.02467589
#
# Stress axis : x y z
#
# Youngs Moduli (GPa) = 133.27169 60.16585 55.65430
#
# Poissons Ratio (x) = 0.25693 0.14819
# Poissons Ratio (y) = 0.56912 0.09880
# Poissons Ratio (z) = 0.35485 0.10681
#
# Static dielectric constant tensor:
#      x y z
#    x 1.860660 -0.027690 0.007150 
#    y -0.027690 1.863670 0.069200 
#    z 0.007150 0.069200 1.993200 
# 
# From -- ./inp_files/68593.got.cif
#   From: 2010.05.17/outbox.cif.g08.bks.cpg/sg2_35_cif.got.tgz:68593.got - 2010.06.03 11:33:40.
