data_PCOD9009167
_publ_section_title
;
Structure prediction by ZEFSAII (Michael W. Deem and Ramdas Pophale) SiO2 
 PCOD9009167
Probable space group: P -1
;
_chemical_formula_sum "Si O2"
_cell_formula_units_Z 16
_cell_length_a 5.668897
_cell_length_b 12.772854
_cell_length_c 12.200218
_cell_angle_alpha 86.262215
_cell_angle_beta 132.753375
_cell_angle_gamma 81.644471
_cell_volume 625.242146
_symmetry_space_group_name_H-M "P -1"
_symmetry_group_IT_number 2
_symmetry_cell_setting 'triclinic'
loop_
_space_group_symop_operation_xyz
x,y,z
-x,-y,-z
loop_
_atom_site_type_symbol
_atom_site_label
_atom_site_fract_x
_atom_site_fract_y
_atom_site_fract_z
Si Si1 0.000614 0.678296 0.022978
Si Si2 0.135187 0.361748 0.472637
Si Si3 0.028794 0.958215 0.189462
Si Si4 0.741538 0.061810 0.505873
Si Si5 0.462013 0.500573 0.307247
Si Si6 0.452071 0.201498 0.758379
Si Si7 0.748274 0.717470 0.710311
Si Si8 0.510688 0.841461 0.976223
O O1 0.004584 0.691614 0.893226
O O2 0.630296 0.741137 0.939476
O O3 0.154073 0.561045 0.130734
O O4 0.239533 0.742834 0.150741
O O5 0.441795 0.418347 0.579405
O O6 0.168427 0.283061 0.594158
O O7 0.126523 0.284118 0.373670
O O8 0.808722 0.461148 0.353421
O O9 0.066525 0.909421 0.328039
O O10 0.379248 0.912983 0.241023
O O11 0.867464 0.086376 0.148753
O O12 0.747603 0.924120 0.028913
O O13 0.521367 0.168816 0.370805
O O14 0.500000 0.000000 0.500000
O O15 0.000000 0.000000 0.500000
O O16 0.397736 0.388101 0.331171
O O17 0.396453 0.199002 0.869227
#
# Coordination Sequence:
#
# PCOD9009167 Si02
#       8
#     2   2   2   2   2   2   2   2
#     4  10  24  42  61 104 132 185 232 294 360 437
#     4  10  23  42  67 105 131 179 238 295 366 432
#     4  10  22  41  64 100 128 188 241 295 363 423
#     4  12  30  47  73 109 155 195 246 304 372 450
#     4  10  24  43  68  98 138 180 244 294 361 437
#     4  10  21  39  67  93 135 177 237 294 354 433
#     4  12  25  43  73  95 147 185 232 302 368 439
#     4  10  22  39  69  91 137 178 243 297 357 430
#
# _framework density 25.590084999999998
#
# number of rings (size 3 to 8) (size 9 to 14) (size 15 to 20)
#    0.000    1.500    1.250    1.875    7.000    4.500 
#    0.000    0.000    0.000    0.000    0.000    0.000 
#    0.000    0.000    0.000    0.000    0.000    0.000 
#
# Total GULP energy -89354.004801 kJ/mol
# GULP energy per Si atom -5584.625300 kJ/mol
# Density = 2.553184 g / cm^3
# Si number density = 25.590085 Si / 1000 Ang^3
#
#
#
# Elastic Constant Matrix: (Units=GPa)
#
#
# Indices 1 2 3 4 5 6 
#
# 1 42.7508 22.8832 25.4264 1.4387 -10.0828 -6.9944
# 2 22.8832 76.4157 57.3103 -28.0207 11.2600 -13.0280
# 3 25.4264 57.3103 140.4491 -19.2481 -9.7646 -13.9458
# 4 1.4387 -28.0207 -19.2481 41.5214 8.6641 -5.2843
# 5 -10.0828 11.2600 -9.7646 8.6641 35.1440 5.0249
# 6 -6.9944 -13.0280 -13.9458 -5.2843 5.0249 39.1927
#
#
#
# Elastic Compliance Matrix: (Units=1/GPa)
#
#
# Indices 1 2 3 4 5 6 
#
# 1 0.049811 -0.037547 0.002901 -0.035085 0.037506 -0.012098
# 2 -0.037547 0.066829 -0.014334 0.053921 -0.052959 0.024473
# 3 0.002901 -0.014334 0.012048 -0.006718 0.010749 -0.002244
# 4 -0.035085 0.053921 -0.006718 0.072405 -0.050710 0.025536
# 5 0.037506 -0.052959 0.010749 -0.050710 0.075037 -0.023543
# 6 -0.012098 0.024473 -0.002244 0.025536 -0.023543 0.037154
#
#
# Mechanical properties :
#
#
# Convention : Reuss Voigt Hill
#
# Bulk Modulus (GPa) = 32.54415 52.31727 42.43071
# Shear Modulus (GPa) = 11.86280 33.43798 22.65039
#
# Velocity S-wave (km/s) = 2.15540 3.61872 2.97833
# Velocity P-wave (km/s) = 4.35195 6.16027 5.33331
#
# Compressibility (1/GPa) = 0.03072749
#
# Stress axis : x y z
#
# Youngs Moduli (GPa) = 20.07601 14.96366 83.00297
#
# Poissons Ratio (x) = 0.56184 -0.24082
# Poissons Ratio (y) = 0.75379 1.18979
# Poissons Ratio (z) = -0.05825 0.21449
#
# Static dielectric constant tensor:
#      x y z
#    x 2.123640 0.035140 0.067110 
#    y 0.035140 2.133450 0.028560 
#    z 0.067110 0.028560 1.970610 
# 
# From -- ./inp_files/367744.got.cif
#   From: 2010.05.17/outbox.cif.g08.bks.cpg/sg2_184_cif.got.tgz:367744.got - 2010.06.03 11:33:40.
