data_PCOD9009078
_publ_section_title
;
Structure prediction by ZEFSAII (Michael W. Deem and Ramdas Pophale) SiO2 
 PCOD9009078
Probable space group: P -1
;
_chemical_formula_sum "Si O2"
_cell_formula_units_Z 14
_cell_length_a 25.970840
_cell_length_b 7.967597
_cell_length_c 10.902393
_cell_angle_alpha 57.909812
_cell_angle_beta 150.615713
_cell_angle_gamma 140.595697
_cell_volume 625.364036
_symmetry_space_group_name_H-M "P -1"
_symmetry_group_IT_number 2
_symmetry_cell_setting 'triclinic'
loop_
_space_group_symop_operation_xyz
x,y,z
-x,-y,-z
loop_
_atom_site_type_symbol
_atom_site_label
_atom_site_fract_x
_atom_site_fract_y
_atom_site_fract_z
Si Si1 0.507183 0.281554 0.333965
Si Si2 0.186869 0.775074 0.940154
Si Si3 0.821106 0.711087 0.700832
Si Si4 0.875807 0.146972 0.479322
Si Si5 0.837048 0.284791 0.816027
Si Si6 0.519033 0.745708 0.228206
Si Si7 0.385144 0.951120 0.951110
O O1 0.695993 0.549101 0.614761
O O2 0.465048 0.444739 0.226148
O O3 0.466594 0.163947 0.155524
O O4 0.370997 0.968833 0.244710
O O5 0.154825 0.877147 0.719863
O O6 0.060489 0.424561 0.784474
O O7 0.153066 0.800540 0.996492
O O8 0.806468 0.473911 0.704739
O O9 0.795246 0.846836 0.493303
O O10 0.000000 0.000000 0.000000
O O11 0.793663 0.225489 0.338646
O O12 0.690800 0.996849 0.548867
O O13 0.000000 0.500000 0.000000
O O14 0.411161 0.752476 0.073698
O O15 0.539541 0.852039 0.090985
#
# Coordination Sequence:
#
# PCOD9009078 Si02
#       7
#     2   2   2   2   2   2   2
#     4  11  23  43  70 100 141 179 232 285 338 420
#     4  10  24  43  68 100 144 180 224 290 359 390
#     4  12  23  43  75 102 130 187 235 272 348 413
#     4  10  21  44  69 103 134 181 235 285 335 422
#     4  12  25  45  66 102 142 183 232 292 342 419
#     4  11  22  37  66 103 135 179 229 278 343 403
#     4  10  21  39  67 100 137 177 230 282 336 407
#
# _framework density 22.386959999999998
#
# number of rings (size 3 to 8) (size 9 to 14) (size 15 to 20)
#    0.000    1.143    4.286    2.143    2.000    1.143 
#    0.000    5.714    0.000    0.000    0.000    0.000 
#    0.000    0.000    0.000    0.000    0.000    0.000 
#
# Total GULP energy -78172.130492 kJ/mol
# GULP energy per Si atom -5583.723607 kJ/mol
# Density = 2.233601 g / cm^3
# Si number density = 22.386960 Si / 1000 Ang^3
#
#
#
# Elastic Constant Matrix: (Units=GPa)
#
#
# Indices 1 2 3 4 5 6 
#
# 1 111.0402 39.6945 41.3440 1.0825 7.6259 -2.4884
# 2 39.6945 98.7485 31.3041 12.3360 21.5288 -3.6332
# 3 41.3440 31.3041 89.4580 20.2767 24.6982 3.6676
# 4 1.0825 12.3360 20.2767 39.4316 0.9675 1.6945
# 5 7.6259 21.5288 24.6982 0.9675 38.9979 3.3822
# 6 -2.4884 -3.6332 3.6676 1.6945 3.3822 47.2103
#
#
#
# Elastic Compliance Matrix: (Units=1/GPa)
#
#
# Indices 1 2 3 4 5 6 
#
# 1 0.012643 -0.004422 -0.006315 0.004173 0.003831 0.000392
# 2 -0.004422 0.013990 -0.000100 -0.004101 -0.006823 0.001487
# 3 -0.006315 -0.000100 0.019210 -0.009382 -0.010579 -0.000738
# 4 0.004173 -0.004101 -0.009382 0.031230 0.006699 -0.000968
# 5 0.003831 -0.006823 -0.010579 0.006699 0.035391 -0.002277
# 6 0.000392 0.001487 -0.000738 -0.000968 -0.002277 0.021572
#
#
# Mechanical properties :
#
#
# Convention : Reuss Voigt Hill
#
# Bulk Modulus (GPa) = 41.37616 58.21465 49.79541
# Shear Modulus (GPa) = 30.53112 37.58825 34.05968
#
# Velocity S-wave (km/s) = 3.69696 4.10204 3.90475
# Velocity P-wave (km/s) = 6.06183 6.96390 6.52846
#
# Compressibility (1/GPa) = 0.02416851
#
# Stress axis : x y z
#
# Youngs Moduli (GPa) = 79.09505 71.47730 52.05734
#
# Poissons Ratio (x) = 0.31609 0.32876
# Poissons Ratio (y) = 0.34978 0.00519
# Poissons Ratio (z) = 0.49951 0.00713
#
# Static dielectric constant tensor:
#      x y z
#    x 1.801730 0.026270 0.024450 
#    y 0.026270 1.842920 -0.015510 
#    z 0.024450 -0.015510 1.941620 
# 
# From -- ./inp_files/476224.got.cif
#   From: 2010.05.17/outbox.cif.g08.bks.cpg/sg2_239_cif.got.tgz:476224.got - 2010.06.03 11:33:40.
