data_PCOD9009997
_publ_section_title
;
Structure prediction by ZEFSAII (Michael W. Deem and Ramdas Pophale) SiO2 
 PCOD9009997
Probable space group: P -1
;
_chemical_formula_sum "Si O2"
_cell_formula_units_Z 14
_cell_length_a 7.248240
_cell_length_b 20.569285
_cell_length_c 10.947990
_cell_angle_alpha 147.424765
_cell_angle_beta 140.153907
_cell_angle_gamma 36.683867
_cell_volume 503.076757
_symmetry_space_group_name_H-M "P -1"
_symmetry_group_IT_number 2
_symmetry_cell_setting 'triclinic'
loop_
_space_group_symop_operation_xyz
x,y,z
-x,-y,-z
loop_
_atom_site_type_symbol
_atom_site_label
_atom_site_fract_x
_atom_site_fract_y
_atom_site_fract_z
Si Si1 0.931362 0.591014 0.992788
Si Si2 0.222778 0.120046 0.914328
Si Si3 0.247085 0.191595 0.299545
Si Si4 0.105087 0.085746 0.279935
Si Si5 0.839164 0.882393 0.382256
Si Si6 0.400312 0.440976 0.717624
Si Si7 0.673079 0.635324 0.690492
O O1 0.800324 0.751059 0.197286
O O2 0.292111 0.547277 0.055567
O O3 0.696742 0.583968 0.758394
O O4 0.000000 0.500000 0.000000
O O5 0.010974 0.142964 0.719178
O O6 0.456854 0.960506 0.789904
O O7 0.073707 0.180981 0.067664
O O8 0.417939 0.206410 0.114207
O O9 0.061585 0.208013 0.360062
O O10 0.347064 0.312455 0.530456
O O11 0.985631 0.097224 0.377396
O O12 0.490372 0.005556 0.376404
O O13 0.000000 0.000000 0.000000
O O14 0.493405 0.406823 0.566675
O O15 0.053154 0.567632 0.739751
#
# Coordination Sequence:
#
# PCOD9009997 Si02
#       7
#     2   2   2   2   2   2   2
#     4  11  24  40  61  88 124 167 205 248 307 369
#     4   8  16  36  59  85 121 150 200 255 293 372
#     4   9  18  34  63  90 116 157 209 246 308 368
#     4  10  21  40  61  89 127 163 195 256 315 369
#     4   9  21  40  57  89 127 155 208 249 305 372
#     4  10  21  40  63  87 123 159 205 264 298 361
#     4   9  20  40  61  89 121 156 211 250 308 364
#
# _framework density 27.828758000000001
#
# number of rings (size 3 to 8) (size 9 to 14) (size 15 to 20)
#    0.000    2.571    0.000    0.429    2.000    7.429 
#    7.714   17.143    0.000    0.000    0.000    0.000 
#    0.000    0.000    0.000    0.000    0.000    0.000 
#
# Total GULP energy -78186.497645 kJ/mol
# GULP energy per Si atom -5584.749832 kJ/mol
# Density = 2.776542 g / cm^3
# Si number density = 27.828758 Si / 1000 Ang^3
#
#
#
# Elastic Constant Matrix: (Units=GPa)
#
#
# Indices 1 2 3 4 5 6 
#
# 1 94.5713 39.6614 24.4544 -5.3150 -8.5944 38.3527
# 2 39.6614 160.0433 42.1812 -8.0238 -8.3099 33.9198
# 3 24.4544 42.1812 60.0440 -22.8419 9.5754 14.5284
# 4 -5.3150 -8.0238 -22.8419 68.5042 15.7648 -15.3694
# 5 -8.5944 -8.3099 9.5754 15.7648 39.2059 -1.1438
# 6 38.3527 33.9198 14.5284 -15.3694 -1.1438 65.6119
#
#
#
# Elastic Compliance Matrix: (Units=1/GPa)
#
#
# Indices 1 2 3 4 5 6 
#
# 1 0.016583 -0.000096 -0.007512 -0.004896 0.007156 -0.009003
# 2 -0.000096 0.009160 -0.007630 -0.003480 0.005075 -0.003717
# 3 -0.007512 -0.007630 0.032002 0.013956 -0.016568 0.004230
# 4 -0.004896 -0.003480 0.013956 0.023295 -0.014389 0.006777
# 5 0.007156 0.005075 -0.016568 -0.014389 0.037812 -0.005849
# 6 -0.009003 -0.003717 0.004230 0.006777 -0.005849 0.022974
#
#
# Mechanical properties :
#
#
# Convention : Reuss Voigt Hill
#
# Bulk Modulus (GPa) = 36.67104 58.58362 47.62733
# Shear Modulus (GPa) = 27.56495 48.55516 38.06006
#
# Velocity S-wave (km/s) = 3.15067 4.18159 3.70219
# Velocity P-wave (km/s) = 5.14214 6.66419 5.95202
#
# Compressibility (1/GPa) = 0.02726947
#
# Stress axis : x y z
#
# Youngs Moduli (GPa) = 60.30437 109.17406 31.24836
#
# Poissons Ratio (x) = 0.01043 0.23473
# Poissons Ratio (y) = 0.00576 0.23842
# Poissons Ratio (z) = 0.45300 0.83298
#
# Static dielectric constant tensor:
#      x y z
#    x 2.518030 -0.039090 -0.070660 
#    y -0.039090 2.115260 0.001390 
#    z -0.070660 0.001390 2.235870 
# 
# From -- ./inp_files/395689.got.cif
#   From: 2010.05.17/outbox.cif.g08.bks.cpg/sg2_198_cif.got.tgz:395689.got - 2010.06.03 11:33:40.
