data_PCOD9009283
_publ_section_title
;
Structure prediction by ZEFSAII (Michael W. Deem and Ramdas Pophale) SiO2 
 PCOD9009283
Probable space group: P -1
;
_chemical_formula_sum "Si O2"
_cell_formula_units_Z 14
_cell_length_a 15.478301
_cell_length_b 11.866123
_cell_length_c 8.959003
_cell_angle_alpha 148.902676
_cell_angle_beta 65.527228
_cell_angle_gamma 128.978054
_cell_volume 628.192138
_symmetry_space_group_name_H-M "P -1"
_symmetry_group_IT_number 2
_symmetry_cell_setting 'triclinic'
loop_
_space_group_symop_operation_xyz
x,y,z
-x,-y,-z
loop_
_atom_site_type_symbol
_atom_site_label
_atom_site_fract_x
_atom_site_fract_y
_atom_site_fract_z
Si Si1 0.752614 0.989089 0.379662
Si Si2 0.373006 0.751704 0.263075
Si Si3 0.629170 0.494871 0.725344
Si Si4 0.705915 0.705247 0.405067
Si Si5 0.584154 0.940944 0.792608
Si Si6 0.005937 0.736378 0.656547
Si Si7 0.786405 0.530096 0.385704
O O1 0.754173 0.882380 0.421114
O O2 0.718333 0.190893 0.654425
O O3 0.649981 0.757896 0.081468
O O4 0.871801 0.118630 0.352452
O O5 0.323812 0.586637 0.264316
O O6 0.500000 0.000000 0.500000
O O7 0.379834 0.590110 0.940064
O O8 0.496134 0.249881 0.504378
O O9 0.708642 0.550691 0.589679
O O10 0.627937 0.767925 0.628485
O O11 0.802881 0.724980 0.461597
O O12 0.500000 0.000000 0.000000
O O13 0.704867 0.233782 0.039026
O O14 0.897362 0.577504 0.440594
O O15 0.000000 0.500000 0.500000
O O16 0.000000 0.000000 0.000000
#
# Coordination Sequence:
#
# PCOD9009283 Si02
#       7
#     2   2   2   2   2   2   2
#     4  11  24  43  71 103 144 191 245 303 366 438
#     4  11  22  40  66 100 145 190 239 302 366 442
#     4  10  21  39  67  99 139 185 245 292 367 430
#     4  11  24  41  65 102 147 182 245 299 379 433
#     4  10  23  41  65 103 144 192 237 302 369 438
#     4  12  28  51  80 109 144 195 255 311 368 443
#     4  11  24  43  69 103 142 188 242 309 366 443
#
# _framework density 22.286173999999999
#
# number of rings (size 3 to 8) (size 9 to 14) (size 15 to 20)
#    0.000    1.143    1.429    4.286    4.000    7.429 
#    0.000    2.857    0.000    0.000    0.000    0.000 
#    0.000    0.000    0.000    0.000    0.000    0.000 
#
# Total GULP energy -77947.511965 kJ/mol
# GULP energy per Si atom -5567.679426 kJ/mol
# Density = 2.223545 g / cm^3
# Si number density = 22.286174 Si / 1000 Ang^3
#
#
#
# Elastic Constant Matrix: (Units=GPa)
#
#
# Indices 1 2 3 4 5 6 
#
# 1 173.7353 46.8790 52.1912 8.5569 -3.9713 -14.5669
# 2 46.8790 62.5653 37.9629 -1.1204 -3.2232 0.3457
# 3 52.1912 37.9629 114.8893 -6.4997 -15.2973 0.6615
# 4 8.5569 -1.1204 -6.4997 23.0882 5.0413 -1.2976
# 5 -3.9713 -3.2232 -15.2973 5.0413 41.1121 -4.1646
# 6 -14.5669 0.3457 0.6615 -1.2976 -4.1646 34.9367
#
#
#
# Elastic Compliance Matrix: (Units=1/GPa)
#
#
# Indices 1 2 3 4 5 6 
#
# 1 0.008246 -0.004829 -0.002339 -0.003836 0.000366 0.003432
# 2 -0.004829 0.022867 -0.005411 0.001490 -0.001094 -0.002212
# 3 -0.002339 -0.005411 0.012198 0.003255 0.003426 -0.000623
# 4 -0.003836 0.001490 0.003255 0.046748 -0.004827 -0.000515
# 5 0.000366 -0.001094 0.003426 -0.004827 0.026451 0.003072
# 6 0.003432 -0.002212 -0.000623 -0.000515 0.003072 0.030435
#
#
# Mechanical properties :
#
#
# Convention : Reuss Voigt Hill
#
# Bulk Modulus (GPa) = 55.08069 69.47292 62.27681
# Shear Modulus (GPa) = 28.06560 34.10450 31.08505
#
# Velocity S-wave (km/s) = 3.55255 3.91615 3.73877
# Velocity P-wave (km/s) = 6.44952 7.18951 6.82955
#
# Compressibility (1/GPa) = 0.01815518
#
# Stress axis : x y z
#
# Youngs Moduli (GPa) = 121.26592 43.73088 81.97826
#
# Poissons Ratio (x) = 0.21116 0.19172
# Poissons Ratio (y) = 0.58555 0.44359
# Poissons Ratio (z) = 0.28360 0.23663
#
# Static dielectric constant tensor:
#      x y z
#    x 1.847820 -0.094300 -0.061420 
#    y -0.094300 1.919630 0.056510 
#    z -0.061420 0.056510 1.916020 
# 
# From -- ./inp_files/70935.got.cif
#   From: 2010.05.17/outbox.cif.g08.bks.cpg/sg2_36_cif.got.tgz:70935.got - 2010.06.03 11:33:40.
