data_PCOD9009404
_publ_section_title
;
Structure prediction by ZEFSAII (Michael W. Deem and Ramdas Pophale) SiO2 
 PCOD9009404
Probable space group: P -1
;
_chemical_formula_sum "Si O2"
_cell_formula_units_Z 16
_cell_length_a 27.329147
_cell_length_b 5.533053
_cell_length_c 17.670148
_cell_angle_alpha 114.669453
_cell_angle_beta 16.972736
_cell_angle_gamma 106.324410
_cell_volume 634.647052
_symmetry_space_group_name_H-M "P -1"
_symmetry_group_IT_number 2
_symmetry_cell_setting 'triclinic'
loop_
_space_group_symop_operation_xyz
x,y,z
-x,-y,-z
loop_
_atom_site_type_symbol
_atom_site_label
_atom_site_fract_x
_atom_site_fract_y
_atom_site_fract_z
Si Si1 0.333114 0.592703 0.088461
Si Si2 0.620183 0.874167 0.454751
Si Si3 0.238490 0.349035 0.058461
Si Si4 0.284415 0.404698 0.484238
Si Si5 0.981572 0.930681 0.741439
Si Si6 0.326369 0.498423 0.800505
Si Si7 0.380281 0.745867 0.270961
Si Si8 0.184611 0.731032 0.815297
O O1 0.204077 0.558004 0.209016
O O2 0.495733 0.680137 0.832425
O O3 0.464834 0.288439 0.897890
O O4 0.194604 0.808760 0.384307
O O5 0.670623 0.789584 0.280891
O O6 0.710312 0.577590 0.332514
O O7 0.395888 0.033734 0.813432
O O8 0.701815 0.109920 0.373737
O O9 0.346276 0.459761 0.854201
O O10 0.088946 0.303838 0.220634
O O11 0.254856 0.608941 0.480493
O O12 0.139020 0.601208 0.788854
O O13 0.284087 0.087688 0.433551
O O14 0.860260 0.222954 0.910556
O O15 0.937958 0.039088 0.907221
O O16 0.500000 0.500000 0.500000
O O17 0.500000 0.500000 0.000000
#
# Coordination Sequence:
#
# PCOD9009404 Si02
#       8
#     2   2   2   2   2   2   2   2
#     4  10  25  37  59  92 125 161 204 257 308 364
#     4  11  20  33  55  81 110 167 213 252 281 333
#     4  12  20  36  54  81 127 171 216 245 293 353
#     4  10  21  39  68  97 119 153 202 253 302 371
#     4  11  24  37  53  86 130 176 203 248 301 348
#     4  11  22  32  52  77 113 167 219 253 288 339
#     4  10  22  44  73  96 118 150 199 257 319 375
#     4  11  21  38  60  86 123 160 214 248 292 349
#
# _framework density 25.210861999999999
#
# number of rings (size 3 to 8) (size 9 to 14) (size 15 to 20)
#    0.750    0.500    3.750    4.125    0.000    2.500 
#    0.000    0.000    0.000    1.500    0.000    0.000 
#    0.000    0.000    0.000    0.000    0.000    0.000 
#
# Total GULP energy -89167.003788 kJ/mol
# GULP energy per Si atom -5572.937737 kJ/mol
# Density = 2.515348 g / cm^3
# Si number density = 25.210862 Si / 1000 Ang^3
#
#
#
# Elastic Constant Matrix: (Units=GPa)
#
#
# Indices 1 2 3 4 5 6 
#
# 1 93.0723 46.3356 39.2971 -1.1860 26.4596 -1.2398
# 2 46.3356 145.9652 49.3659 5.2269 16.7376 6.2357
# 3 39.2971 49.3659 97.8830 -6.3522 25.0581 8.2493
# 4 -1.1860 5.2269 -6.3522 22.0141 -0.3230 -4.2403
# 5 26.4596 16.7376 25.0581 -0.3230 51.0491 1.1793
# 6 -1.2398 6.2357 8.2493 -4.2403 1.1793 35.8604
#
#
#
# Elastic Compliance Matrix: (Units=1/GPa)
#
#
# Indices 1 2 3 4 5 6 
#
# 1 0.015295 -0.003277 -0.003246 0.000999 -0.005303 0.002138
# 2 -0.003277 0.009240 -0.003580 -0.003656 0.000434 -0.001343
# 3 -0.003246 -0.003580 0.014930 0.004485 -0.004392 -0.002249
# 4 0.000999 -0.003656 0.004485 0.048669 -0.001339 0.005437
# 5 -0.005303 0.000434 -0.004392 -0.001339 0.024348 -0.000207
# 6 0.002138 -0.001343 -0.002249 0.005437 -0.000207 0.029361
#
#
# Mechanical properties :
#
#
# Convention : Reuss Voigt Hill
#
# Bulk Modulus (GPa) = 51.91888 67.43528 59.67708
# Shear Modulus (GPa) = 29.67943 35.24617 32.46280
#
# Velocity S-wave (km/s) = 3.43483 3.74311 3.59228
# Velocity P-wave (km/s) = 6.03069 6.74446 6.39754
#
# Compressibility (1/GPa) = 0.01926082
#
# Stress axis : x y z
#
# Youngs Moduli (GPa) = 65.38190 108.22102 66.98008
#
# Poissons Ratio (x) = 0.35459 0.21739
# Poissons Ratio (y) = 0.21423 0.23978
# Poissons Ratio (z) = 0.21220 0.38742
#
# Static dielectric constant tensor:
#      x y z
#    x 2.108830 0.104710 -0.052950 
#    y 0.104710 2.035970 -0.009180 
#    z -0.052950 -0.009180 2.041090 
# 
# From -- ./inp_files/580059.got.cif
#   From: 2010.05.17/outbox.cif.g08.bks.cpg/sg2_291_cif.got.tgz:580059.got - 2010.06.03 11:33:40.
