data_PCOD9009367
_publ_section_title
;
Structure prediction by ZEFSAII (Michael W. Deem and Ramdas Pophale) SiO2 
 PCOD9009367
Probable space group: P -1
;
_chemical_formula_sum "Si O2"
_cell_formula_units_Z 16
_cell_length_a 17.617458
_cell_length_b 14.070202
_cell_length_c 9.328271
_cell_angle_alpha 139.207883
_cell_angle_beta 28.830974
_cell_angle_gamma 138.633459
_cell_volume 699.986724
_symmetry_space_group_name_H-M "P -1"
_symmetry_group_IT_number 2
_symmetry_cell_setting 'triclinic'
loop_
_space_group_symop_operation_xyz
x,y,z
-x,-y,-z
loop_
_atom_site_type_symbol
_atom_site_label
_atom_site_fract_x
_atom_site_fract_y
_atom_site_fract_z
Si Si1 0.270991 0.118410 0.614978
Si Si2 0.779601 0.181829 0.791196
Si Si3 0.978467 0.724561 0.738964
Si Si4 0.427529 0.596505 0.616802
Si Si5 0.579023 0.605370 0.854832
Si Si6 0.769912 0.390914 0.625586
Si Si7 0.684299 0.904816 0.164882
Si Si8 0.711850 0.180464 0.234767
O O1 0.422028 0.267691 0.532292
O O2 0.242261 0.063345 0.763042
O O3 0.308370 0.989077 0.308798
O O4 0.113144 0.174827 0.904963
O O5 0.949944 0.208998 0.456652
O O6 0.700699 0.314131 0.018835
O O7 0.772417 0.186011 0.978987
O O8 0.847331 0.565192 0.736408
O O9 0.128045 0.695972 0.548102
O O10 0.500000 0.500000 0.500000
O O11 0.355057 0.488469 0.479447
O O12 0.500000 0.500000 0.000000
O O13 0.426483 0.648848 0.077868
O O14 0.701874 0.754602 0.885849
O O15 0.785821 0.337930 0.375703
O O16 0.487140 0.862364 0.474903
O O17 0.745018 0.045668 0.120122
#
# Coordination Sequence:
#
# PCOD9009367 Si02
#       8
#     2   2   2   2   2   2   2   2
#     4  12  24  46  66  97 134 178 221 262 333 402
#     4  12  26  42  65 102 135 168 220 278 327 382
#     4  11  24  43  68  91 131 185 216 264 324 403
#     4  12  25  39  67 102 132 164 218 283 326 377
#     4  11  19  40  67  97 129 169 225 272 324 393
#     4  10  21  42  67  93 130 176 224 259 327 400
#     4  10  21  39  68  94 130 173 213 269 334 388
#     4  10  22  40  65  98 130 170 213 275 333 382
#
# _framework density 22.857575000000001
#
# number of rings (size 3 to 8) (size 9 to 14) (size 15 to 20)
#    0.000    1.000    3.750    3.000    3.500    1.500 
#    0.000    2.500    0.000    0.000    0.000    0.000 
#    0.000    0.000    0.000    0.000    0.000    0.000 
#
# Total GULP energy -89441.957904 kJ/mol
# GULP energy per Si atom -5590.122369 kJ/mol
# Density = 2.280555 g / cm^3
# Si number density = 22.857575 Si / 1000 Ang^3
#
#
#
# Elastic Constant Matrix: (Units=GPa)
#
#
# Indices 1 2 3 4 5 6 
#
# 1 98.3703 7.7563 29.2393 21.0900 17.3920 -0.9768
# 2 7.7563 48.6259 6.8694 34.5459 9.6846 1.6735
# 3 29.2393 6.8694 112.3316 35.5317 17.9871 10.5083
# 4 21.0900 34.5459 35.5317 42.7753 8.3501 0.5545
# 5 17.3920 9.6846 17.9871 8.3501 37.6569 3.0731
# 6 -0.9768 1.6735 10.5083 0.5545 3.0731 26.7673
#
#
#
# Elastic Compliance Matrix: (Units=1/GPa)
#
#
# Indices 1 2 3 4 5 6 
#
# 1 0.012900 0.007387 0.000804 -0.011899 -0.005652 0.000589
# 2 0.007387 0.078449 0.022905 -0.082904 -0.015317 -0.010151
# 3 0.000804 0.022905 0.019948 -0.033871 -0.007655 -0.007653
# 4 -0.011899 -0.082904 -0.033871 0.121229 0.014986 0.013814
# 5 -0.005652 -0.015317 -0.007655 0.014986 0.033471 -0.000397
# 6 0.000589 -0.010151 -0.007653 0.013814 -0.000397 0.040779
#
#
# Mechanical properties :
#
#
# Convention : Reuss Voigt Hill
#
# Bulk Modulus (GPa) = 5.76401 38.56196 22.16299
# Shear Modulus (GPa) = 16.53368 35.80410 26.16889
#
# Velocity S-wave (km/s) = 2.69241 3.96207 3.38726
# Velocity P-wave (km/s) = 3.49179 6.15125 5.00152
#
# Compressibility (1/GPa) = 0.17349032
#
# Stress axis : x y z
#
# Youngs Moduli (GPa) = 77.51754 12.74713 50.13102
#
# Poissons Ratio (x) = -0.09417 -0.04030
# Poissons Ratio (y) = -0.57266 -1.14826
# Poissons Ratio (z) = -0.06232 -0.29198
#
# Static dielectric constant tensor:
#      x y z
#    x 1.887290 -0.011650 -0.040860 
#    y -0.011650 1.864530 0.032770 
#    z -0.040860 0.032770 1.868130 
# 
# From -- ./inp_files/335784.got.cif
#   From: 2010.05.17/outbox.cif.g08.bks.cpg/sg2_168_cif.got.tgz:335784.got - 2010.06.03 11:33:40.
