data_PCOD9009364
_publ_section_title
;
Structure prediction by ZEFSAII (Michael W. Deem and Ramdas Pophale) SiO2 
 PCOD9009364
Probable space group: P -1
;
_chemical_formula_sum "Si O2"
_cell_formula_units_Z 16
_cell_length_a 14.811894
_cell_length_b 9.418512
_cell_length_c 8.988702
_cell_angle_alpha 87.851926
_cell_angle_beta 140.920968
_cell_angle_gamma 84.124764
_cell_volume 772.550070
_symmetry_space_group_name_H-M "P -1"
_symmetry_group_IT_number 2
_symmetry_cell_setting 'triclinic'
loop_
_space_group_symop_operation_xyz
x,y,z
-x,-y,-z
loop_
_atom_site_type_symbol
_atom_site_label
_atom_site_fract_x
_atom_site_fract_y
_atom_site_fract_z
Si Si1 0.722983 0.354195 0.355584
Si Si2 0.304419 0.944106 0.102097
Si Si3 0.843652 0.053052 0.379526
Si Si4 0.973309 0.353702 0.903410
Si Si5 0.512897 0.631149 0.398482
Si Si6 0.728158 0.736836 0.857190
Si Si7 0.999554 0.910796 0.851969
Si Si8 0.410083 0.424480 0.052093
O O1 0.808611 0.222846 0.369407
O O2 0.818237 0.363732 0.623757
O O3 0.563104 0.325806 0.196954
O O4 0.692499 0.503249 0.216379
O O5 0.409002 0.790017 0.277882
O O6 0.333147 0.090935 0.207519
O O7 0.280846 0.971597 0.893589
O O8 0.147315 0.924394 0.959085
O O9 0.864784 0.969974 0.567601
O O10 0.000000 0.000000 0.500000
O O11 0.000000 0.500000 0.000000
O O12 0.097807 0.292160 0.941905
O O13 0.991154 0.248886 0.071614
O O14 0.500000 0.500000 0.500000
O O15 0.668069 0.669321 0.635670
O O16 0.467456 0.561973 0.192251
O O17 0.673249 0.654147 0.930311
O O18 0.000000 0.000000 0.000000
#
# Coordination Sequence:
#
# PCOD9009364 Si02
#       8
#     2   2   2   2   2   2   2   2
#     4  11  22  44  68  92 131 179 214 269 328 399
#     4  11  22  41  65  94 131 174 216 270 329 389
#     4  10  21  39  68  94 126 171 222 262 322 399
#     4  12  26  40  66  99 131 168 222 280 330 381
#     4  10  22  39  64  92 125 173 215 262 325 392
#     4  11  24  41  62 101 133 167 223 277 327 384
#     4  11  22  40  65  93 129 173 218 267 332 390
#     4  10  24  42  68  94 132 175 222 262 333 395
#
# _framework density 20.710633000000001
#
# number of rings (size 3 to 8) (size 9 to 14) (size 15 to 20)
#    0.000    1.250    3.750    1.875    7.000    1.500 
#    2.250    0.625    0.000    0.000    0.000    0.000 
#    0.000    0.000    0.000    0.000    0.000    0.000 
#
# Total GULP energy -89229.717129 kJ/mol
# GULP energy per Si atom -5576.857321 kJ/mol
# Density = 2.066349 g / cm^3
# Si number density = 20.710633 Si / 1000 Ang^3
#
#
#
# Elastic Constant Matrix: (Units=GPa)
#
#
# Indices 1 2 3 4 5 6 
#
# 1 74.2178 17.0536 24.3316 -16.2069 -5.1380 7.4892
# 2 17.0536 126.1616 30.5693 -9.2097 -6.8104 2.1813
# 3 24.3316 30.5693 100.9613 -24.0807 -7.0370 6.3844
# 4 -16.2069 -9.2097 -24.0807 30.7778 -1.2433 -2.3936
# 5 -5.1380 -6.8104 -7.0370 -1.2433 26.3694 -3.5459
# 6 7.4892 2.1813 6.3844 -2.3936 -3.5459 35.3528
#
#
#
# Elastic Compliance Matrix: (Units=1/GPa)
#
#
# Indices 1 2 3 4 5 6 
#
# 1 0.016156 -0.001124 -0.001606 0.006830 0.002434 -0.002357
# 2 -0.001124 0.008713 -0.002188 0.000385 0.001502 0.000272
# 3 -0.001606 -0.002188 0.013375 0.009004 0.002977 -0.001032
# 4 0.006830 0.000385 0.009004 0.043523 0.005945 0.000446
# 5 0.002434 0.001502 0.002977 0.005945 0.040303 0.003299
# 6 -0.002357 0.000272 -0.001032 0.000446 0.003299 0.029316
#
#
# Mechanical properties :
#
#
# Convention : Reuss Voigt Hill
#
# Bulk Modulus (GPa) = 35.20030 49.47217 42.33624
# Shear Modulus (GPa) = 29.29277 33.79241 31.54259
#
# Velocity S-wave (km/s) = 3.76491 4.04375 3.90682
# Velocity P-wave (km/s) = 5.99437 6.76326 6.39039
#
# Compressibility (1/GPa) = 0.02840885
#
# Stress axis : x y z
#
# Youngs Moduli (GPa) = 61.89534 114.77212 74.76897
#
# Poissons Ratio (x) = 0.12902 0.12004
# Poissons Ratio (y) = 0.06958 0.16358
# Poissons Ratio (z) = 0.09937 0.25110
#
# Static dielectric constant tensor:
#      x y z
#    x 1.757730 -0.097810 -0.009510 
#    y -0.097810 1.870690 -0.062380 
#    z -0.009510 -0.062380 1.818150 
# 
# From -- ./inp_files/298615.got.cif
#   From: 2010.05.17/outbox.cif.g08.bks.cpg/sg2_150_cif.got.tgz:298615.got - 2010.06.03 11:33:40.
