data_PCOD9009037
_publ_section_title
;
Structure prediction by ZEFSAII (Michael W. Deem and Ramdas Pophale) SiO2 
 PCOD9009037
Probable space group: P -1
;
_chemical_formula_sum "Si O2"
_cell_formula_units_Z 16
_cell_length_a 13.978241
_cell_length_b 12.980096
_cell_length_c 16.383669
_cell_angle_alpha 159.557959
_cell_angle_beta 140.752640
_cell_angle_gamma 48.605391
_cell_volume 628.324360
_symmetry_space_group_name_H-M "P -1"
_symmetry_group_IT_number 2
_symmetry_cell_setting 'triclinic'
loop_
_space_group_symop_operation_xyz
x,y,z
-x,-y,-z
loop_
_atom_site_type_symbol
_atom_site_label
_atom_site_fract_x
_atom_site_fract_y
_atom_site_fract_z
Si Si1 0.827262 0.763441 0.389373
Si Si2 0.155167 0.309970 0.848388
Si Si3 0.590196 0.111316 0.477278
Si Si4 0.171586 0.626075 0.748253
Si Si5 0.624196 0.457286 0.316965
Si Si6 0.648591 0.119232 0.331296
Si Si7 0.107413 0.208705 0.155823
Si Si8 0.927279 0.653664 0.935992
O O1 0.829453 0.704334 0.250251
O O2 0.831722 0.481843 0.241239
O O3 0.661189 0.840963 0.356570
O O4 0.982930 0.043440 0.727966
O O5 0.991844 0.381615 0.812880
O O6 0.212324 0.030671 0.713079
O O7 0.274663 0.600336 0.184499
O O8 0.444081 0.247987 0.500784
O O9 0.595318 0.062198 0.347743
O O10 0.295828 0.507883 0.692682
O O11 0.000000 0.500000 0.500000
O O12 0.209276 0.987983 0.028843
O O13 0.768449 0.495275 0.503801
O O14 0.499220 0.116553 0.988486
O O15 0.739994 0.488278 0.671824
O O16 0.012879 0.263080 0.055380
O O17 0.000000 0.000000 0.000000
#
# Coordination Sequence:
#
# PCOD9009037 Si02
#       8
#     2   2   2   2   2   2   2   2
#     4  10  21  39  66  98 128 162 212 263 317 378
#     4   9  20  37  65  97 128 164 211 263 317 375
#     4   9  21  43  63  92 129 168 210 260 322 378
#     4  12  23  42  65  92 126 165 211 266 318 370
#     4  11  24  43  65  89 130 170 210 264 319 381
#     4  10  22  42  63  92 132 168 208 264 320 377
#     4  12  24  42  66  94 126 166 216 263 314 378
#     4  11  22  37  65  98 129 169 212 258 316 381
#
# _framework density 25.464552999999999
#
# number of rings (size 3 to 8) (size 9 to 14) (size 15 to 20)
#    0.000    1.500    2.500    1.875    0.000    8.500 
#    0.000   12.500    0.000    0.000    0.000    0.000 
#    0.000    0.000    0.000    0.000    0.000    0.000 
#
# Total GULP energy -89128.557471 kJ/mol
# GULP energy per Si atom -5570.534842 kJ/mol
# Density = 2.540659 g / cm^3
# Si number density = 25.464553 Si / 1000 Ang^3
#
#
#
# Elastic Constant Matrix: (Units=GPa)
#
#
# Indices 1 2 3 4 5 6 
#
# 1 63.4254 30.9984 14.6810 2.4624 -11.9547 -5.4688
# 2 30.9984 77.2987 23.5071 5.0481 0.2117 -1.5481
# 3 14.6810 23.5071 147.6660 -34.7536 -5.2420 1.6603
# 4 2.4624 5.0481 -34.7536 40.0989 0.8791 -12.9592
# 5 -11.9547 0.2117 -5.2420 0.8791 30.8387 -2.2475
# 6 -5.4688 -1.5481 1.6603 -12.9592 -2.2475 33.1204
#
#
#
# Elastic Compliance Matrix: (Units=1/GPa)
#
#
# Indices 1 2 3 4 5 6 
#
# 1 0.022124 -0.008716 -0.000430 0.000483 0.008845 0.004056
# 2 -0.008716 0.017762 -0.003356 -0.005439 -0.004124 -0.002849
# 3 -0.000430 -0.003356 0.009684 0.009858 0.001458 0.003243
# 4 0.000483 -0.005439 0.009858 0.038832 0.001861 0.014652
# 5 0.008845 -0.004124 0.001458 0.001861 0.036399 0.004393
# 6 0.004056 -0.002849 0.003243 0.014652 0.004393 0.036598
#
#
# Mechanical properties :
#
#
# Convention : Reuss Voigt Hill
#
# Bulk Modulus (GPa) = 40.70414 47.41813 44.06113
# Shear Modulus (GPa) = 25.69482 35.42516 30.55999
#
# Velocity S-wave (km/s) = 3.17999 3.73387 3.46800
# Velocity P-wave (km/s) = 5.43161 6.10333 5.77724
#
# Compressibility (1/GPa) = 0.02456753
#
# Stress axis : x y z
#
# Youngs Moduli (GPa) = 45.19956 56.29984 103.25811
#
# Poissons Ratio (x) = 0.49071 0.04440
# Poissons Ratio (y) = 0.39396 0.34649
# Poissons Ratio (z) = 0.01944 0.18892
#
# Static dielectric constant tensor:
#      x y z
#    x 2.070940 -0.055020 0.019400 
#    y -0.055020 2.041030 -0.013330 
#    z 0.019400 -0.013330 2.066250 
# 
# From -- ./inp_files/371622.got.cif
#   From: 2010.05.17/outbox.cif.g08.bks.cpg/sg2_186_cif.got.tgz:371622.got - 2010.06.03 11:33:40.
