data_PCOD9009132
_publ_section_title
;
Structure prediction by ZEFSAII (Michael W. Deem and Ramdas Pophale) SiO2 
 PCOD9009132
Probable space group: P -1
;
_chemical_formula_sum "Si O2"
_cell_formula_units_Z 16
_cell_length_a 11.350734
_cell_length_b 7.825309
_cell_length_c 12.042220
_cell_angle_alpha 46.735752
_cell_angle_beta 88.333554
_cell_angle_gamma 62.070738
_cell_volume 613.260681
_symmetry_space_group_name_H-M "P -1"
_symmetry_group_IT_number 2
_symmetry_cell_setting 'triclinic'
loop_
_space_group_symop_operation_xyz
x,y,z
-x,-y,-z
loop_
_atom_site_type_symbol
_atom_site_label
_atom_site_fract_x
_atom_site_fract_y
_atom_site_fract_z
Si Si1 0.798218 0.589071 0.398583
Si Si2 0.472591 0.788010 0.815596
Si Si3 0.799325 0.850515 0.053974
Si Si4 0.100037 0.630687 0.173684
Si Si5 0.083949 0.122039 0.497733
Si Si6 0.613858 0.494752 0.712624
Si Si7 0.753459 0.717690 0.887731
Si Si8 0.674678 0.247750 0.505831
O O1 0.710316 0.455094 0.461828
O O2 0.977171 0.305054 0.527474
O O3 0.698980 0.909477 0.320234
O O4 0.780608 0.707058 0.221271
O O5 0.537990 0.710702 0.724023
O O6 0.586244 0.822314 0.862388
O O7 0.500000 0.500000 0.000000
O O8 0.834732 0.660532 0.027168
O O9 0.652946 0.180733 0.885001
O O10 0.922989 0.900422 0.056387
O O11 0.081038 0.379408 0.323353
O O12 0.228050 0.568459 0.280089
O O13 0.161093 0.555716 0.079127
O O14 0.253188 0.844422 0.580521
O O15 0.000000 0.000000 0.500000
O O16 0.494293 0.624781 0.562364
O O17 0.745341 0.974205 0.709987
#
# Coordination Sequence:
#
# PCOD9009132 Si02
#       8
#     2   2   2   2   2   2   2   2
#     4  10  21  39  67  89 123 166 214 258 307 367
#     4  11  23  39  56  90 132 165 205 255 311 372
#     4  11  21  38  65  94 121 164 212 260 309 369
#     4   9  20  38  60  93 122 159 208 261 315 364
#     4   8  17  37  63  87 119 158 207 253 303 368
#     4  11  23  37  63  90 129 166 202 262 315 369
#     4  10  23  39  64  92 127 162 210 258 310 372
#     4  10  22  42  65  96 123 165 209 257 314 378
#
# _framework density 26.090046999999998
#
# number of rings (size 3 to 8) (size 9 to 14) (size 15 to 20)
#    0.000    2.000    1.250    1.500    1.750    7.500 
#    0.000    0.625    0.000    0.000    0.000    0.000 
#    0.000    0.000    0.000    0.000    0.000    0.000 
#
# Total GULP energy -89322.522536 kJ/mol
# GULP energy per Si atom -5582.657658 kJ/mol
# Density = 2.603066 g / cm^3
# Si number density = 26.090047 Si / 1000 Ang^3
#
#
#
# Elastic Constant Matrix: (Units=GPa)
#
#
# Indices 1 2 3 4 5 6 
#
# 1 139.2514 42.1995 15.6215 14.6602 1.5904 -10.3443
# 2 42.1995 120.1220 13.6158 -7.8137 7.1653 -7.3143
# 3 15.6215 13.6158 42.5743 -0.0433 7.4363 -7.0790
# 4 14.6602 -7.8137 -0.0433 33.8196 -3.7316 15.2941
# 5 1.5904 7.1653 7.4363 -3.7316 25.8472 0.2987
# 6 -10.3443 -7.3143 -7.0790 15.2941 0.2987 41.4747
#
#
#
# Elastic Compliance Matrix: (Units=1/GPa)
#
#
# Indices 1 2 3 4 5 6 
#
# 1 0.009350 -0.003272 -0.001714 -0.006591 -0.000172 0.003894
# 2 -0.003272 0.009979 -0.001869 0.003929 -0.001451 -0.000814
# 3 -0.001714 -0.001869 0.026839 -0.002689 -0.007543 0.004870
# 4 -0.006591 0.003929 -0.002689 0.041624 0.006294 -0.016805
# 5 -0.000172 -0.001451 -0.007543 0.006294 0.042229 -0.004211
# 6 0.003894 -0.000814 0.004870 -0.016805 -0.004211 0.031997
#
#
# Mechanical properties :
#
#
# Convention : Reuss Voigt Hill
#
# Bulk Modulus (GPa) = 30.80732 49.42458 40.11595
# Shear Modulus (GPa) = 26.80290 35.59569 31.19930
#
# Velocity S-wave (km/s) = 3.20867 3.69770 3.46183
# Velocity P-wave (km/s) = 5.05580 6.10046 5.60253
#
# Compressibility (1/GPa) = 0.03245982
#
# Stress axis : x y z
#
# Youngs Moduli (GPa) = 106.94934 100.21336 37.25890
#
# Poissons Ratio (x) = 0.32789 0.06385
# Poissons Ratio (y) = 0.34993 0.06963
# Poissons Ratio (z) = 0.18326 0.18727
#
# Static dielectric constant tensor:
#      x y z
#    x 2.076380 -0.018610 0.040120 
#    y -0.018610 2.169670 -0.096280 
#    z 0.040120 -0.096280 2.094540 
# 
# From -- ./inp_files/514912.got.cif
#   From: 2010.05.17/outbox.cif.g08.bks.cpg/sg2_258_cif.got.tgz:514912.got - 2010.06.03 11:33:40.
