data_PCOD9009479
_publ_section_title
;
Structure prediction by ZEFSAII (Michael W. Deem and Ramdas Pophale) SiO2 
 PCOD9009479
Probable space group: P -1
;
_chemical_formula_sum "Si O2"
_cell_formula_units_Z 15
_cell_length_a 11.947114
_cell_length_b 13.309852
_cell_length_c 17.876504
_cell_angle_alpha 159.981418
_cell_angle_beta 142.470883
_cell_angle_gamma 45.954660
_cell_volume 575.554766
_symmetry_space_group_name_H-M "P -1"
_symmetry_group_IT_number 2
_symmetry_cell_setting 'triclinic'
loop_
_space_group_symop_operation_xyz
x,y,z
-x,-y,-z
loop_
_atom_site_type_symbol
_atom_site_label
_atom_site_fract_x
_atom_site_fract_y
_atom_site_fract_z
Si Si1 0.123677 0.761770 0.404575
Si Si2 0.500000 0.500000 0.000000
Si Si3 0.223629 0.625623 0.215685
Si Si4 0.763425 0.210152 0.825561
Si Si5 0.511564 0.714469 0.808619
Si Si6 0.146779 0.232506 0.332417
Si Si7 0.775968 0.260358 0.084458
Si Si8 0.522432 0.212054 0.306087
O O1 0.253168 0.845993 0.456897
O O2 0.258928 0.790323 0.566376
O O3 0.000000 0.000000 0.500000
O O4 0.974903 0.438466 0.100562
O O5 0.378794 0.657615 0.106104
O O6 0.334735 0.521475 0.862672
O O7 0.301488 0.769535 0.280222
O O8 0.314480 0.364794 0.111722
O O9 0.000000 0.500000 0.000000
O O10 0.796164 0.886414 0.641039
O O11 0.317984 0.486589 0.569443
O O12 0.535092 0.528468 0.599550
O O13 0.509150 0.983530 0.932631
O O14 0.145996 0.929812 0.071796
O O15 0.956880 0.342922 0.293391
O O16 0.621589 0.027831 0.888495
#
# Coordination Sequence:
#
# PCOD9009479 Si02
#       8
#     2   1   2   2   2   2   2   2
#     4  11  23  41  74 110 138 184 243 293 358 423
#     4  10  22  38  68 108 142 180 234 286 356 430
#     4  10  24  46  70 103 146 187 233 299 359 417
#     4  10  23  43  71 102 148 188 234 295 358 430
#     4  12  28  45  69 103 142 191 240 293 360 428
#     4  10  22  44  68  98 139 188 232 292 358 419
#     4  10  21  39  69 103 136 176 238 294 350 417
#     4  12  22  42  73  99 137 185 242 296 344 431
#
# _framework density 26.061812
#
# number of rings (size 3 to 8) (size 9 to 14) (size 15 to 20)
#    0.000    1.333    2.667    1.600   11.200    1.600 
#    0.000    3.333    0.000    0.000    0.000    0.000 
#    0.000    0.000    0.000    0.000    0.000    0.000 
#
# Total GULP energy -83614.496435 kJ/mol
# GULP energy per Si atom -5574.299762 kJ/mol
# Density = 2.600249 g / cm^3
# Si number density = 26.061812 Si / 1000 Ang^3
#
#
#
# Elastic Constant Matrix: (Units=GPa)
#
#
# Indices 1 2 3 4 5 6 
#
# 1 134.0109 84.1246 25.7795 0.5553 -16.9147 10.4773
# 2 84.1246 270.5472 52.2231 -19.5993 8.0832 -12.5726
# 3 25.7795 52.2231 65.7464 -22.8399 -2.1312 -1.0056
# 4 0.5553 -19.5993 -22.8399 40.7064 -4.8660 -0.3029
# 5 -16.9147 8.0832 -2.1312 -4.8660 43.1773 -9.4726
# 6 10.4773 -12.5726 -1.0056 -0.3029 -9.4726 61.8085
#
#
#
# Elastic Compliance Matrix: (Units=1/GPa)
#
#
# Indices 1 2 3 4 5 6 
#
# 1 0.010605 -0.003229 -0.002394 -0.002587 0.003932 -0.001904
# 2 -0.003229 0.005422 -0.002789 0.000856 -0.002037 0.001297
# 3 -0.002394 -0.002789 0.022453 0.011546 0.002122 0.000586
# 4 -0.002587 0.000856 0.011546 0.031898 0.003313 0.001464
# 5 0.003932 -0.002037 0.002122 0.003313 0.026215 0.002988
# 6 -0.001904 0.001297 0.000586 0.001464 0.002988 0.017240
#
#
# Mechanical properties :
#
#
# Convention : Reuss Voigt Hill
#
# Bulk Modulus (GPa) = 46.17751 88.28433 67.23092
# Shear Modulus (GPa) = 36.26418 49.68360 42.97389
#
# Velocity S-wave (km/s) = 3.73429 4.37094 4.06510
# Velocity P-wave (km/s) = 6.02911 7.70857 6.91998
#
# Compressibility (1/GPa) = 0.02165557
#
# Stress axis : x y z
#
# Youngs Moduli (GPa) = 94.29234 184.44251 44.53736
#
# Poissons Ratio (x) = 0.59554 0.10662
# Poissons Ratio (y) = 0.30446 0.12424
# Poissons Ratio (z) = 0.22573 0.51450
#
# Static dielectric constant tensor:
#      x y z
#    x 2.335570 -0.016500 -0.418260 
#    y -0.016500 1.900330 -0.035990 
#    z -0.418260 -0.035990 2.354680 
# 
# From -- ./inp_files/568389.got.cif
#   From: 2010.05.17/outbox.cif.g08.bks.cpg/sg2_285_cif.got.tgz:568389.got - 2010.06.03 11:33:40.
