data_PCOD9009255
_publ_section_title
;
Structure prediction by ZEFSAII (Michael W. Deem and Ramdas Pophale) SiO2 
 PCOD9009255
Probable space group: P -1
;
_chemical_formula_sum "Si O2"
_cell_formula_units_Z 12
_cell_length_a 9.155365
_cell_length_b 8.758779
_cell_length_c 16.979554
_cell_angle_alpha 132.612007
_cell_angle_beta 29.748745
_cell_angle_gamma 135.093226
_cell_volume 469.396391
_symmetry_space_group_name_H-M "P -1"
_symmetry_group_IT_number 2
_symmetry_cell_setting 'triclinic'
loop_
_space_group_symop_operation_xyz
x,y,z
-x,-y,-z
loop_
_atom_site_type_symbol
_atom_site_label
_atom_site_fract_x
_atom_site_fract_y
_atom_site_fract_z
Si Si1 0.845449 0.169341 0.667934
Si Si2 0.313955 0.111063 0.219221
Si Si3 0.257072 0.272092 0.004791
Si Si4 0.992925 0.722649 0.044727
Si Si5 0.803955 0.497091 0.510163
Si Si6 0.137291 0.904327 0.716825
O O1 0.475174 0.129682 0.825782
O O2 0.992054 0.384821 0.621095
O O3 0.875531 0.118223 0.728690
O O4 0.000000 0.000000 0.500000
O O5 0.366894 0.327259 0.325942
O O6 0.123000 0.146636 0.247115
O O7 0.660535 0.115037 0.042309
O O8 0.080361 0.308036 0.023321
O O9 0.500000 0.500000 0.000000
O O10 0.023498 0.174377 0.151172
O O11 0.748948 0.831585 0.234086
O O12 0.000000 0.500000 0.000000
O O13 0.000000 0.500000 0.500000
O O14 0.658793 0.245693 0.458358
#
# Coordination Sequence:
#
# PCOD9009255 Si02
#       6
#     2   2   2   2   2   2
#     4  10  21  39  67  98 127 169 213 261 321 387
#     4  10  22  42  68  97 132 168 212 264 322 385
#     4  12  24  42  67  92 129 172 218 267 321 378
#     4  12  27  40  62  98 132 169 222 267 316 380
#     4   9  20  39  67  97 127 171 211 258 324 385
#     4  11  22  41  67  95 130 170 214 265 321 379
#
# _framework density 25.564746
#
# number of rings (size 3 to 8) (size 9 to 14) (size 15 to 20)
#    0.000    1.333    3.333    2.000    4.667    0.000 
#    0.000    3.333    0.000    0.000    0.000    0.000 
#    0.000    0.000    0.000    0.000    0.000    0.000 
#
# Total GULP energy -66925.408161 kJ/mol
# GULP energy per Si atom -5577.117347 kJ/mol
# Density = 2.550656 g / cm^3
# Si number density = 25.564746 Si / 1000 Ang^3
#
#
#
# Elastic Constant Matrix: (Units=GPa)
#
#
# Indices 1 2 3 4 5 6 
#
# 1 147.9445 37.1104 26.7401 -6.6564 16.9329 -22.0651
# 2 37.1104 101.9654 40.6547 24.6240 15.6481 -25.3173
# 3 26.7401 40.6547 131.3514 13.3001 10.6013 -22.1731
# 4 -6.6564 24.6240 13.3001 48.0808 -5.4540 0.7416
# 5 16.9329 15.6481 10.6013 -5.4540 26.4622 -0.9288
# 6 -22.0651 -25.3173 -22.1731 0.7416 -0.9288 44.1112
#
#
#
# Elastic Compliance Matrix: (Units=1/GPa)
#
#
# Indices 1 2 3 4 5 6 
#
# 1 0.008231 -0.002123 -0.000522 0.001956 -0.003310 0.002534
# 2 -0.002123 0.017088 -0.001755 -0.009791 -0.009787 0.007822
# 3 -0.000522 -0.001755 0.009255 -0.002086 -0.002648 0.003363
# 4 0.001956 -0.009791 -0.002086 0.027992 0.010935 -0.005929
# 5 -0.003310 -0.009787 -0.002648 0.010935 0.048737 -0.007762
# 6 0.002534 0.007822 0.003363 -0.005929 -0.007762 0.030054
#
#
# Mechanical properties :
#
#
# Convention : Reuss Voigt Hill
#
# Bulk Modulus (GPa) = 38.79769 65.58574 52.19172
# Shear Modulus (GPa) = 31.49632 42.18125 36.83878
#
# Velocity S-wave (km/s) = 3.51382 4.06640 3.80017
# Velocity P-wave (km/s) = 5.62777 6.91071 6.30197
#
# Compressibility (1/GPa) = 0.02577473
#
# Stress axis : x y z
#
# Youngs Moduli (GPa) = 121.49282 58.52022 108.04650
#
# Poissons Ratio (x) = 0.12423 0.05637
# Poissons Ratio (y) = 0.25792 0.18964
# Poissons Ratio (z) = 0.06339 0.10271
#
# Static dielectric constant tensor:
#      x y z
#    x 1.929490 -0.038340 0.029500 
#    y -0.038340 2.166750 0.020250 
#    z 0.029500 0.020250 2.064960 
# 
# From -- ./inp_files/199887.got.cif
#   From: 2010.05.17/outbox.cif.g08.bks.cpg/sg2_100_cif.got.tgz:199887.got - 2010.06.03 11:33:40.
