data_PCOD9009805
_publ_section_title
;
Structure prediction by ZEFSAII (Michael W. Deem and Ramdas Pophale) SiO2 
 PCOD9009805
Probable space group: P -1
;
_chemical_formula_sum "Si O2"
_cell_formula_units_Z 14
_cell_length_a 13.719709
_cell_length_b 7.028336
_cell_length_c 18.799230
_cell_angle_alpha 106.157677
_cell_angle_beta 19.224765
_cell_angle_gamma 106.186084
_cell_volume 572.581114
_symmetry_space_group_name_H-M "P -1"
_symmetry_group_IT_number 2
_symmetry_cell_setting 'triclinic'
loop_
_space_group_symop_operation_xyz
x,y,z
-x,-y,-z
loop_
_atom_site_type_symbol
_atom_site_label
_atom_site_fract_x
_atom_site_fract_y
_atom_site_fract_z
Si Si1 0.624841 0.364595 0.796203
Si Si2 0.113909 0.930000 0.008152
Si Si3 0.075494 0.316738 0.269615
Si Si4 0.222731 0.622566 0.021326
Si Si5 0.759747 0.045596 0.569498
Si Si6 0.806156 0.652212 0.430517
Si Si7 0.198583 0.726717 0.786002
O O1 0.793040 0.512462 0.750018
O O2 0.801516 0.184546 0.623854
O O3 0.329046 0.279448 0.032909
O O4 0.517079 0.504252 0.820230
O O5 0.062435 0.779078 0.962550
O O6 0.409677 0.061983 0.796948
O O7 0.204813 0.808277 0.001417
O O8 0.854209 0.081403 0.206369
O O9 0.960920 0.133778 0.376466
O O10 0.802479 0.424344 0.432831
O O11 0.115667 0.685576 0.179604
O O12 0.976546 0.461206 0.145596
O O13 0.793342 0.810349 0.519126
O O14 0.538178 0.692378 0.566288
#
# Coordination Sequence:
#
# PCOD9009805 Si02
#       7
#     2   2   2   2   2   2   2
#     4  10  23  45  69  92 127 172 208 258 330 364
#     4  10  23  37  63  96 127 165 215 253 323 376
#     4  10  24  47  64  94 132 163 213 267 307 385
#     4  11  22  41  65  94 129 169 210 264 313 380
#     4  11  23  41  65  95 127 167 210 263 311 376
#     4  10  25  39  65  99 123 168 220 252 322 373
#     4  10  21  40  59  94 129 170 208 260 318 372
#
# _framework density 24.450683000000001
#
# number of rings (size 3 to 8) (size 9 to 14) (size 15 to 20)
#    0.000    1.714    1.429    1.286    6.000    4.571 
#    2.571    2.143    0.000    0.000    0.000    0.000 
#    0.000    0.000    0.000    0.000    0.000    0.000 
#
# Total GULP energy -78272.650262 kJ/mol
# GULP energy per Si atom -5590.903590 kJ/mol
# Density = 2.439503 g / cm^3
# Si number density = 24.450683 Si / 1000 Ang^3
#
#
#
# Elastic Constant Matrix: (Units=GPa)
#
#
# Indices 1 2 3 4 5 6 
#
# 1 73.0501 13.3002 4.5493 -2.0181 -3.1905 -1.6638
# 2 13.3002 63.6478 25.0222 5.4370 4.0983 3.1093
# 3 4.5493 25.0222 48.4748 3.4177 5.3506 -6.8097
# 4 -2.0181 5.4370 3.4177 21.3226 -3.5317 5.0171
# 5 -3.1905 4.0983 5.3506 -3.5317 28.4751 1.8577
# 6 -1.6638 3.1093 -6.8097 5.0171 1.8577 32.1822
#
#
#
# Elastic Compliance Matrix: (Units=1/GPa)
#
#
# Indices 1 2 3 4 5 6 
#
# 1 0.014500 -0.003448 0.000059 0.002503 0.002383 0.000568
# 2 -0.003448 0.021250 -0.010781 -0.003362 -0.001582 -0.003897
# 3 0.000059 -0.010781 0.028150 -0.004427 -0.004800 0.007969
# 4 0.002503 -0.003362 -0.004427 0.052289 0.008678 -0.009135
# 5 0.002383 -0.001582 -0.004800 0.008678 0.037870 -0.004279
# 6 0.000568 -0.003897 0.007969 -0.009135 -0.004279 0.034836
#
#
# Mechanical properties :
#
#
# Convention : Reuss Voigt Hill
#
# Bulk Modulus (GPa) = 28.12193 30.10179 29.11186
# Shear Modulus (GPa) = 21.82557 25.88271 23.85414
#
# Velocity S-wave (km/s) = 2.99094 3.25709 3.12685
# Velocity P-wave (km/s) = 4.84295 5.14615 4.99685
#
# Compressibility (1/GPa) = 0.03555943
#
# Stress axis : x y z
#
# Youngs Moduli (GPa) = 68.96777 47.05893 35.52361
#
# Poissons Ratio (x) = 0.16227 -0.00211
# Poissons Ratio (y) = 0.23782 0.38299
# Poissons Ratio (z) = -0.00409 0.50736
#
# Static dielectric constant tensor:
#      x y z
#    x 1.982550 -0.017480 0.011040 
#    y -0.017480 1.945820 0.018450 
#    z 0.011040 0.018450 1.941720 
# 
# From -- ./inp_files/201304.got.cif
#   From: 2010.05.17/outbox.cif.g08.bks.cpg/sg2_101_cif.got.tgz:201304.got - 2010.06.03 11:33:40.
