data_PCOD9009691
_publ_section_title
;
Structure prediction by ZEFSAII (Michael W. Deem and Ramdas Pophale) SiO2 
 PCOD9009691
Probable space group: P -1
;
_chemical_formula_sum "Si O2"
_cell_formula_units_Z 14
_cell_length_a 16.155006
_cell_length_b 11.345614
_cell_length_c 11.197224
_cell_angle_alpha 41.298146
_cell_angle_beta 142.403077
_cell_angle_gamma 153.154570
_cell_volume 558.066889
_symmetry_space_group_name_H-M "P -1"
_symmetry_group_IT_number 2
_symmetry_cell_setting 'triclinic'
loop_
_space_group_symop_operation_xyz
x,y,z
-x,-y,-z
loop_
_atom_site_type_symbol
_atom_site_label
_atom_site_fract_x
_atom_site_fract_y
_atom_site_fract_z
Si Si1 0.262863 0.570153 0.515624
Si Si2 0.888072 0.281468 0.434679
Si Si3 0.517353 0.101760 0.248585
Si Si4 0.182336 0.452206 0.172967
Si Si5 0.142988 0.140487 0.170940
Si Si6 0.612127 0.600678 0.377919
Si Si7 0.215508 0.887760 0.877056
O O1 0.364689 0.676962 0.681834
O O2 0.269852 0.382875 0.607700
O O3 0.039007 0.431066 0.381586
O O4 0.397407 0.828171 0.388844
O O5 0.671406 0.162556 0.284094
O O6 0.000000 0.500000 0.500000
O O7 0.880353 0.069428 0.628402
O O8 0.356784 0.056969 0.025868
O O9 0.092136 0.258284 0.106634
O O10 0.352254 0.492793 0.396182
O O11 0.010477 0.308157 0.186064
O O12 0.252632 0.717646 0.017345
O O13 0.382197 0.390508 0.233550
O O14 0.000000 0.000000 0.000000
O O15 0.710911 0.887933 0.298326
#
# Coordination Sequence:
#
# PCOD9009691 Si02
#       7
#     2   2   2   2   2   2   2
#     4  10  21  39  74 102 152 197 235 309 377 431
#     4  10  22  42  68 107 149 192 240 305 381 429
#     4  10  21  42  67 110 148 191 250 305 363 441
#     4  11  26  51  71 105 155 193 251 308 372 456
#     4  12  28  47  72 110 151 192 254 316 364 451
#     4  12  25  48  75 106 151 199 245 307 387 435
#     4  11  25  45  78 106 141 198 257 300 373 448
#
# _framework density 25.086600000000001
#
# number of rings (size 3 to 8) (size 9 to 14) (size 15 to 20)
#    0.000    1.143    2.857    1.714    6.000    1.143 
#    2.571    0.000    0.000    0.000    0.000    0.000 
#    0.000    0.000    0.000    0.000    0.000    0.000 
#
# Total GULP energy -78466.029243 kJ/mol
# GULP energy per Si atom -5604.716374 kJ/mol
# Density = 2.502950 g / cm^3
# Si number density = 25.086600 Si / 1000 Ang^3
#
#
#
# Elastic Constant Matrix: (Units=GPa)
#
#
# Indices 1 2 3 4 5 6 
#
# 1 139.9665 44.7678 27.9561 0.1981 8.5890 -4.9441
# 2 44.7678 142.4112 50.1446 -10.9710 9.1021 -15.6795
# 3 27.9561 50.1446 111.0572 8.6066 6.4457 -15.7029
# 4 0.1981 -10.9710 8.6066 46.8327 -7.2919 11.9800
# 5 8.5890 9.1021 6.4457 -7.2919 32.7582 11.8820
# 6 -4.9441 -15.6795 -15.7029 11.9800 11.8820 48.4456
#
#
#
# Elastic Compliance Matrix: (Units=1/GPa)
#
#
# Indices 1 2 3 4 5 6 
#
# 1 0.008125 -0.002154 -0.000848 -0.000767 -0.001704 0.000465
# 2 -0.002154 0.009383 -0.003596 0.002299 -0.001334 0.001410
# 3 -0.000848 -0.003596 0.012156 -0.004960 -0.004056 0.004911
# 4 -0.000767 0.002299 -0.004960 0.026986 0.010216 -0.010121
# 5 -0.001704 -0.001334 -0.004056 0.010216 0.039548 -0.014146
# 6 0.000465 0.001410 0.004911 -0.010121 -0.014146 0.028710
#
#
# Mechanical properties :
#
#
# Convention : Reuss Voigt Hill
#
# Bulk Modulus (GPa) = 60.72885 71.01911 65.87398
# Shear Modulus (GPa) = 34.82064 43.64507 39.23286
#
# Velocity S-wave (km/s) = 3.72965 4.17559 3.95890
# Velocity P-wave (km/s) = 6.54273 7.18460 6.87116
#
# Compressibility (1/GPa) = 0.01646664
#
# Stress axis : x y z
#
# Youngs Moduli (GPa) = 123.07372 106.57640 82.26617
#
# Poissons Ratio (x) = 0.22962 0.06980
# Poissons Ratio (y) = 0.26516 0.29580
# Poissons Ratio (z) = 0.10442 0.38321
#
# Static dielectric constant tensor:
#      x y z
#    x 2.011450 0.005650 -0.028100 
#    y 0.005650 1.968660 0.011740 
#    z -0.028100 0.011740 1.964890 
# 
# From -- ./inp_files/463537.got.cif
#   From: 2010.05.17/outbox.cif.g08.bks.cpg/sg2_232_cif.got.tgz:463537.got - 2010.06.03 11:33:40.
