data_PCOD9009990
_publ_section_title
;
Structure prediction by ZEFSAII (Michael W. Deem and Ramdas Pophale) SiO2 
 PCOD9009990
Probable space group: P -1
;
_chemical_formula_sum "Si O2"
_cell_formula_units_Z 15
_cell_length_a 11.058866
_cell_length_b 7.846977
_cell_length_c 15.953960
_cell_angle_alpha 49.057041
_cell_angle_beta 44.546926
_cell_angle_gamma 81.017370
_cell_volume 594.068362
_symmetry_space_group_name_H-M "P -1"
_symmetry_group_IT_number 2
_symmetry_cell_setting 'triclinic'
loop_
_space_group_symop_operation_xyz
x,y,z
-x,-y,-z
loop_
_atom_site_type_symbol
_atom_site_label
_atom_site_fract_x
_atom_site_fract_y
_atom_site_fract_z
Si Si1 0.213845 0.882006 0.379038
Si Si2 0.907370 0.033029 0.414517
Si Si3 0.922612 0.730802 0.906061
Si Si4 0.479418 0.518438 0.710527
Si Si5 0.394523 0.054493 0.613708
Si Si6 0.586110 0.051397 0.036778
Si Si7 0.048134 0.322632 0.699700
Si Si8 0.500000 0.500000 0.500000
O O1 0.144331 0.569018 0.504892
O O2 0.046138 0.932422 0.410402
O O3 0.200895 0.914227 0.474096
O O4 0.435959 0.088829 0.156460
O O5 0.048848 0.293457 0.198301
O O6 0.703969 0.778214 0.548410
O O7 0.144678 0.819751 0.806733
O O8 0.947656 0.022107 0.804139
O O9 0.707857 0.511415 0.132351
O O10 0.496558 0.605648 0.575916
O O11 0.445943 0.231499 0.828916
O O12 0.437394 0.163133 0.651535
O O13 0.500000 0.000000 0.500000
O O14 0.835982 0.289762 0.845559
O O15 0.500000 0.000000 0.000000
O O16 0.226960 0.365706 0.660092
#
# Coordination Sequence:
#
# PCOD9009990 Si02
#       8
#     2   2   2   2   2   2   2   1
#     4  11  22  37  57  90 125 161 209 253 320 381
#     4  10  22  36  58  88 126 164 197 261 320 381
#     4   9  20  40  60  85 120 154 207 259 314 382
#     4  10  21  40  61  89 121 159 210 258 317 386
#     4  10  22  40  64  91 123 170 215 264 331 373
#     4  11  22  39  66  94 125 165 212 258 321 388
#     4  10  22  39  63  89 121 167 209 263 318 369
#     4  10  22  42  64  90 132 162 218 276 302 388
#
# _framework density 25.249618999999999
#
# number of rings (size 3 to 8) (size 9 to 14) (size 15 to 20)
#    0.000    1.867    0.000    4.800    3.733    3.200 
#    0.000   14.000    0.000    0.000    0.000    0.000 
#    0.000    0.000    0.000    0.000    0.000    0.000 
#
# Total GULP energy -83511.157956 kJ/mol
# GULP energy per Si atom -5567.410530 kJ/mol
# Density = 2.519215 g / cm^3
# Si number density = 25.249619 Si / 1000 Ang^3
#
#
#
# Elastic Constant Matrix: (Units=GPa)
#
#
# Indices 1 2 3 4 5 6 
#
# 1 90.8170 36.1083 39.6573 22.3610 -10.5173 4.7575
# 2 36.1083 110.3544 29.0983 40.1451 -20.0928 11.6959
# 3 39.6573 29.0983 188.5184 60.0937 -26.9077 10.1325
# 4 22.3610 40.1451 60.0937 49.0007 -12.4733 1.7673
# 5 -10.5173 -20.0928 -26.9077 -12.4733 38.8431 8.9246
# 6 4.7575 11.6959 10.1325 1.7673 8.9246 41.4575
#
#
#
# Elastic Compliance Matrix: (Units=1/GPa)
#
#
# Indices 1 2 3 4 5 6 
#
# 1 0.013526 -0.003613 -0.002055 -0.000648 0.000171 -0.000040
# 2 -0.003613 0.016652 0.004471 -0.015411 0.007225 -0.006274
# 3 -0.002055 0.004471 0.010559 -0.014124 0.005497 -0.004187
# 4 -0.000648 -0.015411 -0.014124 0.049517 -0.003529 0.006523
# 5 0.000171 0.007225 0.005497 -0.003529 0.034665 -0.010714
# 6 -0.000040 -0.006274 -0.004187 0.006523 -0.010714 0.028947
#
#
# Mechanical properties :
#
#
# Convention : Reuss Voigt Hill
#
# Bulk Modulus (GPa) = 26.08026 66.60197 46.34111
# Shear Modulus (GPa) = 29.57862 44.84867 37.21365
#
# Velocity S-wave (km/s) = 3.42636 4.21908 3.84321
# Velocity P-wave (km/s) = 5.09947 7.08300 6.17145
#
# Compressibility (1/GPa) = 0.03834318
#
# Stress axis : x y z
#
# Youngs Moduli (GPa) = 73.93005 60.05308 94.70970
#
# Poissons Ratio (x) = 0.21697 0.19460
# Poissons Ratio (y) = 0.26711 -0.42344
# Poissons Ratio (z) = 0.15191 -0.26849
#
# Static dielectric constant tensor:
#      x y z
#    x 2.123100 -0.084930 0.049530 
#    y -0.084930 2.208040 0.045830 
#    z 0.049530 0.045830 2.023410 
# 
# From -- ./inp_files/565742.got.cif
#   From: 2010.05.17/outbox.cif.g08.bks.cpg/sg2_283_cif.got.tgz:565742.got - 2010.06.03 11:33:40.
