data_PCOD9009754
_publ_section_title
;
Structure prediction by ZEFSAII (Michael W. Deem and Ramdas Pophale) SiO2 
 PCOD9009754
Probable space group: P -1
;
_chemical_formula_sum "Si O2"
_cell_formula_units_Z 16
_cell_length_a 12.328126
_cell_length_b 9.554265
_cell_length_c 11.912679
_cell_angle_alpha 133.965513
_cell_angle_beta 116.260440
_cell_angle_gamma 38.969597
_cell_volume 620.306442
_symmetry_space_group_name_H-M "P -1"
_symmetry_group_IT_number 2
_symmetry_cell_setting 'triclinic'
loop_
_space_group_symop_operation_xyz
x,y,z
-x,-y,-z
loop_
_atom_site_type_symbol
_atom_site_label
_atom_site_fract_x
_atom_site_fract_y
_atom_site_fract_z
Si Si1 0.567520 0.339986 0.288227
Si Si2 0.302591 0.412076 0.440630
Si Si3 0.822263 0.158446 0.642555
Si Si4 0.535214 0.320778 0.018481
Si Si5 0.021113 0.273786 0.703227
Si Si6 0.066376 0.208607 0.079081
Si Si7 0.421230 0.068605 0.873541
Si Si8 0.952171 0.204044 0.261060
O O1 0.627819 0.449510 0.446627
O O2 0.361464 0.527016 0.298812
O O3 0.678389 0.019020 0.195072
O O4 0.567858 0.399798 0.191473
O O5 0.144401 0.551442 0.362086
O O6 0.468585 0.109662 0.289737
O O7 0.203136 0.521947 0.578930
O O8 0.970849 0.154505 0.696415
O O9 0.831134 0.976854 0.453418
O O10 0.869150 0.005276 0.697428
O O11 0.726636 0.996103 0.914801
O O12 0.381275 0.340625 0.978300
O O13 0.500000 0.500000 0.000000
O O14 0.015268 0.507835 0.862744
O O15 0.972152 0.294568 0.204062
O O16 0.061355 0.007698 0.901066
O O17 0.500000 0.000000 0.000000
#
# Coordination Sequence:
#
# PCOD9009754 Si02
#       8
#     2   2   2   2   2   2   2   2
#     4  11  21  39  67  94 132 167 209 259 321 377
#     4  11  20  40  65  97 121 174 209 260 312 391
#     4  10  21  40  59 101 124 164 209 273 307 371
#     4  11  22  40  65  94 130 165 211 272 311 370
#     4  10  22  39  67  87 133 163 215 261 320 376
#     4  11  21  45  64  91 124 181 211 255 320 388
#     4  10  22  39  64  95 125 172 204 255 332 386
#     4  10  24  39  69  87 129 170 219 255 318 376
#
# _framework density 25.793702
#
# number of rings (size 3 to 8) (size 9 to 14) (size 15 to 20)
#    0.000    1.500    3.750    1.125    0.000    2.500 
#    2.250    5.625    0.000    0.000    0.000    0.000 
#    0.000    0.000    0.000    0.000    0.000    0.000 
#
# Total GULP energy -89103.516126 kJ/mol
# GULP energy per Si atom -5568.969758 kJ/mol
# Density = 2.573499 g / cm^3
# Si number density = 25.793702 Si / 1000 Ang^3
#
#
#
# Elastic Constant Matrix: (Units=GPa)
#
#
# Indices 1 2 3 4 5 6 
#
# 1 44.0386 1.0166 25.6943 -12.0895 -0.2555 2.7204
# 2 1.0166 93.6096 20.5075 3.5096 -6.9980 18.8646
# 3 25.6943 20.5075 125.1204 -6.3409 -12.4201 17.2775
# 4 -12.0895 3.5096 -6.3409 37.8143 11.8965 -10.1213
# 5 -0.2555 -6.9980 -12.4201 11.8965 51.9866 3.5632
# 6 2.7204 18.8646 17.2775 -10.1213 3.5632 30.7657
#
#
#
# Elastic Compliance Matrix: (Units=1/GPa)
#
#
# Indices 1 2 3 4 5 6 
#
# 1 0.029276 -0.000823 -0.006560 0.011326 -0.004527 0.005850
# 2 -0.000823 0.013284 -0.000554 -0.005370 0.003562 -0.009940
# 3 -0.006560 -0.000554 0.010512 -0.003122 0.003559 -0.006423
# 4 0.011326 -0.005370 -0.003122 0.038469 -0.011452 0.018026
# 5 -0.004527 0.003562 0.003559 -0.011452 0.023871 -0.010315
# 6 0.005850 -0.009940 -0.006423 0.018026 -0.010315 0.048814
#
#
# Mechanical properties :
#
#
# Convention : Reuss Voigt Hill
#
# Bulk Modulus (GPa) = 26.88381 39.68949 33.28665
# Shear Modulus (GPa) = 25.97423 38.48335 32.22879
#
# Velocity S-wave (km/s) = 3.17677 3.86679 3.53864
# Velocity P-wave (km/s) = 4.88887 5.94615 5.44324
#
# Compressibility (1/GPa) = 0.03719711
#
# Stress axis : x y z
#
# Youngs Moduli (GPa) = 34.15823 75.27921 95.12606
#
# Poissons Ratio (x) = 0.06194 0.62406
# Poissons Ratio (y) = 0.02811 0.05272
# Poissons Ratio (z) = 0.22409 0.04172
#
# Static dielectric constant tensor:
#      x y z
#    x 2.282570 -0.126310 -0.066340 
#    y -0.126310 2.049570 0.036520 
#    z -0.066340 0.036520 2.112800 
# 
# From -- ./inp_files/420059.got.cif
#   From: 2010.05.17/outbox.cif.g08.bks.cpg/sg2_211_cif.got.tgz:420059.got - 2010.06.03 11:33:40.
