data_PCOD9009686
_publ_section_title
;
Structure prediction by ZEFSAII (Michael W. Deem and Ramdas Pophale) SiO2 
 PCOD9009686
Probable space group: P -1
;
_chemical_formula_sum "Si O2"
_cell_formula_units_Z 16
_cell_length_a 18.247978
_cell_length_b 11.566221
_cell_length_c 9.138380
_cell_angle_alpha 51.715378
_cell_angle_beta 31.400336
_cell_angle_gamma 48.777506
_cell_volume 747.781628
_symmetry_space_group_name_H-M "P -1"
_symmetry_group_IT_number 2
_symmetry_cell_setting 'triclinic'
loop_
_space_group_symop_operation_xyz
x,y,z
-x,-y,-z
loop_
_atom_site_type_symbol
_atom_site_label
_atom_site_fract_x
_atom_site_fract_y
_atom_site_fract_z
Si Si1 0.603249 0.848826 0.855886
Si Si2 0.243121 0.461945 0.639046
Si Si3 0.894160 0.164263 0.201565
Si Si4 0.066536 0.113361 0.214423
Si Si5 0.425243 0.616954 0.404456
Si Si6 0.354243 0.115722 0.588553
Si Si7 0.991460 0.607757 0.716892
Si Si8 0.063547 0.201034 0.605850
O O1 0.622066 0.880249 0.628127
O O2 0.767457 0.802836 0.678065
O O3 0.535410 0.708725 0.094158
O O4 0.500000 0.000000 0.000000
O O5 0.366434 0.532036 0.438768
O O6 0.318878 0.284919 0.591707
O O7 0.140032 0.535185 0.615903
O O8 0.129169 0.471532 0.962874
O O9 0.722992 0.248305 0.394047
O O10 0.938720 0.209357 0.248224
O O11 0.934347 0.976329 0.293609
O O12 0.991903 0.217353 0.875206
O O13 0.091923 0.220892 0.213120
O O14 0.214843 0.056061 0.911590
O O15 0.000000 0.000000 0.500000
O O16 0.500000 0.500000 0.500000
O O17 0.500000 0.000000 0.500000
O O18 0.020851 0.652032 0.467709
#
# Coordination Sequence:
#
# PCOD9009686 Si02
#       8
#     2   2   2   2   2   2   2   2
#     4  12  27  47  70 105 149 190 239 295 362 431
#     4  10  24  45  67 103 140 183 244 290 358 434
#     4  11  23  42  67 107 140 180 243 295 345 432
#     4  11  21  41  71 103 136 181 237 290 358 414
#     4  12  27  45  72 103 150 195 231 300 367 428
#     4  11  28  45  72 104 142 191 240 298 355 435
#     4  10  21  39  73  98 136 183 230 298 354 415
#     4  11  23  42  71 103 141 183 240 297 350 425
#
# _framework density 21.396622000000001
#
# number of rings (size 3 to 8) (size 9 to 14) (size 15 to 20)
#    0.000    1.000    5.000    0.750    7.000    1.500 
#    0.000    1.875    0.000    0.000    0.000    0.000 
#    0.000    0.000    0.000    0.000    0.000    0.000 
#
# Total GULP energy -89279.590623 kJ/mol
# GULP energy per Si atom -5579.974414 kJ/mol
# Density = 2.134792 g / cm^3
# Si number density = 21.396622 Si / 1000 Ang^3
#
#
#
# Elastic Constant Matrix: (Units=GPa)
#
#
# Indices 1 2 3 4 5 6 
#
# 1 103.4557 43.5432 59.4541 -16.0208 0.3132 -19.3615
# 2 43.5432 97.9059 54.4989 -12.0728 6.2147 -11.2042
# 3 59.4541 54.4989 165.7228 -29.4026 -3.9024 -11.4285
# 4 -16.0208 -12.0728 -29.4026 34.8600 -2.5273 -0.7069
# 5 0.3132 6.2147 -3.9024 -2.5273 41.8222 -3.3015
# 6 -19.3615 -11.2042 -11.4285 -0.7069 -3.3015 47.6342
#
#
#
# Elastic Compliance Matrix: (Units=1/GPa)
#
#
# Indices 1 2 3 4 5 6 
#
# 1 0.014266 -0.003864 -0.003044 0.002787 0.000687 0.004248
# 2 -0.003864 0.013956 -0.003157 0.000246 -0.002261 0.000801
# 3 -0.003044 -0.003157 0.009191 0.005392 0.001709 0.000424
# 4 0.002787 0.000246 0.005392 0.034868 0.002805 0.003196
# 5 0.000687 -0.002261 0.001709 0.002805 0.024722 0.001912
# 6 0.004248 0.000801 0.000424 0.003196 0.001912 0.023190
#
#
# Mechanical properties :
#
#
# Convention : Reuss Voigt Hill
#
# Bulk Modulus (GPa) = 57.86468 75.78631 66.82550
# Shear Modulus (GPa) = 34.22699 38.83583 36.53141
#
# Velocity S-wave (km/s) = 4.00389 4.26496 4.13649
# Velocity P-wave (km/s) = 6.96257 7.72980 7.35620
#
# Compressibility (1/GPa) = 0.01728170
#
# Stress axis : x y z
#
# Youngs Moduli (GPa) = 70.09618 71.65551 108.80800
#
# Poissons Ratio (x) = 0.27690 0.33117
# Poissons Ratio (y) = 0.27088 0.34354
# Poissons Ratio (z) = 0.21335 0.22624
#
# Static dielectric constant tensor:
#      x y z
#    x 1.773190 -0.060990 0.056220 
#    y -0.060990 1.640910 0.092320 
#    z 0.056220 0.092320 1.714700 
# 
# From -- ./inp_files/332810.got.cif
#   From: 2010.05.17/outbox.cif.g08.bks.cpg/sg2_167_cif.got.tgz:332810.got - 2010.06.03 11:33:40.
