data_PCOD9009254
_publ_section_title
;
Structure prediction by ZEFSAII (Michael W. Deem and Ramdas Pophale) SiO2 
 PCOD9009254
Probable space group: P -1
;
_chemical_formula_sum "Si O2"
_cell_formula_units_Z 16
_cell_length_a 10.332644
_cell_length_b 8.513323
_cell_length_c 15.483917
_cell_angle_alpha 145.547317
_cell_angle_beta 116.766244
_cell_angle_gamma 61.661324
_cell_volume 673.432596
_symmetry_space_group_name_H-M "P -1"
_symmetry_group_IT_number 2
_symmetry_cell_setting 'triclinic'
loop_
_space_group_symop_operation_xyz
x,y,z
-x,-y,-z
loop_
_atom_site_type_symbol
_atom_site_label
_atom_site_fract_x
_atom_site_fract_y
_atom_site_fract_z
Si Si1 0.699679 0.171798 0.603162
Si Si2 0.438209 0.326570 0.727212
Si Si3 0.115754 0.755257 0.465968
Si Si4 0.395023 0.108305 0.283664
Si Si5 0.656894 0.087635 0.077898
Si Si6 0.100068 0.499612 0.113161
Si Si7 0.920691 0.754895 0.835967
Si Si8 0.336679 0.691351 0.635649
O O1 0.551000 0.315936 0.674428
O O2 0.745578 0.315910 0.594077
O O3 0.825644 0.225700 0.731953
O O4 0.675377 0.868258 0.426507
O O5 0.364269 0.648418 0.874984
O O6 0.535775 0.165609 0.762320
O O7 0.045887 0.479383 0.336302
O O8 0.190197 0.850561 0.615046
O O9 0.000000 0.000000 0.500000
O O10 0.248537 0.105689 0.181519
O O11 0.361329 0.368785 0.461539
O O12 0.524023 0.179559 0.293910
O O13 0.691862 0.249762 0.247190
O O14 0.500000 0.000000 0.000000
O O15 0.774781 0.793363 0.975900
O O16 0.029417 0.464427 0.168490
O O17 0.000000 0.500000 0.000000
O O18 0.000000 0.000000 0.000000
#
# Coordination Sequence:
#
# PCOD9009254 Si02
#       8
#     2   2   2   2   2   2   2   2
#     4  10  21  41  70  96 125 174 221 269 337 390
#     4  11  22  40  72 100 129 164 224 284 327 393
#     4  10  22  41  66  92 130 173 221 271 320 393
#     4  10  21  41  69  97 130 169 214 281 332 388
#     4  12  25  41  64 102 133 168 221 277 326 394
#     4  11  26  46  66  91 139 183 213 265 345 404
#     4  10  24  43  66  92 128 175 219 264 332 402
#     4  10  21  39  67  98 127 167 222 269 336 386
#
# _framework density 23.758873000000001
#
# number of rings (size 3 to 8) (size 9 to 14) (size 15 to 20)
#    0.000    1.500    2.500    2.250   10.500    1.000 
#    0.000    1.875    0.000    0.000    0.000    0.000 
#    0.000    0.000    0.000    0.000    0.000    0.000 
#
# Total GULP energy -89202.722787 kJ/mol
# GULP energy per Si atom -5575.170174 kJ/mol
# Density = 2.370480 g / cm^3
# Si number density = 23.758873 Si / 1000 Ang^3
#
#
#
# Elastic Constant Matrix: (Units=GPa)
#
#
# Indices 1 2 3 4 5 6 
#
# 1 21.9975 11.6271 20.3455 0.5461 8.1897 -3.9826
# 2 11.6271 162.6138 56.8635 -8.0514 14.3199 -26.4312
# 3 20.3455 56.8635 135.4051 -5.0426 40.9601 -16.4387
# 4 0.5461 -8.0514 -5.0426 51.5635 -8.5487 0.4992
# 5 8.1897 14.3199 40.9601 -8.5487 44.0299 -7.2571
# 6 -3.9826 -26.4312 -16.4387 0.4992 -7.2571 30.9694
#
#
#
# Elastic Compliance Matrix: (Units=1/GPa)
#
#
# Indices 1 2 3 4 5 6 
#
# 1 0.053673 -0.001115 -0.006288 -0.002017 -0.003876 0.001737
# 2 -0.001115 0.008090 -0.002960 0.001175 0.001468 0.005514
# 3 -0.006288 -0.002960 0.012558 -0.000756 -0.009513 0.001114
# 4 -0.002017 0.001175 -0.000756 0.020314 0.004829 0.001147
# 5 -0.003876 0.001468 -0.009513 0.004829 0.033309 0.003432
# 6 0.001737 0.005514 0.001114 0.001147 0.003432 0.038596
#
#
# Mechanical properties :
#
#
# Convention : Reuss Voigt Hill
#
# Bulk Modulus (GPa) = 18.65900 55.29875 36.97888
# Shear Modulus (GPa) = 24.37464 40.72460 32.54962
#
# Velocity S-wave (km/s) = 3.20647 4.14464 3.70536
# Velocity P-wave (km/s) = 4.64533 6.79923 5.82274
#
# Compressibility (1/GPa) = 0.05359343
#
# Stress axis : x y z
#
# Youngs Moduli (GPa) = 18.63149 123.61290 79.62965
#
# Poissons Ratio (x) = 0.13783 0.50072
# Poissons Ratio (y) = 0.02077 0.23574
# Poissons Ratio (z) = 0.11716 0.36595
#
# Static dielectric constant tensor:
#      x y z
#    x 2.029900 -0.029890 0.004310 
#    y -0.029890 1.989340 0.019220 
#    z 0.004310 0.019220 1.994040 
# 
# From -- ./inp_files/567129.got.cif
#   From: 2010.05.17/outbox.cif.g08.bks.cpg/sg2_284_cif.got.tgz:567129.got - 2010.06.03 11:33:40.
