data_PCOD9009856
_publ_section_title
;
Structure prediction by ZEFSAII (Michael W. Deem and Ramdas Pophale) SiO2 
 PCOD9009856
Probable space group: P -1
;
_chemical_formula_sum "Si O2"
_cell_formula_units_Z 16
_cell_length_a 25.433506
_cell_length_b 8.059038
_cell_length_c 5.997890
_cell_angle_alpha 123.954543
_cell_angle_beta 111.496654
_cell_angle_gamma 38.460632
_cell_volume 628.242958
_symmetry_space_group_name_H-M "P -1"
_symmetry_group_IT_number 2
_symmetry_cell_setting 'triclinic'
loop_
_space_group_symop_operation_xyz
x,y,z
-x,-y,-z
loop_
_atom_site_type_symbol
_atom_site_label
_atom_site_fract_x
_atom_site_fract_y
_atom_site_fract_z
Si Si1 0.013619 0.281871 0.691623
Si Si2 0.811310 0.097355 0.461609
Si Si3 0.692348 0.107548 0.503658
Si Si4 0.489556 0.285726 0.817163
Si Si5 0.700355 0.298129 0.049307
Si Si6 0.926406 0.208853 0.232672
Si Si7 0.493980 0.274187 0.321793
Si Si8 0.741627 0.572940 0.030682
O O1 0.936754 0.393199 0.514163
O O2 0.089244 0.138092 0.532256
O O3 0.051485 0.009988 0.706572
O O4 0.000000 0.500000 0.000000
O O5 0.772605 0.015800 0.472641
O O6 0.783909 0.112280 0.184298
O O7 0.761610 0.427750 0.711859
O O8 0.608799 0.467377 0.631318
O O9 0.683489 0.921846 0.228721
O O10 0.707680 0.065580 0.759403
O O11 0.389472 0.491568 0.809732
O O12 0.527020 0.123176 0.508372
O O13 0.500000 0.500000 0.000000
O O14 0.518957 0.136593 0.003462
O O15 0.702682 0.493594 0.051344
O O16 0.833488 0.402651 0.139567
O O17 0.000000 0.000000 0.000000
O O18 0.500000 0.500000 0.500000
#
# Coordination Sequence:
#
# PCOD9009856 Si02
#       8
#     2   2   2   2   2   2   2   2
#     4  11  26  40  62  88 118 161 216 258 323 388
#     4  11  22  40  59  89 120 157 207 268 314 379
#     4  10  23  37  63  92 117 168 212 253 328 386
#     4   9  17  33  62  91 122 169 211 257 322 387
#     4  10  21  40  60  88 126 159 209 259 317 377
#     4  11  24  43  57  84 123 162 200 264 323 373
#     4   9  17  34  60  93 124 164 215 262 316 388
#     4  11  24  40  61  89 127 160 210 267 322 386
#
# _framework density 25.467853999999999
#
# number of rings (size 3 to 8) (size 9 to 14) (size 15 to 20)
#    0.000    1.750    3.750    0.000    3.500    1.500 
#    0.000    0.000    0.000   18.750    0.000    0.000 
#    0.000    0.000    0.000    0.000    0.000    0.000 
#
# Total GULP energy -89318.427634 kJ/mol
# GULP energy per Si atom -5582.401727 kJ/mol
# Density = 2.540989 g / cm^3
# Si number density = 25.467854 Si / 1000 Ang^3
#
#
#
# Elastic Constant Matrix: (Units=GPa)
#
#
# Indices 1 2 3 4 5 6 
#
# 1 134.8919 20.9387 16.8567 -1.1207 4.1972 -19.4511
# 2 20.9387 51.5009 13.5116 -2.9303 4.0389 -4.8015
# 3 16.8567 13.5116 161.6919 -3.2656 11.0334 4.5328
# 4 -1.1207 -2.9303 -3.2656 41.2669 2.4702 3.7094
# 5 4.1972 4.0389 11.0334 2.4702 46.6459 -14.9354
# 6 -19.4511 -4.8015 4.5328 3.7094 -14.9354 31.4912
#
#
#
# Elastic Compliance Matrix: (Units=1/GPa)
#
#
# Indices 1 2 3 4 5 6 
#
# 1 0.008795 -0.002932 -0.000966 -0.000682 0.001643 0.005984
# 2 -0.002932 0.021222 -0.001403 0.001285 -0.000988 0.001007
# 3 -0.000966 -0.001403 0.006664 0.000812 -0.002368 -0.002988
# 4 -0.000682 0.001285 0.000812 0.024981 -0.003085 -0.004748
# 5 0.001643 -0.000988 -0.002368 -0.003085 0.026648 0.014207
# 6 0.005984 0.001007 -0.002988 -0.004748 0.014207 0.043332
#
#
# Mechanical properties :
#
#
# Convention : Reuss Voigt Hill
#
# Bulk Modulus (GPa) = 38.34305 50.07765 44.21035
# Shear Modulus (GPa) = 33.12660 43.66597 38.39629
#
# Velocity S-wave (km/s) = 3.61047 4.14521 3.88704
# Velocity P-wave (km/s) = 5.69814 6.52810 6.12719
#
# Compressibility (1/GPa) = 0.02608035
#
# Stress axis : x y z
#
# Youngs Moduli (GPa) = 113.69751 47.12159 150.05571
#
# Poissons Ratio (x) = 0.13818 0.14488
# Poissons Ratio (y) = 0.33340 0.21046
# Poissons Ratio (z) = 0.10978 0.06609
#
# Static dielectric constant tensor:
#      x y z
#    x 2.008650 0.036290 -0.045930 
#    y 0.036290 2.053910 -0.055280 
#    z -0.045930 -0.055280 2.124350 
# 
# From -- ./inp_files/12786.got.cif
#   From: 2010.05.17/outbox.cif.g08.bks.cpg/sg2_7_cif.got.tgz:12786.got - 2010.06.03 11:33:40.
