data_PCOD9009264
_publ_section_title
;
Structure prediction by ZEFSAII (Michael W. Deem and Ramdas Pophale) SiO2 
 PCOD9009264
Probable space group: P -1
;
_chemical_formula_sum "Si O2"
_cell_formula_units_Z 14
_cell_length_a 5.291137
_cell_length_b 12.002367
_cell_length_c 11.727754
_cell_angle_alpha 54.137148
_cell_angle_beta 100.338520
_cell_angle_gamma 87.363942
_cell_volume 583.024142
_symmetry_space_group_name_H-M "P -1"
_symmetry_group_IT_number 2
_symmetry_cell_setting 'triclinic'
loop_
_space_group_symop_operation_xyz
x,y,z
-x,-y,-z
loop_
_atom_site_type_symbol
_atom_site_label
_atom_site_fract_x
_atom_site_fract_y
_atom_site_fract_z
Si Si1 0.429624 0.027144 0.111480
Si Si2 0.354346 0.192641 0.561648
Si Si3 0.787598 0.466313 0.094001
Si Si4 0.826076 0.195518 0.160805
Si Si5 0.778116 0.497175 0.577439
Si Si6 0.138614 0.940836 0.429276
Si Si7 0.982745 0.695938 0.102387
O O1 0.604265 0.109389 0.159738
O O2 0.477859 0.876667 0.271812
O O3 0.171331 0.145790 0.001382
O O4 0.500000 0.000000 0.000000
O O5 0.277898 0.358870 0.442144
O O6 0.557932 0.130462 0.513959
O O7 0.068784 0.151652 0.574037
O O8 0.821893 0.297427 0.209092
O O9 0.816477 0.574200 0.132970
O O10 0.500000 0.500000 0.000000
O O11 0.000000 0.500000 0.000000
O O12 0.089440 0.080397 0.264035
O O13 0.828502 0.295515 0.993441
O O14 0.500000 0.500000 0.500000
O O15 0.000000 0.500000 0.500000
O O16 0.863918 0.358684 0.740759
O O17 0.000000 0.000000 0.500000
#
# Coordination Sequence:
#
# PCOD9009264 Si02
#       7
#     2   2   2   2   2   2   2
#     4  11  23  41  73 100 141 187 240 298 352 428
#     4  11  25  48  67 106 141 187 240 291 359 433
#     4  10  21  39  67  98 138 172 222 293 350 413
#     4  10  23  43  67 106 136 180 243 292 355 421
#     4  12  29  49  72 103 148 191 243 295 361 433
#     4  11  24  45  73 100 146 185 235 294 362 435
#     4  11  24  44  72 101 141 185 239 298 358 419
#
# _framework density 24.012726000000001
#
# number of rings (size 3 to 8) (size 9 to 14) (size 15 to 20)
#    0.000    1.143    2.857    2.143    6.000    1.714 
#    5.143    0.000    0.000    0.000    0.000    0.000 
#    0.000    0.000    0.000    0.000    0.000    0.000 
#
# Total GULP energy -78006.849451 kJ/mol
# GULP energy per Si atom -5571.917818 kJ/mol
# Density = 2.395807 g / cm^3
# Si number density = 24.012726 Si / 1000 Ang^3
#
#
#
# Elastic Constant Matrix: (Units=GPa)
#
#
# Indices 1 2 3 4 5 6 
#
# 1 114.3457 16.0250 8.3098 -0.2955 6.2620 -11.9136
# 2 16.0250 53.0113 -5.6033 -9.5088 -5.9898 -13.5137
# 3 8.3098 -5.6033 93.6953 1.4942 0.4283 -10.0196
# 4 -0.2955 -9.5088 1.4942 34.7719 -6.2327 2.1960
# 5 6.2620 -5.9898 0.4283 -6.2327 31.6829 -2.8076
# 6 -11.9136 -13.5137 -10.0196 2.1960 -2.8076 44.8201
#
#
#
# Elastic Compliance Matrix: (Units=1/GPa)
#
#
# Indices 1 2 3 4 5 6 
#
# 1 0.009526 -0.003172 -0.000865 -0.001299 -0.002613 0.001282
# 2 -0.003172 0.023965 0.002314 0.007272 0.007177 0.006993
# 3 -0.000865 0.002314 0.011206 0.000086 0.000741 0.003015
# 4 -0.001299 0.007272 0.000086 0.032120 0.008019 0.000795
# 5 -0.002613 0.007177 0.000741 0.008019 0.035310 0.003454
# 6 0.001282 0.006993 0.003015 0.000795 0.003454 0.025612
#
#
# Mechanical properties :
#
#
# Convention : Reuss Voigt Hill
#
# Bulk Modulus (GPa) = 24.24245 33.16839 28.70542
# Shear Modulus (GPa) = 32.27137 38.40971 35.34054
#
# Velocity S-wave (km/s) = 3.66994 4.00378 3.84049
# Velocity P-wave (km/s) = 5.29863 5.93435 5.62548
#
# Compressibility (1/GPa) = 0.04124996
#
# Stress axis : x y z
#
# Youngs Moduli (GPa) = 104.97385 41.72678 89.24109
#
# Poissons Ratio (x) = 0.13237 0.07718
# Poissons Ratio (y) = 0.33302 -0.20647
# Poissons Ratio (z) = 0.09078 -0.09654
#
# Static dielectric constant tensor:
#      x y z
#    x 2.120460 0.325320 -0.242300 
#    y 0.325320 2.652190 -0.299330 
#    z -0.242300 -0.299330 2.138780 
# 
# From -- ./inp_files/70415.got.cif
#   From: 2010.05.17/outbox.cif.g08.bks.cpg/sg2_36_cif.got.tgz:70415.got - 2010.06.03 11:33:40.
