data_PCOD9009302
_publ_section_title
;
Structure prediction by ZEFSAII (Michael W. Deem and Ramdas Pophale) SiO2 
 PCOD9009302
Probable space group: P -1
;
_chemical_formula_sum "Si O2"
_cell_formula_units_Z 16
_cell_length_a 9.178738
_cell_length_b 11.100276
_cell_length_c 11.508112
_cell_angle_alpha 124.225006
_cell_angle_beta 100.844459
_cell_angle_gamma 51.439213
_cell_volume 733.763295
_symmetry_space_group_name_H-M "P -1"
_symmetry_group_IT_number 2
_symmetry_cell_setting 'triclinic'
loop_
_space_group_symop_operation_xyz
x,y,z
-x,-y,-z
loop_
_atom_site_type_symbol
_atom_site_label
_atom_site_fract_x
_atom_site_fract_y
_atom_site_fract_z
Si Si1 0.911395 0.145429 0.238433
Si Si2 0.595676 0.279552 0.421926
Si Si3 0.261374 0.785116 0.990401
Si Si4 0.063697 0.538758 0.645572
Si Si5 0.981205 0.348593 0.056925
Si Si6 0.593181 0.993595 0.131892
Si Si7 0.476301 0.188332 0.584854
Si Si8 0.406559 0.292321 0.884032
O O1 0.818453 0.158589 0.352285
O O2 0.885426 0.331820 0.318172
O O3 0.789478 0.149988 0.115882
O O4 0.132105 0.972079 0.151899
O O5 0.500000 0.500000 0.500000
O O6 0.574713 0.222154 0.515664
O O7 0.524303 0.193000 0.278807
O O8 0.482628 0.665807 0.991440
O O9 0.163565 0.691828 0.950953
O O10 0.253046 0.340613 0.606619
O O11 0.000000 0.500000 0.500000
O O12 0.947534 0.625193 0.796002
O O13 0.825584 0.543034 0.068591
O O14 0.172649 0.165349 0.928091
O O15 0.543648 0.899155 0.165910
O O16 0.500000 0.000000 0.000000
O O17 0.497437 0.249742 0.746871
O O18 0.500000 0.000000 0.500000
#
# Coordination Sequence:
#
# PCOD9009302 Si02
#       8
#     2   2   2   2   2   2   2   2
#     4  10  21  39  68 101 131 173 232 301 331 412
#     4  12  24  45  69  99 143 182 236 292 348 414
#     4  10  21  41  70 100 135 175 233 286 361 405
#     4  10  23  39  68  98 134 183 232 285 347 420
#     4  10  23  43  67 103 142 179 231 292 355 415
#     4  12  26  43  74 106 137 185 238 296 347 416
#     4  11  24  43  66  95 141 187 228 286 359 422
#     4  11  24  43  70 101 140 185 230 291 359 423
#
# _framework density 21.805396999999999
#
# number of rings (size 3 to 8) (size 9 to 14) (size 15 to 20)
#    0.000    1.250    3.750    1.500    7.000    0.000 
#    2.250    0.625    5.500    0.000    0.000    0.000 
#    0.000    0.000    0.000    0.000    0.000    0.000 
#
# Total GULP energy -89201.579063 kJ/mol
# GULP energy per Si atom -5575.098691 kJ/mol
# Density = 2.175577 g / cm^3
# Si number density = 21.805397 Si / 1000 Ang^3
#
#
#
# Elastic Constant Matrix: (Units=GPa)
#
#
# Indices 1 2 3 4 5 6 
#
# 1 72.7612 32.8246 42.9792 -3.2129 -9.8806 11.8465
# 2 32.8246 99.3273 53.7524 1.0251 6.9529 18.7523
# 3 42.9792 53.7524 105.0876 1.9648 1.6110 1.3458
# 4 -3.2129 1.0251 1.9648 39.4600 4.5746 11.9881
# 5 -9.8806 6.9529 1.6110 4.5746 41.2593 -4.3993
# 6 11.8465 18.7523 1.3458 11.9881 -4.3993 39.0207
#
#
#
# Elastic Compliance Matrix: (Units=1/GPa)
#
#
# Indices 1 2 3 4 5 6 
#
# 1 0.020801 -0.002161 -0.007465 0.003245 0.004692 -0.005487
# 2 -0.002161 0.016743 -0.007559 0.002836 -0.004263 -0.008482
# 3 -0.007465 -0.007559 0.016416 -0.003119 -0.000140 0.006275
# 4 0.003245 0.002836 -0.003119 0.029770 -0.004144 -0.011854
# 5 0.004692 -0.004263 -0.000140 -0.004144 0.027072 0.004954
# 6 -0.005487 -0.008482 0.006275 -0.011854 0.004954 0.035353
#
#
# Mechanical properties :
#
#
# Convention : Reuss Voigt Hill
#
# Bulk Modulus (GPa) = 51.04501 59.58761 55.31631
# Shear Modulus (GPa) = 26.73020 33.78932 30.25976
#
# Velocity S-wave (km/s) = 3.50502 3.94075 3.72925
# Velocity P-wave (km/s) = 6.31192 6.93486 6.63071
#
# Compressibility (1/GPa) = 0.01959056
#
# Stress axis : x y z
#
# Youngs Moduli (GPa) = 48.07365 59.72628 60.91783
#
# Poissons Ratio (x) = 0.12905 0.45473
# Poissons Ratio (y) = 0.10387 0.46051
# Poissons Ratio (z) = 0.35885 0.45150
#
# Static dielectric constant tensor:
#      x y z
#    x 1.859170 0.030740 0.015080 
#    y 0.030740 1.929270 -0.061870 
#    z 0.015080 -0.061870 1.874620 
# 
# From -- ./inp_files/393136.got.cif
#   From: 2010.05.17/outbox.cif.g08.bks.cpg/sg2_197_cif.got.tgz:393136.got - 2010.06.03 11:33:40.
