data_PCOD9009380
_publ_section_title
;
Structure prediction by ZEFSAII (Michael W. Deem and Ramdas Pophale) SiO2 
 PCOD9009380
Probable space group: P -1
;
_chemical_formula_sum "Si O2"
_cell_formula_units_Z 14
_cell_length_a 20.436313
_cell_length_b 9.457589
_cell_length_c 9.924363
_cell_angle_alpha 38.444483
_cell_angle_beta 29.739433
_cell_angle_gamma 38.767867
_cell_volume 559.891984
_symmetry_space_group_name_H-M "P -1"
_symmetry_group_IT_number 2
_symmetry_cell_setting 'triclinic'
loop_
_space_group_symop_operation_xyz
x,y,z
-x,-y,-z
loop_
_atom_site_type_symbol
_atom_site_label
_atom_site_fract_x
_atom_site_fract_y
_atom_site_fract_z
Si Si1 0.197731 0.522759 0.998028
Si Si2 0.099835 0.769245 0.568142
Si Si3 0.661667 0.307838 0.612457
Si Si4 0.525162 0.270862 0.223384
Si Si5 0.710713 0.170297 0.212512
Si Si6 0.931881 0.656064 0.207929
Si Si7 0.448821 0.060866 0.828410
O O1 0.249587 0.696041 0.675496
O O2 0.224952 0.623286 0.017368
O O3 0.301692 0.257195 0.982752
O O4 0.040666 0.558325 0.207848
O O5 0.234523 0.809955 0.362397
O O6 0.134280 0.541609 0.577604
O O7 0.000000 0.000000 0.500000
O O8 0.020844 0.702312 0.887321
O O9 0.596658 0.588761 0.558157
O O10 0.548716 0.170376 0.912167
O O11 0.664907 0.194522 0.119636
O O12 0.522758 0.060698 0.282313
O O13 0.500000 0.500000 0.000000
O O14 0.570284 0.178804 0.538162
O O15 0.818613 0.910986 0.246129
#
# Coordination Sequence:
#
# PCOD9009380 Si02
#       7
#     2   2   2   2   2   2   2
#     4  11  24  44  63  93 134 171 212 261 314 388
#     4  10  21  39  68  95 126 167 212 266 319 373
#     4  10  22  40  63  98 129 162 218 267 314 377
#     4  10  23  39  64  96 127 160 215 274 315 374
#     4  12  24  42  66  94 133 173 210 260 328 378
#     4  10  24  40  65  94 130 167 214 259 319 378
#     4  11  23  40  69  91 128 169 215 264 318 374
#
# _framework density 25.004821
#
# number of rings (size 3 to 8) (size 9 to 14) (size 15 to 20)
#    0.000    1.429    1.429    3.000   10.000    0.571 
#    2.571    0.000    0.000    5.143    0.000    0.000 
#    0.000    0.000    0.000    0.000    0.000    0.000 
#
# Total GULP energy -78280.619232 kJ/mol
# GULP energy per Si atom -5591.472802 kJ/mol
# Density = 2.494791 g / cm^3
# Si number density = 25.004821 Si / 1000 Ang^3
#
#
#
# Elastic Constant Matrix: (Units=GPa)
#
#
# Indices 1 2 3 4 5 6 
#
# 1 95.3724 36.3408 8.4387 -4.1660 -26.4146 9.6222
# 2 36.3408 150.7542 -8.3935 -9.6320 -27.9813 -16.1649
# 3 8.4387 -8.3935 57.0197 -10.8021 -12.5212 0.9701
# 4 -4.1660 -9.6320 -10.8021 38.1611 1.4262 -10.4984
# 5 -26.4146 -27.9813 -12.5212 1.4262 34.4946 3.6598
# 6 9.6222 -16.1649 0.9701 -10.4984 3.6598 28.2545
#
#
#
# Elastic Compliance Matrix: (Units=1/GPa)
#
#
# Indices 1 2 3 4 5 6 
#
# 1 0.015276 -0.002949 -0.000732 -0.002125 0.010078 -0.008960
# 2 -0.002949 0.009881 0.004114 0.005207 0.006224 0.007645
# 3 -0.000732 0.004114 0.021857 0.007711 0.010029 0.003419
# 4 -0.002125 0.005207 0.007711 0.033688 0.002342 0.015652
# 5 0.010078 0.006224 0.010029 0.002342 0.045861 -0.005286
# 6 -0.008960 0.007645 0.003419 0.015652 -0.005286 0.049201
#
#
# Mechanical properties :
#
#
# Convention : Reuss Voigt Hill
#
# Bulk Modulus (GPa) = 20.88572 41.76873 31.32722
# Shear Modulus (GPa) = 26.19756 37.96604 32.08180
#
# Velocity S-wave (km/s) = 3.24033 3.90083 3.58582
# Velocity P-wave (km/s) = 4.72974 6.08516 5.44975
#
# Compressibility (1/GPa) = 0.04787960
#
# Stress axis : x y z
#
# Youngs Moduli (GPa) = 65.46145 101.20545 45.75265
#
# Poissons Ratio (x) = 0.29847 0.03349
# Poissons Ratio (y) = 0.19305 -0.18823
# Poissons Ratio (z) = 0.04792 -0.41637
#
# Static dielectric constant tensor:
#      x y z
#    x 2.056870 0.002930 0.068600 
#    y 0.002930 1.940950 0.000590 
#    z 0.068600 0.000590 2.037340 
# 
# From -- ./inp_files/256126.got.cif
#   From: 2010.05.17/outbox.cif.g08.bks.cpg/sg2_129_cif.got.tgz:256126.got - 2010.06.03 11:33:40.
