data_PCOD9009201
_publ_section_title
;
Structure prediction by ZEFSAII (Michael W. Deem and Ramdas Pophale) SiO2 
 PCOD9009201
Probable space group: P -1
;
_chemical_formula_sum "Si O2"
_cell_formula_units_Z 14
_cell_length_a 9.248832
_cell_length_b 6.260649
_cell_length_c 19.116186
_cell_angle_alpha 112.359307
_cell_angle_beta 45.312650
_cell_angle_gamma 125.416166
_cell_volume 640.636636
_symmetry_space_group_name_H-M "P -1"
_symmetry_group_IT_number 2
_symmetry_cell_setting 'triclinic'
loop_
_space_group_symop_operation_xyz
x,y,z
-x,-y,-z
loop_
_atom_site_type_symbol
_atom_site_label
_atom_site_fract_x
_atom_site_fract_y
_atom_site_fract_z
Si Si1 0.986982 0.986372 0.919508
Si Si2 0.623169 0.516248 0.228960
Si Si3 0.806387 0.512515 0.462121
Si Si4 0.401034 0.666095 0.637522
Si Si5 0.575801 0.117782 0.083332
Si Si6 0.304193 0.578072 0.058009
Si Si7 0.699436 0.257724 0.613424
O O1 0.929036 0.690716 0.882591
O O2 0.195529 0.224331 0.840194
O O3 0.769306 0.035285 0.988324
O O4 0.000000 0.000000 0.000000
O O5 0.698968 0.512928 0.282371
O O6 0.596198 0.257312 0.166919
O O7 0.383055 0.529424 0.311317
O O8 0.636315 0.642550 0.540357
O O9 0.759864 0.407688 0.385440
O O10 0.735190 0.294832 0.521446
O O11 0.072490 0.696475 0.416375
O O12 0.495422 0.969469 0.660942
O O13 0.343502 0.842925 0.116758
O O14 0.636949 0.342128 0.032954
O O15 0.500000 0.500000 0.000000
#
# Coordination Sequence:
#
# PCOD9009201 Si02
#       7
#     2   2   2   2   2   2   2
#     4  11  22  38  66  83 120 175 218 264 321 371
#     4  11  24  37  60  98 127 168 217 266 319 378
#     4   9  20  42  67  94 124 171 207 251 332 387
#     4  10  21  39  67  96 131 163 211 265 313 393
#     4  10  21  40  61  84 122 164 220 266 323 378
#     4   9  20  38  61  87 110 166 216 269 319 381
#     4  10  21  39  67  95 131 165 209 261 319 393
#
# _framework density 21.853262000000001
#
# number of rings (size 3 to 8) (size 9 to 14) (size 15 to 20)
#    0.000    2.000    1.429    1.286    2.000    0.000 
#    0.000   11.429    0.000    0.000    0.000    0.000 
#    0.000    0.000    0.000    0.000    0.000    0.000 
#
# Total GULP energy -78063.864571 kJ/mol
# GULP energy per Si atom -5575.990327 kJ/mol
# Density = 2.180352 g / cm^3
# Si number density = 21.853262 Si / 1000 Ang^3
#
#
#
# Elastic Constant Matrix: (Units=GPa)
#
#
# Indices 1 2 3 4 5 6 
#
# 1 136.0860 31.3090 37.7428 -2.2215 19.0035 0.2645
# 2 31.3090 122.2555 42.8583 -9.8945 23.8728 13.1823
# 3 37.7428 42.8583 75.7269 -3.0706 20.9739 9.0225
# 4 -2.2215 -9.8945 -3.0706 27.5767 -9.8083 0.0662
# 5 19.0035 23.8728 20.9739 -9.8083 17.9514 6.5645
# 6 0.2645 13.1823 9.0225 0.0662 6.5645 27.2948
#
#
#
# Elastic Compliance Matrix: (Units=1/GPa)
#
#
# Indices 1 2 3 4 5 6 
#
# 1 0.009345 -0.000285 -0.002339 -0.003024 -0.009577 0.003131
# 2 -0.000285 0.011708 -0.003284 0.000013 -0.010695 -0.001994
# 3 -0.002339 -0.003284 0.022358 -0.007082 -0.023069 -0.000217
# 4 -0.003024 0.000013 -0.007082 0.050071 0.041660 -0.007777
# 5 -0.009577 -0.010695 -0.023069 0.041660 0.137172 -0.020208
# 6 0.003131 -0.001994 -0.000217 -0.007777 -0.020208 0.042520
#
#
# Mechanical properties :
#
#
# Convention : Reuss Voigt Hill
#
# Bulk Modulus (GPa) = 31.65141 61.98760 46.81951
# Shear Modulus (GPa) = 16.91920 29.37512 23.14716
#
# Velocity S-wave (km/s) = 2.78550 3.67031 3.25808
# Velocity P-wave (km/s) = 4.98602 6.81091 5.96862
#
# Compressibility (1/GPa) = 0.03159417
#
# Stress axis : x y z
#
# Youngs Moduli (GPa) = 107.01372 85.40865 44.72731
#
# Poissons Ratio (x) = 0.02437 0.10462
# Poissons Ratio (y) = 0.03054 0.14688
# Poissons Ratio (z) = 0.25031 0.28047
#
# Static dielectric constant tensor:
#      x y z
#    x 1.798020 0.061750 -0.046930 
#    y 0.061750 1.813920 0.015210 
#    z -0.046930 0.015210 1.853210 
# 
# From -- ./inp_files/107595.got.cif
#   From: 2010.05.17/outbox.cif.g08.bks.cpg/sg2_54_cif.got.tgz:107595.got - 2010.06.03 11:33:40.
