data_PCOD9009525
_publ_section_title
;
Structure prediction by ZEFSAII (Michael W. Deem and Ramdas Pophale) SiO2 
 PCOD9009525
Probable space group: P -1
;
_chemical_formula_sum "Si O2"
_cell_formula_units_Z 14
_cell_length_a 12.217068
_cell_length_b 5.181748
_cell_length_c 21.364494
_cell_angle_alpha 114.090725
_cell_angle_beta 153.314192
_cell_angle_gamma 72.771716
_cell_volume 546.697999
_symmetry_space_group_name_H-M "P -1"
_symmetry_group_IT_number 2
_symmetry_cell_setting 'triclinic'
loop_
_space_group_symop_operation_xyz
x,y,z
-x,-y,-z
loop_
_atom_site_type_symbol
_atom_site_label
_atom_site_fract_x
_atom_site_fract_y
_atom_site_fract_z
Si Si1 0.987685 0.633900 0.914745
Si Si2 0.858779 0.737849 0.256084
Si Si3 0.236794 0.353904 0.397210
Si Si4 0.333458 0.703303 0.775459
Si Si5 0.419487 0.654254 0.224554
Si Si6 0.578066 0.801419 0.653461
Si Si7 0.185172 0.168133 0.889647
O O1 0.787756 0.532091 0.856288
O O2 0.859135 0.844917 0.827706
O O3 0.026605 0.372924 0.864373
O O4 0.256003 0.743069 0.091361
O O5 0.765365 0.534132 0.246291
O O6 0.717056 0.696375 0.112999
O O7 0.119667 0.647469 0.359742
O O8 0.840686 0.060712 0.299510
O O9 0.433495 0.478932 0.563517
O O10 0.384179 0.229016 0.404346
O O11 0.993215 0.117633 0.251741
O O12 0.396209 0.539293 0.729107
O O13 0.593455 0.865945 0.953916
O O14 0.532161 0.942190 0.346774
#
# Coordination Sequence:
#
# PCOD9009525 Si02
#       7
#     2   2   2   2   2   2   2
#     4  10  21  39  69  96 132 172 224 287 344 391
#     4  12  24  45  65 102 136 180 226 281 331 406
#     4  11  25  40  67 102 135 180 225 279 343 399
#     4  11  27  40  71  98 139 179 226 276 340 397
#     4  10  23  42  63 101 130 179 222 280 339 408
#     4  11  23  42  67  99 135 177 222 287 336 406
#     4  11  22  41  66 103 134 174 227 286 341 393
#
# _framework density 25.608286
#
# number of rings (size 3 to 8) (size 9 to 14) (size 15 to 20)
#    0.000    1.143    4.286    1.286    4.000    1.714 
#    0.000    1.429    0.000    0.000    0.000    0.000 
#    0.000    0.000    0.000    0.000    0.000    0.000 
#
# Total GULP energy -78205.899789 kJ/mol
# GULP energy per Si atom -5586.135699 kJ/mol
# Density = 2.555000 g / cm^3
# Si number density = 25.608286 Si / 1000 Ang^3
#
#
#
# Elastic Constant Matrix: (Units=GPa)
#
#
# Indices 1 2 3 4 5 6 
#
# 1 144.2197 86.3809 17.4111 21.4289 0.9865 -47.6696
# 2 86.3809 158.9651 45.9747 18.8549 -3.7970 -45.2854
# 3 17.4111 45.9747 75.0320 25.5534 -1.0150 -11.4408
# 4 21.4289 18.8549 25.5534 38.7483 -6.7146 1.2969
# 5 0.9865 -3.7970 -1.0150 -6.7146 25.1223 3.3104
# 6 -47.6696 -45.2854 -11.4408 1.2969 3.3104 52.6038
#
#
#
# Elastic Compliance Matrix: (Units=1/GPa)
#
#
# Indices 1 2 3 4 5 6 
#
# 1 0.014269 -0.005224 0.004615 -0.009602 -0.005046 0.009992
# 2 -0.005224 0.011887 -0.005775 0.001035 0.001502 0.004124
# 3 0.004615 -0.005775 0.021499 -0.014899 -0.004768 0.004554
# 4 -0.009602 0.001035 -0.014899 0.043155 0.013171 -0.012943
# 5 -0.005046 0.001502 -0.004768 0.013171 0.044539 -0.007445
# 6 0.009992 0.004124 0.004554 -0.012943 -0.007445 0.033393
#
#
# Mechanical properties :
#
#
# Convention : Reuss Voigt Hill
#
# Bulk Modulus (GPa) = 28.66318 75.30559 51.98438
# Shear Modulus (GPa) = 25.88798 38.52489 32.20644
#
# Velocity S-wave (km/s) = 3.18295 3.88286 3.55019
# Velocity P-wave (km/s) = 4.97247 7.04079 6.09500
#
# Compressibility (1/GPa) = 0.03488797
#
# Stress axis : x y z
#
# Youngs Moduli (GPa) = 70.07983 84.12304 46.51333
#
# Poissons Ratio (x) = 0.43945 -0.21466
# Poissons Ratio (y) = 0.36609 0.26862
# Poissons Ratio (z) = -0.32342 0.48582
#
# Static dielectric constant tensor:
#      x y z
#    x 2.069860 0.075520 0.031910 
#    y 0.075520 2.076510 -0.040100 
#    z 0.031910 -0.040100 2.172690 
# 
# From -- ./inp_files/67267.got.cif
#   From: 2010.05.17/outbox.cif.g08.bks.cpg/sg2_34_cif.got.tgz:67267.got - 2010.06.03 11:33:40.
