data_PCOD9009401
_publ_section_title
;
Structure prediction by ZEFSAII (Michael W. Deem and Ramdas Pophale) SiO2 
 PCOD9009401
Probable space group: P -1
;
_chemical_formula_sum "Si O2"
_cell_formula_units_Z 12
_cell_length_a 24.719742
_cell_length_b 8.917074
_cell_length_c 13.316925
_cell_angle_alpha 30.314597
_cell_angle_beta 22.356140
_cell_angle_gamma 33.018324
_cell_volume 551.123403
_symmetry_space_group_name_H-M "P -1"
_symmetry_group_IT_number 2
_symmetry_cell_setting 'triclinic'
loop_
_space_group_symop_operation_xyz
x,y,z
-x,-y,-z
loop_
_atom_site_type_symbol
_atom_site_label
_atom_site_fract_x
_atom_site_fract_y
_atom_site_fract_z
Si Si1 0.648682 0.468243 0.322780
Si Si2 0.046782 0.638097 0.116202
Si Si3 0.241342 0.363080 0.766532
Si Si4 0.644715 0.314557 0.803567
Si Si5 0.564329 0.891641 0.846546
Si Si6 0.788375 0.291122 0.775528
O O1 0.500000 0.500000 0.500000
O O2 0.637418 0.641524 0.349862
O O3 0.675399 0.103799 0.508251
O O4 0.805813 0.495215 0.996038
O O5 0.925760 0.446645 0.460022
O O6 0.102585 0.560479 0.949901
O O7 0.000000 0.000000 0.000000
O O8 0.706498 0.491908 0.506011
O O9 0.210863 0.031507 0.989112
O O10 0.763014 0.230259 0.735831
O O11 0.500000 0.500000 0.000000
O O12 0.573705 0.060674 0.019206
O O13 0.649607 0.545147 0.901261
O O14 0.500000 0.000000 0.000000
#
# Coordination Sequence:
#
# PCOD9009401 Si02
#       6
#     2   2   2   2   2   2
#     4  10  21  39  68  96 133 175 225 279 341 402
#     4  10  21  42  70  99 138 182 223 282 348 413
#     4  10  22  41  67 100 137 176 228 286 334 407
#     4  10  23  39  66 101 133 182 227 275 344 400
#     4  11  20  40  61  94 132 179 221 277 333 397
#     4  11  22  41  69  96 139 178 232 279 346 406
#
# _framework density 21.773707999999999
#
# number of rings (size 3 to 8) (size 9 to 14) (size 15 to 20)
#    1.000    0.667    3.333    1.500    0.000    3.333 
#    6.000    0.000    0.000    3.000    0.000    0.000 
#    0.000    0.000    0.000    0.000    0.000    0.000 
#
# Total GULP energy -66833.184723 kJ/mol
# GULP energy per Si atom -5569.432060 kJ/mol
# Density = 2.172415 g / cm^3
# Si number density = 21.773708 Si / 1000 Ang^3
#
#
#
# Elastic Constant Matrix: (Units=GPa)
#
#
# Indices 1 2 3 4 5 6 
#
# 1 43.0861 2.1917 29.8253 6.6359 -5.5783 10.9962
# 2 2.1917 108.6386 44.9403 -7.8635 -0.9151 9.9912
# 3 29.8253 44.9403 171.1608 -17.3493 -9.9713 -4.1215
# 4 6.6359 -7.8635 -17.3493 40.1937 2.2210 -5.3107
# 5 -5.5783 -0.9151 -9.9713 2.2210 39.4543 1.8776
# 6 10.9962 9.9912 -4.1215 -5.3107 1.8776 21.0036
#
#
#
# Elastic Compliance Matrix: (Units=1/GPa)
#
#
# Indices 1 2 3 4 5 6 
#
# 1 0.040638 0.005197 -0.010305 -0.014395 0.005495 -0.029901
# 2 0.005197 0.011659 -0.004349 -0.001748 0.000462 -0.009604
# 3 -0.010305 -0.004349 0.009703 0.006493 0.000005 0.011009
# 4 -0.014395 -0.001748 0.006493 0.032278 -0.003112 0.018082
# 5 0.005495 0.000462 0.000005 -0.003112 0.026608 -0.006261
# 6 -0.029901 -0.009604 0.011009 0.018082 -0.006261 0.075125
#
#
# Mechanical properties :
#
#
# Convention : Reuss Voigt Hill
#
# Bulk Modulus (GPa) = 23.20813 52.97776 38.09295
# Shear Modulus (GPa) = 21.80677 36.52555 29.16616
#
# Velocity S-wave (km/s) = 3.16811 4.10018 3.66391
# Velocity P-wave (km/s) = 4.90556 6.84099 5.95247
#
# Compressibility (1/GPa) = 0.04308835
#
# Stress axis : x y z
#
# Youngs Moduli (GPa) = 24.60763 85.76769 103.05642
#
# Poissons Ratio (x) = -0.44575 1.06198
# Poissons Ratio (y) = -0.12789 0.44814
# Poissons Ratio (z) = 0.25358 0.37296
#
# Static dielectric constant tensor:
#      x y z
#    x 1.794420 0.005500 0.038330 
#    y 0.005500 1.814190 -0.057450 
#    z 0.038330 -0.057450 1.767050 
# 
# From -- ./inp_files/580091.got.cif
#   From: 2010.05.17/outbox.cif.g08.bks.cpg/sg2_291_cif.got.tgz:580091.got - 2010.06.03 11:33:40.
