data_PCOD9009863
_publ_section_title
;
Structure prediction by ZEFSAII (Michael W. Deem and Ramdas Pophale) SiO2 
 PCOD9009863
Probable space group: P -1
;
_chemical_formula_sum "Si O2"
_cell_formula_units_Z 16
_cell_length_a 16.526770
_cell_length_b 9.610808
_cell_length_c 13.821129
_cell_angle_alpha 60.568023
_cell_angle_beta 30.256394
_cell_angle_gamma 82.582277
_cell_volume 712.537373
_symmetry_space_group_name_H-M "P -1"
_symmetry_group_IT_number 2
_symmetry_cell_setting 'triclinic'
loop_
_space_group_symop_operation_xyz
x,y,z
-x,-y,-z
loop_
_atom_site_type_symbol
_atom_site_label
_atom_site_fract_x
_atom_site_fract_y
_atom_site_fract_z
Si Si1 0.553619 0.355036 0.592114
Si Si2 0.255909 0.207949 0.665502
Si Si3 0.412310 0.805416 0.571495
Si Si4 0.924934 0.987178 0.739172
Si Si5 0.190364 0.343834 0.494244
Si Si6 0.774229 0.277414 0.011817
Si Si7 0.029856 0.284104 0.354917
Si Si8 0.357775 0.755019 0.259366
O O1 0.664871 0.598571 0.411559
O O2 0.658073 0.348832 0.391974
O O3 0.585266 0.281611 0.684527
O O4 0.290854 0.174960 0.917572
O O5 0.405673 0.164312 0.561892
O O6 0.286486 0.300807 0.495444
O O7 0.000000 0.000000 0.000000
O O8 0.228318 0.720262 0.868551
O O9 0.543285 0.039723 0.309213
O O10 0.126922 0.182573 0.528398
O O11 0.923808 0.124107 0.610662
O O12 0.933963 0.827742 0.723999
O O13 0.347588 0.605479 0.241376
O O14 0.961664 0.282496 0.777933
O O15 0.777505 0.462570 0.905420
O O16 0.872987 0.315728 0.466916
O O17 0.500000 0.000000 0.000000
#
# Coordination Sequence:
#
# PCOD9009863 Si02
#       8
#     2   2   2   2   2   2   2   2
#     4  11  22  38  65  90 118 163 206 243 302 361
#     4  11  21  38  58  87 124 161 197 249 298 354
#     4  11  22  39  62  88 122 160 207 250 291 359
#     4  11  21  42  64  92 118 157 208 246 303 362
#     4  10  22  40  64  89 120 162 203 246 303 361
#     4  10  21  40  60  89 122 157 203 250 298 352
#     4  10  23  39  64  89 125 157 197 256 300 357
#     4  10  21  41  62  91 126 157 196 252 305 355
#
# _framework density 22.454961000000001
#
# number of rings (size 3 to 8) (size 9 to 14) (size 15 to 20)
#    0.000    1.500    3.750    1.125    0.000    4.000 
#    4.500    6.250    0.000    0.000    0.000    0.000 
#    0.000    0.000    0.000    0.000    0.000    0.000 
#
# Total GULP energy -89176.673268 kJ/mol
# GULP energy per Si atom -5573.542079 kJ/mol
# Density = 2.240385 g / cm^3
# Si number density = 22.454961 Si / 1000 Ang^3
#
#
#
# Elastic Constant Matrix: (Units=GPa)
#
#
# Indices 1 2 3 4 5 6 
#
# 1 48.5206 28.3756 -1.5370 -13.6984 -4.1025 2.4037
# 2 28.3756 98.1134 21.5162 -34.9173 2.4523 -2.8283
# 3 -1.5370 21.5162 56.0234 -26.9063 8.4879 -5.9119
# 4 -13.6984 -34.9173 -26.9063 37.2092 2.8517 9.5012
# 5 -4.1025 2.4523 8.4879 2.8517 20.3636 -6.2264
# 6 2.4037 -2.8283 -5.9119 9.5012 -6.2264 35.1507
#
#
#
# Elastic Compliance Matrix: (Units=1/GPa)
#
#
# Indices 1 2 3 4 5 6 
#
# 1 0.027779 -0.005727 0.008249 0.011900 -0.000105 -0.004208
# 2 -0.005727 0.017821 0.002473 0.018065 -0.008107 -0.004078
# 3 0.008249 0.002473 0.036451 0.035242 -0.021055 -0.007490
# 4 0.011900 0.018065 0.035242 0.081594 -0.032383 -0.021224
# 5 -0.000105 -0.008107 -0.021055 -0.032383 0.068478 0.016697
# 6 -0.004208 -0.004078 -0.007490 -0.021224 0.016697 0.035843
#
#
# Mechanical properties :
#
#
# Convention : Reuss Voigt Hill
#
# Bulk Modulus (GPa) = 10.86465 33.26298 22.06381
# Shear Modulus (GPa) = 17.32162 28.83154 23.07658
#
# Velocity S-wave (km/s) = 2.78041 3.58714 3.20923
# Velocity P-wave (km/s) = 3.89313 5.65704 4.85585
#
# Compressibility (1/GPa) = 0.09204166
#
# Stress axis : x y z
#
# Youngs Moduli (GPa) = 35.99787 56.11510 27.43388
#
# Poissons Ratio (x) = 0.32135 -0.22629
# Poissons Ratio (y) = 0.20614 -0.06785
# Poissons Ratio (z) = -0.29694 -0.13878
#
# Static dielectric constant tensor:
#      x y z
#    x 1.839200 0.035840 -0.107580 
#    y 0.035840 1.907460 -0.147630 
#    z -0.107580 -0.147630 2.224780 
# 
# From -- ./inp_files/178799.got.cif
#   From: 2010.05.17/outbox.cif.g08.bks.cpg/sg2_90_cif.got.tgz:178799.got - 2010.06.03 11:33:40.
