data_PCOD9009696
_publ_section_title
;
Structure prediction by ZEFSAII (Michael W. Deem and Ramdas Pophale) SiO2 
 PCOD9009696
Probable space group: P -1
;
_chemical_formula_sum "Si O2"
_cell_formula_units_Z 16
_cell_length_a 10.497865
_cell_length_b 14.977088
_cell_length_c 8.193961
_cell_angle_alpha 38.484023
_cell_angle_beta 105.304984
_cell_angle_gamma 122.344923
_cell_volume 647.279338
_symmetry_space_group_name_H-M "P -1"
_symmetry_group_IT_number 2
_symmetry_cell_setting 'triclinic'
loop_
_space_group_symop_operation_xyz
x,y,z
-x,-y,-z
loop_
_atom_site_type_symbol
_atom_site_label
_atom_site_fract_x
_atom_site_fract_y
_atom_site_fract_z
Si Si1 0.445634 0.576554 0.638992
Si Si2 0.325902 0.051470 0.866255
Si Si3 0.274363 0.451006 0.107847
Si Si4 0.274603 0.753308 0.829594
Si Si5 0.086476 0.687104 0.183228
Si Si6 0.057244 0.074564 0.593848
Si Si7 0.806660 0.743499 0.060489
Si Si8 0.360030 0.087845 0.206233
O O1 0.503703 0.776303 0.368043
O O2 0.596713 0.561034 0.724307
O O3 0.323179 0.447589 0.642857
O O4 0.341586 0.487176 0.894536
O O5 0.214832 0.081153 0.672787
O O6 0.320360 0.081614 0.011983
O O7 0.240694 0.847262 0.099017
O O8 0.111522 0.269608 0.336033
O O9 0.249323 0.599537 0.931971
O O10 0.454984 0.840290 0.827643
O O11 0.271044 0.901301 0.522218
O O12 0.153884 0.686707 0.031584
O O13 0.000000 0.500000 0.500000
O O14 0.946284 0.721419 0.078173
O O15 0.000000 0.000000 0.500000
O O16 0.930779 0.943540 0.870046
O O17 0.681970 0.791042 0.883596
#
# Coordination Sequence:
#
# PCOD9009696 Si02
#       8
#     2   2   2   2   2   2   2   2
#     4  10  21  39  75 108 140 194 258 307 369 464
#     4  10  26  46  72 109 149 198 253 314 381 458
#     4  10  21  41  71 112 148 195 255 307 379 450
#     4  11  27  48  74 113 157 197 252 324 383 445
#     4  11  29  50  74 109 158 199 249 315 395 456
#     4  10  21  41  73 107 148 192 251 310 371 452
#     4  11  24  45  78 104 148 203 249 313 381 458
#     4  11  27  47  77 112 151 200 260 320 376 452
#
# _framework density 24.718848000000001
#
# number of rings (size 3 to 8) (size 9 to 14) (size 15 to 20)
#    0.000    1.500    2.500    0.000    8.750    7.000 
#    0.000    1.875    0.000    0.000    0.000    0.000 
#    0.000    0.000    0.000    0.000    0.000    0.000 
#
# Total GULP energy -89116.356945 kJ/mol
# GULP energy per Si atom -5569.772309 kJ/mol
# Density = 2.466259 g / cm^3
# Si number density = 24.718848 Si / 1000 Ang^3
#
#
#
# Elastic Constant Matrix: (Units=GPa)
#
#
# Indices 1 2 3 4 5 6 
#
# 1 130.5885 29.7199 49.7296 -1.5808 12.6444 2.3172
# 2 29.7199 102.2751 68.8621 -24.5311 -0.2177 2.2294
# 3 49.7296 68.8621 149.5510 -41.7524 -4.2664 8.2661
# 4 -1.5808 -24.5311 -41.7524 60.6329 8.3875 -9.1784
# 5 12.6444 -0.2177 -4.2664 8.3875 41.5944 -14.7607
# 6 2.3172 2.2294 8.2661 -9.1784 -14.7607 30.4280
#
#
#
# Elastic Compliance Matrix: (Units=1/GPa)
#
#
# Indices 1 2 3 4 5 6 
#
# 1 0.009505 -0.001051 -0.003296 -0.002284 -0.003538 -0.002157
# 2 -0.001051 0.014454 -0.005810 0.002016 -0.000216 0.001103
# 3 -0.003296 -0.005810 0.012101 0.005703 0.000902 -0.000453
# 4 -0.002284 0.002016 0.005703 0.022057 -0.001615 0.004347
# 5 -0.003538 -0.000216 0.000902 -0.001615 0.030652 0.014422
# 6 -0.002157 0.001103 -0.000453 0.004347 0.014422 0.041378
#
#
# Mechanical properties :
#
#
# Convention : Reuss Voigt Hill
#
# Bulk Modulus (GPa) = 63.51092 75.44865 69.47979
# Shear Modulus (GPa) = 32.11048 42.13794 37.12421
#
# Velocity S-wave (km/s) = 3.60811 4.13327 3.87959
# Velocity P-wave (km/s) = 6.56560 7.30531 6.94531
#
# Compressibility (1/GPa) = 0.01574532
#
# Stress axis : x y z
#
# Youngs Moduli (GPa) = 105.20464 69.18426 82.63765
#
# Poissons Ratio (x) = 0.07273 0.27239
# Poissons Ratio (y) = 0.11059 0.48014
# Poissons Ratio (z) = 0.34678 0.40197
#
# Static dielectric constant tensor:
#      x y z
#    x 2.013360 -0.002080 -0.013790 
#    y -0.002080 2.102530 -0.033020 
#    z -0.013790 -0.033020 2.037720 
# 
# From -- ./inp_files/271576.got.cif
#   From: 2010.05.17/outbox.cif.g08.bks.cpg/sg2_136_cif.got.tgz:271576.got - 2010.06.03 11:33:40.
