data_PCOD9009923
_publ_section_title
;
Structure prediction by ZEFSAII (Michael W. Deem and Ramdas Pophale) SiO2 
 PCOD9009923
Probable space group: P -1
;
_chemical_formula_sum "Si O2"
_cell_formula_units_Z 16
_cell_length_a 14.721995
_cell_length_b 11.371950
_cell_length_c 9.508573
_cell_angle_alpha 76.485513
_cell_angle_beta 103.000828
_cell_angle_gamma 153.689640
_cell_volume 685.605039
_symmetry_space_group_name_H-M "P -1"
_symmetry_group_IT_number 2
_symmetry_cell_setting 'triclinic'
loop_
_space_group_symop_operation_xyz
x,y,z
-x,-y,-z
loop_
_atom_site_type_symbol
_atom_site_label
_atom_site_fract_x
_atom_site_fract_y
_atom_site_fract_z
Si Si1 0.376967 0.448191 0.075816
Si Si2 0.137314 0.326547 0.516180
Si Si3 0.914065 0.288009 0.388139
Si Si4 0.294127 0.299118 0.404843
Si Si5 0.379854 0.042468 0.859856
Si Si6 0.458193 0.007269 0.166289
Si Si7 0.839463 0.192936 0.687536
Si Si8 0.160244 0.381475 0.830774
O O1 0.310184 0.311258 0.238442
O O2 0.518116 0.722137 0.103459
O O3 0.500000 0.500000 0.000000
O O4 0.198388 0.311437 0.964833
O O5 0.254861 0.389429 0.421269
O O6 0.211340 0.400866 0.682269
O O7 0.116024 0.442117 0.440017
O O8 0.904535 0.004575 0.527883
O O9 0.779088 0.101484 0.530361
O O10 0.971392 0.494305 0.345436
O O11 0.808446 0.133250 0.250015
O O12 0.500000 0.500000 0.500000
O O13 0.510954 0.100982 0.791561
O O14 0.331515 0.897515 0.013108
O O15 0.677606 0.328473 0.146413
O O16 0.338338 0.939592 0.263371
O O17 0.937883 0.190212 0.798743
#
# Coordination Sequence:
#
# PCOD9009923 Si02
#       8
#     2   2   2   2   2   2   2   2
#     4  11  25  42  69  96 125 175 226 268 327 382
#     4  10  24  41  66  96 130 172 216 271 323 380
#     4  10  21  40  60  99 131 161 218 257 313 397
#     4  11  24  45  67  94 128 171 225 272 323 378
#     4  10  22  41  63  94 129 167 219 261 315 391
#     4  10  22  40  64  92 132 174 203 259 326 379
#     4  10  22  39  64  95 134 170 203 258 325 384
#     4  10  22  44  63  98 136 162 217 263 315 402
#
# _framework density 23.337052
#
# number of rings (size 3 to 8) (size 9 to 14) (size 15 to 20)
#    0.000    1.750    1.250    1.500    1.750   10.500 
#    0.000    1.250    0.000    0.000    0.000    0.000 
#    0.000    0.000    0.000    0.000    0.000    0.000 
#
# Total GULP energy -89346.046689 kJ/mol
# GULP energy per Si atom -5584.127918 kJ/mol
# Density = 2.328394 g / cm^3
# Si number density = 23.337052 Si / 1000 Ang^3
#
#
#
# Elastic Constant Matrix: (Units=GPa)
#
#
# Indices 1 2 3 4 5 6 
#
# 1 146.7097 25.9866 29.5530 -10.8322 -9.7446 -15.9808
# 2 25.9866 55.3292 32.9509 12.6876 2.4961 -16.2119
# 3 29.5530 32.9509 97.2266 21.5677 16.5882 0.7333
# 4 -10.8322 12.6876 21.5677 27.5927 0.8188 -11.0039
# 5 -9.7446 2.4961 16.5882 0.8188 46.4280 5.3612
# 6 -15.9808 -16.2119 0.7333 -11.0039 5.3612 20.6037
#
#
#
# Elastic Compliance Matrix: (Units=1/GPa)
#
#
# Indices 1 2 3 4 5 6 
#
# 1 0.012312 0.000916 -0.009043 0.019431 0.003095 0.020164
# 2 0.000916 0.033146 -0.013524 0.008444 -0.000594 0.031937
# 3 -0.009043 -0.013524 0.025645 -0.030480 -0.005951 -0.033298
# 4 0.019431 0.008444 -0.030480 0.091830 0.004741 0.070610
# 5 0.003095 -0.000594 -0.005951 0.004741 0.024458 -0.001687
# 6 0.020164 0.031937 -0.033298 0.070610 -0.001687 0.128639
#
#
# Mechanical properties :
#
#
# Convention : Reuss Voigt Hill
#
# Bulk Modulus (GPa) = 35.97081 52.91626 44.44354
# Shear Modulus (GPa) = 13.56484 32.97655 23.27070
#
# Velocity S-wave (km/s) = 2.41354 3.76314 3.16120
# Velocity P-wave (km/s) = 4.81809 6.45024 5.69296
#
# Compressibility (1/GPa) = 0.02780032
#
# Stress axis : x y z
#
# Youngs Moduli (GPa) = 81.22000 30.16948 38.99355
#
# Poissons Ratio (x) = -0.02763 0.35263
# Poissons Ratio (y) = -0.07439 0.52736
# Poissons Ratio (z) = 0.73449 0.40802
#
# Static dielectric constant tensor:
#      x y z
#    x 1.930520 -0.010040 -0.007110 
#    y -0.010040 1.911320 -0.032700 
#    z -0.007110 -0.032700 1.895030 
# 
# From -- ./inp_files/307137.got.cif
#   From: 2010.05.17/outbox.cif.g08.bks.cpg/sg2_154_cif.got.tgz:307137.got - 2010.06.03 11:33:40.
