data_PCOD9009094
_publ_section_title
;
Structure prediction by ZEFSAII (Michael W. Deem and Ramdas Pophale) SiO2 
 PCOD9009094
Probable space group: P -1
;
_chemical_formula_sum "Si O2"
_cell_formula_units_Z 16
_cell_length_a 14.549656
_cell_length_b 8.383982
_cell_length_c 13.896932
_cell_angle_alpha 94.222703
_cell_angle_beta 50.888997
_cell_angle_gamma 137.019854
_cell_volume 609.752020
_symmetry_space_group_name_H-M "P -1"
_symmetry_group_IT_number 2
_symmetry_cell_setting 'triclinic'
loop_
_space_group_symop_operation_xyz
x,y,z
-x,-y,-z
loop_
_atom_site_type_symbol
_atom_site_label
_atom_site_fract_x
_atom_site_fract_y
_atom_site_fract_z
Si Si1 0.870503 0.525657 0.794018
Si Si2 0.449873 0.234560 0.116826
Si Si3 0.744182 0.911192 0.973763
Si Si4 0.127670 0.966959 0.813533
Si Si5 0.099906 0.961727 0.489882
Si Si6 0.763909 0.537589 0.206102
Si Si7 0.299763 0.790928 0.534390
Si Si8 0.564326 0.364130 0.649750
O O1 0.050935 0.858383 0.751184
O O2 0.898562 0.624826 0.671822
O O3 0.020898 0.540257 0.714917
O O4 0.594299 0.238761 0.008078
O O5 0.334701 0.139476 0.084244
O O6 0.241585 0.010437 0.326698
O O7 0.656248 0.619874 0.024791
O O8 0.574184 0.797448 0.162010
O O9 0.037464 0.279357 0.831696
O O10 0.221804 0.255371 0.787952
O O11 0.343949 0.101216 0.704243
O O12 0.897131 0.649903 0.023320
O O13 0.296641 0.300160 0.438398
O O14 0.000000 0.000000 0.500000
O O15 0.480098 0.133526 0.375081
O O16 0.500000 0.000000 0.500000
O O17 0.275685 0.600911 0.478680
#
# Coordination Sequence:
#
# PCOD9009094 Si02
#       8
#     2   2   2   2   2   2   2   2
#     4  12  24  42  68 101 137 181 224 289 340 407
#     4  10  21  41  64 100 129 162 231 282 341 383
#     4   9  18  38  68  90 126 171 217 289 331 399
#     4  10  21  39  67 102 130 175 230 291 345 395
#     4  11  25  43  76 103 129 179 234 293 337 396
#     4  10  22  39  67 100 134 175 226 288 348 405
#     4  12  27  41  60 102 147 189 220 272 348 427
#     4  10  22  42  62 100 139 173 226 274 350 413
#
# _framework density 26.240176000000002
#
# number of rings (size 3 to 8) (size 9 to 14) (size 15 to 20)
#    0.000    1.500    2.500    3.000    5.250    3.000 
#    0.000    2.500    0.000    2.250    0.000    0.000 
#    0.000    0.000    0.000    0.000    0.000    0.000 
#
# Total GULP energy -89478.127177 kJ/mol
# GULP energy per Si atom -5592.382949 kJ/mol
# Density = 2.618045 g / cm^3
# Si number density = 26.240176 Si / 1000 Ang^3
#
#
#
# Elastic Constant Matrix: (Units=GPa)
#
#
# Indices 1 2 3 4 5 6 
#
# 1 80.3848 25.8027 31.4099 28.3215 -18.0329 12.2468
# 2 25.8027 70.5754 51.6608 22.7379 -11.4674 -5.7516
# 3 31.4099 51.6608 103.9565 37.1367 -27.6772 -20.5568
# 4 28.3215 22.7379 37.1367 43.0657 -9.6435 -4.3932
# 5 -18.0329 -11.4674 -27.6772 -9.6435 41.5730 11.4652
# 6 12.2468 -5.7516 -20.5568 -4.3932 11.4652 28.3405
#
#
#
# Elastic Compliance Matrix: (Units=1/GPa)
#
#
# Indices 1 2 3 4 5 6 
#
# 1 0.023416 -0.002927 -0.002535 -0.011279 0.010118 -0.018393
# 2 -0.002927 0.023323 -0.010999 -0.001521 -0.002139 -0.001351
# 3 -0.002535 -0.010999 0.023383 -0.010178 0.005790 0.011904
# 4 -0.011279 -0.001521 -0.010178 0.039782 -0.004259 0.005072
# 5 0.010118 -0.002139 0.005790 -0.004259 0.034971 -0.015415
# 6 -0.018393 -0.001351 0.011904 0.005072 -0.015415 0.058616
#
#
# Mechanical properties :
#
#
# Convention : Reuss Voigt Hill
#
# Bulk Modulus (GPa) = 26.88134 52.51817 39.69975
# Shear Modulus (GPa) = 20.09562 32.33207 26.21385
#
# Velocity S-wave (km/s) = 2.77037 3.51402 3.16412
# Velocity P-wave (km/s) = 4.52768 6.04337 5.33958
#
# Compressibility (1/GPa) = 0.03720053
#
# Stress axis : x y z
#
# Youngs Moduli (GPa) = 42.70626 42.87600 42.76689
#
# Poissons Ratio (x) = 0.12549 0.10840
# Poissons Ratio (y) = 0.12499 0.47040
# Poissons Ratio (z) = 0.10824 0.47160
#
# Static dielectric constant tensor:
#      x y z
#    x 2.146320 0.050160 -0.033350 
#    y 0.050160 2.061130 -0.073810 
#    z -0.033350 -0.073810 2.113560 
# 
# From -- ./inp_files/529782.got.cif
#   From: 2010.05.17/outbox.cif.g08.bks.cpg/sg2_265_cif.got.tgz:529782.got - 2010.06.03 11:33:40.
