data_PCOD9009447
_publ_section_title
;
Structure prediction by ZEFSAII (Michael W. Deem and Ramdas Pophale) SiO2 
 PCOD9009447
Probable space group: P -1
;
_chemical_formula_sum "Si O2"
_cell_formula_units_Z 16
_cell_length_a 10.931818
_cell_length_b 9.653623
_cell_length_c 14.955470
_cell_angle_alpha 99.474897
_cell_angle_beta 113.573435
_cell_angle_gamma 135.380770
_cell_volume 727.715689
_symmetry_space_group_name_H-M "P -1"
_symmetry_group_IT_number 2
_symmetry_cell_setting 'triclinic'
loop_
_space_group_symop_operation_xyz
x,y,z
-x,-y,-z
loop_
_atom_site_type_symbol
_atom_site_label
_atom_site_fract_x
_atom_site_fract_y
_atom_site_fract_z
Si Si1 0.974889 0.219495 0.148741
Si Si2 0.165077 0.764231 0.456850
Si Si3 0.725808 0.179505 0.228167
Si Si4 0.660167 0.225637 0.772831
Si Si5 0.347555 0.322079 0.347276
Si Si6 0.941066 0.230538 0.777421
Si Si7 0.180437 0.294561 0.606829
Si Si8 0.437602 0.665429 0.878999
O O1 0.815336 0.171852 0.167869
O O2 0.138934 0.467714 0.157011
O O3 0.177794 0.300878 0.264659
O O4 0.743527 0.920343 0.005022
O O5 0.147379 0.790580 0.349279
O O6 0.001405 0.472549 0.386433
O O7 0.002346 0.735258 0.458707
O O8 0.452292 0.025454 0.608853
O O9 0.602447 0.218457 0.167640
O O10 0.519227 0.923786 0.207820
O O11 0.823582 0.228902 0.816229
O O12 0.500000 0.500000 0.500000
O O13 0.569812 0.483447 0.358935
O O14 0.168566 0.024011 0.274377
O O15 0.256047 0.514037 0.897393
O O16 0.298573 0.418629 0.753914
O O17 0.000000 0.000000 0.500000
#
# Coordination Sequence:
#
# PCOD9009447 Si02
#       8
#     2   2   2   2   2   2   2   2
#     4  12  26  45  66 101 140 181 227 278 339 411
#     4  10  21  39  68  99 134 173 227 288 335 392
#     4  10  23  41  66 103 133 176 224 290 333 395
#     4  12  22  39  71  99 132 181 228 277 342 403
#     4  12  26  41  67 101 136 177 228 279 340 408
#     4  10  21  41  65  94 133 180 218 284 336 394
#     4  10  21  43  65  93 132 175 220 280 340 388
#     4  10  23  47  69  94 139 176 227 288 335 397
#
# _framework density 21.986609000000001
#
# number of rings (size 3 to 8) (size 9 to 14) (size 15 to 20)
#    0.000    1.500    2.500    5.625    3.500    1.500 
#    6.750    0.000    0.000    0.000    0.000    0.000 
#    0.000    0.000    0.000    0.000    0.000    0.000 
#
# Total GULP energy -89435.515848 kJ/mol
# GULP energy per Si atom -5589.719741 kJ/mol
# Density = 2.193657 g / cm^3
# Si number density = 21.986609 Si / 1000 Ang^3
#
#
#
# Elastic Constant Matrix: (Units=GPa)
#
#
# Indices 1 2 3 4 5 6 
#
# 1 84.9742 34.0227 13.0563 9.1741 3.2330 14.8741
# 2 34.0227 120.1005 18.7684 34.9790 -1.2765 14.4002
# 3 13.0563 18.7684 78.2879 35.7187 5.3587 -4.7241
# 4 9.1741 34.9790 35.7187 33.2422 3.8708 5.6873
# 5 3.2330 -1.2765 5.3587 3.8708 24.1674 6.6412
# 6 14.8741 14.4002 -4.7241 5.6873 6.6412 38.8031
#
#
#
# Elastic Compliance Matrix: (Units=1/GPa)
#
#
# Indices 1 2 3 4 5 6 
#
# 1 0.014656 -0.004914 -0.004914 0.007418 -0.000853 -0.005334
# 2 -0.004914 0.015379 0.007509 -0.023292 0.003564 -0.000106
# 3 -0.004914 0.007509 0.031598 -0.041892 -0.001825 0.009396
# 4 0.007418 -0.023292 -0.041892 0.100429 -0.005422 -0.013091
# 5 -0.000853 0.003564 -0.001825 -0.005422 0.045195 -0.008158
# 6 -0.005334 -0.000106 0.009396 -0.013091 -0.008158 0.032314
#
#
# Mechanical properties :
#
#
# Convention : Reuss Voigt Hill
#
# Bulk Modulus (GPa) = 17.54518 46.11748 31.83133
# Shear Modulus (GPa) = 18.99645 33.74356 26.37001
#
# Velocity S-wave (km/s) = 2.94258 3.92182 3.46694
# Velocity P-wave (km/s) = 4.42067 6.44425 5.52588
#
# Compressibility (1/GPa) = 0.05699570
#
# Stress axis : x y z
#
# Youngs Moduli (GPa) = 68.23123 65.02229 31.64781
#
# Poissons Ratio (x) = 0.31951 0.15552
# Poissons Ratio (y) = 0.33528 -0.23765
# Poissons Ratio (z) = 0.33530 -0.48827
#
# Static dielectric constant tensor:
#      x y z
#    x 1.578470 0.067160 0.059810 
#    y 0.067160 1.814380 -0.042720 
#    z 0.059810 -0.042720 1.840660 
# 
# From -- ./inp_files/566028.got.cif
#   From: 2010.05.17/outbox.cif.g08.bks.cpg/sg2_284_cif.got.tgz:566028.got - 2010.06.03 11:33:40.
