data_PCOD9009189
_publ_section_title
;
Structure prediction by ZEFSAII (Michael W. Deem and Ramdas Pophale) SiO2 
 PCOD9009189
Probable space group: P -1
;
_chemical_formula_sum "Si O2"
_cell_formula_units_Z 16
_cell_length_a 12.392396
_cell_length_b 8.665972
_cell_length_c 11.762448
_cell_angle_alpha 93.945532
_cell_angle_beta 66.794890
_cell_angle_gamma 45.558421
_cell_volume 705.344175
_symmetry_space_group_name_H-M "P -1"
_symmetry_group_IT_number 2
_symmetry_cell_setting 'triclinic'
loop_
_space_group_symop_operation_xyz
x,y,z
-x,-y,-z
loop_
_atom_site_type_symbol
_atom_site_label
_atom_site_fract_x
_atom_site_fract_y
_atom_site_fract_z
Si Si1 0.251819 0.377367 0.788227
Si Si2 0.842363 0.588261 0.435010
Si Si3 0.902465 0.966510 0.305705
Si Si4 0.370078 0.013158 0.905929
Si Si5 0.352606 0.898933 0.382961
Si Si6 0.027891 0.098765 0.395647
Si Si7 0.208748 0.382749 0.200525
Si Si8 0.102725 0.057820 0.949027
O O1 0.221085 0.376575 0.667314
O O2 0.315116 0.158015 0.819164
O O3 0.419076 0.331398 0.731844
O O4 0.059307 0.645717 0.938025
O O5 0.709061 0.859323 0.555825
O O6 0.871269 0.398985 0.480629
O O7 0.056221 0.437148 0.333188
O O8 0.082799 0.664286 0.236760
O O9 0.735457 0.101068 0.472613
O O10 0.831669 0.009267 0.211927
O O11 0.984127 0.053304 0.295999
O O12 0.284024 0.930091 0.939018
O O13 0.596703 0.779749 0.823316
O O14 0.272166 0.220087 0.055053
O O15 0.237969 0.950823 0.325042
O O16 0.000000 0.000000 0.500000
O O17 0.000000 0.000000 0.000000
#
# Coordination Sequence:
#
# PCOD9009189 Si02
#       8
#     2   2   2   2   2   2   2   2
#     4  12  23  41  67 100 131 166 216 272 319 386
#     4  11  21  40  66  95 126 170 217 266 324 381
#     4  10  22  44  65  93 131 175 213 262 327 386
#     4  11  22  40  64  96 129 166 215 267 315 376
#     4  10  23  41  66  97 125 169 221 271 320 376
#     4  10  22  41  63  90 131 172 216 266 317 383
#     4  10  21  39  67  95 124 167 217 266 315 376
#     4  12  25  43  64  96 136 176 208 261 329 389
#
# _framework density 22.683959999999999
#
# number of rings (size 3 to 8) (size 9 to 14) (size 15 to 20)
#    0.000    1.250    2.500    4.125    0.000    3.000 
#    0.000    8.125    0.000    0.000    0.000    0.000 
#    0.000    0.000    0.000    0.000    0.000    0.000 
#
# Total GULP energy -89484.532152 kJ/mol
# GULP energy per Si atom -5592.783259 kJ/mol
# Density = 2.263233 g / cm^3
# Si number density = 22.683960 Si / 1000 Ang^3
#
#
#
# Elastic Constant Matrix: (Units=GPa)
#
#
# Indices 1 2 3 4 5 6 
#
# 1 165.4703 14.5151 24.1737 -0.3696 -3.4033 -4.6471
# 2 14.5151 36.9679 -7.9664 -16.7194 -9.8783 5.8137
# 3 24.1737 -7.9664 59.9577 5.7424 -6.5662 -7.1983
# 4 -0.3696 -16.7194 5.7424 21.9031 -4.6434 -3.4448
# 5 -3.4033 -9.8783 -6.5662 -4.6434 30.9462 1.2931
# 6 -4.6471 5.8137 -7.1983 -3.4448 1.2931 31.3813
#
#
#
# Elastic Compliance Matrix: (Units=1/GPa)
#
#
# Indices 1 2 3 4 5 6 
#
# 1 0.007061 -0.006251 -0.003439 -0.004137 -0.002614 0.001068
# 2 -0.006251 0.063298 0.008476 0.051204 0.029262 -0.006293
# 3 -0.003439 0.008476 0.019963 0.003045 0.006913 0.002549
# 4 -0.004137 0.051204 0.003045 0.090135 0.030092 -0.000746
# 5 -0.002614 0.029262 0.006913 0.030092 0.047470 -0.002875
# 6 0.001068 -0.006293 0.002549 -0.000746 -0.002875 0.033811
#
#
# Mechanical properties :
#
#
# Convention : Reuss Voigt Hill
#
# Bulk Modulus (GPa) = 11.37757 35.98232 23.67995
# Shear Modulus (GPa) = 17.03778 32.29103 24.66441
#
# Velocity S-wave (km/s) = 2.74358 3.77705 3.30101
# Velocity P-wave (km/s) = 3.88110 5.90917 4.99906
#
# Compressibility (1/GPa) = 0.08789221
#
# Stress axis : x y z
#
# Youngs Moduli (GPa) = 141.61905 15.79826 50.09335
#
# Poissons Ratio (x) = 0.09876 0.17229
# Poissons Ratio (y) = 0.88530 -0.42457
# Poissons Ratio (z) = 0.48707 -0.13390
#
# Static dielectric constant tensor:
#      x y z
#    x 1.879240 0.008470 0.012160 
#    y 0.008470 1.863310 -0.043970 
#    z 0.012160 -0.043970 1.857890 
# 
# From -- ./inp_files/188578.got.cif
#   From: 2010.05.17/outbox.cif.g08.bks.cpg/sg2_95_cif.got.tgz:188578.got - 2010.06.03 11:33:40.
