data_PCOD9009557
_publ_section_title
;
Structure prediction by ZEFSAII (Michael W. Deem and Ramdas Pophale) SiO2 
 PCOD9009557
Probable space group: P -1
;
_chemical_formula_sum "Si O2"
_cell_formula_units_Z 16
_cell_length_a 9.970755
_cell_length_b 16.593539
_cell_length_c 12.183840
_cell_angle_alpha 132.921060
_cell_angle_beta 42.301149
_cell_angle_gamma 99.672709
_cell_volume 727.488247
_symmetry_space_group_name_H-M "P -1"
_symmetry_group_IT_number 2
_symmetry_cell_setting 'triclinic'
loop_
_space_group_symop_operation_xyz
x,y,z
-x,-y,-z
loop_
_atom_site_type_symbol
_atom_site_label
_atom_site_fract_x
_atom_site_fract_y
_atom_site_fract_z
Si Si1 0.380313 0.613442 0.076002
Si Si2 0.573536 0.765880 0.167268
Si Si3 0.408509 0.474618 0.704568
Si Si4 0.929968 0.954210 0.155360
Si Si5 0.668213 0.929717 0.100276
Si Si6 0.230333 0.172911 0.296184
Si Si7 0.939431 0.320613 0.090886
Si Si8 0.457191 0.210305 0.379018
O O1 0.540396 0.667664 0.028278
O O2 0.060366 0.758824 0.422360
O O3 0.500000 0.500000 0.000000
O O4 0.411756 0.531316 0.871366
O O5 0.570954 0.871426 0.186114
O O6 0.320338 0.874043 0.503845
O O7 0.850400 0.670961 0.980031
O O8 0.681564 0.403174 0.405290
O O9 0.166483 0.608739 0.898554
O O10 0.387202 0.350602 0.609611
O O11 0.887229 0.918487 0.027029
O O12 0.922923 0.850969 0.143912
O O13 0.219676 0.902211 0.946531
O O14 0.442932 0.104313 0.360951
O O15 0.780190 0.826994 0.828867
O O16 0.292752 0.258564 0.409664
O O17 0.500000 0.000000 0.000000
#
# Coordination Sequence:
#
# PCOD9009557 Si02
#       8
#     2   2   2   2   2   2   2   2
#     4  12  30  45  65 102 142 178 228 277 334 408
#     4  11  24  42  68  99 133 173 225 284 332 390
#     4  10  24  45  67  99 138 181 219 272 337 405
#     4  10  21  40  69 102 129 169 227 282 329 393
#     4  10  21  39  70 100 129 173 224 280 335 395
#     4  10  24  46  65  99 135 177 226 273 339 397
#     4   9  21  42  70 100 130 175 228 270 339 400
#     4  10  22  41  71  96 133 177 218 272 337 408
#
# _framework density 21.993482
#
# number of rings (size 3 to 8) (size 9 to 14) (size 15 to 20)
#    0.000    1.750    0.000    3.375    8.750    8.000 
#    0.000    3.750    0.000    0.000    0.000    0.000 
#    0.000    0.000    0.000    0.000    0.000    0.000 
#
# Total GULP energy -89441.545127 kJ/mol
# GULP energy per Si atom -5590.096570 kJ/mol
# Density = 2.194342 g / cm^3
# Si number density = 21.993482 Si / 1000 Ang^3
#
#
#
# Elastic Constant Matrix: (Units=GPa)
#
#
# Indices 1 2 3 4 5 6 
#
# 1 182.2344 60.7364 44.8977 5.0927 25.8027 4.0199
# 2 60.7364 81.2427 17.1565 11.2246 11.2633 -0.4293
# 3 44.8977 17.1565 47.7531 13.5547 9.8269 4.5226
# 4 5.0927 11.2246 13.5547 23.6463 1.0738 -1.9460
# 5 25.8027 11.2633 9.8269 1.0738 31.3153 -3.1680
# 6 4.0199 -0.4293 4.5226 -1.9460 -3.1680 38.4299
#
#
#
# Elastic Compliance Matrix: (Units=1/GPa)
#
#
# Indices 1 2 3 4 5 6 
#
# 1 0.009731 -0.005856 -0.007770 0.005288 -0.003675 -0.000204
# 2 -0.005856 0.017672 0.001824 -0.008087 -0.001822 0.000036
# 3 -0.007770 0.001824 0.034450 -0.019096 -0.004873 -0.004590
# 4 0.005288 -0.008087 -0.019096 0.056183 0.003093 0.004704
# 5 -0.003675 -0.001822 -0.004873 0.003093 0.037463 0.004183
# 6 -0.000204 0.000036 -0.004590 0.004704 0.004183 0.027166
#
#
# Mechanical properties :
#
#
# Convention : Reuss Voigt Hill
#
# Bulk Modulus (GPa) = 26.14580 61.86793 44.00686
# Shear Modulus (GPa) = 22.82921 31.24094 27.03507
#
# Velocity S-wave (km/s) = 3.22529 3.77299 3.50984
# Velocity P-wave (km/s) = 5.07778 6.86817 6.03969
#
# Compressibility (1/GPa) = 0.03824707
#
# Stress axis : x y z
#
# Youngs Moduli (GPa) = 102.76879 56.58817 29.02796
#
# Poissons Ratio (x) = 0.33137 0.22556
# Poissons Ratio (y) = 0.60179 -0.05294
# Poissons Ratio (z) = 0.79855 -0.10321
#
# Static dielectric constant tensor:
#      x y z
#    x 1.799630 -0.005590 -0.001150 
#    y -0.005590 1.825080 0.009020 
#    z -0.001150 0.009020 1.828850 
# 
# From -- ./inp_files/403332.got.cif
#   From: 2010.05.17/outbox.cif.g08.bks.cpg/sg2_202_cif.got.tgz:403332.got - 2010.06.03 11:33:40.
