data_PCOD9009964
_publ_section_title
;
Structure prediction by ZEFSAII (Michael W. Deem and Ramdas Pophale) SiO2 
 PCOD9009964
Probable space group: P -1
;
_chemical_formula_sum "Si O2"
_cell_formula_units_Z 14
_cell_length_a 18.637504
_cell_length_b 7.452773
_cell_length_c 5.295980
_cell_angle_alpha 110.136952
_cell_angle_beta 97.590172
_cell_angle_gamma 124.952676
_cell_volume 511.620671
_symmetry_space_group_name_H-M "P -1"
_symmetry_group_IT_number 2
_symmetry_cell_setting 'triclinic'
loop_
_space_group_symop_operation_xyz
x,y,z
-x,-y,-z
loop_
_atom_site_type_symbol
_atom_site_label
_atom_site_fract_x
_atom_site_fract_y
_atom_site_fract_z
Si Si1 0.582116 0.520832 0.316343
Si Si2 0.307811 0.886293 0.373394
Si Si3 0.691629 0.619901 0.923177
Si Si4 0.409003 0.983324 0.968202
Si Si5 0.848988 0.765084 0.748954
Si Si6 0.995494 0.808119 0.590482
Si Si7 0.837336 0.090353 0.518179
O O1 0.622389 0.802957 0.447098
O O2 0.624388 0.520486 0.600107
O O3 0.467502 0.287491 0.146433
O O4 0.626643 0.492331 0.078615
O O5 0.342011 0.847558 0.114944
O O6 0.200679 0.791138 0.295938
O O7 0.343689 0.852568 0.629892
O O8 0.772259 0.607248 0.862856
O O9 0.763663 0.926875 0.168607
O O10 0.500000 0.000000 0.000000
O O11 0.817684 0.867204 0.575467
O O12 0.887539 0.640697 0.570891
O O13 0.936796 0.026679 0.059091
O O14 0.051297 0.734343 0.437007
O O15 0.000000 0.000000 0.500000
#
# Coordination Sequence:
#
# PCOD9009964 Si02
#       7
#     2   2   2   2   2   2   2
#     4  11  21  36  57  80 103 138 187 228 268 320
#     4  11  21  37  60  79 105 141 183 229 267 318
#     4  10  17  29  50  76 106 136 175 223 257 310
#     4  12  26  41  55  77 109 142 181 229 283 327
#     4   9  14  26  42  70 114 143 170 203 268 315
#     4   8  15  23  40  69 109 156 160 201 260 334
#     4   9  17  28  48  74 108 139 181 212 265 314
#
# _framework density 27.364024000000001
#
# number of rings (size 3 to 8) (size 9 to 14) (size 15 to 20)
#    0.000    2.000    2.857    3.857    2.000    0.000 
#    0.000    0.000    0.000    0.000    0.000    0.000 
#    0.000    6.857    0.000    0.000    0.000    0.000 
#
# Total GULP energy -78290.276022 kJ/mol
# GULP energy per Si atom -5592.162573 kJ/mol
# Density = 2.730174 g / cm^3
# Si number density = 27.364024 Si / 1000 Ang^3
#
#
#
# Elastic Constant Matrix: (Units=GPa)
#
#
# Indices 1 2 3 4 5 6 
#
# 1 235.3309 49.3646 51.9244 -50.8110 -60.3881 17.7289
# 2 49.3646 70.4940 40.1379 -24.0395 -23.2779 25.6515
# 3 51.9244 40.1379 121.3810 -55.4507 -8.7087 -2.5373
# 4 -50.8110 -24.0395 -55.4507 45.3693 11.2066 -17.5276
# 5 -60.3881 -23.2779 -8.7087 11.2066 60.1033 -13.0616
# 6 17.7289 25.6515 -2.5373 -17.5276 -13.0616 48.5693
#
#
#
# Elastic Compliance Matrix: (Units=1/GPa)
#
#
# Indices 1 2 3 4 5 6 
#
# 1 0.007952 -0.003541 0.004038 0.012532 0.006023 0.005321
# 2 -0.003541 0.028107 -0.015193 -0.015980 0.003967 -0.019046
# 3 0.004038 -0.015193 0.033892 0.047818 -0.000291 0.025499
# 4 0.012532 -0.015980 0.047818 0.102202 0.003901 0.044295
# 5 0.006023 0.003967 -0.000291 0.003901 0.024242 0.003618
# 6 0.005321 -0.019046 0.025499 0.044295 0.003618 0.046996
#
#
# Mechanical properties :
#
#
# Convention : Reuss Voigt Hill
#
# Bulk Modulus (GPa) = 24.65616 78.89553 51.77584
# Shear Modulus (GPa) = 17.46398 49.86030 33.66214
#
# Velocity S-wave (km/s) = 2.52902 4.27325 3.51117
# Velocity P-wave (km/s) = 4.19022 7.29671 5.94979
#
# Compressibility (1/GPa) = 0.04055782
#
# Stress axis : x y z
#
# Youngs Moduli (GPa) = 125.75964 35.57854 29.50521
#
# Poissons Ratio (x) = 0.12599 -0.11914
# Poissons Ratio (y) = 0.44533 0.44828
# Poissons Ratio (z) = -0.50779 0.54055
#
# Static dielectric constant tensor:
#      x y z
#    x 2.273530 -0.098950 -0.082930 
#    y -0.098950 2.280760 0.035930 
#    z -0.082930 0.035930 2.071980 
# 
# From -- ./inp_files/116428.got.cif
#   From: 2010.05.17/outbox.cif.g08.bks.cpg/sg2_59_cif.got.tgz:116428.got - 2010.06.03 11:33:40.
