data_PCOD9009656
_publ_section_title
;
Structure prediction by ZEFSAII (Michael W. Deem and Ramdas Pophale) SiO2 
 PCOD9009656
Probable space group: P -1
;
_chemical_formula_sum "Si O2"
_cell_formula_units_Z 14
_cell_length_a 8.316070
_cell_length_b 9.935676
_cell_length_c 12.108030
_cell_angle_alpha 143.829009
_cell_angle_beta 81.939842
_cell_angle_gamma 101.254659
_cell_volume 578.839321
_symmetry_space_group_name_H-M "P -1"
_symmetry_group_IT_number 2
_symmetry_cell_setting 'triclinic'
loop_
_space_group_symop_operation_xyz
x,y,z
-x,-y,-z
loop_
_atom_site_type_symbol
_atom_site_label
_atom_site_fract_x
_atom_site_fract_y
_atom_site_fract_z
Si Si1 0.851877 0.360366 0.853720
Si Si2 0.943057 0.727856 0.716700
Si Si3 0.574490 0.136297 0.316608
Si Si4 0.564766 0.340714 0.036000
Si Si5 0.234452 0.665372 0.777328
Si Si6 0.810163 0.859651 0.600364
Si Si7 0.704897 0.436269 0.691450
O O1 0.684773 0.397334 0.959393
O O2 0.828287 0.428346 0.775069
O O3 0.862105 0.087666 0.676230
O O4 0.000000 0.500000 0.000000
O O5 0.909992 0.886315 0.723379
O O6 0.775412 0.645417 0.743133
O O7 0.000000 0.500000 0.500000
O O8 0.086175 0.793816 0.835183
O O9 0.638637 0.289172 0.306572
O O10 0.384311 0.154047 0.368016
O O11 0.680595 0.219541 0.468480
O O12 0.576535 0.868498 0.116285
O O13 0.675384 0.256069 0.067011
O O14 0.472632 0.539174 0.225652
O O15 0.172860 0.392243 0.615380
#
# Coordination Sequence:
#
# PCOD9009656 Si02
#       7
#     2   2   2   2   2   2   2
#     4  11  27  49  66 100 142 181 234 280 343 415
#     4  10  21  39  72 101 132 181 229 278 343 404
#     4  11  22  41  72 104 138 175 234 278 348 402
#     4  11  25  42  71 105 137 183 229 282 341 408
#     4  11  20  42  69 104 140 173 231 286 336 407
#     4  10  21  41  70  96 134 183 221 280 343 400
#     4  12  23  47  73  97 145 181 224 290 338 409
#
# _framework density 24.186333999999999
#
# number of rings (size 3 to 8) (size 9 to 14) (size 15 to 20)
#    0.000    1.143    4.286    3.000    0.000    4.571 
#    2.571    7.857    0.000    0.000    0.000    0.000 
#    0.000    0.000    0.000    0.000    0.000    0.000 
#
# Total GULP energy -78366.050089 kJ/mol
# GULP energy per Si atom -5597.575006 kJ/mol
# Density = 2.413128 g / cm^3
# Si number density = 24.186334 Si / 1000 Ang^3
#
#
#
# Elastic Constant Matrix: (Units=GPa)
#
#
# Indices 1 2 3 4 5 6 
#
# 1 70.4371 1.9135 8.1649 -5.4024 6.9098 1.0582
# 2 1.9135 58.8716 18.7547 -6.8964 -4.4782 -2.1449
# 3 8.1649 18.7547 99.8195 -9.6808 17.8938 5.1455
# 4 -5.4024 -6.8964 -9.6808 40.6632 -6.5172 8.5742
# 5 6.9098 -4.4782 17.8938 -6.5172 42.7847 -8.1444
# 6 1.0582 -2.1449 5.1455 8.5742 -8.1444 37.1855
#
#
#
# Elastic Compliance Matrix: (Units=1/GPa)
#
#
# Indices 1 2 3 4 5 6 
#
# 1 0.014625 -0.000320 -0.000525 0.001676 -0.002153 -0.001220
# 2 -0.000320 0.019069 -0.004254 0.002467 0.004610 0.002138
# 3 -0.000525 -0.004254 0.012299 0.001966 -0.005905 -0.003679
# 4 0.001676 0.002467 0.001966 0.027316 0.002184 -0.005998
# 5 -0.002153 0.004610 -0.005905 0.002184 0.028308 0.006841
# 6 -0.001220 0.002138 -0.003679 -0.005998 0.006841 0.030440
#
#
# Mechanical properties :
#
#
# Convention : Reuss Voigt Hill
#
# Bulk Modulus (GPa) = 27.93650 31.86604 29.90127
# Shear Modulus (GPa) = 32.42822 37.47969 34.95396
#
# Velocity S-wave (km/s) = 3.66562 3.94080 3.80570
# Velocity P-wave (km/s) = 5.43059 5.82326 5.63035
#
# Compressibility (1/GPa) = 0.03579546
#
# Stress axis : x y z
#
# Youngs Moduli (GPa) = 68.37770 52.44053 81.30614
#
# Poissons Ratio (x) = 0.01678 0.04267
# Poissons Ratio (y) = 0.02188 0.34588
# Poissons Ratio (z) = 0.03588 0.22308
#
# Static dielectric constant tensor:
#      x y z
#    x 1.933150 -0.007290 -0.012940 
#    y -0.007290 1.860870 0.022260 
#    z -0.012940 0.022260 1.975890 
# 
# From -- ./inp_files/380622.got.cif
#   From: 2010.05.17/outbox.cif.g08.bks.cpg/sg2_191_cif.got.tgz:380622.got - 2010.06.03 11:33:40.
