data_PCOD9009379
_publ_section_title
;
Structure prediction by ZEFSAII (Michael W. Deem and Ramdas Pophale) SiO2 
 PCOD9009379
Probable space group: P -1
;
_chemical_formula_sum "Si O2"
_cell_formula_units_Z 16
_cell_length_a 9.350959
_cell_length_b 13.625807
_cell_length_c 10.985726
_cell_angle_alpha 113.731921
_cell_angle_beta 67.097583
_cell_angle_gamma 57.595018
_cell_volume 673.511460
_symmetry_space_group_name_H-M "P -1"
_symmetry_group_IT_number 2
_symmetry_cell_setting 'triclinic'
loop_
_space_group_symop_operation_xyz
x,y,z
-x,-y,-z
loop_
_atom_site_type_symbol
_atom_site_label
_atom_site_fract_x
_atom_site_fract_y
_atom_site_fract_z
Si Si1 0.291278 0.802731 0.861745
Si Si2 0.206304 0.479190 0.920353
Si Si3 0.463715 0.298559 0.503137
Si Si4 0.740048 0.708215 0.751442
Si Si5 0.485552 0.837750 0.154031
Si Si6 0.822282 0.331986 0.796021
Si Si7 0.049507 0.934823 0.247486
Si Si8 0.755125 0.810181 0.571352
O O1 0.476600 0.662608 0.616220
O O2 0.464741 0.806679 0.848645
O O3 0.227296 0.782032 0.000265
O O4 0.000000 0.000000 0.000000
O O5 0.289026 0.452947 0.742145
O O6 0.435423 0.299367 0.844621
O O7 0.084377 0.650062 0.111928
O O8 0.000000 0.500000 0.000000
O O9 0.340076 0.251054 0.482753
O O10 0.752388 0.117648 0.383391
O O11 0.743028 0.814719 0.724885
O O12 0.000000 0.500000 0.500000
O O13 0.713418 0.720828 0.912253
O O14 0.207621 0.952619 0.241261
O O15 0.435830 0.982494 0.300739
O O16 0.952080 0.142938 0.676790
O O17 0.941371 0.329915 0.642106
O O18 0.500000 0.500000 0.000000
#
# Coordination Sequence:
#
# PCOD9009379 Si02
#       8
#     2   2   2   2   2   2   2   2
#     4   8  18  39  63  89 122 161 200 248 314 376
#     4  12  25  41  61  91 128 164 212 262 315 366
#     4  10  22  41  65  89 123 165 207 256 312 377
#     4  10  21  39  68  95 126 159 211 268 311 364
#     4  11  24  41  65  94 125 167 211 255 315 381
#     4  12  25  41  61  91 128 164 212 262 315 366
#     4  10  22  41  65  89 123 165 207 256 312 377
#     4  11  24  41  65  94 125 167 211 255 315 381
#
# _framework density 23.756091999999999
#
# number of rings (size 3 to 8) (size 9 to 14) (size 15 to 20)
#    0.000    1.500    2.500    1.875    7.000    2.000 
#    0.000    0.625    0.000    0.000    0.000    0.000 
#    0.000    0.000    0.000    0.000    0.000    0.000 
#
# Total GULP energy -89220.830570 kJ/mol
# GULP energy per Si atom -5576.301911 kJ/mol
# Density = 2.370202 g / cm^3
# Si number density = 23.756092 Si / 1000 Ang^3
#
#
#
# Elastic Constant Matrix: (Units=GPa)
#
#
# Indices 1 2 3 4 5 6 
#
# 1 91.3955 8.7972 22.2481 6.6818 -17.6231 -5.6957
# 2 8.7972 49.0185 5.2983 -18.9073 -5.5473 -1.8871
# 3 22.2481 5.2983 97.5720 -39.7105 -3.5545 -1.6687
# 4 6.6818 -18.9073 -39.7105 51.0856 -2.0264 -1.0451
# 5 -17.6231 -5.5473 -3.5545 -2.0264 40.9251 4.4714
# 6 -5.6957 -1.8871 -1.6687 -1.0451 4.4714 31.5053
#
#
#
# Elastic Compliance Matrix: (Units=1/GPa)
#
#
# Indices 1 2 3 4 5 6 
#
# 1 0.014419 -0.004510 -0.006178 -0.008155 0.004538 0.001095
# 2 -0.004510 0.026815 0.005896 0.015234 0.002827 0.001207
# 3 -0.006178 0.005896 0.018431 0.017352 0.000521 0.000714
# 4 -0.008155 0.015234 0.017352 0.039872 0.001880 0.001413
# 5 0.004538 0.002827 0.000521 0.001880 0.027215 -0.002783
# 6 0.001095 0.001207 0.000714 0.001413 -0.002783 0.032491
#
#
# Mechanical properties :
#
#
# Convention : Reuss Voigt Hill
#
# Bulk Modulus (GPa) = 19.96732 34.51923 27.24328
# Shear Modulus (GPa) = 26.95158 38.14604 32.54881
#
# Velocity S-wave (km/s) = 3.37191 4.01151 3.70554
# Velocity P-wave (km/s) = 4.85624 6.00154 5.45901
#
# Compressibility (1/GPa) = 0.05008183
#
# Stress axis : x y z
#
# Youngs Moduli (GPa) = 69.35433 37.29239 54.25769
#
# Poissons Ratio (x) = 0.16818 0.33518
# Poissons Ratio (y) = 0.31277 -0.31991
# Poissons Ratio (z) = 0.42845 -0.21988
#
# Static dielectric constant tensor:
#      x y z
#    x 2.645100 0.095100 -0.136680 
#    y 0.095100 2.037420 -0.054770 
#    z -0.136680 -0.054770 2.034600 
# 
# From -- ./inp_files/223025.got.cif
#   From: 2010.05.17/outbox.cif.g08.bks.cpg/sg2_112_cif.got.tgz:223025.got - 2010.06.03 11:33:40.
