data_PCOD9009297
_publ_section_title
;
Structure prediction by ZEFSAII (Michael W. Deem and Ramdas Pophale) SiO2 
 PCOD9009297
Probable space group: P -1
;
_chemical_formula_sum "Si O2"
_cell_formula_units_Z 16
_cell_length_a 23.983062
_cell_length_b 20.698242
_cell_length_c 14.303432
_cell_angle_alpha 17.945842
_cell_angle_beta 24.633859
_cell_angle_gamma 16.796363
_cell_volume 632.067649
_symmetry_space_group_name_H-M "P -1"
_symmetry_group_IT_number 2
_symmetry_cell_setting 'triclinic'
loop_
_space_group_symop_operation_xyz
x,y,z
-x,-y,-z
loop_
_atom_site_type_symbol
_atom_site_label
_atom_site_fract_x
_atom_site_fract_y
_atom_site_fract_z
Si Si1 0.061480 0.590942 0.859112
Si Si2 0.284538 0.532425 0.232326
Si Si3 0.251703 0.980508 0.768930
Si Si4 0.092659 0.813927 0.747500
Si Si5 0.454829 0.249272 0.662502
Si Si6 0.672551 0.423710 0.103752
Si Si7 0.740618 0.762629 0.772082
Si Si8 0.746115 0.900842 0.183682
O O1 0.231454 0.531941 0.630078
O O2 0.132743 0.377025 0.133911
O O3 0.914404 0.945443 0.614334
O O4 0.000000 0.500000 0.000000
O O5 0.516264 0.275873 0.237522
O O6 0.227082 0.353388 0.557880
O O7 0.204686 0.790517 0.074470
O O8 0.249167 0.658918 0.007095
O O9 0.181116 0.209745 0.476702
O O10 0.209886 0.126428 0.733717
O O11 0.154471 0.744415 0.856933
O O12 0.263855 0.480878 0.901058
O O13 0.897484 0.898565 0.914890
O O14 0.575960 0.309278 0.426379
O O15 0.533427 0.096385 0.652110
O O16 0.500000 0.000000 0.000000
O O17 0.485003 0.787580 0.899586
#
# Coordination Sequence:
#
# PCOD9009297 Si02
#       8
#     2   2   2   2   2   2   2   2
#     4  11  25  48  71 101 140 182 233 296 356 426
#     4  10  21  39  68 100 143 187 238 290 347 426
#     4  10  21  41  69 103 142 188 240 285 354 426
#     4  12  25  44  73 103 143 183 236 293 352 423
#     4  10  21  43  71  94 132 181 232 285 355 417
#     4  11  21  44  69  96 140 187 228 290 358 413
#     4  11  23  44  69 101 138 179 236 290 346 427
#     4  11  24  45  68 107 146 190 234 294 356 413
#
# _framework density 25.313748
#
# number of rings (size 3 to 8) (size 9 to 14) (size 15 to 20)
#    0.000    1.250    2.500    4.875    0.000    2.000 
#    9.000    4.375    0.000    0.000    0.000    0.000 
#    0.000    0.000    0.000    0.000    0.000    0.000 
#
# Total GULP energy -89417.974618 kJ/mol
# GULP energy per Si atom -5588.623414 kJ/mol
# Density = 2.525613 g / cm^3
# Si number density = 25.313748 Si / 1000 Ang^3
#
#
#
# Elastic Constant Matrix: (Units=GPa)
#
#
# Indices 1 2 3 4 5 6 
#
# 1 129.7596 21.7110 58.2400 -6.8338 -5.7120 10.2201
# 2 21.7110 68.6012 10.9416 -2.6734 -8.7319 -9.3587
# 3 58.2400 10.9416 144.0904 -8.8832 -29.6117 -6.7496
# 4 -6.8338 -2.6734 -8.8832 26.2483 -3.6911 -3.0167
# 5 -5.7120 -8.7319 -29.6117 -3.6911 56.8789 3.7708
# 6 10.2201 -9.3587 -6.7496 -3.0167 3.7708 31.0399
#
#
#
# Elastic Compliance Matrix: (Units=1/GPa)
#
#
# Indices 1 2 3 4 5 6 
#
# 1 0.010755 -0.003600 -0.004641 0.000022 -0.001526 -0.005448
# 2 -0.003600 0.016821 0.001138 0.002255 0.002534 0.006416
# 3 -0.004641 0.001138 0.010142 0.003476 0.004962 0.003812
# 4 0.000022 0.002255 0.003476 0.040695 0.004478 0.004839
# 5 -0.001526 0.002534 0.004962 0.004478 0.020673 0.000269
# 6 -0.005448 0.006416 0.003812 0.004839 0.000269 0.037211
#
#
# Mechanical properties :
#
#
# Convention : Reuss Voigt Hill
#
# Bulk Modulus (GPa) = 42.53283 58.24850 50.39067
# Shear Modulus (GPa) = 31.57747 39.60401 35.59074
#
# Velocity S-wave (km/s) = 3.53575 3.95970 3.75371
# Velocity P-wave (km/s) = 5.78856 6.63070 6.22389
#
# Compressibility (1/GPa) = 0.02351125
#
# Stress axis : x y z
#
# Youngs Moduli (GPa) = 92.97841 59.45109 98.59889
#
# Poissons Ratio (x) = 0.21404 0.45763
# Poissons Ratio (y) = 0.33475 -0.11223
# Poissons Ratio (z) = 0.43154 -0.06767
#
# Static dielectric constant tensor:
#      x y z
#    x 2.069540 0.078790 -0.025770 
#    y 0.078790 2.133850 -0.057840 
#    z -0.025770 -0.057840 2.087670 
# 
# From -- ./inp_files/543206.got.cif
#   From: 2010.05.17/outbox.cif.g08.bks.cpg/sg2_272_cif.got.tgz:543206.got - 2010.06.03 11:33:40.
