data_PCOD9009672
_publ_section_title
;
Structure prediction by ZEFSAII (Michael W. Deem and Ramdas Pophale) SiO2 
 PCOD9009672
Probable space group: P -1
;
_chemical_formula_sum "Si O2"
_cell_formula_units_Z 16
_cell_length_a 8.632069
_cell_length_b 5.258010
_cell_length_c 15.595951
_cell_angle_alpha 92.717516
_cell_angle_beta 72.704934
_cell_angle_gamma 81.383627
_cell_volume 665.050813
_symmetry_space_group_name_H-M "P -1"
_symmetry_group_IT_number 2
_symmetry_cell_setting 'triclinic'
loop_
_space_group_symop_operation_xyz
x,y,z
-x,-y,-z
loop_
_atom_site_type_symbol
_atom_site_label
_atom_site_fract_x
_atom_site_fract_y
_atom_site_fract_z
Si Si1 0.368163 0.132771 0.814402
Si Si2 0.771133 0.396232 0.862491
Si Si3 0.166042 0.191343 0.544091
Si Si4 0.031045 0.706769 0.882909
Si Si5 0.216138 0.665289 0.449218
Si Si6 0.919895 0.940661 0.254935
Si Si7 0.569488 0.586282 0.748220
Si Si8 0.751493 0.131639 0.014626
O O1 0.465732 0.867008 0.752954
O O2 0.339213 0.053685 0.916083
O O3 0.191434 0.183907 0.797290
O O4 0.464450 0.364239 0.785314
O O5 0.905551 0.511441 0.897360
O O6 0.673574 0.604041 0.818367
O O7 0.887642 0.189966 0.779867
O O8 0.664292 0.277751 0.948977
O O9 0.235701 0.453952 0.519191
O O10 0.154341 0.097276 0.641549
O O11 0.976769 0.263650 0.543560
O O12 0.258771 0.942536 0.472868
O O13 0.182741 0.681922 0.922804
O O14 0.084342 0.774008 0.779230
O O15 0.911001 0.964267 0.940674
O O16 0.316194 0.523301 0.351299
#
# Coordination Sequence:
#
# PCOD9009672 Si02
#       8
#     2   2   2   2   2   2   2   2
#     4  11  28  44  66  91 147 177 213 268 337 396
#     4  11  23  38  75  91 131 171 235 277 313 391
#     4  10  21  39  72  98 123 165 221 276 315 394
#     4   9  20  37  67  96 132 162 225 291 314 371
#     4  10  22  41  65  99 133 161 212 279 333 371
#     4  10  23  42  66 104 123 177 228 268 325 392
#     4  12  27  46  63 100 138 180 208 277 336 393
#     4   9  21  41  60  99 127 176 222 271 330 375
#
# _framework density 24.058312000000001
#
# number of rings (size 3 to 8) (size 9 to 14) (size 15 to 20)
#    0.000    1.750    1.250    1.875   10.500    2.000 
#    0.000    3.750    0.000    0.000    0.000    0.000 
#    0.000    0.000    0.000    0.000    0.000    0.000 
#
# Total GULP energy -89392.808569 kJ/mol
# GULP energy per Si atom -5587.050536 kJ/mol
# Density = 2.400355 g / cm^3
# Si number density = 24.058312 Si / 1000 Ang^3
#
#
#
# Elastic Constant Matrix: (Units=GPa)
#
#
# Indices 1 2 3 4 5 6 
#
# 1 21.0677 39.2446 -9.0294 3.0371 -2.5505 -1.0848
# 2 39.2446 102.4261 47.2519 -8.0767 -9.8641 2.4374
# 3 -9.0294 47.2519 120.2611 -20.3269 -1.8034 -15.4142
# 4 3.0371 -8.0767 -20.3269 32.5661 -2.1272 -3.4508
# 5 -2.5505 -9.8641 -1.8034 -2.1272 19.4998 -2.7085
# 6 -1.0848 2.4374 -15.4142 -3.4508 -2.7085 30.1532
#
#
#
# Elastic Compliance Matrix: (Units=1/GPa)
#
#
# Indices 1 2 3 4 5 6 
#
# 1 -0.316770 0.171985 -0.099711 0.003913 0.026573 -0.073436
# 2 0.171985 -0.080511 0.048703 -0.002319 -0.008907 0.036527
# 3 -0.099711 0.048703 -0.018672 0.008670 0.008689 -0.015297
# 4 0.003913 -0.002319 0.008670 0.036532 0.005435 0.009429
# 5 0.026573 -0.008907 0.008689 0.005435 0.053249 0.011523
# 6 -0.073436 0.036527 -0.015297 0.009429 0.011523 0.021864
#
#
# Mechanical properties :
#
#
# Convention : Reuss Voigt Hill
#
# Bulk Modulus (GPa) = -5.74716 44.29879 19.27581
# Shear Modulus (GPa) = -8.27459 27.52966 9.62754
#
# Velocity S-wave (km/s) = -1.85657 3.38640 2.00261
# Velocity P-wave (km/s) = 2.64383 5.80890 3.65743
#
# Compressibility (1/GPa) = -0.17399891
#
# Stress axis : x y z
#
# Youngs Moduli (GPa) = -3.15687 -12.42068 -53.55619
#
# Poissons Ratio (x) = 2.13617 -5.34015
# Poissons Ratio (y) = 0.54293 2.60833
# Poissons Ratio (z) = -0.31477 0.60492
#
# Static dielectric constant tensor:
#      x y z
#    x 1.942470 -0.004720 0.008260 
#    y -0.004720 1.973600 0.024260 
#    z 0.008260 0.024260 1.907920 
# 
# From -- ./inp_files/134921.got.cif
#   From: 2010.05.17/outbox.cif.g08.bks.cpg/sg2_68_cif.got.tgz:134921.got - 2010.06.03 11:33:40.
