data_PCOD9009631
_publ_section_title
;
Structure prediction by ZEFSAII (Michael W. Deem and Ramdas Pophale) SiO2 
 PCOD9009631
Probable space group: P -1
;
_chemical_formula_sum "Si O2"
_cell_formula_units_Z 12
_cell_length_a 15.147041
_cell_length_b 8.462014
_cell_length_c 10.558883
_cell_angle_alpha 106.392867
_cell_angle_beta 153.917753
_cell_angle_gamma 74.143612
_cell_volume 570.213682
_symmetry_space_group_name_H-M "P -1"
_symmetry_group_IT_number 2
_symmetry_cell_setting 'triclinic'
loop_
_space_group_symop_operation_xyz
x,y,z
-x,-y,-z
loop_
_atom_site_type_symbol
_atom_site_label
_atom_site_fract_x
_atom_site_fract_y
_atom_site_fract_z
Si Si1 0.312056 0.210148 0.731812
Si Si2 0.011524 0.354829 0.879162
Si Si3 0.126442 0.543172 0.545692
Si Si4 0.608582 0.153039 0.337384
Si Si5 0.895277 0.124944 0.295018
Si Si6 0.375711 0.108876 0.264802
O O1 0.289799 0.396231 0.693370
O O2 0.080678 0.180336 0.463339
O O3 0.370658 0.047023 0.690093
O O4 0.451913 0.205487 0.036009
O O5 0.007636 0.424618 0.745434
O O6 0.818142 0.240510 0.610621
O O7 0.000000 0.500000 0.000000
O O8 0.211644 0.241664 0.136164
O O9 0.208485 0.720209 0.730122
O O10 0.000000 0.500000 0.500000
O O11 0.517146 0.195628 0.365976
O O12 0.000000 0.000000 0.500000
O O13 0.746727 0.022516 0.000554
O O14 0.500000 0.000000 0.500000
#
# Coordination Sequence:
#
# PCOD9009631 Si02
#       6
#     2   2   2   2   2   2
#     4  10  21  39  71 108 132 175 241 297 346 415
#     4  12  28  48  70 103 151 191 233 299 364 430
#     4  10  22  40  73 104 135 182 244 290 349 413
#     4  11  24  44  72 101 143 185 238 291 358 425
#     4  11  18  43  72  96 141 181 236 292 351 414
#     4  12  27  44  70 106 144 192 236 291 364 431
#
# _framework density 21.044744000000001
#
# number of rings (size 3 to 8) (size 9 to 14) (size 15 to 20)
#    0.000    1.000    5.000    1.000    4.667    6.000 
#    0.000    0.000    0.000    0.000    0.000    0.000 
#    0.000    0.000    0.000    0.000    0.000    0.000 
#
# Total GULP energy -67029.767971 kJ/mol
# GULP energy per Si atom -5585.813998 kJ/mol
# Density = 2.099684 g / cm^3
# Si number density = 21.044744 Si / 1000 Ang^3
#
#
#
# Elastic Constant Matrix: (Units=GPa)
#
#
# Indices 1 2 3 4 5 6 
#
# 1 93.9604 21.6154 42.4586 -1.8272 6.3343 -5.0083
# 2 21.6154 163.2942 53.4835 -15.0187 -9.4655 -24.5743
# 3 42.4586 53.4835 108.7438 -21.8308 -14.1824 -4.6776
# 4 -1.8272 -15.0187 -21.8308 33.9270 -6.9140 1.5313
# 5 6.3343 -9.4655 -14.1824 -6.9140 29.5947 3.3957
# 6 -5.0083 -24.5743 -4.6776 1.5313 3.3957 29.0085
#
#
#
# Elastic Compliance Matrix: (Units=1/GPa)
#
#
# Indices 1 2 3 4 5 6 
#
# 1 0.014951 -0.000013 -0.008162 -0.006387 -0.008910 0.002634
# 2 -0.000013 0.008392 -0.003516 0.001277 0.000565 0.006406
# 3 -0.008162 -0.003516 0.018082 0.012367 0.012590 -0.003599
# 4 -0.006387 0.001277 0.012367 0.041348 0.017623 -0.002272
# 5 -0.008910 0.000565 0.012590 0.017623 0.046650 -0.005421
# 6 0.002634 0.006406 -0.003599 -0.002272 -0.005421 0.040528
#
#
# Mechanical properties :
#
#
# Convention : Reuss Voigt Hill
#
# Bulk Modulus (GPa) = 55.42837 66.79037 61.10937
# Shear Modulus (GPa) = 25.08170 35.06877 30.07524
#
# Velocity S-wave (km/s) = 3.45603 4.08657 3.78446
# Velocity P-wave (km/s) = 6.50546 7.35343 6.94241
#
# Compressibility (1/GPa) = 0.01804130
#
# Stress axis : x y z
#
# Youngs Moduli (GPa) = 66.88536 119.16548 55.30328
#
# Poissons Ratio (x) = 0.00159 0.45139
# Poissons Ratio (y) = 0.00089 0.19447
# Poissons Ratio (z) = 0.54592 0.41903
#
# Static dielectric constant tensor:
#      x y z
#    x 1.706520 -0.051010 0.012290 
#    y -0.051010 1.791850 -0.007260 
#    z 0.012290 -0.007260 1.700190 
# 
# From -- ./inp_files/152244.got.cif
#   From: 2010.05.17/outbox.cif.g08.bks.cpg/sg2_77_cif.got.tgz:152244.got - 2010.06.03 11:33:40.
