data_PCOD9009484
_publ_section_title
;
Structure prediction by ZEFSAII (Michael W. Deem and Ramdas Pophale) SiO2 
 PCOD9009484
Probable space group: P -1
;
_chemical_formula_sum "Si O2"
_cell_formula_units_Z 16
_cell_length_a 13.360314
_cell_length_b 11.328794
_cell_length_c 10.999901
_cell_angle_alpha 52.077110
_cell_angle_beta 32.174058
_cell_angle_gamma 66.830429
_cell_volume 666.738384
_symmetry_space_group_name_H-M "P -1"
_symmetry_group_IT_number 2
_symmetry_cell_setting 'triclinic'
loop_
_space_group_symop_operation_xyz
x,y,z
-x,-y,-z
loop_
_atom_site_type_symbol
_atom_site_label
_atom_site_fract_x
_atom_site_fract_y
_atom_site_fract_z
Si Si1 0.396156 0.844396 0.129443
Si Si2 0.790219 0.491001 0.440749
Si Si3 0.373967 0.248048 0.674531
Si Si4 0.242107 0.649035 0.926103
Si Si5 0.219636 0.988202 0.798352
Si Si6 0.107751 0.016039 0.249949
Si Si7 0.213269 0.473788 0.299914
Si Si8 0.264423 0.139236 0.416850
O O1 0.304587 0.684787 0.399047
O O2 0.216029 0.881488 0.220612
O O3 0.565463 0.829589 0.875700
O O4 0.500000 0.000000 0.000000
O O5 0.724127 0.623488 0.355006
O O6 0.716966 0.481503 0.662884
O O7 0.027405 0.542446 0.171140
O O8 0.604907 0.317264 0.364084
O O9 0.309187 0.090406 0.757981
O O10 0.276256 0.180130 0.946342
O O11 0.216142 0.809848 0.904514
O O12 0.317667 0.569345 0.013791
O O13 0.334486 0.077118 0.506640
O O14 0.000000 0.000000 0.000000
O O15 0.931434 0.987924 0.352496
O O16 0.000000 0.000000 0.500000
O O17 0.206334 0.295287 0.403404
O O18 0.000000 0.500000 0.500000
#
# Coordination Sequence:
#
# PCOD9009484 Si02
#       8
#     2   2   2   2   2   2   2   2
#     4  12  28  48  74 104 135 196 260 295 356 433
#     4  11  24  45  69 104 150 186 233 302 367 428
#     4  12  25  42  71 108 144 190 237 293 374 435
#     4  11  23  39  63 106 151 183 228 287 362 437
#     4  12  21  40  68 105 152 184 223 298 369 431
#     4  12  26  48  74 100 139 195 250 302 353 430
#     4  10  21  39  69 106 148 186 223 290 370 434
#     4  12  23  45  72 103 151 185 238 300 358 435
#
# _framework density 23.997420999999999
#
# number of rings (size 3 to 8) (size 9 to 14) (size 15 to 20)
#    0.000    0.500    5.000    4.125    3.500    1.000 
#    0.000    1.250    2.750    0.000    0.000    0.000 
#    0.000    0.000    0.000    0.000    0.000    0.000 
#
# Total GULP energy -89608.153475 kJ/mol
# GULP energy per Si atom -5600.509592 kJ/mol
# Density = 2.394280 g / cm^3
# Si number density = 23.997421 Si / 1000 Ang^3
#
#
#
# Elastic Constant Matrix: (Units=GPa)
#
#
# Indices 1 2 3 4 5 6 
#
# 1 43.5738 22.0744 40.0517 -0.0725 5.7704 -2.4440
# 2 22.0744 82.2210 49.5899 -21.2029 3.8033 -10.7743
# 3 40.0517 49.5899 185.9609 -3.2796 -4.4604 3.1690
# 4 -0.0725 -21.2029 -3.2796 45.1707 -12.1788 -1.7881
# 5 5.7704 3.8033 -4.4604 -12.1788 43.0116 -4.0137
# 6 -2.4440 -10.7743 3.1690 -1.7881 -4.0137 34.3101
#
#
#
# Elastic Compliance Matrix: (Units=1/GPa)
#
#
# Indices 1 2 3 4 5 6 
#
# 1 0.031829 -0.006288 -0.005397 -0.004820 -0.005650 -0.000121
# 2 -0.006288 0.019350 -0.003700 0.009638 0.002105 0.006719
# 3 -0.005397 -0.003700 0.007580 -0.000907 0.001382 -0.002132
# 4 -0.004820 0.009638 -0.000907 0.029068 0.008423 0.005267
# 5 -0.005650 0.002105 0.001382 0.008423 0.026694 0.003693
# 6 -0.000121 0.006719 -0.002132 0.005267 0.003693 0.032151
#
#
# Mechanical properties :
#
#
# Convention : Reuss Voigt Hill
#
# Bulk Modulus (GPa) = 35.72695 59.46529 47.59612
# Shear Modulus (GPa) = 26.77062 37.83445 32.30254
#
# Velocity S-wave (km/s) = 3.34363 3.97496 3.67288
# Velocity P-wave (km/s) = 5.46137 6.77500 6.15334
#
# Compressibility (1/GPa) = 0.02799008
#
# Stress axis : x y z
#
# Youngs Moduli (GPa) = 31.41773 51.67833 131.92627
#
# Poissons Ratio (x) = 0.32495 0.71200
# Poissons Ratio (y) = 0.19755 0.48812
# Poissons Ratio (z) = 0.16956 0.19121
#
# Static dielectric constant tensor:
#      x y z
#    x 1.973170 0.031240 0.017740 
#    y 0.031240 1.943710 0.011000 
#    z 0.017740 0.011000 1.990650 
# 
# From -- ./inp_files/451047.got.cif
#   From: 2010.05.17/outbox.cif.g08.bks.cpg/sg2_226_cif.got.tgz:451047.got - 2010.06.03 11:33:40.
