data_PCOD9009336
_publ_section_title
;
Structure prediction by ZEFSAII (Michael W. Deem and Ramdas Pophale) SiO2 
 PCOD9009336
Probable space group: P -1
;
_chemical_formula_sum "Si O2"
_cell_formula_units_Z 16
_cell_length_a 23.490706
_cell_length_b 9.598374
_cell_length_c 9.720416
_cell_angle_alpha 138.134752
_cell_angle_beta 144.936273
_cell_angle_gamma 47.447059
_cell_volume 827.479214
_symmetry_space_group_name_H-M "P -1"
_symmetry_group_IT_number 2
_symmetry_cell_setting 'triclinic'
loop_
_space_group_symop_operation_xyz
x,y,z
-x,-y,-z
loop_
_atom_site_type_symbol
_atom_site_label
_atom_site_fract_x
_atom_site_fract_y
_atom_site_fract_z
Si Si1 0.246885 0.011543 0.262908
Si Si2 0.305815 0.595204 0.214343
Si Si3 0.365060 0.258086 0.854180
Si Si4 0.760881 0.663111 0.857313
Si Si5 0.584568 0.175931 0.199961
Si Si6 0.113718 0.031387 0.746400
Si Si7 0.392598 0.935254 0.253376
Si Si8 0.281718 0.700842 0.684927
O O1 0.237222 0.818609 0.203063
O O2 0.272051 0.210215 0.544026
O O3 0.349753 0.942407 0.327491
O O4 0.160170 0.040392 0.998513
O O5 0.256169 0.457944 0.126009
O O6 0.401096 0.664308 0.530232
O O7 0.334947 0.464162 0.037986
O O8 0.393088 0.060688 0.870739
O O9 0.470739 0.242109 0.970502
O O10 0.678797 0.876142 0.832130
O O11 0.743125 0.516853 0.584373
O O12 0.865279 0.750580 0.120556
O O13 0.671054 0.199387 0.280212
O O14 0.182668 0.838919 0.658359
O O15 0.000000 0.000000 0.500000
O O16 0.500000 0.000000 0.500000
O O17 0.369702 0.716313 0.981845
#
# Coordination Sequence:
#
# PCOD9009336 Si02
#       8
#     2   2   2   2   2   2   2   2
#     4   9  21  33  50  80 105 133 177 221 263 311
#     4  10  19  33  53  77 110 142 176 213 253 306
#     4  10  17  29  49  75 115 147 172 206 248 300
#     4   9  20  36  56  78 103 143 180 215 271 317
#     4   9  18  29  48  80 109 146 179 202 244 307
#     4  10  22  41  60  77 100 133 176 227 285 337
#     4  10  20  33  49  76 115 151 182 214 252 306
#     4   9  18  34  54  76 105 135 180 226 259 311
#
# _framework density 19.335830999999999
#
# number of rings (size 3 to 8) (size 9 to 14) (size 15 to 20)
#    0.000    2.750    0.000    2.625    0.000    9.000 
#    0.000    0.625    0.000   10.500    0.000    0.000 
#    0.000    0.000    0.000    0.000    0.000    0.000 
#
# Total GULP energy -89149.449170 kJ/mol
# GULP energy per Si atom -5571.840573 kJ/mol
# Density = 1.929182 g / cm^3
# Si number density = 19.335831 Si / 1000 Ang^3
#
#
#
# Elastic Constant Matrix: (Units=GPa)
#
#
# Indices 1 2 3 4 5 6 
#
# 1 55.4140 21.5629 40.4914 -5.2305 12.9618 -1.0616
# 2 21.5629 45.3412 22.3026 2.8080 7.6595 13.1698
# 3 40.4914 22.3026 130.5761 7.7000 6.0517 -23.0048
# 4 -5.2305 2.8080 7.7000 23.9030 -2.3097 -3.1002
# 5 12.9618 7.6595 6.0517 -2.3097 45.7664 5.2073
# 6 -1.0616 13.1698 -23.0048 -3.1002 5.2073 27.1760
#
#
#
# Elastic Compliance Matrix: (Units=1/GPa)
#
#
# Indices 1 2 3 4 5 6 
#
# 1 0.029957 -0.011122 -0.007271 0.010013 -0.005451 0.002592
# 2 -0.011122 0.039292 -0.007517 -0.008084 0.000210 -0.026801
# 3 -0.007271 -0.007517 0.014046 -0.003334 -0.000409 0.014947
# 4 0.010013 -0.008084 -0.003334 0.046979 0.000562 0.006738
# 5 -0.005451 0.000210 -0.000409 0.000562 0.024033 -0.005202
# 6 0.002592 -0.026801 0.014947 0.006738 -0.005202 0.064305
#
#
# Mechanical properties :
#
#
# Convention : Reuss Voigt Hill
#
# Bulk Modulus (GPa) = 31.77229 44.44946 38.11088
# Shear Modulus (GPa) = 17.79850 29.16736 23.48293
#
# Velocity S-wave (km/s) = 3.03725 3.88811 3.48872
# Velocity P-wave (km/s) = 5.36352 6.57225 5.99841
#
# Compressibility (1/GPa) = 0.03147397
#
# Stress axis : x y z
#
# Youngs Moduli (GPa) = 33.38143 25.45068 71.19519
#
# Poissons Ratio (x) = 0.28307 0.51767
# Poissons Ratio (y) = 0.37127 0.53517
# Poissons Ratio (z) = 0.24272 0.19131
#
# Static dielectric constant tensor:
#      x y z
#    x 1.702110 0.031340 -0.028020 
#    y 0.031340 1.707590 0.009530 
#    z -0.028020 0.009530 1.720470 
# 
# From -- ./inp_files/351910.got.cif
#   From: 2010.05.17/outbox.cif.g08.bks.cpg/sg2_176_cif.got.tgz:351910.got - 2010.06.03 11:33:40.
