data_PCOD9009938
_publ_section_title
;
Structure prediction by ZEFSAII (Michael W. Deem and Ramdas Pophale) SiO2 
 PCOD9009938
Probable space group: P -1
;
_chemical_formula_sum "Si O2"
_cell_formula_units_Z 14
_cell_length_a 6.311157
_cell_length_b 9.277120
_cell_length_c 20.027410
_cell_angle_alpha 35.577628
_cell_angle_beta 71.013956
_cell_angle_gamma 80.174663
_cell_volume 635.627855
_symmetry_space_group_name_H-M "P -1"
_symmetry_group_IT_number 2
_symmetry_cell_setting 'triclinic'
loop_
_space_group_symop_operation_xyz
x,y,z
-x,-y,-z
loop_
_atom_site_type_symbol
_atom_site_label
_atom_site_fract_x
_atom_site_fract_y
_atom_site_fract_z
Si Si1 0.088976 0.494947 0.252710
Si Si2 0.721613 0.977190 0.591944
Si Si3 0.248639 0.598048 0.785792
Si Si4 0.532753 0.584696 0.542390
Si Si5 0.002317 0.042283 0.669041
Si Si6 0.708252 0.184031 0.762142
Si Si7 0.506557 0.778549 0.029613
O O1 0.103685 0.207502 0.379704
O O2 0.170145 0.665673 0.243369
O O3 0.274063 0.588887 0.139561
O O4 0.856364 0.507746 0.233812
O O5 0.485267 0.785087 0.678979
O O6 0.654062 0.246723 0.478932
O O7 0.801783 0.022033 0.643304
O O8 0.296907 0.375835 0.911824
O O9 0.084863 0.775570 0.766191
O O10 0.500000 0.500000 0.500000
O O11 0.780601 0.762747 0.452519
O O12 0.553355 0.352240 0.675514
O O13 0.907362 0.133648 0.712101
O O14 0.559639 0.922816 0.900696
O O15 0.500000 0.000000 0.000000
#
# Coordination Sequence:
#
# PCOD9009938 Si02
#       7
#     2   2   2   2   2   2   2
#     4   9  20  41  61  87 122 149 196 244 285 348
#     4   9  19  40  63  81 121 157 191 243 289 342
#     4   9  19  40  62  83 117 162 187 239 297 339
#     4  11  22  39  61  86 119 156 194 241 296 343
#     4  10  21  40  61  85 118 154 196 244 288 343
#     4  11  22  37  60  92 117 155 196 241 292 343
#     4   9  20  39  58  88 123 151 191 243 288 346
#
# _framework density 22.025466000000002
#
# number of rings (size 3 to 8) (size 9 to 14) (size 15 to 20)
#    0.000    2.286    1.429    0.429    0.000    3.429 
#   10.286   12.857    0.000    0.000    0.000    0.000 
#    0.000    0.000    0.000    0.000    0.000    0.000 
#
# Total GULP energy -78142.564991 kJ/mol
# GULP energy per Si atom -5581.611785 kJ/mol
# Density = 2.197534 g / cm^3
# Si number density = 22.025466 Si / 1000 Ang^3
#
#
#
# Elastic Constant Matrix: (Units=GPa)
#
#
# Indices 1 2 3 4 5 6 
#
# 1 78.3471 20.6827 49.8774 6.1211 26.1220 16.0263
# 2 20.6827 59.1818 23.6065 1.6170 16.2231 9.7494
# 3 49.8774 23.6065 151.4764 -20.4222 29.3553 0.0089
# 4 6.1211 1.6170 -20.4222 28.8737 -5.6070 5.7093
# 5 26.1220 16.2231 29.3553 -5.6070 33.5506 -6.7708
# 6 16.0263 9.7494 0.0089 5.7093 -6.7708 45.8976
#
#
#
# Elastic Compliance Matrix: (Units=1/GPa)
#
#
# Indices 1 2 3 4 5 6 
#
# 1 0.026341 0.000824 -0.006692 -0.011976 -0.019216 -0.010716
# 2 0.000824 0.021562 -0.001967 -0.003751 -0.011194 -0.006052
# 3 -0.006692 -0.001967 0.010499 0.008400 -0.001315 0.001514
# 4 -0.011976 -0.003751 0.008400 0.045367 0.011580 0.001042
# 5 -0.019216 -0.011194 -0.001315 0.011580 0.056491 0.015981
# 6 -0.010716 -0.006052 0.001514 0.001042 0.015981 0.029043
#
#
# Mechanical properties :
#
#
# Convention : Reuss Voigt Hill
#
# Bulk Modulus (GPa) = 23.40215 53.03760 38.21987
# Shear Modulus (GPa) = 22.80839 34.65364 28.73101
#
# Velocity S-wave (km/s) = 3.22148 3.97084 3.61563
# Velocity P-wave (km/s) = 4.94827 6.71981 5.90090
#
# Compressibility (1/GPa) = 0.04273112
#
# Stress axis : x y z
#
# Youngs Moduli (GPa) = 37.96354 46.37774 95.24618
#
# Poissons Ratio (x) = -0.03821 0.63737
# Poissons Ratio (y) = -0.03127 0.18740
# Poissons Ratio (z) = 0.25405 0.09125
#
# Static dielectric constant tensor:
#      x y z
#    x 1.856790 -0.036840 -0.036310 
#    y -0.036840 1.815120 -0.002410 
#    z -0.036310 -0.002410 1.835240 
# 
# From -- ./inp_files/65521.got.cif
#   From: 2010.05.17/outbox.cif.g08.bks.cpg/sg2_33_cif.got.tgz:65521.got - 2010.06.03 11:33:40.
