data_PCOD9009444
_publ_section_title
;
Structure prediction by ZEFSAII (Michael W. Deem and Ramdas Pophale) SiO2 
 PCOD9009444
Probable space group: P -1
;
_chemical_formula_sum "Si O2"
_cell_formula_units_Z 14
_cell_length_a 8.096868
_cell_length_b 9.645542
_cell_length_c 16.884565
_cell_angle_alpha 44.784117
_cell_angle_beta 34.819315
_cell_angle_gamma 45.860353
_cell_volume 508.760675
_symmetry_space_group_name_H-M "P -1"
_symmetry_group_IT_number 2
_symmetry_cell_setting 'triclinic'
loop_
_space_group_symop_operation_xyz
x,y,z
-x,-y,-z
loop_
_atom_site_type_symbol
_atom_site_label
_atom_site_fract_x
_atom_site_fract_y
_atom_site_fract_z
Si Si1 0.259910 0.171009 0.576889
Si Si2 0.796225 0.319010 0.310952
Si Si3 0.740781 0.689904 0.096184
Si Si4 0.230011 0.769899 0.140492
Si Si5 0.817927 0.150255 0.641094
Si Si6 0.896935 0.647458 0.677405
Si Si7 0.313053 0.728746 0.947178
O O1 0.466410 0.307563 0.469429
O O2 0.064384 0.099850 0.749158
O O3 0.002854 0.267763 0.576010
O O4 0.500000 0.000000 0.500000
O O5 0.783999 0.444916 0.184405
O O6 0.921487 0.439179 0.279708
O O7 0.021862 0.091233 0.312879
O O8 0.540976 0.768030 0.063895
O O9 0.509436 0.790000 0.217610
O O10 0.056399 0.718506 0.989884
O O11 0.182467 0.541544 0.257536
O O12 0.218915 0.832381 0.027777
O O13 0.895799 0.227763 0.495050
O O14 0.574708 0.797692 0.770385
O O15 0.500000 0.500000 0.000000
#
# Coordination Sequence:
#
# PCOD9009444 Si02
#       7
#     2   2   2   2   2   2   2
#     4   9  20  38  62  94 132 168 217 282 330 382
#     4  11  21  38  66  96 137 168 218 283 331 388
#     4  11  22  42  73  94 129 182 222 278 341 384
#     4  10  21  39  68  99 130 174 231 269 330 411
#     4  10  23  40  64 100 130 171 233 273 333 401
#     4  11  22  39  61 101 138 169 222 275 329 405
#     4  10  22  42  63 102 136 172 230 267 329 415
#
# _framework density 27.517852000000001
#
# number of rings (size 3 to 8) (size 9 to 14) (size 15 to 20)
#    0.000    1.714    2.857    2.143    2.000    5.714 
#    2.571    0.714    0.000    2.571    0.000    0.000 
#    0.000    0.000    0.000    0.000    0.000    0.000 
#
# Total GULP energy -78297.731873 kJ/mol
# GULP energy per Si atom -5592.695134 kJ/mol
# Density = 2.745522 g / cm^3
# Si number density = 27.517852 Si / 1000 Ang^3
#
#
#
# Elastic Constant Matrix: (Units=GPa)
#
#
# Indices 1 2 3 4 5 6 
#
# 1 199.2087 35.3340 56.0064 5.5623 -33.9013 -10.9323
# 2 35.3340 106.6370 31.8578 -5.2754 8.1622 -8.4044
# 3 56.0064 31.8578 87.2116 20.6459 -12.9306 -0.0457
# 4 5.5623 -5.2754 20.6459 48.0848 -1.0505 0.2508
# 5 -33.9013 8.1622 -12.9306 -1.0505 59.3178 8.5148
# 6 -10.9323 -8.4044 -0.0457 0.2508 8.5148 30.6631
#
#
#
# Elastic Compliance Matrix: (Units=1/GPa)
#
#
# Indices 1 2 3 4 5 6 
#
# 1 0.006850 -0.001301 -0.003618 0.000681 0.003145 0.001201
# 2 -0.001301 0.012094 -0.005006 0.003519 -0.004000 0.003926
# 3 -0.003618 -0.005006 0.017870 -0.007723 0.002863 -0.003367
# 4 0.000681 0.003519 -0.007723 0.024379 -0.001552 0.001427
# 5 0.003145 -0.004000 0.002863 -0.001552 0.020619 -0.005684
# 6 0.001201 0.003926 -0.003367 0.001427 -0.005684 0.035678
#
#
# Mechanical properties :
#
#
# Convention : Reuss Voigt Hill
#
# Bulk Modulus (GPa) = 58.95301 71.05043 65.00172
# Shear Modulus (GPa) = 34.96639 45.60375 40.28507
#
# Velocity S-wave (km/s) = 3.56853 4.07534 3.83033
# Velocity P-wave (km/s) = 6.20075 6.92967 6.57532
#
# Compressibility (1/GPa) = 0.01696266
#
# Stress axis : x y z
#
# Youngs Moduli (GPa) = 145.98723 82.68499 55.96103
#
# Poissons Ratio (x) = 0.10759 0.20246
# Poissons Ratio (y) = 0.18997 0.28016
# Poissons Ratio (z) = 0.52816 0.41395
#
# Static dielectric constant tensor:
#      x y z
#    x 2.143930 0.087440 0.111440 
#    y 0.087440 2.296670 0.057090 
#    z 0.111440 0.057090 2.353270 
# 
# From -- ./inp_files/559733.got.cif
#   From: 2010.05.17/outbox.cif.g08.bks.cpg/sg2_280_cif.got.tgz:559733.got - 2010.06.03 11:33:40.
