data_PCOD9009221
_publ_section_title
;
Structure prediction by ZEFSAII (Michael W. Deem and Ramdas Pophale) SiO2 
 PCOD9009221
Probable space group: P -1
;
_chemical_formula_sum "Si O2"
_cell_formula_units_Z 15
_cell_length_a 24.031767
_cell_length_b 5.383689
_cell_length_c 12.985768
_cell_angle_alpha 91.037801
_cell_angle_beta 158.345405
_cell_angle_gamma 80.927043
_cell_volume 572.916437
_symmetry_space_group_name_H-M "P -1"
_symmetry_group_IT_number 2
_symmetry_cell_setting 'triclinic'
loop_
_space_group_symop_operation_xyz
x,y,z
-x,-y,-z
loop_
_atom_site_type_symbol
_atom_site_label
_atom_site_fract_x
_atom_site_fract_y
_atom_site_fract_z
Si Si1 0.653049 0.351750 0.420215
Si Si2 0.156272 0.142684 0.161469
Si Si3 0.930431 0.279621 0.507452
Si Si4 0.649934 0.761444 0.098857
Si Si5 0.823351 0.604413 0.580142
Si Si6 0.514576 0.835593 0.343250
Si Si7 0.500000 0.500000 0.500000
Si Si8 0.879211 0.323376 0.175734
O O1 0.696817 0.469605 0.394399
O O2 0.558514 0.582212 0.340736
O O3 0.815744 0.160995 0.760286
O O4 0.534090 0.197834 0.191534
O O5 0.159304 0.265516 0.281253
O O6 0.317408 0.109263 0.371326
O O7 0.990485 0.360482 0.834863
O O8 0.759378 0.449660 0.267610
O O9 0.885876 0.282823 0.310118
O O10 0.038110 0.462911 0.701526
O O11 0.020650 0.975218 0.697584
O O12 0.744450 0.821571 0.357216
O O13 0.629963 0.919843 0.958901
O O14 0.459677 0.762849 0.356044
O O15 0.695194 0.434236 0.821154
#
# Coordination Sequence:
#
# PCOD9009221 Si02
#       8
#     2   2   2   2   2   2   1   2
#     4  10  21  41  63  97 131 176 223 280 348 422
#     4   9  21  42  63  96 133 172 219 287 343 422
#     4  10  24  47  70 103 142 185 239 293 364 423
#     4  11  24  39  67  96 136 179 223 289 343 431
#     4  10  21  39  67  96 133 172 224 276 353 417
#     4  10  25  43  62  95 135 174 234 286 353 418
#     4  12  26  46  72 102 136 192 238 306 356 422
#     4  10  25  46  72 100 140 188 240 298 354 431
#
# _framework density 26.181829
#
# number of rings (size 3 to 8) (size 9 to 14) (size 15 to 20)
#    0.000    1.867    0.000    1.600    9.333    7.467 
#    2.400    0.000    0.000    0.000    0.000    0.000 
#    0.000    0.000    0.000    0.000    0.000    0.000 
#
# Total GULP energy -83719.165319 kJ/mol
# GULP energy per Si atom -5581.277688 kJ/mol
# Density = 2.612224 g / cm^3
# Si number density = 26.181829 Si / 1000 Ang^3
#
#
#
# Elastic Constant Matrix: (Units=GPa)
#
#
# Indices 1 2 3 4 5 6 
#
# 1 53.2636 8.3227 -3.2887 4.1716 -4.9019 10.7699
# 2 8.3227 83.1812 40.9660 -18.6644 -1.9191 -1.0487
# 3 -3.2887 40.9660 139.3867 -24.2111 -2.6987 2.8182
# 4 4.1716 -18.6644 -24.2111 31.3362 11.4340 5.9079
# 5 -4.9019 -1.9191 -2.6987 11.4340 32.2536 -13.9261
# 6 10.7699 -1.0487 2.8182 5.9079 -13.9261 36.1266
#
#
#
# Elastic Compliance Matrix: (Units=1/GPa)
#
#
# Indices 1 2 3 4 5 6 
#
# 1 0.020892 -0.003483 0.000947 -0.004109 0.002434 -0.004793
# 2 -0.003483 0.015866 -0.003255 0.008842 -0.003430 -0.001015
# 3 0.000947 -0.003255 0.009386 0.007052 -0.003289 -0.003530
# 4 -0.004109 0.008842 0.007052 0.057008 -0.028001 -0.019185
# 5 0.002434 -0.003430 -0.003289 -0.028001 0.051050 0.023689
# 6 -0.004793 -0.001015 -0.003530 -0.019185 0.023689 0.041624
#
#
# Mechanical properties :
#
#
# Convention : Reuss Voigt Hill
#
# Bulk Modulus (GPa) = 28.93401 40.87015 34.90208
# Shear Modulus (GPa) = 22.83847 35.26539 29.05193
#
# Velocity S-wave (km/s) = 2.95668 3.67405 3.33471
# Velocity P-wave (km/s) = 4.76772 5.80019 5.30911
#
# Compressibility (1/GPa) = 0.03456140
#
# Stress axis : x y z
#
# Youngs Moduli (GPa) = 47.86477 63.02968 106.54126
#
# Poissons Ratio (x) = 0.21953 -0.10089
# Poissons Ratio (y) = 0.16671 0.34682
# Poissons Ratio (z) = -0.04533 0.20518
#
# Static dielectric constant tensor:
#      x y z
#    x 2.052370 -0.037170 -0.051090 
#    y -0.037170 2.108150 0.039680 
#    z -0.051090 0.039680 2.082010 
# 
# From -- ./inp_files/543577.got.cif
#   From: 2010.05.17/outbox.cif.g08.bks.cpg/sg2_272_cif.got.tgz:543577.got - 2010.06.03 11:33:40.
