data_PCOD9009599
_publ_section_title
;
Structure prediction by ZEFSAII (Michael W. Deem and Ramdas Pophale) SiO2 
 PCOD9009599
Probable space group: P -1
;
_chemical_formula_sum "Si O2"
_cell_formula_units_Z 12
_cell_length_a 12.399277
_cell_length_b 6.657324
_cell_length_c 14.906813
_cell_angle_alpha 62.457093
_cell_angle_beta 143.966137
_cell_angle_gamma 135.322258
_cell_volume 489.731206
_symmetry_space_group_name_H-M "P -1"
_symmetry_group_IT_number 2
_symmetry_cell_setting 'triclinic'
loop_
_space_group_symop_operation_xyz
x,y,z
-x,-y,-z
loop_
_atom_site_type_symbol
_atom_site_label
_atom_site_fract_x
_atom_site_fract_y
_atom_site_fract_z
Si Si1 0.419155 0.275816 0.267185
Si Si2 0.630745 0.250358 0.113703
Si Si3 0.794667 0.498144 0.824025
Si Si4 0.790454 0.859386 0.032973
Si Si5 0.938414 0.698495 0.549873
Si Si6 0.593827 0.345182 0.548881
O O1 0.385275 0.515710 0.226495
O O2 0.692095 0.446430 0.382558
O O3 0.411954 0.140732 0.387076
O O4 0.238958 0.115432 0.097552
O O5 0.763045 0.571929 0.092013
O O6 0.826914 0.267950 0.298881
O O7 0.423295 0.183920 0.050923
O O8 0.500000 0.000000 0.000000
O O9 0.656778 0.263240 0.698918
O O10 0.961277 0.837085 0.830284
O O11 0.000000 0.500000 0.000000
O O12 0.833927 0.590953 0.602999
O O13 0.000000 0.000000 0.500000
O O14 0.500000 0.500000 0.500000
#
# Coordination Sequence:
#
# PCOD9009599 Si02
#       6
#     2   2   2   2   2   2
#     4   9  22  41  61 100 138 170 236 282 342 408
#     4  11  25  44  72  97 143 181 231 290 353 410
#     4  11  23  41  72  99 139 187 232 285 348 412
#     4  11  25  43  68 106 133 183 240 283 344 423
#     4  10  21  39  70  96 136 181 226 283 349 409
#     4   8  19  40  63  93 137 180 219 282 348 401
#
# _framework density 24.503235
#
# number of rings (size 3 to 8) (size 9 to 14) (size 15 to 20)
#    1.000    1.000    0.000    2.500    7.000    2.000 
#    0.000    6.667    0.000    0.000    0.000    0.000 
#    0.000    0.000    0.000    0.000    0.000    0.000 
#
# Total GULP energy -66919.404386 kJ/mol
# GULP energy per Si atom -5576.617032 kJ/mol
# Density = 2.444746 g / cm^3
# Si number density = 24.503235 Si / 1000 Ang^3
#
#
#
# Elastic Constant Matrix: (Units=GPa)
#
#
# Indices 1 2 3 4 5 6 
#
# 1 60.1621 24.0472 36.1855 3.0863 -7.3535 -12.4778
# 2 24.0472 96.9315 34.4150 -3.4307 12.8439 -5.9124
# 3 36.1855 34.4150 148.5267 -11.1183 7.1337 -18.9959
# 4 3.0863 -3.4307 -11.1183 51.7307 -10.7204 1.5922
# 5 -7.3535 12.8439 7.1337 -10.7204 61.2468 11.4863
# 6 -12.4778 -5.9124 -18.9959 1.5922 11.4863 30.6959
#
#
#
# Elastic Compliance Matrix: (Units=1/GPa)
#
#
# Indices 1 2 3 4 5 6 
#
# 1 0.022204 -0.004198 -0.004119 -0.002059 0.002778 0.004736
# 2 -0.004198 0.012380 -0.001586 0.000071 -0.003060 0.000838
# 3 -0.004119 -0.001586 0.008815 0.001566 -0.001668 0.004018
# 4 -0.002059 0.000071 0.001566 0.020608 0.003588 -0.002266
# 5 0.002778 -0.003060 -0.001668 0.003588 0.019630 -0.008024
# 6 0.004736 0.000838 0.004018 -0.002266 -0.008024 0.040271
#
#
# Mechanical properties :
#
#
# Convention : Reuss Voigt Hill
#
# Bulk Modulus (GPa) = 42.38506 54.99063 48.68785
# Shear Modulus (GPa) = 32.98588 42.79953 37.89270
#
# Velocity S-wave (km/s) = 3.67302 4.18387 3.93674
# Velocity P-wave (km/s) = 5.94335 6.76983 6.37001
#
# Compressibility (1/GPa) = 0.02359322
#
# Stress axis : x y z
#
# Youngs Moduli (GPa) = 45.03601 80.77251 113.44232
#
# Poissons Ratio (x) = 0.33911 0.46723
# Poissons Ratio (y) = 0.18907 0.17997
# Poissons Ratio (z) = 0.18549 0.12814
#
# Static dielectric constant tensor:
#      x y z
#    x 1.952960 -0.028520 -0.013350 
#    y -0.028520 2.059280 -0.038400 
#    z -0.013350 -0.038400 2.015420 
# 
# From -- ./inp_files/509725.got.cif
#   From: 2010.05.17/outbox.cif.g08.bks.cpg/sg2_255_cif.got.tgz:509725.got - 2010.06.03 11:33:40.
