data_PCOD9009554
_publ_section_title
;
Structure prediction by ZEFSAII (Michael W. Deem and Ramdas Pophale) SiO2 
 PCOD9009554
Probable space group: P -1
;
_chemical_formula_sum "Si O2"
_cell_formula_units_Z 16
_cell_length_a 9.119631
_cell_length_b 9.710579
_cell_length_c 15.856127
_cell_angle_alpha 119.720748
_cell_angle_beta 41.596480
_cell_angle_gamma 105.561141
_cell_volume 796.676773
_symmetry_space_group_name_H-M "P -1"
_symmetry_group_IT_number 2
_symmetry_cell_setting 'triclinic'
loop_
_space_group_symop_operation_xyz
x,y,z
-x,-y,-z
loop_
_atom_site_type_symbol
_atom_site_label
_atom_site_fract_x
_atom_site_fract_y
_atom_site_fract_z
Si Si1 0.502015 0.332204 0.670641
Si Si2 0.488332 0.399027 0.389110
Si Si3 0.008160 0.253574 0.854675
Si Si4 0.906686 0.180707 0.065000
Si Si5 0.137042 0.977566 0.575343
Si Si6 0.141515 0.170486 0.476822
Si Si7 0.701927 0.383777 0.773848
Si Si8 0.782274 0.570237 0.942459
O O1 0.486140 0.466864 0.648901
O O2 0.673347 0.170765 0.521718
O O3 0.613553 0.406118 0.724487
O O4 0.253219 0.296719 0.785018
O O5 0.500000 0.500000 0.500000
O O6 0.682305 0.249572 0.234827
O O7 0.265630 0.320315 0.457357
O O8 0.864841 0.410018 0.916008
O O9 0.893974 0.204083 0.975163
O O10 0.060428 0.107792 0.720430
O O11 0.076161 0.297101 0.054642
O O12 0.000000 0.000000 0.000000
O O13 0.925462 0.908542 0.604912
O O14 0.251655 0.053639 0.468667
O O15 0.898379 0.232743 0.641588
O O16 0.804693 0.518980 0.819656
O O17 0.480131 0.361741 0.911994
#
# Coordination Sequence:
#
# PCOD9009554 Si02
#       8
#     2   2   2   2   2   2   2   2
#     4  11  23  41  72  99 130 179 231 276 327 399
#     4  12  26  45  69  97 140 184 221 277 340 403
#     4  12  22  45  69  98 135 174 235 273 333 406
#     4  12  28  43  67 103 138 175 221 286 342 391
#     4  10  23  39  70 100 130 182 223 280 328 394
#     4  10  22  43  64 100 142 168 226 273 336 396
#     4  10  21  39  70 100 122 179 224 274 327 395
#     4  11  21  43  71  94 133 175 225 273 334 409
#
# _framework density 20.083425999999999
#
# number of rings (size 3 to 8) (size 9 to 14) (size 15 to 20)
#    0.000    1.000    3.750    3.000    3.500    3.000 
#    2.250    0.625    0.000    0.000    0.000    0.000 
#    0.000    0.000    0.000    0.000    0.000    0.000 
#
# Total GULP energy -89253.010713 kJ/mol
# GULP energy per Si atom -5578.313170 kJ/mol
# Density = 2.003772 g / cm^3
# Si number density = 20.083426 Si / 1000 Ang^3
#
#
#
# Elastic Constant Matrix: (Units=GPa)
#
#
# Indices 1 2 3 4 5 6 
#
# 1 81.3439 23.1231 36.8857 11.8626 15.7585 11.3000
# 2 23.1231 60.1389 43.0642 19.6613 6.2752 -10.2910
# 3 36.8857 43.0642 101.9585 22.1073 3.3342 0.6198
# 4 11.8626 19.6613 22.1073 26.7609 -0.5048 -4.2710
# 5 15.7585 6.2752 3.3342 -0.5048 38.0262 9.1930
# 6 11.3000 -10.2910 0.6198 -4.2710 9.1930 22.7474
#
#
#
# Elastic Compliance Matrix: (Units=1/GPa)
#
#
# Indices 1 2 3 4 5 6 
#
# 1 0.017822 -0.004381 -0.003701 -0.003250 -0.004033 -0.009715
# 2 -0.004381 0.032836 -0.009675 -0.011440 -0.007280 0.018089
# 3 -0.003701 -0.009675 0.016375 -0.005552 0.002876 -0.005189
# 4 -0.003250 -0.011440 -0.005552 0.052691 0.003163 0.005205
# 5 -0.004033 -0.007280 0.002876 0.003163 0.032303 -0.013829
# 6 -0.009715 0.018089 -0.005189 0.005205 -0.013829 0.063678
#
#
# Mechanical properties :
#
#
# Convention : Reuss Voigt Hill
#
# Bulk Modulus (GPa) = 31.72851 49.95415 40.84133
# Shear Modulus (GPa) = 19.10388 26.86481 22.98434
#
# Velocity S-wave (km/s) = 3.08754 3.66137 3.38663
# Velocity P-wave (km/s) = 5.34258 6.54229 5.97263
#
# Compressibility (1/GPa) = 0.03151739
#
# Stress axis : x y z
#
# Youngs Moduli (GPa) = 56.11021 30.45417 61.06890
#
# Poissons Ratio (x) = 0.13342 0.22604
# Poissons Ratio (y) = 0.24582 0.59087
# Poissons Ratio (z) = 0.20769 0.29466
#
# Static dielectric constant tensor:
#      x y z
#    x 1.800000 -0.013390 0.031810 
#    y -0.013390 1.695590 0.026890 
#    z 0.031810 0.026890 1.754590 
# 
# From -- ./inp_files/495366.got.cif
#   From: 2010.05.17/outbox.cif.g08.bks.cpg/sg2_248_cif.got.tgz:495366.got - 2010.06.03 11:33:40.
