data_PCOD9009835
_publ_section_title
;
Structure prediction by ZEFSAII (Michael W. Deem and Ramdas Pophale) SiO2 
 PCOD9009835
Probable space group: P -1
;
_chemical_formula_sum "Si O2"
_cell_formula_units_Z 16
_cell_length_a 24.840282
_cell_length_b 8.214757
_cell_length_c 7.868144
_cell_angle_alpha 50.881106
_cell_angle_beta 152.512412
_cell_angle_gamma 130.098246
_cell_volume 558.741227
_symmetry_space_group_name_H-M "P -1"
_symmetry_group_IT_number 2
_symmetry_cell_setting 'triclinic'
loop_
_space_group_symop_operation_xyz
x,y,z
-x,-y,-z
loop_
_atom_site_type_symbol
_atom_site_label
_atom_site_fract_x
_atom_site_fract_y
_atom_site_fract_z
Si Si1 0.699640 0.529530 0.435033
Si Si2 0.529933 0.012385 0.775813
Si Si3 0.854656 0.948668 0.494661
Si Si4 0.221269 0.674409 0.765858
Si Si5 0.691508 0.838876 0.788213
Si Si6 0.557740 0.569260 0.320457
Si Si7 0.961972 0.693706 0.374013
Si Si8 0.152407 0.757904 0.161554
O O1 0.633144 0.456649 0.475849
O O2 0.762333 0.365912 0.623023
O O3 0.805262 0.744760 0.612700
O O4 0.581875 0.553704 0.982525
O O5 0.412836 0.049338 0.515907
O O6 0.500000 0.000000 0.500000
O O7 0.643902 0.212527 0.989368
O O8 0.559798 0.799320 0.082292
O O9 0.802735 0.146477 0.286364
O O10 0.989829 0.074762 0.740099
O O11 0.784321 0.842935 0.198292
O O12 0.137358 0.672775 0.365489
O O13 0.169367 0.434227 0.851403
O O14 0.618059 0.626572 0.631603
O O15 0.775325 0.995424 0.786234
O O16 0.000000 0.500000 0.500000
O O17 0.039250 0.737136 0.736302
#
# Coordination Sequence:
#
# PCOD9009835 Si02
#       8
#     2   2   2   2   2   2   2   2
#     4  11  22  38  56  91 126 161 190 246 312 353
#     4  12  20  34  62  92 120 150 200 247 289 356
#     4  10  21  40  60  85 125 157 197 252 300 352
#     4  11  20  39  62  89 114 161 205 248 295 348
#     4  11  20  38  60  91 116 163 204 241 292 361
#     4  11  22  36  59  87 131 160 194 241 305 375
#     4   9  22  40  63  87 115 157 211 253 291 348
#     4  11  21  37  67  88 118 156 208 251 291 362
#
# _framework density 28.635795000000002
#
# number of rings (size 3 to 8) (size 9 to 14) (size 15 to 20)
#    0.000    1.250    5.000    1.500    0.000    0.500 
#    0.000    9.375    0.000    0.000    0.000    0.000 
#    0.000    0.000    0.000    0.000    0.000    0.000 
#
# Total GULP energy -89678.874198 kJ/mol
# GULP energy per Si atom -5604.929637 kJ/mol
# Density = 2.857062 g / cm^3
# Si number density = 28.635795 Si / 1000 Ang^3
#
#
#
# Elastic Constant Matrix: (Units=GPa)
#
#
# Indices 1 2 3 4 5 6 
#
# 1 86.0194 39.2211 25.5976 9.1036 -13.4561 14.4429
# 2 39.2211 195.3673 34.5154 28.1560 5.7444 33.0893
# 3 25.5976 34.5154 120.2685 55.2130 -2.8042 -0.6665
# 4 9.1036 28.1560 55.2130 65.1596 -2.1261 8.0202
# 5 -13.4561 5.7444 -2.8042 -2.1261 50.0160 11.7480
# 6 14.4429 33.0893 -0.6665 8.0202 11.7480 68.7011
#
#
#
# Elastic Compliance Matrix: (Units=1/GPa)
#
#
# Indices 1 2 3 4 5 6 
#
# 1 0.014753 -0.002306 -0.003509 0.002455 0.004880 -0.003146
# 2 -0.002306 0.006329 -0.000594 -0.001667 -0.000931 -0.002216
# 3 -0.003509 -0.000594 0.014816 -0.012192 -0.001221 0.002800
# 4 0.002455 -0.001667 -0.012192 0.026526 0.002067 -0.003282
# 5 0.004880 -0.000931 -0.001221 0.002067 0.022533 -0.004684
# 6 -0.003146 -0.002216 0.002800 -0.003282 -0.004684 0.017495
#
#
# Mechanical properties :
#
#
# Convention : Reuss Voigt Hill
#
# Bulk Modulus (GPa) = 43.32838 66.70258 55.01548
# Shear Modulus (GPa) = 40.66177 56.93009 48.79593
#
# Velocity S-wave (km/s) = 3.77233 4.46362 4.13245
# Velocity P-wave (km/s) = 5.84274 7.06464 6.48255
#
# Compressibility (1/GPa) = 0.02307956
#
# Stress axis : x y z
#
# Youngs Moduli (GPa) = 67.78361 157.99200 67.49357
#
# Poissons Ratio (x) = 0.36438 0.23682
# Poissons Ratio (y) = 0.15633 0.04012
# Poissons Ratio (z) = 0.23784 0.09391
#
# Static dielectric constant tensor:
#      x y z
#    x 2.279300 0.002410 -0.029360 
#    y 0.002410 2.212560 -0.096940 
#    z -0.029360 -0.096940 2.269310 
# 
# From -- ./inp_files/215096.got.cif
#   From: 2010.05.17/outbox.cif.g08.bks.cpg/sg2_108_cif.got.tgz:215096.got - 2010.06.03 11:33:40.
