data_PCOD9009348
_publ_section_title
;
Structure prediction by ZEFSAII (Michael W. Deem and Ramdas Pophale) SiO2 
 PCOD9009348
Probable space group: P -1
;
_chemical_formula_sum "Si O2"
_cell_formula_units_Z 16
_cell_length_a 25.362619
_cell_length_b 5.170728
_cell_length_c 10.992045
_cell_angle_alpha 88.030642
_cell_angle_beta 142.467385
_cell_angle_gamma 117.343797
_cell_volume 618.367788
_symmetry_space_group_name_H-M "P -1"
_symmetry_group_IT_number 2
_symmetry_cell_setting 'triclinic'
loop_
_space_group_symop_operation_xyz
x,y,z
-x,-y,-z
loop_
_atom_site_type_symbol
_atom_site_label
_atom_site_fract_x
_atom_site_fract_y
_atom_site_fract_z
Si Si1 0.330425 0.439031 0.960720
Si Si2 0.870974 0.475352 0.730272
Si Si3 0.628834 0.630506 0.233962
Si Si4 0.891044 0.962908 0.259916
Si Si5 0.326275 0.735933 0.274783
Si Si6 0.070771 0.710384 0.923430
Si Si7 0.540552 0.786351 0.700659
Si Si8 0.268260 0.460383 0.397833
O O1 0.331827 0.418282 0.818848
O O2 0.197657 0.123751 0.791032
O O3 0.381870 0.823926 0.093174
O O4 0.424341 0.408748 0.171100
O O5 0.828893 0.675570 0.675072
O O6 0.956947 0.632921 0.768808
O O7 0.744301 0.054137 0.477768
O O8 0.930168 0.516606 0.969267
O O9 0.615795 0.397747 0.323119
O O10 0.500000 0.500000 0.000000
O O11 0.931500 0.271794 0.229131
O O12 0.797950 0.585538 0.018148
O O13 0.000000 0.000000 0.500000
O O14 0.399568 0.096743 0.325629
O O15 0.300873 0.766061 0.365076
O O16 0.411463 0.660319 0.446017
O O17 0.196900 0.117237 0.185072
#
# Coordination Sequence:
#
# PCOD9009348 Si02
#       8
#     2   2   2   2   2   2   2   2
#     4  11  26  45  71 101 145 181 235 282 354 411
#     4  10  22  39  67  94 125 178 224 281 336 401
#     4  11  26  42  63  98 140 180 226 283 348 416
#     4  10  23  43  68 100 139 180 220 287 353 419
#     4   9  21  41  67 100 130 177 235 280 344 409
#     4   9  21  43  63  96 127 168 233 277 334 409
#     4  10  23  44  71 101 134 185 230 293 338 410
#     4  10  21  39  68  92 128 176 225 284 338 401
#
# _framework density 25.874566000000002
#
# number of rings (size 3 to 8) (size 9 to 14) (size 15 to 20)
#    0.000    2.000    0.000    1.125    7.000    6.000 
#    4.500    3.125    0.000    0.000    0.000    0.000 
#    0.000    0.000    0.000    0.000    0.000    0.000 
#
# Total GULP energy -89330.299560 kJ/mol
# GULP energy per Si atom -5583.143722 kJ/mol
# Density = 2.581567 g / cm^3
# Si number density = 25.874566 Si / 1000 Ang^3
#
#
#
# Elastic Constant Matrix: (Units=GPa)
#
#
# Indices 1 2 3 4 5 6 
#
# 1 125.3420 29.0085 45.4957 -5.7677 -1.4668 28.1320
# 2 29.0085 57.7878 21.7454 3.1427 -12.7531 12.7516
# 3 45.4957 21.7454 130.6659 -8.3540 -5.8276 16.4722
# 4 -5.7677 3.1427 -8.3540 29.1774 11.9119 4.9740
# 5 -1.4668 -12.7531 -5.8276 11.9119 37.0474 -2.3267
# 6 28.1320 12.7516 16.4722 4.9740 -2.3267 48.3274
#
#
#
# Elastic Compliance Matrix: (Units=1/GPa)
#
#
# Indices 1 2 3 4 5 6 
#
# 1 0.011183 -0.004518 -0.002374 0.004170 -0.003146 -0.005089
# 2 -0.004518 0.023344 -0.002180 -0.007833 0.009938 -0.001502
# 3 -0.002374 -0.002180 0.009192 0.002812 -0.000396 -0.001484
# 4 0.004170 -0.007833 0.002812 0.044803 -0.016918 -0.006744
# 5 -0.003146 0.009938 -0.000396 -0.016918 0.035843 0.002811
# 6 -0.005089 -0.001502 -0.001484 -0.006744 0.002811 0.025386
#
#
# Mechanical properties :
#
#
# Convention : Reuss Voigt Hill
#
# Bulk Modulus (GPa) = 39.10267 56.25498 47.67883
# Shear Modulus (GPa) = 28.34160 37.41352 32.87756
#
# Velocity S-wave (km/s) = 3.31319 3.80670 3.56849
# Velocity P-wave (km/s) = 5.45725 6.41170 5.95363
#
# Compressibility (1/GPa) = 0.02557370
#
# Stress axis : x y z
#
# Youngs Moduli (GPa) = 89.42326 42.83800 108.79398
#
# Poissons Ratio (x) = 0.19356 0.25827
# Poissons Ratio (y) = 0.40405 0.23716
# Poissons Ratio (z) = 0.21228 0.09338
#
# Static dielectric constant tensor:
#      x y z
#    x 2.141010 0.029020 0.031140 
#    y 0.029020 2.156790 0.005710 
#    z 0.031140 0.005710 2.037470 
# 
# From -- ./inp_files/477383.got.cif
#   From: 2010.05.17/outbox.cif.g08.bks.cpg/sg2_239_cif.got.tgz:477383.got - 2010.06.03 11:33:40.
