data_PCOD9009137
_publ_section_title
;
Structure prediction by ZEFSAII (Michael W. Deem and Ramdas Pophale) SiO2 
 PCOD9009137
Probable space group: P -1
;
_chemical_formula_sum "Si O2"
_cell_formula_units_Z 15
_cell_length_a 15.088945
_cell_length_b 17.621250
_cell_length_c 8.650598
_cell_angle_alpha 143.302001
_cell_angle_beta 144.572076
_cell_angle_gamma 27.588581
_cell_volume 589.709389
_symmetry_space_group_name_H-M "P -1"
_symmetry_group_IT_number 2
_symmetry_cell_setting 'triclinic'
loop_
_space_group_symop_operation_xyz
x,y,z
-x,-y,-z
loop_
_atom_site_type_symbol
_atom_site_label
_atom_site_fract_x
_atom_site_fract_y
_atom_site_fract_z
Si Si1 0.252027 0.495865 0.395993
Si Si2 0.710666 0.025138 0.586070
Si Si3 0.787573 0.762423 0.040560
Si Si4 0.705357 0.825382 0.669713
Si Si5 0.500000 0.500000 0.500000
Si Si6 0.045952 0.691510 0.721466
Si Si7 0.316050 0.864242 0.843479
Si Si8 0.863038 0.116063 0.706399
O O1 0.312039 0.314326 0.172412
O O2 0.394232 0.515095 0.540982
O O3 0.211204 0.542199 0.596080
O O4 0.025123 0.631741 0.218938
O O5 0.900428 0.864428 0.691701
O O6 0.500318 0.143048 0.574588
O O7 0.761966 0.124692 0.733763
O O8 0.681381 0.938247 0.264614
O O9 0.790864 0.767859 0.870372
O O10 0.878709 0.697339 0.579831
O O11 0.644349 0.009088 0.866854
O O12 0.480017 0.664106 0.783312
O O13 0.142243 0.728318 0.049735
O O14 0.242026 0.884325 0.593324
O O15 0.104167 0.944842 0.763872
#
# Coordination Sequence:
#
# PCOD9009137 Si02
#       8
#     2   2   2   2   1   2   2   2
#     4  10  24  42  63  91 129 169 211 259 327 373
#     4  11  20  36  64  96 121 158 216 273 305 367
#     4  10  21  41  65  90 125 171 211 263 313 379
#     4  11  22  38  69  94 125 164 222 266 305 376
#     4  12  24  38  66  92 132 156 214 268 310 376
#     4  10  23  40  60  91 135 169 204 254 331 380
#     4  10  22  39  64  99 122 171 212 261 315 378
#     4  10  21  39  67  90 130 168 213 254 318 380
#
# _framework density 25.436259
#
# number of rings (size 3 to 8) (size 9 to 14) (size 15 to 20)
#    0.000    1.600    1.333    3.600    5.600    1.600 
#    0.000    4.667    8.800    0.000    0.000    0.000 
#    0.000    0.000    0.000    0.000    0.000    0.000 
#
# Total GULP energy -83709.483066 kJ/mol
# GULP energy per Si atom -5580.632204 kJ/mol
# Density = 2.537837 g / cm^3
# Si number density = 25.436259 Si / 1000 Ang^3
#
#
#
# Elastic Constant Matrix: (Units=GPa)
#
#
# Indices 1 2 3 4 5 6 
#
# 1 185.3257 16.4749 20.2821 4.2555 16.7556 -13.2871
# 2 16.4749 38.8969 2.8030 12.9700 5.5934 -7.6055
# 3 20.2821 2.8030 31.3989 2.0264 -6.0929 -7.7314
# 4 4.2555 12.9700 2.0264 26.1166 5.9837 3.4606
# 5 16.7556 5.5934 -6.0929 5.9837 43.7337 -1.3966
# 6 -13.2871 -7.6055 -7.7314 3.4606 -1.3966 36.8277
#
#
#
# Elastic Compliance Matrix: (Units=1/GPa)
#
#
# Indices 1 2 3 4 5 6 
#
# 1 0.006352 -0.002124 -0.004346 0.000915 -0.002869 0.000746
# 2 -0.002124 0.034083 0.001348 -0.017612 -0.000686 0.008184
# 3 -0.004346 0.001348 0.038298 -0.005738 0.007856 0.007588
# 4 0.000915 -0.017612 -0.005738 0.049965 -0.006035 -0.009435
# 5 -0.002869 -0.000686 0.007856 -0.006035 0.026037 0.002027
# 6 0.000746 0.008184 0.007588 -0.009435 0.002027 0.031669
#
#
# Mechanical properties :
#
#
# Convention : Reuss Voigt Hill
#
# Bulk Modulus (GPa) = 14.60068 37.19349 25.89708
# Shear Modulus (GPa) = 22.78128 35.73971 29.26050
#
# Velocity S-wave (km/s) = 2.99594 3.75249 3.39535
# Velocity P-wave (km/s) = 4.20953 5.78177 5.05713
#
# Compressibility (1/GPa) = 0.06848997
#
# Stress axis : x y z
#
# Youngs Moduli (GPa) = 157.42645 29.34007 26.11102
#
# Poissons Ratio (x) = 0.06232 0.11347
# Poissons Ratio (y) = 0.33440 -0.03520
# Poissons Ratio (z) = 0.68412 -0.03956
#
# Static dielectric constant tensor:
#      x y z
#    x 2.003180 0.007070 -0.042000 
#    y 0.007070 1.958260 -0.004660 
#    z -0.042000 -0.004660 2.021100 
# 
# From -- ./inp_files/207311.got.cif
#   From: 2010.05.17/outbox.cif.g08.bks.cpg/sg2_104_cif.got.tgz:207311.got - 2010.06.03 11:33:40.
