data_PCOD9009909
_publ_section_title
;
Structure prediction by ZEFSAII (Michael W. Deem and Ramdas Pophale) SiO2 
 PCOD9009909
Probable space group: P -1
;
_chemical_formula_sum "Si O2"
_cell_formula_units_Z 16
_cell_length_a 17.863114
_cell_length_b 9.067134
_cell_length_c 20.289810
_cell_angle_alpha 134.100274
_cell_angle_beta 20.478630
_cell_angle_gamma 133.286899
_cell_volume 818.181446
_symmetry_space_group_name_H-M "P -1"
_symmetry_group_IT_number 2
_symmetry_cell_setting 'triclinic'
loop_
_space_group_symop_operation_xyz
x,y,z
-x,-y,-z
loop_
_atom_site_type_symbol
_atom_site_label
_atom_site_fract_x
_atom_site_fract_y
_atom_site_fract_z
Si Si1 0.317753 0.966365 0.082813
Si Si2 0.597080 0.812239 0.279664
Si Si3 0.885486 0.997445 0.523318
Si Si4 0.745585 0.880793 0.330025
Si Si5 0.773600 0.973929 0.055052
Si Si6 0.510890 0.259534 0.898994
Si Si7 0.502989 0.362011 0.247910
Si Si8 0.250495 0.562286 0.795415
O O1 0.077850 0.981883 0.309258
O O2 0.385990 0.133334 0.022317
O O3 0.500000 0.000000 0.000000
O O4 0.343810 0.747351 0.960658
O O5 0.420876 0.966964 0.464419
O O6 0.765994 0.854646 0.093852
O O7 0.473135 0.580176 0.309180
O O8 0.703571 0.843131 0.274016
O O9 0.751200 0.189456 0.681062
O O10 0.709326 0.794621 0.610040
O O11 0.000000 0.000000 0.500000
O O12 0.696875 0.662538 0.342302
O O13 0.994154 0.985150 0.160129
O O14 0.604917 0.838677 0.102945
O O15 0.725486 0.209169 0.184684
O O16 0.500000 0.500000 0.000000
O O17 0.619757 0.399584 0.232471
O O18 0.000000 0.500000 0.000000
#
# Coordination Sequence:
#
# PCOD9009909 Si02
#       8
#     2   2   2   2   2   2   2   2
#     4  11  22  42  67  86 123 173 214 258 315 376
#     4  10  22  37  63  92 127 159 207 255 311 381
#     4  11  22  41  67  89 122 169 219 254 308 384
#     4   9  21  40  60  89 124 165 207 251 311 378
#     4  11  21  39  61  90 128 161 203 259 317 364
#     4  11  26  42  62  99 134 159 211 269 318 373
#     4  10  21  40  60  94 121 160 214 253 304 381
#     4   9  18  39  62  82 124 162 201 257 303 372
#
# _framework density 19.555564
#
# number of rings (size 3 to 8) (size 9 to 14) (size 15 to 20)
#    0.000    1.750    5.000    0.375    1.750    4.000 
#    0.000    6.250    0.000    0.000    0.000    0.000 
#    0.000    0.000    0.000    0.000    0.000    0.000 
#
# Total GULP energy -89160.089931 kJ/mol
# GULP energy per Si atom -5572.505621 kJ/mol
# Density = 1.951105 g / cm^3
# Si number density = 19.555564 Si / 1000 Ang^3
#
#
#
# Elastic Constant Matrix: (Units=GPa)
#
#
# Indices 1 2 3 4 5 6 
#
# 1 23.9897 14.0460 6.3730 -13.2219 -5.7696 -2.4752
# 2 14.0460 117.6267 37.1402 15.6398 -10.3980 -4.2278
# 3 6.3730 37.1402 115.1524 -3.6150 -5.4623 8.3680
# 4 -13.2219 15.6398 -3.6150 25.7544 -3.2933 -5.6579
# 5 -5.7696 -10.3980 -5.4623 -3.2933 31.5340 -8.7356
# 6 -2.4752 -4.2278 8.3680 -5.6579 -8.7356 25.8685
#
#
#
# Elastic Compliance Matrix: (Units=1/GPa)
#
#
# Indices 1 2 3 4 5 6 
#
# 1 0.107469 -0.019990 0.001975 0.079083 0.031145 0.034191
# 2 -0.019990 0.014585 -0.004115 -0.020862 -0.002763 -0.003694
# 3 0.001975 -0.004115 0.010259 0.004433 0.000507 -0.002661
# 4 0.079083 -0.020862 0.004433 0.104188 0.029022 0.035311
# 5 0.031145 -0.002763 0.000507 0.029022 0.046369 0.024370
# 6 0.034191 -0.003694 -0.002661 0.035311 0.024370 0.058139
#
#
# Mechanical properties :
#
#
# Convention : Reuss Voigt Hill
#
# Bulk Modulus (GPa) = 11.35688 41.32081 26.33885
# Shear Modulus (GPa) = 12.05927 29.91199 20.98563
#
# Velocity S-wave (km/s) = 2.48597 3.91524 3.27942
# Velocity P-wave (km/s) = 3.74969 6.45094 5.27612
#
# Compressibility (1/GPa) = 0.08805232
#
# Stress axis : x y z
#
# Youngs Moduli (GPa) = 9.30502 68.56537 97.47767
#
# Poissons Ratio (x) = 1.37059 -0.19250
# Poissons Ratio (y) = 0.18600 0.40114
# Poissons Ratio (z) = -0.01838 0.28216
#
# Static dielectric constant tensor:
#      x y z
#    x 1.651570 -0.004900 -0.027690 
#    y -0.004900 1.723440 0.030000 
#    z -0.027690 0.030000 1.683670 
# 
# From -- ./inp_files/577579.got.cif
#   From: 2010.05.17/outbox.cif.g08.bks.cpg/sg2_289_cif.got.tgz:577579.got - 2010.06.03 11:33:40.
