data_PCOD9009162
_publ_section_title
;
Structure prediction by ZEFSAII (Michael W. Deem and Ramdas Pophale) SiO2 
 PCOD9009162
Probable space group: P -1
;
_chemical_formula_sum "Si O2"
_cell_formula_units_Z 16
_cell_length_a 15.314093
_cell_length_b 20.568329
_cell_length_c 7.751987
_cell_angle_alpha 44.979780
_cell_angle_beta 142.334249
_cell_angle_gamma 152.102724
_cell_volume 697.854053
_symmetry_space_group_name_H-M "P -1"
_symmetry_group_IT_number 2
_symmetry_cell_setting 'triclinic'
loop_
_space_group_symop_operation_xyz
x,y,z
-x,-y,-z
loop_
_atom_site_type_symbol
_atom_site_label
_atom_site_fract_x
_atom_site_fract_y
_atom_site_fract_z
Si Si1 0.978074 0.683360 0.343592
Si Si2 0.930546 0.579632 0.109007
Si Si3 0.224325 0.870403 0.870051
Si Si4 0.940505 0.817389 0.260141
Si Si5 0.784616 0.371267 0.012569
Si Si6 0.673276 0.014400 0.828241
Si Si7 0.608508 0.243299 0.627924
Si Si8 0.751266 0.890495 0.959187
O O1 0.873024 0.577657 0.218725
O O2 0.147593 0.695031 0.677689
O O3 0.112025 0.829756 0.190610
O O4 0.842074 0.679125 0.274956
O O5 0.163922 0.638514 0.346388
O O6 0.767018 0.438592 0.008580
O O7 0.001523 0.708085 0.882332
O O8 0.157490 0.884206 0.563175
O O9 0.300758 0.971544 0.953683
O O10 0.389090 0.865155 0.133225
O O11 0.807158 0.810069 0.207856
O O12 0.029371 0.943584 0.041724
O O13 0.617499 0.290306 0.744933
O O14 0.000000 0.500000 0.000000
O O15 0.500000 0.000000 0.500000
O O16 0.644463 0.897774 0.931960
O O17 0.413651 0.181290 0.323337
#
# Coordination Sequence:
#
# PCOD9009162 Si02
#       8
#     2   2   2   2   2   2   2   2
#     4  10  17  29  49  72  98 130 157 196 245 290
#     4   8  17  30  50  74  93 120 162 204 247 276
#     4   9  17  31  48  71  90 127 160 198 237 285
#     4  10  20  31  46  70 100 133 161 189 244 294
#     4  10  17  29  50  76  99 121 161 208 244 285
#     4  10  18  31  50  72  99 124 162 206 241 278
#     4   9  17  31  48  72  92 125 160 204 237 276
#     4  10  20  32  46  69 101 131 159 199 239 293
#
# _framework density 22.927429
#
# number of rings (size 3 to 8) (size 9 to 14) (size 15 to 20)
#    0.750    1.750    2.500    0.375    0.000    2.000 
#    0.000    0.000    0.000    7.500    0.000    0.000 
#    0.000    0.000    0.000    0.000    0.000    0.000 
#
# Total GULP energy -89074.633798 kJ/mol
# GULP energy per Si atom -5567.164612 kJ/mol
# Density = 2.287524 g / cm^3
# Si number density = 22.927429 Si / 1000 Ang^3
#
#
#
# Elastic Constant Matrix: (Units=GPa)
#
#
# Indices 1 2 3 4 5 6 
#
# 1 90.8901 53.5414 24.6336 -1.5433 -2.0824 -63.5160
# 2 53.5414 99.7798 24.6070 2.0649 -2.9334 -52.5107
# 3 24.6336 24.6070 40.6355 1.7383 2.9300 -26.5485
# 4 -1.5433 2.0649 1.7383 27.2994 -7.6068 -9.1105
# 5 -2.0824 -2.9334 2.9300 -7.6068 28.7677 0.2542
# 6 -63.5160 -52.5107 -26.5485 -9.1105 0.2542 64.4369
#
#
#
# Elastic Compliance Matrix: (Units=1/GPa)
#
#
# Indices 1 2 3 4 5 6 
#
# 1 0.043513 0.000781 0.002741 0.020275 0.007892 0.047493
# 2 0.000781 0.018231 -0.001785 0.004880 0.003250 0.015568
# 3 0.002741 -0.001785 0.034469 0.002550 -0.002960 0.015821
# 4 0.020275 0.004880 0.002550 0.052288 0.015246 0.032345
# 5 0.007892 0.003250 -0.002960 0.015246 0.039898 0.011206
# 6 0.047493 0.015568 0.015821 0.032345 0.011206 0.086068
#
#
# Mechanical properties :
#
#
# Convention : Reuss Voigt Hill
#
# Bulk Modulus (GPa) = 10.03134 48.54105 29.28620
# Shear Modulus (GPa) = 16.43541 32.66902 24.55222
#
# Velocity S-wave (km/s) = 2.68030 3.77886 3.27596
# Velocity P-wave (km/s) = 3.73677 6.34487 5.20676
#
# Compressibility (1/GPa) = 0.09968755
#
# Stress axis : x y z
#
# Youngs Moduli (GPa) = 22.98141 54.85265 29.01161
#
# Poissons Ratio (x) = -0.04286 -0.07952
# Poissons Ratio (y) = -0.01796 0.05179
# Poissons Ratio (z) = -0.06299 0.09792
#
# Static dielectric constant tensor:
#      x y z
#    x 2.125810 0.035390 -0.011420 
#    y 0.035390 1.970080 -0.015450 
#    z -0.011420 -0.015450 1.807870 
# 
# From -- ./inp_files/336915.got.cif
#   From: 2010.05.17/outbox.cif.g08.bks.cpg/sg2_169_cif.got.tgz:336915.got - 2010.06.03 11:33:40.
