data_PCOD9009509
_publ_section_title
;
Structure prediction by ZEFSAII (Michael W. Deem and Ramdas Pophale) SiO2 
 PCOD9009509
Probable space group: P -1
;
_chemical_formula_sum "Si O2"
_cell_formula_units_Z 16
_cell_length_a 13.130874
_cell_length_b 14.382659
_cell_length_c 8.649519
_cell_angle_alpha 52.896678
_cell_angle_beta 44.102104
_cell_angle_gamma 37.920032
_cell_volume 696.066033
_symmetry_space_group_name_H-M "P -1"
_symmetry_group_IT_number 2
_symmetry_cell_setting 'triclinic'
loop_
_space_group_symop_operation_xyz
x,y,z
-x,-y,-z
loop_
_atom_site_type_symbol
_atom_site_label
_atom_site_fract_x
_atom_site_fract_y
_atom_site_fract_z
Si Si1 0.962276 0.411822 0.247335
Si Si2 0.925759 0.912897 0.211123
Si Si3 0.423218 0.905475 0.798048
Si Si4 0.289710 0.905063 0.253672
Si Si5 0.316698 0.072994 0.293311
Si Si6 0.252116 0.363854 0.457540
Si Si7 0.901949 0.366802 0.836038
Si Si8 0.879361 0.239409 0.306708
O O1 0.169903 0.253357 0.230343
O O2 0.826114 0.529531 0.413598
O O3 0.864302 0.350946 0.334702
O O4 0.000000 0.500000 0.000000
O O5 0.819845 0.951755 0.447690
O O6 0.092725 0.733708 0.201061
O O7 0.777333 0.956608 0.193597
O O8 0.000000 0.000000 0.000000
O O9 0.536661 0.949911 0.718724
O O10 0.540911 0.794377 0.637090
O O11 0.382826 0.839174 0.050823
O O12 0.263109 0.795613 0.477064
O O13 0.397521 0.950112 0.190645
O O14 0.086563 0.072308 0.271910
O O15 0.238381 0.458890 0.232103
O O16 0.101069 0.335884 0.638722
O O17 0.868302 0.313685 0.082506
#
# Coordination Sequence:
#
# PCOD9009509 Si02
#       8
#     2   2   2   2   2   2   2   2
#     4  11  22  40  70 100 133 184 235 266 330 412
#     4  12  25  42  70 100 135 181 228 275 346 411
#     4  12  25  43  68 103 143 173 223 292 341 395
#     4  10  23  41  64 100 135 172 224 282 341 394
#     4  11  23  43  69 101 133 177 234 283 328 402
#     4  11  23  40  66 101 133 176 227 279 330 399
#     4  11  20  42  68  92 133 180 228 268 331 405
#     4  10  21  39  69  93 130 181 228 274 328 401
#
# _framework density 22.986325999999998
#
# number of rings (size 3 to 8) (size 9 to 14) (size 15 to 20)
#    0.000    1.000    5.000    2.250    3.500    0.000 
#    2.250    3.125    0.000    0.000    0.000    0.000 
#    0.000    0.000    0.000    0.000    0.000    0.000 
#
# Total GULP energy -89328.020277 kJ/mol
# GULP energy per Si atom -5583.001267 kJ/mol
# Density = 2.293401 g / cm^3
# Si number density = 22.986326 Si / 1000 Ang^3
#
#
#
# Elastic Constant Matrix: (Units=GPa)
#
#
# Indices 1 2 3 4 5 6 
#
# 1 61.5532 39.2443 24.0761 -8.5225 1.8839 13.0502
# 2 39.2443 110.1493 54.7727 -16.3373 2.3946 21.5343
# 3 24.0761 54.7727 140.6977 -43.0099 10.1739 7.9027
# 4 -8.5225 -16.3373 -43.0099 49.4903 9.1789 6.8304
# 5 1.8839 2.3946 10.1739 9.1789 32.8330 -2.9479
# 6 13.0502 21.5343 7.9027 6.8304 -2.9479 33.1752
#
#
#
# Elastic Compliance Matrix: (Units=1/GPa)
#
#
# Indices 1 2 3 4 5 6 
#
# 1 0.021818 -0.006293 0.000017 0.002801 -0.002053 -0.005261
# 2 -0.006293 0.014713 -0.003795 0.001474 -0.000533 -0.006522
# 3 0.000017 -0.003795 0.012970 0.011912 -0.007409 -0.003743
# 4 0.002801 0.001474 0.011912 0.036264 -0.015330 -0.013725
# 5 -0.002053 -0.000533 -0.007409 -0.015330 0.038044 0.009456
# 6 -0.005261 -0.006522 -0.003743 -0.013725 0.009456 0.041003
#
#
# Mechanical properties :
#
#
# Convention : Reuss Voigt Hill
#
# Bulk Modulus (GPa) = 34.06352 60.95405 47.50878
# Shear Modulus (GPa) = 25.67497 36.05353 30.86425
#
# Velocity S-wave (km/s) = 3.34573 3.96470 3.66829
# Velocity P-wave (km/s) = 5.45678 6.89446 6.21731
#
# Compressibility (1/GPa) = 0.02935692
#
# Stress axis : x y z
#
# Youngs Moduli (GPa) = 45.83404 67.96623 77.10369
#
# Poissons Ratio (x) = 0.42771 -0.00128
# Poissons Ratio (y) = 0.28843 0.29265
# Poissons Ratio (z) = -0.00076 0.25796
#
# Static dielectric constant tensor:
#      x y z
#    x 1.908210 0.004480 0.028860 
#    y 0.004480 1.848670 0.017810 
#    z 0.028860 0.017810 1.905750 
# 
# From -- ./inp_files/312475.got.cif
#   From: 2010.05.17/outbox.cif.g08.bks.cpg/sg2_157_cif.got.tgz:312475.got - 2010.06.03 11:33:40.
