data_PCOD9009838
_publ_section_title
;
Structure prediction by ZEFSAII (Michael W. Deem and Ramdas Pophale) SiO2 
 PCOD9009838
Probable space group: P -1
;
_chemical_formula_sum "Si O2"
_cell_formula_units_Z 16
_cell_length_a 13.934707
_cell_length_b 14.047062
_cell_length_c 14.026882
_cell_angle_alpha 145.058835
_cell_angle_beta 35.150375
_cell_angle_gamma 145.423304
_cell_volume 801.821142
_symmetry_space_group_name_H-M "P -1"
_symmetry_group_IT_number 2
_symmetry_cell_setting 'triclinic'
loop_
_space_group_symop_operation_xyz
x,y,z
-x,-y,-z
loop_
_atom_site_type_symbol
_atom_site_label
_atom_site_fract_x
_atom_site_fract_y
_atom_site_fract_z
Si Si1 0.391160 0.340380 0.034597
Si Si2 0.338960 0.024531 0.091655
Si Si3 0.753608 0.441346 0.922411
Si Si4 0.339262 0.285002 0.458025
Si Si5 0.416747 0.988067 0.275043
Si Si6 0.612264 0.037912 0.341950
Si Si7 0.949970 0.657037 0.130576
Si Si8 0.033973 0.365481 0.289916
O O1 0.180175 0.312423 0.183137
O O2 0.500000 0.500000 0.000000
O O3 0.538766 0.407814 0.057152
O O4 0.387162 0.152737 0.845469
O O5 0.322396 0.198130 0.294696
O O6 0.140780 0.844531 0.113610
O O7 0.500000 0.000000 0.000000
O O8 0.411097 0.028288 0.929993
O O9 0.869144 0.535909 0.808776
O O10 0.739083 0.232418 0.775362
O O11 0.842128 0.572366 0.049496
O O12 0.500000 0.500000 0.500000
O O13 0.371954 0.134857 0.373602
O O14 0.166199 0.297714 0.658197
O O15 0.488515 0.071280 0.389102
O O16 0.827188 0.195968 0.300779
O O17 0.500000 0.000000 0.500000
O O18 0.000000 0.500000 0.000000
O O19 0.000000 0.500000 0.500000
#
# Coordination Sequence:
#
# PCOD9009838 Si02
#       8
#     2   2   2   2   2   2   2   2
#     4   9  20  39  61  87 123 161 201 253 306 361
#     4  10  21  40  60  86 121 156 200 254 307 365
#     4  10  22  41  63  90 125 165 208 259 313 370
#     4  11  23  40  65  93 122 164 209 259 315 370
#     4  10  21  41  62  89 127 165 205 260 313 368
#     4  11  22  39  64  94 128 167 207 256 309 370
#     4  12  23  39  63  91 122 161 204 255 312 374
#     4  11  22  39  63  94 126 167 211 256 310 368
#
# _framework density 19.954574000000001
#
# number of rings (size 3 to 8) (size 9 to 14) (size 15 to 20)
#    0.000    1.500    0.000    7.500    0.000    3.000 
#    0.000    8.750    0.000    0.000    0.000    0.000 
#    0.000    0.000    0.000    0.000    0.000    0.000 
#
# Total GULP energy -89237.297275 kJ/mol
# GULP energy per Si atom -5577.331080 kJ/mol
# Density = 1.990916 g / cm^3
# Si number density = 19.954574 Si / 1000 Ang^3
#
#
#
# Elastic Constant Matrix: (Units=GPa)
#
#
# Indices 1 2 3 4 5 6 
#
# 1 63.6774 18.7974 38.4774 5.2239 9.9105 6.0971
# 2 18.7974 138.9862 32.5441 2.1809 3.6303 14.5392
# 3 38.4774 32.5441 131.9947 -7.2316 8.1100 2.6621
# 4 5.2239 2.1809 -7.2316 40.8536 -5.1577 6.4762
# 5 9.9105 3.6303 8.1100 -5.1577 34.5747 4.9912
# 6 6.0971 14.5392 2.6621 6.4762 4.9912 39.0548
#
#
#
# Elastic Compliance Matrix: (Units=1/GPa)
#
#
# Indices 1 2 3 4 5 6 
#
# 1 0.020650 -0.001167 -0.005628 -0.004019 -0.004916 -0.001111
# 2 -0.001167 0.008005 -0.001600 -0.000102 0.000244 -0.002703
# 3 -0.005628 -0.001600 0.009748 0.002436 -0.000204 0.000432
# 4 -0.004019 -0.000102 0.002436 0.026825 0.005260 -0.004621
# 5 -0.004916 0.000244 -0.000204 0.005260 0.031751 -0.004240
# 6 -0.001111 -0.002703 0.000432 -0.004621 -0.004240 0.028064
#
#
# Mechanical properties :
#
#
# Convention : Reuss Voigt Hill
#
# Bulk Modulus (GPa) = 46.26457 57.14402 51.70429
# Shear Modulus (GPa) = 33.54855 39.21924 36.38389
#
# Velocity S-wave (km/s) = 4.10475 4.43812 4.27469
# Velocity P-wave (km/s) = 6.76022 7.41362 7.09445
#
# Compressibility (1/GPa) = 0.02161481
#
# Stress axis : x y z
#
# Youngs Moduli (GPa) = 48.42502 124.91575 102.58231
#
# Poissons Ratio (x) = 0.14584 0.57730
# Poissons Ratio (y) = 0.05654 0.16408
# Poissons Ratio (z) = 0.27252 0.19981
#
# Static dielectric constant tensor:
#      x y z
#    x 1.798480 -0.015380 -0.012150 
#    y -0.015380 1.699860 -0.004750 
#    z -0.012150 -0.004750 1.680150 
# 
# From -- ./inp_files/534541.got.cif
#   From: 2010.05.17/outbox.cif.g08.bks.cpg/sg2_268_cif.got.tgz:534541.got - 2010.06.03 11:33:40.
