data_PCOD9009915
_publ_section_title
;
Structure prediction by ZEFSAII (Michael W. Deem and Ramdas Pophale) SiO2 
 PCOD9009915
Probable space group: P -1
;
_chemical_formula_sum "Si O2"
_cell_formula_units_Z 16
_cell_length_a 11.503834
_cell_length_b 13.957926
_cell_length_c 9.684016
_cell_angle_alpha 115.744035
_cell_angle_beta 75.692305
_cell_angle_gamma 146.785548
_cell_volume 745.620451
_symmetry_space_group_name_H-M "P -1"
_symmetry_group_IT_number 2
_symmetry_cell_setting 'triclinic'
loop_
_space_group_symop_operation_xyz
x,y,z
-x,-y,-z
loop_
_atom_site_type_symbol
_atom_site_label
_atom_site_fract_x
_atom_site_fract_y
_atom_site_fract_z
Si Si1 0.890059 0.020029 0.359105
Si Si2 0.769439 0.548214 0.489182
Si Si3 0.196339 0.591043 0.080853
Si Si4 0.965347 0.561001 0.665088
Si Si5 0.615181 0.006842 0.082233
Si Si6 0.703421 0.748927 0.472727
Si Si7 0.222548 0.098100 0.989491
Si Si8 0.319730 0.496515 0.803715
O O1 0.005831 0.219938 0.449560
O O2 0.108782 0.109768 0.376487
O O3 0.740631 0.876418 0.441317
O O4 0.765183 0.913741 0.186335
O O5 0.537085 0.432135 0.508680
O O6 0.731631 0.471147 0.299344
O O7 0.803821 0.519108 0.606609
O O8 0.142415 0.556181 0.235338
O O9 0.418371 0.815754 0.114187
O O10 0.213868 0.482011 0.952327
O O11 0.000000 0.500000 0.000000
O O12 0.198247 0.785762 0.770631
O O13 0.000000 0.500000 0.500000
O O14 0.500000 0.000000 0.000000
O O15 0.745828 0.992646 0.999074
O O16 0.745924 0.672268 0.322925
O O17 0.424462 0.316256 0.120607
O O18 0.000000 0.000000 0.000000
#
# Coordination Sequence:
#
# PCOD9009915 Si02
#       8
#     2   2   2   2   2   2   2   2
#     4  10  21  40  60  95 136 176 227 281 336 417
#     4  11  22  42  67  93 138 180 224 287 348 415
#     4  11  24  47  71  99 138 180 237 297 351 422
#     4  12  27  45  73  99 133 190 243 292 356 420
#     4  11  25  47  72 105 145 184 236 297 355 424
#     4  10  22  40  65  96 138 181 226 280 357 414
#     4  11  22  39  70 103 141 181 232 285 352 417
#     4  10  23  40  68 100 138 181 232 287 352 418
#
# _framework density 21.458639000000002
#
# number of rings (size 3 to 8) (size 9 to 14) (size 15 to 20)
#    0.000    1.250    2.500    3.750    5.250    2.000 
#    0.000    6.250    0.000    0.000    0.000    0.000 
#    0.000    0.000    0.000    0.000    0.000    0.000 
#
# Total GULP energy -89156.879450 kJ/mol
# GULP energy per Si atom -5572.304966 kJ/mol
# Density = 2.140980 g / cm^3
# Si number density = 21.458639 Si / 1000 Ang^3
#
#
#
# Elastic Constant Matrix: (Units=GPa)
#
#
# Indices 1 2 3 4 5 6 
#
# 1 102.6248 40.9409 34.7232 -6.9976 24.5446 7.1056
# 2 40.9409 101.5121 46.5286 10.0750 -0.0887 4.1248
# 3 34.7232 46.5286 110.9977 -6.0046 26.9743 0.4984
# 4 -6.9976 10.0750 -6.0046 35.0604 5.5953 6.3358
# 5 24.5446 -0.0887 26.9743 5.5953 48.9422 0.6415
# 6 7.1056 4.1248 0.4984 6.3358 0.6415 27.2578
#
#
#
# Elastic Compliance Matrix: (Units=1/GPa)
#
#
# Indices 1 2 3 4 5 6 
#
# 1 0.015234 -0.007061 0.000770 0.007417 -0.008867 -0.004432
# 2 -0.007061 0.017043 -0.007577 -0.009250 0.008788 0.001343
# 3 0.000770 -0.007577 0.014508 0.006377 -0.009117 -0.000587
# 4 0.007417 -0.009250 0.006377 0.037202 -0.011386 -0.009030
# 5 -0.008867 0.008788 -0.009117 -0.011386 0.031182 0.003061
# 6 -0.004432 0.001343 -0.000587 -0.009030 0.003061 0.039676
#
#
# Mechanical properties :
#
#
# Convention : Reuss Voigt Hill
#
# Bulk Modulus (GPa) = 52.49711 62.16889 57.33300
# Shear Modulus (GPa) = 26.46482 35.11486 30.78984
#
# Velocity S-wave (km/s) = 3.51564 4.04963 3.79205
# Velocity P-wave (km/s) = 6.40289 7.13445 6.77855
#
# Compressibility (1/GPa) = 0.01904867
#
# Stress axis : x y z
#
# Youngs Moduli (GPa) = 65.64340 58.67508 68.92815
#
# Poissons Ratio (x) = 0.41429 -0.05309
# Poissons Ratio (y) = 0.46350 0.52230
# Poissons Ratio (z) = -0.05056 0.44461
#
# Static dielectric constant tensor:
#      x y z
#    x 1.559890 0.013890 0.154190 
#    y 0.013890 1.763540 -0.055160 
#    z 0.154190 -0.055160 1.662030 
# 
# From -- ./inp_files/273723.got.cif
#   From: 2010.05.17/outbox.cif.g08.bks.cpg/sg2_137_cif.got.tgz:273723.got - 2010.06.03 11:33:40.
