data_PCOD9009775
_publ_section_title
;
Structure prediction by ZEFSAII (Michael W. Deem and Ramdas Pophale) SiO2 
 PCOD9009775
Probable space group: P -1
;
_chemical_formula_sum "Si O2"
_cell_formula_units_Z 16
_cell_length_a 14.046046
_cell_length_b 11.317901
_cell_length_c 8.026918
_cell_angle_alpha 110.985742
_cell_angle_beta 67.084662
_cell_angle_gamma 137.071462
_cell_volume 795.069287
_symmetry_space_group_name_H-M "P -1"
_symmetry_group_IT_number 2
_symmetry_cell_setting 'triclinic'
loop_
_space_group_symop_operation_xyz
x,y,z
-x,-y,-z
loop_
_atom_site_type_symbol
_atom_site_label
_atom_site_fract_x
_atom_site_fract_y
_atom_site_fract_z
Si Si1 0.519321 0.207197 0.484828
Si Si2 0.396306 0.150611 0.064312
Si Si3 0.600992 0.157807 0.740380
Si Si4 0.233973 0.020166 0.759995
Si Si5 0.896318 0.301746 0.528461
Si Si6 0.876099 0.851338 0.278109
Si Si7 0.417018 0.532426 0.682803
Si Si8 0.117977 0.930268 0.337731
O O1 0.594008 0.247526 0.631916
O O2 0.366814 0.141555 0.600870
O O3 0.597221 0.357913 0.372777
O O4 0.487256 0.041426 0.351045
O O5 0.482019 0.344420 0.169586
O O6 0.273733 0.018368 0.215052
O O7 0.519452 0.152294 0.946163
O O8 0.308285 0.087667 0.921492
O O9 0.763921 0.255104 0.690089
O O10 0.128163 0.047109 0.812505
O O11 0.162214 0.826951 0.657053
O O12 0.949858 0.236494 0.584274
O O13 0.000000 0.500000 0.500000
O O14 0.736469 0.647948 0.251461
O O15 0.014998 0.883678 0.233018
O O16 0.861892 0.927240 0.491787
O O17 0.500000 0.500000 0.500000
#
# Coordination Sequence:
#
# PCOD9009775 Si02
#       8
#     2   2   2   2   2   2   2   2
#     4   9  18  36  62  84 116 156 199 244 299 363
#     4  11  22  39  63  93 121 159 202 252 305 358
#     4   9  20  38  61  88 117 158 198 248 306 350
#     4   9  19  39  61  87 122 159 198 244 306 360
#     4  10  21  40  64  89 121 160 205 246 294 368
#     4  10  21  40  59  86 122 163 203 243 301 365
#     4  12  21  36  62  91 120 159 207 255 291 357
#     4  10  22  40  63  86 119 166 200 242 310 360
#
# _framework density 20.124030999999999
#
# number of rings (size 3 to 8) (size 9 to 14) (size 15 to 20)
#    0.000    2.000    2.500    2.250    1.750    3.000 
#    2.250    0.625    0.000    0.000    0.000    0.000 
#    0.000    0.000    0.000    0.000    0.000    0.000 
#
# Total GULP energy -89239.699390 kJ/mol
# GULP energy per Si atom -5577.481212 kJ/mol
# Density = 2.007823 g / cm^3
# Si number density = 20.124031 Si / 1000 Ang^3
#
#
#
# Elastic Constant Matrix: (Units=GPa)
#
#
# Indices 1 2 3 4 5 6 
#
# 1 93.1514 34.3741 24.8958 8.9798 0.8770 2.3123
# 2 34.3741 124.4657 29.1447 8.1170 -1.3489 -3.5848
# 3 24.8958 29.1447 80.8018 5.2194 -5.2693 1.0669
# 4 8.9798 8.1170 5.2194 18.0378 6.4000 -0.6448
# 5 0.8770 -1.3489 -5.2693 6.4000 30.7173 -2.7183
# 6 2.3123 -3.5848 1.0669 -0.6448 -2.7183 22.3869
#
#
#
# Elastic Compliance Matrix: (Units=1/GPa)
#
#
# Indices 1 2 3 4 5 6 
#
# 1 0.012930 -0.002700 -0.002712 -0.004435 -0.000187 -0.001789
# 2 -0.002700 0.009576 -0.002439 -0.002461 0.000765 0.001951
# 3 -0.002712 -0.002439 0.014476 -0.002822 0.002996 -0.000518
# 4 -0.004435 -0.002461 -0.002822 0.064506 -0.013873 0.000372
# 5 -0.000187 0.000765 0.002996 -0.013873 0.036353 0.004014
# 6 -0.001789 0.001951 -0.000518 0.000372 0.004014 0.045689
#
#
# Mechanical properties :
#
#
# Convention : Reuss Voigt Hill
#
# Bulk Modulus (GPa) = 46.99381 52.80535 49.89958
# Shear Modulus (GPa) = 24.23344 28.22868 26.23106
#
# Velocity S-wave (km/s) = 3.47393 3.74937 3.61428
# Velocity P-wave (km/s) = 6.28440 6.71123 6.50132
#
# Compressibility (1/GPa) = 0.02127940
#
# Stress axis : x y z
#
# Youngs Moduli (GPa) = 77.33854 104.42618 69.08071
#
# Poissons Ratio (x) = 0.28198 0.18735
# Poissons Ratio (y) = 0.20884 0.16849
# Poissons Ratio (z) = 0.20975 0.25470
#
# Static dielectric constant tensor:
#      x y z
#    x 1.784340 -0.013090 0.011200 
#    y -0.013090 1.688190 -0.003470 
#    z 0.011200 -0.003470 1.729370 
# 
# From -- ./inp_files/308288.got.cif
#   From: 2010.05.17/outbox.cif.g08.bks.cpg/sg2_155_cif.got.tgz:308288.got - 2010.06.03 11:33:40.
