data_PCOD9009115
_publ_section_title
;
Structure prediction by ZEFSAII (Michael W. Deem and Ramdas Pophale) SiO2 
 PCOD9009115
Probable space group: P -1
;
_chemical_formula_sum "Si O2"
_cell_formula_units_Z 16
_cell_length_a 8.426865
_cell_length_b 11.571091
_cell_length_c 11.276017
_cell_angle_alpha 100.337130
_cell_angle_beta 56.981837
_cell_angle_gamma 63.067256
_cell_volume 675.228500
_symmetry_space_group_name_H-M "P -1"
_symmetry_group_IT_number 2
_symmetry_cell_setting 'triclinic'
loop_
_space_group_symop_operation_xyz
x,y,z
-x,-y,-z
loop_
_atom_site_type_symbol
_atom_site_label
_atom_site_fract_x
_atom_site_fract_y
_atom_site_fract_z
Si Si1 0.753054 0.734934 0.510441
Si Si2 0.289090 0.832884 0.582528
Si Si3 0.066387 0.195620 0.151608
Si Si4 0.187192 0.869922 0.188527
Si Si5 0.534146 0.819740 0.864722
Si Si6 0.644401 0.054435 0.656358
Si Si7 0.208709 0.617536 0.177085
Si Si8 0.046660 0.341238 0.957470
O O1 0.570658 0.744852 0.493822
O O2 0.653980 0.732355 0.676595
O O3 0.048821 0.603146 0.329757
O O4 0.692184 0.900750 0.568683
O O5 0.275960 0.880215 0.460136
O O6 0.163174 0.765804 0.670212
O O7 0.076599 0.011752 0.753131
O O8 0.241697 0.208279 0.161158
O O9 0.949915 0.314058 0.109272
O O10 0.282067 0.009036 0.988425
O O11 0.240287 0.962574 0.264830
O O12 0.175906 0.765173 0.260138
O O13 0.419042 0.766219 0.984171
O O14 0.345342 0.195443 0.816153
O O15 0.500000 0.500000 0.000000
O O16 0.063608 0.663404 0.119889
O O17 0.000000 0.500000 0.000000
#
# Coordination Sequence:
#
# PCOD9009115 Si02
#       8
#     2   2   2   2   2   2   2   2
#     4  12  23  41  69 103 138 171 226 293 332 400
#     4  11  23  36  66 106 135 170 221 286 339 389
#     4  10  22  41  67 103 139 176 225 273 346 403
#     4  11  23  39  70 101 141 176 221 279 337 406
#     4  10  21  39  67 106 138 171 219 287 340 394
#     4  12  21  42  69 104 134 179 229 276 339 396
#     4  12  28  46  67  98 132 183 236 276 345 408
#     4  12  25  47  73  91 138 187 227 277 339 411
#
# _framework density 23.695679999999999
#
# number of rings (size 3 to 8) (size 9 to 14) (size 15 to 20)
#    0.000    0.750    5.000    3.750    3.500    1.000 
#    0.000    1.250    0.000    0.000    0.000    0.000 
#    0.000    0.000    0.000    0.000    0.000    0.000 
#
# Total GULP energy -89287.597900 kJ/mol
# GULP energy per Si atom -5580.474869 kJ/mol
# Density = 2.364175 g / cm^3
# Si number density = 23.695680 Si / 1000 Ang^3
#
#
#
# Elastic Constant Matrix: (Units=GPa)
#
#
# Indices 1 2 3 4 5 6 
#
# 1 59.2727 9.7799 22.4263 -1.2619 -9.0850 -5.2844
# 2 9.7799 60.0941 22.1324 -28.1349 -1.2616 9.7681
# 3 22.4263 22.1324 132.5404 -36.8780 -38.9454 -7.3946
# 4 -1.2619 -28.1349 -36.8780 48.9613 -4.5999 -1.5109
# 5 -9.0850 -1.2616 -38.9454 -4.5999 47.6855 -7.2858
# 6 -5.2844 9.7681 -7.3946 -1.5109 -7.2858 24.0553
#
#
#
# Elastic Compliance Matrix: (Units=1/GPa)
#
#
# Indices 1 2 3 4 5 6 
#
# 1 0.019425 -0.004945 -0.002732 -0.004051 0.001824 0.005733
# 2 -0.004945 0.025984 -0.000593 0.013903 -0.001123 -0.011287
# 3 -0.002732 -0.000593 0.018124 0.015236 0.017487 0.011465
# 4 -0.004051 0.013903 0.015236 0.041559 0.016949 0.005892
# 5 0.001824 -0.001123 0.017487 0.016949 0.040179 0.019466
# 6 0.005733 -0.011287 0.011465 0.005892 0.019466 0.057204
#
#
# Mechanical properties :
#
#
# Convention : Reuss Voigt Hill
#
# Bulk Modulus (GPa) = 21.28060 40.06491 30.67275
# Shear Modulus (GPa) = 21.30548 37.31166 29.30857
#
# Velocity S-wave (km/s) = 3.00180 3.97245 3.52074
# Velocity P-wave (km/s) = 4.58418 6.16322 5.43139
#
# Compressibility (1/GPa) = 0.04699117
#
# Stress axis : x y z
#
# Youngs Moduli (GPa) = 51.47908 38.48492 55.17671
#
# Poissons Ratio (x) = 0.19031 0.15077
# Poissons Ratio (y) = 0.25457 0.03274
# Poissons Ratio (z) = 0.14066 0.02284
#
# Static dielectric constant tensor:
#      x y z
#    x 1.870850 0.038920 -0.009970 
#    y 0.038920 1.949960 0.001950 
#    z -0.009970 0.001950 1.980980 
# 
# From -- ./inp_files/392555.got.cif
#   From: 2010.05.17/outbox.cif.g08.bks.cpg/sg2_197_cif.got.tgz:392555.got - 2010.06.03 11:33:40.
