data_PCOD9009067
_publ_section_title
;
Structure prediction by ZEFSAII (Michael W. Deem and Ramdas Pophale) SiO2 
 PCOD9009067
Probable space group: P -1
;
_chemical_formula_sum "Si O2"
_cell_formula_units_Z 15
_cell_length_a 11.541550
_cell_length_b 11.329153
_cell_length_c 17.142816
_cell_angle_alpha 147.076749
_cell_angle_beta 31.332434
_cell_angle_gamma 130.464948
_cell_volume 614.909840
_symmetry_space_group_name_H-M "P -1"
_symmetry_group_IT_number 2
_symmetry_cell_setting 'triclinic'
loop_
_space_group_symop_operation_xyz
x,y,z
-x,-y,-z
loop_
_atom_site_type_symbol
_atom_site_label
_atom_site_fract_x
_atom_site_fract_y
_atom_site_fract_z
Si Si1 0.901803 0.761459 0.197883
Si Si2 0.617005 0.075199 0.654984
Si Si3 0.516337 0.335457 0.701908
Si Si4 0.384062 0.252027 0.181209
Si Si5 0.263465 0.359328 0.482562
Si Si6 0.000000 0.000000 0.500000
Si Si7 0.986363 0.887585 0.774410
Si Si8 0.276031 0.837566 0.795886
O O1 0.668789 0.780419 0.293629
O O2 0.831661 0.885924 0.389240
O O3 0.055796 0.892661 0.134966
O O4 0.000000 0.500000 0.000000
O O5 0.550438 0.266024 0.733996
O O6 0.733450 0.130543 0.697215
O O7 0.411256 0.956020 0.722158
O O8 0.452795 0.598541 0.863880
O O9 0.759065 0.241242 0.466864
O O10 0.264735 0.357061 0.387557
O O11 0.194905 0.249599 0.223096
O O12 0.500000 0.000000 0.000000
O O13 0.205352 0.614443 0.686387
O O14 0.522149 0.250831 0.304396
O O15 0.101076 0.208761 0.524186
O O16 0.928380 0.983084 0.946475
#
# Coordination Sequence:
#
# PCOD9009067 Si02
#       8
#     2   2   2   2   2   1   2   2
#     4  11  24  42  72  99 133 184 244 295 353 426
#     4  10  22  45  69 100 148 183 236 288 360 419
#     4  11  25  46  71 104 142 186 239 309 355 423
#     4  12  23  43  72  99 134 187 244 290 356 430
#     4  10  21  39  66  99 141 183 240 288 348 413
#     4  10  22  38  68  98 142 194 224 280 348 424
#     4  11  23  42  67 103 139 182 237 292 360 419
#     4  10  22  40  69 101 141 185 230 292 355 425
#
# _framework density 24.393819000000001
#
# number of rings (size 3 to 8) (size 9 to 14) (size 15 to 20)
#    0.000    1.333    1.333    5.200    5.600    0.000 
#    0.000    6.667    0.000    0.000    0.000    0.933 
#    0.000    0.000    0.000    0.000    0.000    0.000 
#
# Total GULP energy -83743.019142 kJ/mol
# GULP energy per Si atom -5582.867943 kJ/mol
# Density = 2.433830 g / cm^3
# Si number density = 24.393819 Si / 1000 Ang^3
#
#
#
# Elastic Constant Matrix: (Units=GPa)
#
#
# Indices 1 2 3 4 5 6 
#
# 1 47.3445 21.0476 23.9768 4.9848 -1.6388 -6.8706
# 2 21.0476 178.2377 31.7059 1.3678 9.9100 -14.9305
# 3 23.9768 31.7059 44.6478 5.6678 2.3845 -10.6782
# 4 4.9848 1.3678 5.6678 30.9938 -7.1171 -5.7349
# 5 -1.6388 9.9100 2.3845 -7.1171 41.0516 0.6439
# 6 -6.8706 -14.9305 -10.6782 -5.7349 0.6439 54.7306
#
#
#
# Elastic Compliance Matrix: (Units=1/GPa)
#
#
# Indices 1 2 3 4 5 6 
#
# 1 0.029375 -0.000872 -0.014999 -0.001418 0.002003 0.000351
# 2 -0.000872 0.006568 -0.003949 0.000448 -0.001329 0.000974
# 3 -0.014999 -0.003949 0.034670 -0.003654 -0.002347 0.003449
# 4 -0.001418 0.000448 -0.003654 0.035062 0.006082 0.002833
# 5 0.002003 -0.001329 -0.002347 0.006082 0.025955 -0.000237
# 6 0.000351 0.000974 0.003449 0.002833 -0.000237 0.019554
#
#
# Mechanical properties :
#
#
# Convention : Reuss Voigt Hill
#
# Bulk Modulus (GPa) = 32.28449 47.07673 39.68061
# Shear Modulus (GPa) = 24.85744 38.25519 31.55632
#
# Velocity S-wave (km/s) = 3.19565 3.96439 3.60059
# Velocity P-wave (km/s) = 5.18456 6.34789 5.79549
#
# Compressibility (1/GPa) = 0.03097463
#
# Stress axis : x y z
#
# Youngs Moduli (GPa) = 34.04279 152.25530 28.84305
#
# Poissons Ratio (x) = 0.13274 0.43261
# Poissons Ratio (y) = 0.02968 0.11389
# Poissons Ratio (z) = 0.51060 0.60122
#
# Static dielectric constant tensor:
#      x y z
#    x 2.065960 0.000410 0.020470 
#    y 0.000410 1.895200 0.083040 
#    z 0.020470 0.083040 2.031250 
# 
# From -- ./inp_files/569237.got.cif
#   From: 2010.05.17/outbox.cif.g08.bks.cpg/sg2_285_cif.got.tgz:569237.got - 2010.06.03 11:33:40.
