data_PCOD9009582
_publ_section_title
;
Structure prediction by ZEFSAII (Michael W. Deem and Ramdas Pophale) SiO2 
 PCOD9009582
Probable space group: P -1
;
_chemical_formula_sum "Si O2"
_cell_formula_units_Z 14
_cell_length_a 21.418469
_cell_length_b 8.604501
_cell_length_c 13.879583
_cell_angle_alpha 127.541748
_cell_angle_beta 149.123705
_cell_angle_gamma 32.071056
_cell_volume 628.313364
_symmetry_space_group_name_H-M "P -1"
_symmetry_group_IT_number 2
_symmetry_cell_setting 'triclinic'
loop_
_space_group_symop_operation_xyz
x,y,z
-x,-y,-z
loop_
_atom_site_type_symbol
_atom_site_label
_atom_site_fract_x
_atom_site_fract_y
_atom_site_fract_z
Si Si1 0.527452 0.369368 0.193448
Si Si2 0.845272 0.359780 0.886545
Si Si3 0.879610 0.343723 0.261143
Si Si4 0.914032 0.577959 0.734724
Si Si5 0.747198 0.425229 0.564681
Si Si6 0.541604 0.256928 0.394599
Si Si7 0.890527 0.722881 0.308366
O O1 0.555904 0.568688 0.313473
O O2 0.568676 0.262405 0.319624
O O3 0.691940 0.070991 0.225014
O O4 0.317369 0.537078 0.953759
O O5 0.742618 0.440059 0.679210
O O6 0.658464 0.616330 0.808604
O O7 0.972055 0.393062 0.050384
O O8 0.000000 0.000000 0.000000
O O9 0.883644 0.501041 0.241329
O O10 0.921151 0.420431 0.439905
O O11 0.067320 0.958545 0.354981
O O12 0.807744 0.555528 0.651494
O O13 0.073687 0.284655 0.759115
O O14 0.739850 0.900924 0.562513
O O15 0.500000 0.500000 0.500000
#
# Coordination Sequence:
#
# PCOD9009582 Si02
#       7
#     2   2   2   2   2   2   2
#     4  11  22  42  68  95 127 166 217 269 312 377
#     4  12  23  43  69  92 125 169 215 264 317 375
#     4  10  21  39  70  91 126 165 219 265 313 372
#     4  12  26  42  62  95 136 167 210 264 322 386
#     4  11  25  41  61  98 134 169 206 261 329 383
#     4  12  23  40  67  95 121 165 219 265 312 375
#     4  10  22  42  65  96 125 169 218 263 312 374
#
# _framework density 22.281874999999999
#
# number of rings (size 3 to 8) (size 9 to 14) (size 15 to 20)
#    0.000    0.857    2.857    6.000    0.000    5.143 
#    0.000    1.429    0.000    0.000    0.000    0.000 
#    0.000    0.000    0.000    0.000    0.000    0.000 
#
# Total GULP energy -78261.649189 kJ/mol
# GULP energy per Si atom -5590.117799 kJ/mol
# Density = 2.223116 g / cm^3
# Si number density = 22.281875 Si / 1000 Ang^3
#
#
#
# Elastic Constant Matrix: (Units=GPa)
#
#
# Indices 1 2 3 4 5 6 
#
# 1 69.7159 19.5949 18.5119 12.0968 20.9998 -7.9379
# 2 19.5949 40.8781 15.6838 15.3358 7.8083 -14.7160
# 3 18.5119 15.6838 158.5620 30.3638 34.8048 -2.9938
# 4 12.0968 15.3358 30.3638 30.6989 1.5366 17.1107
# 5 20.9998 7.8083 34.8048 1.5366 34.9816 13.1967
# 6 -7.9379 -14.7160 -2.9938 17.1107 13.1967 19.7756
#
#
#
# Elastic Compliance Matrix: (Units=1/GPa)
#
#
# Indices 1 2 3 4 5 6 
#
# 1 0.016471 -0.013786 -0.002117 0.008385 -0.001121 -0.010476
# 2 -0.013786 0.016464 -0.007874 0.016072 0.019900 -0.021660
# 3 -0.002117 -0.007874 0.005663 0.005696 0.001618 -0.011860
# 4 0.008385 0.016072 0.005696 -0.005526 -0.029344 0.040552
# 5 -0.001121 0.019900 0.001618 -0.029344 0.012574 0.031603
# 6 -0.010476 -0.021660 -0.011860 0.040552 0.031603 -0.027727
#
#
# Mechanical properties :
#
#
# Convention : Reuss Voigt Hill
#
# Bulk Modulus (GPa) = -111.65896 41.85968 -34.89964
# Shear Modulus (GPa) = 80.01885 31.44892 55.73389
#
# Velocity S-wave (km/s) = 5.99917 3.76095 5.00674
# Velocity P-wave (km/s) = 1.49468 6.13897 4.21027
#
# Compressibility (1/GPa) = -0.00895584
#
# Stress axis : x y z
#
# Youngs Moduli (GPa) = 60.71417 60.73826 176.59622
#
# Poissons Ratio (x) = 0.83734 0.37383
# Poissons Ratio (y) = 0.83700 1.39047
# Poissons Ratio (z) = 0.12852 0.47824
#
# Static dielectric constant tensor:
#      x y z
#    x 1.821780 -0.013160 0.003640 
#    y -0.013160 1.846910 0.043180 
#    z 0.003640 0.043180 1.881190 
# 
# From -- ./inp_files/446022.got.cif
#   From: 2010.05.17/outbox.cif.g08.bks.cpg/sg2_224_cif.got.tgz:446022.got - 2010.06.03 11:33:40.
