data_PCOD9009108
_publ_section_title
;
Structure prediction by ZEFSAII (Michael W. Deem and Ramdas Pophale) SiO2 
 PCOD9009108
Probable space group: P -1
;
_chemical_formula_sum "Si O2"
_cell_formula_units_Z 16
_cell_length_a 9.117575
_cell_length_b 14.071133
_cell_length_c 14.319630
_cell_angle_alpha 44.300977
_cell_angle_beta 94.201679
_cell_angle_gamma 128.988500
_cell_volume 717.579949
_symmetry_space_group_name_H-M "P -1"
_symmetry_group_IT_number 2
_symmetry_cell_setting 'triclinic'
loop_
_space_group_symop_operation_xyz
x,y,z
-x,-y,-z
loop_
_atom_site_type_symbol
_atom_site_label
_atom_site_fract_x
_atom_site_fract_y
_atom_site_fract_z
Si Si1 0.178102 0.086763 0.532651
Si Si2 0.166208 0.867494 0.144307
Si Si3 0.940479 0.532747 0.108528
Si Si4 0.269082 0.377804 0.839999
Si Si5 0.284000 0.238213 0.123579
Si Si6 0.246675 0.638570 0.211219
Si Si7 0.317858 0.896559 0.702301
Si Si8 0.194551 0.866464 0.367132
O O1 0.434839 0.374217 0.353541
O O2 0.278252 0.011192 0.573744
O O3 0.000000 0.000000 0.500000
O O4 0.995665 0.945683 0.713929
O O5 0.180642 0.720959 0.213196
O O6 0.142527 0.841051 0.272815
O O7 0.932963 0.769326 0.151253
O O8 0.442838 0.143819 0.930353
O O9 0.154493 0.614915 0.121206
O O10 0.819608 0.561886 0.141906
O O11 0.726239 0.258174 0.263369
O O12 0.089247 0.702894 0.905135
O O13 0.271161 0.257423 0.999175
O O14 0.323322 0.108233 0.233806
O O15 0.500000 0.500000 0.000000
O O16 0.071915 0.379273 0.420047
O O17 0.595936 0.090474 0.629162
#
# Coordination Sequence:
#
# PCOD9009108 Si02
#       8
#     2   2   2   2   2   2   2   2
#     4  12  27  43  70 101 138 187 228 283 355 429
#     4  10  23  44  70 102 137 187 233 292 345 408
#     4  10  21  39  67 104 134 178 227 292 348 410
#     4  11  24  46  70  96 142 185 229 288 354 409
#     4  12  27  47  69 102 145 184 229 287 356 416
#     4  10  22  41  69 100 142 179 233 291 350 403
#     4  11  23  39  70 102 137 175 232 286 349 419
#     4  12  26  43  72 106 140 182 238 290 340 423
#
# _framework density 22.297167000000002
#
# number of rings (size 3 to 8) (size 9 to 14) (size 15 to 20)
#    0.000    1.000    3.750    2.625    3.500    3.500 
#    0.000    1.250    0.000    0.000    0.000    0.000 
#    0.000    0.000    0.000    0.000    0.000    0.000 
#
# Total GULP energy -89572.257230 kJ/mol
# GULP energy per Si atom -5598.266077 kJ/mol
# Density = 2.224642 g / cm^3
# Si number density = 22.297167 Si / 1000 Ang^3
#
#
#
# Elastic Constant Matrix: (Units=GPa)
#
#
# Indices 1 2 3 4 5 6 
#
# 1 82.4378 32.8126 41.0655 -0.3417 12.5828 28.5080
# 2 32.8126 86.9322 21.4397 -6.3079 15.6295 29.6454
# 3 41.0655 21.4397 129.5088 -18.9344 7.7551 22.1206
# 4 -0.3417 -6.3079 -18.9344 17.1634 10.0264 -8.2921
# 5 12.5828 15.6295 7.7551 10.0264 36.3660 -0.3911
# 6 28.5080 29.6454 22.1206 -8.2921 -0.3911 40.8113
#
#
#
# Elastic Compliance Matrix: (Units=1/GPa)
#
#
# Indices 1 2 3 4 5 6 
#
# 1 0.020137 -0.002955 -0.005547 -0.011352 -0.001506 -0.011235
# 2 -0.002955 0.018113 0.001595 0.009110 -0.009724 -0.010200
# 3 -0.005547 0.001595 0.012187 0.017296 -0.006138 -0.000434
# 4 -0.011352 0.009110 0.017296 0.105948 -0.032745 0.013151
# 5 -0.001506 -0.009724 -0.006138 -0.032745 0.042591 0.005197
# 6 -0.011235 -0.010200 -0.000434 0.013151 0.005197 0.042717
#
#
# Mechanical properties :
#
#
# Convention : Reuss Voigt Hill
#
# Bulk Modulus (GPa) = 27.30498 54.39049 40.84773
# Shear Modulus (GPa) = 18.67661 32.43887 25.55774
#
# Velocity S-wave (km/s) = 2.89731 3.81838 3.38928
# Velocity P-wave (km/s) = 4.84408 6.62468 5.80308
#
# Compressibility (1/GPa) = 0.03662336
#
# Stress axis : x y z
#
# Youngs Moduli (GPa) = 49.65892 55.20997 82.05703
#
# Poissons Ratio (x) = 0.16312 0.45515
# Poissons Ratio (y) = 0.14672 -0.13085
# Poissons Ratio (z) = 0.27544 -0.08804
#
# Static dielectric constant tensor:
#      x y z
#    x 1.856000 -0.026680 0.028720 
#    y -0.026680 1.814950 -0.009350 
#    z 0.028720 -0.009350 1.813350 
# 
# From -- ./inp_files/505290.got.cif
#   From: 2010.05.17/outbox.cif.g08.bks.cpg/sg2_253_cif.got.tgz:505290.got - 2010.06.03 11:33:40.
