data_PCOD9009869
_publ_section_title
;
Structure prediction by ZEFSAII (Michael W. Deem and Ramdas Pophale) SiO2 
 PCOD9009869
Probable space group: P -1
;
_chemical_formula_sum "Si O2"
_cell_formula_units_Z 10
_cell_length_a 7.103449
_cell_length_b 11.162339
_cell_length_c 7.135817
_cell_angle_alpha 101.748637
_cell_angle_beta 81.193556
_cell_angle_gamma 137.254076
_cell_volume 375.989594
_symmetry_space_group_name_H-M "P -1"
_symmetry_group_IT_number 2
_symmetry_cell_setting 'triclinic'
loop_
_space_group_symop_operation_xyz
x,y,z
-x,-y,-z
loop_
_atom_site_type_symbol
_atom_site_label
_atom_site_fract_x
_atom_site_fract_y
_atom_site_fract_z
Si Si1 0.354912 0.026628 0.804499
Si Si2 0.310782 0.626051 0.910387
Si Si3 0.149421 0.873726 0.404694
Si Si4 0.035384 0.657038 0.691630
Si Si5 0.437185 0.421510 0.693999
O O1 0.620515 0.060346 0.754874
O O2 0.272282 0.014881 0.596491
O O3 0.109039 0.820109 0.838354
O O4 0.453123 0.184331 0.963060
O O5 0.253777 0.658974 0.724964
O O6 0.397606 0.526892 0.851532
O O7 0.000000 0.500000 0.000000
O O8 0.082775 0.719303 0.489059
O O9 0.862010 0.780950 0.331905
O O10 0.714878 0.478522 0.721530
O O11 0.500000 0.500000 0.500000
#
# Coordination Sequence:
#
# PCOD9009869 Si02
#       5
#     2   2   2   2   2
#     4   9  18  38  61  86 119 156 192 242 294 348
#     4  12  23  37  63  90 119 156 199 239 294 351
#     4   8  17  37  61  83 120 154 188 241 295 346
#     4   9  21  38  65  82 120 159 192 240 298 343
#     4  10  21  40  60  90 118 151 200 247 286 349
#
# _framework density 26.596481000000001
#
# number of rings (size 3 to 8) (size 9 to 14) (size 15 to 20)
#    1.200    1.200    2.000    0.600    0.000    4.800 
#    0.000    0.000    0.000    4.800    0.000    0.000 
#    0.000    0.000    0.000    0.000    0.000    0.000 
#
# Total GULP energy -55886.529339 kJ/mol
# GULP energy per Si atom -5588.652934 kJ/mol
# Density = 2.653595 g / cm^3
# Si number density = 26.596481 Si / 1000 Ang^3
#
#
#
# Elastic Constant Matrix: (Units=GPa)
#
#
# Indices 1 2 3 4 5 6 
#
# 1 115.9709 39.7668 27.7548 25.8172 1.4516 18.2932
# 2 39.7668 104.0480 22.5253 30.3315 -3.8410 38.8125
# 3 27.7548 22.5253 79.8663 29.0309 -4.4711 2.1347
# 4 25.8172 30.3315 29.0309 53.6729 0.5631 9.1051
# 5 1.4516 -3.8410 -4.4711 0.5631 24.0578 4.0002
# 6 18.2932 38.8125 2.1347 9.1051 4.0002 50.1519
#
#
#
# Elastic Compliance Matrix: (Units=1/GPa)
#
#
# Indices 1 2 3 4 5 6 
#
# 1 0.010756 -0.002473 -0.002224 -0.002323 -0.001170 -0.001399
# 2 -0.002473 0.016993 -0.001241 -0.005839 0.004682 -0.011509
# 3 -0.002224 -0.001241 0.016487 -0.007552 0.002808 0.002217
# 4 -0.002323 -0.005839 -0.007552 0.026991 -0.002998 0.001027
# 5 -0.001170 0.004682 0.002808 -0.002998 0.044021 -0.006283
# 6 -0.001399 -0.011509 0.002217 0.001027 -0.006283 0.029577
#
#
# Mechanical properties :
#
#
# Convention : Reuss Voigt Hill
#
# Bulk Modulus (GPa) = 30.90291 53.33100 42.11695
# Shear Modulus (GPa) = 29.85291 39.56576 34.70933
#
# Velocity S-wave (km/s) = 3.35392 3.86117 3.61645
# Velocity P-wave (km/s) = 5.16166 6.32247 5.77132
#
# Compressibility (1/GPa) = 0.03235941
#
# Stress axis : x y z
#
# Youngs Moduli (GPa) = 92.97333 58.84729 60.65456
#
# Poissons Ratio (x) = 0.14554 0.13488
# Poissons Ratio (y) = 0.22995 0.07528
# Poissons Ratio (z) = 0.20675 0.07304
#
# Static dielectric constant tensor:
#      x y z
#    x 2.055240 -0.031790 0.118410 
#    y -0.031790 2.138710 -0.014610 
#    z 0.118410 -0.014610 2.157610 
# 
# From -- ./inp_files/60800.got.cif
#   From: 2010.05.17/outbox.cif.g08.bks.cpg/sg2_31_cif.got.tgz:60800.got - 2010.06.03 11:33:40.
