data_PCOD9009114
_publ_section_title
;
Structure prediction by ZEFSAII (Michael W. Deem and Ramdas Pophale) SiO2 
 PCOD9009114
Probable space group: P -1
;
_chemical_formula_sum "Si O2"
_cell_formula_units_Z 12
_cell_length_a 14.230311
_cell_length_b 9.486423
_cell_length_c 11.275532
_cell_angle_alpha 75.032852
_cell_angle_beta 20.797377
_cell_angle_gamma 72.572985
_cell_volume 514.589064
_symmetry_space_group_name_H-M "P -1"
_symmetry_group_IT_number 2
_symmetry_cell_setting 'triclinic'
loop_
_space_group_symop_operation_xyz
x,y,z
-x,-y,-z
loop_
_atom_site_type_symbol
_atom_site_label
_atom_site_fract_x
_atom_site_fract_y
_atom_site_fract_z
Si Si1 0.188274 0.580258 0.337233
Si Si2 0.316677 0.783423 0.945811
Si Si3 0.225179 0.463138 0.557199
Si Si4 0.725265 0.355477 0.237655
Si Si5 0.092620 0.079053 0.256221
Si Si6 0.408463 0.755096 0.342917
O O1 0.079032 0.557665 0.601362
O O2 0.000000 0.500000 0.500000
O O3 0.500000 0.500000 0.000000
O O4 0.178765 0.725488 0.238142
O O5 0.616859 0.696874 0.632596
O O6 0.267393 0.718400 0.886878
O O7 0.243519 0.957760 0.010580
O O8 0.419027 0.578765 0.341871
O O9 0.002054 0.416249 0.913911
O O10 0.500000 0.500000 0.500000
O O11 0.685266 0.236878 0.411151
O O12 0.823575 0.161225 0.488723
O O13 0.318642 0.177983 0.004430
O O14 0.000000 0.000000 0.500000
#
# Coordination Sequence:
#
# PCOD9009114 Si02
#       6
#     2   2   2   2   2   2
#     4  10  21  39  67 106 136 178 240 303 357 415
#     4  11  26  44  76 107 147 196 252 303 371 439
#     4  11  24  46  77 108 150 192 254 310 367 435
#     4  12  25  46  76 112 153 192 254 310 368 440
#     4  12  30  53  75 108 155 195 248 313 380 445
#     4  12  28  48  77 110 151 201 246 304 379 448
#
# _framework density 23.319576999999999
#
# number of rings (size 3 to 8) (size 9 to 14) (size 15 to 20)
#    0.000    0.667    3.333    3.000    4.667    4.000 
#    0.000    0.000    0.000    0.000    0.000    0.000 
#    0.000    0.000    0.000    0.000    0.000    0.000 
#
# Total GULP energy -66808.934871 kJ/mol
# GULP energy per Si atom -5567.411239 kJ/mol
# Density = 2.326650 g / cm^3
# Si number density = 23.319577 Si / 1000 Ang^3
#
#
#
# Elastic Constant Matrix: (Units=GPa)
#
#
# Indices 1 2 3 4 5 6 
#
# 1 141.8700 30.8575 22.3624 -10.9723 -0.2143 -19.4394
# 2 30.8575 103.8091 62.2607 18.7425 -16.3391 5.3853
# 3 22.3624 62.2607 147.9738 -25.2804 -15.2952 -6.0325
# 4 -10.9723 18.7425 -25.2804 48.6758 -3.4657 9.3340
# 5 -0.2143 -16.3391 -15.2952 -3.4657 43.7061 -6.5687
# 6 -19.4394 5.3853 -6.0325 9.3340 -6.5687 45.0281
#
#
#
# Elastic Compliance Matrix: (Units=1/GPa)
#
#
# Indices 1 2 3 4 5 6 
#
# 1 0.008492 -0.004000 0.001083 0.003314 -0.000277 0.003562
# 2 -0.004000 0.019349 -0.009537 -0.012680 0.002522 -0.002322
# 3 0.001083 -0.009537 0.012627 0.010334 0.001894 0.001434
# 4 0.003314 -0.012680 0.010334 0.032031 0.001110 -0.002146
# 5 -0.000277 0.002522 0.001894 0.001110 0.025062 0.003259
# 6 0.003562 -0.002322 0.001434 -0.002146 0.003259 0.025136
#
#
# Mechanical properties :
#
#
# Convention : Reuss Voigt Hill
#
# Bulk Modulus (GPa) = 64.27393 69.40157 66.83775
# Shear Modulus (GPa) = 32.72405 46.02682 39.37544
#
# Velocity S-wave (km/s) = 3.75011 4.44750 4.11361
# Velocity P-wave (km/s) = 6.80978 7.49662 7.16144
#
# Compressibility (1/GPa) = 0.01555841
#
# Stress axis : x y z
#
# Youngs Moduli (GPa) = 117.75553 51.68269 79.19698
#
# Poissons Ratio (x) = 0.20675 -0.08574
# Poissons Ratio (y) = 0.47106 0.75530
# Poissons Ratio (z) = -0.12748 0.49289
#
# Static dielectric constant tensor:
#      x y z
#    x 2.249660 -0.255120 0.174550 
#    y -0.255120 2.272840 -0.101720 
#    z 0.174550 -0.101720 1.935500 
# 
# From -- ./inp_files/447016.got.cif
#   From: 2010.05.17/outbox.cif.g08.bks.cpg/sg2_224_cif.got.tgz:447016.got - 2010.06.03 11:33:40.
