data_PCOD9009583
_publ_section_title
;
Structure prediction by ZEFSAII (Michael W. Deem and Ramdas Pophale) SiO2 
 PCOD9009583
Probable space group: P -1
;
_chemical_formula_sum "Si O2"
_cell_formula_units_Z 16
_cell_length_a 9.578839
_cell_length_b 9.276859
_cell_length_c 13.838443
_cell_angle_alpha 134.174948
_cell_angle_beta 57.700431
_cell_angle_gamma 110.211413
_cell_volume 744.760813
_symmetry_space_group_name_H-M "P -1"
_symmetry_group_IT_number 2
_symmetry_cell_setting 'triclinic'
loop_
_space_group_symop_operation_xyz
x,y,z
-x,-y,-z
loop_
_atom_site_type_symbol
_atom_site_label
_atom_site_fract_x
_atom_site_fract_y
_atom_site_fract_z
Si Si1 0.165309 0.898817 0.349984
Si Si2 0.415021 0.241438 0.385647
Si Si3 0.889525 0.489730 0.941240
Si Si4 0.237475 0.606126 0.356765
Si Si5 0.274211 0.686431 0.600402
Si Si6 0.937493 0.737620 0.843140
Si Si7 0.467117 0.579690 0.942759
Si Si8 0.597041 0.988893 0.059118
O O1 0.116789 0.729892 0.210943
O O2 0.246122 0.779980 0.355324
O O3 0.276395 0.078662 0.359592
O O4 0.000000 0.000000 0.500000
O O5 0.322203 0.459276 0.513939
O O6 0.546019 0.216901 0.413625
O O7 0.545440 0.195021 0.228510
O O8 0.923148 0.650556 0.917795
O O9 0.705413 0.508217 0.059725
O O10 0.000000 0.500000 0.000000
O O11 0.217860 0.676617 0.505701
O O12 0.100830 0.454230 0.300246
O O13 0.406539 0.477731 0.215565
O O14 0.123201 0.787081 0.766163
O O15 0.789938 0.907491 0.954565
O O16 0.500000 0.500000 0.000000
O O17 0.496507 0.811676 0.061256
O O18 0.500000 0.000000 0.000000
#
# Coordination Sequence:
#
# PCOD9009583 Si02
#       8
#     2   2   2   2   2   2   2   2
#     4  11  23  42  66 100 132 169 227 286 333 402
#     4  11  23  42  64  93 137 177 224 278 331 399
#     4  11  23  41  71 103 132 177 226 287 342 401
#     4  10  21  39  70  92 123 179 219 264 343 406
#     4  11  25  43  64  95 139 185 221 269 341 420
#     4  10  22  42  67  95 137 178 224 279 340 407
#     4  11  18  41  68  91 127 174 221 267 336 402
#     4  11  22  38  68  96 127 177 226 273 333 401
#
# _framework density 21.483407
#
# number of rings (size 3 to 8) (size 9 to 14) (size 15 to 20)
#    0.000    1.250    5.000    3.375    0.000    6.000 
#    2.250    0.000    0.000    0.000    0.000    0.000 
#    0.000    0.000    0.000    0.000    0.000    0.000 
#
# Total GULP energy -89147.738798 kJ/mol
# GULP energy per Si atom -5571.733675 kJ/mol
# Density = 2.143451 g / cm^3
# Si number density = 21.483407 Si / 1000 Ang^3
#
#
#
# Elastic Constant Matrix: (Units=GPa)
#
#
# Indices 1 2 3 4 5 6 
#
# 1 136.2848 24.2199 35.6217 -11.5453 -1.6112 -6.7220
# 2 24.2199 38.3357 24.6062 1.2873 -1.4951 -2.9736
# 3 35.6217 24.6062 72.5541 -5.4465 -10.3955 -0.1272
# 4 -11.5453 1.2873 -5.4465 24.7054 -1.8224 -3.7445
# 5 -1.6112 -1.4951 -10.3955 -1.8224 38.2517 -7.4574
# 6 -6.7220 -2.9736 -0.1272 -3.7445 -7.4574 30.8895
#
#
#
# Elastic Compliance Matrix: (Units=1/GPa)
#
#
# Indices 1 2 3 4 5 6 
#
# 1 0.009260 -0.003986 -0.002862 0.004236 0.000078 0.002152
# 2 -0.003986 0.035843 -0.010902 -0.006053 -0.001748 0.001382
# 3 -0.002862 -0.010902 0.019914 0.004015 0.005081 0.000123
# 4 0.004236 -0.006053 0.004015 0.045038 0.004525 0.006908
# 5 0.000078 -0.001748 0.005081 0.004525 0.029126 0.007450
# 6 0.002152 0.001382 0.000123 0.006908 0.007450 0.035611
#
#
# Mechanical properties :
#
#
# Convention : Reuss Voigt Hill
#
# Bulk Modulus (GPa) = 33.87581 46.23002 40.05292
# Shear Modulus (GPa) = 22.71383 29.61777 26.16580
#
# Velocity S-wave (km/s) = 3.25510 3.71703 3.49371
# Velocity P-wave (km/s) = 5.47085 6.32356 5.91259
#
# Compressibility (1/GPa) = 0.02951959
#
# Stress axis : x y z
#
# Youngs Moduli (GPa) = 107.99415 27.89940 50.21471
#
# Poissons Ratio (x) = 0.11120 0.14369
# Poissons Ratio (y) = 0.43044 0.54742
# Poissons Ratio (z) = 0.30904 0.30415
#
# Static dielectric constant tensor:
#      x y z
#    x 1.636230 0.156900 0.267640 
#    y 0.156900 1.635370 -0.200060 
#    z 0.267640 -0.200060 1.375890 
# 
# From -- ./inp_files/495689.got.cif
#   From: 2010.05.17/outbox.cif.g08.bks.cpg/sg2_248_cif.got.tgz:495689.got - 2010.06.03 11:33:40.
