data_PCOD9009451
_publ_section_title
;
Structure prediction by ZEFSAII (Michael W. Deem and Ramdas Pophale) SiO2 
 PCOD9009451
Probable space group: P -1
;
_chemical_formula_sum "Si O2"
_cell_formula_units_Z 16
_cell_length_a 8.642961
_cell_length_b 10.669183
_cell_length_c 15.207214
_cell_angle_alpha 55.736851
_cell_angle_beta 107.102855
_cell_angle_gamma 63.393214
_cell_volume 697.865319
_symmetry_space_group_name_H-M "P -1"
_symmetry_group_IT_number 2
_symmetry_cell_setting 'triclinic'
loop_
_space_group_symop_operation_xyz
x,y,z
-x,-y,-z
loop_
_atom_site_type_symbol
_atom_site_label
_atom_site_fract_x
_atom_site_fract_y
_atom_site_fract_z
Si Si1 0.275384 0.032591 0.301071
Si Si2 0.713389 0.377302 0.010283
Si Si3 0.226663 0.429331 0.679676
Si Si4 0.956326 0.766647 0.339238
Si Si5 0.016647 0.434840 0.233346
Si Si6 0.297484 0.767607 0.118352
Si Si7 0.401799 0.220079 0.125330
Si Si8 0.697768 0.499639 0.652359
O O1 0.371655 0.081560 0.224006
O O2 0.214032 0.180299 0.317763
O O3 0.487530 0.753203 0.467204
O O4 0.005360 0.153497 0.181376
O O5 0.671541 0.303528 0.948644
O O6 0.682784 0.579963 0.904545
O O7 0.500000 0.500000 0.000000
O O8 0.137856 0.328290 0.675179
O O9 0.091139 0.563467 0.696699
O O10 0.529949 0.215242 0.833226
O O11 0.129745 0.609389 0.515315
O O12 0.121812 0.708632 0.309175
O O13 0.693775 0.036098 0.217343
O O14 0.141654 0.500332 0.260605
O O15 0.788280 0.632036 0.048053
O O16 0.407509 0.551411 0.281413
O O17 0.000000 0.000000 0.000000
#
# Coordination Sequence:
#
# PCOD9009451 Si02
#       8
#     2   2   2   2   2   2   2   2
#     4  11  22  42  69  95 138 173 230 283 332 403
#     4  11  26  46  68 102 137 183 221 273 349 403
#     4  10  23  44  63  97 136 174 225 278 339 399
#     4  10  24  42  68  97 131 180 226 282 334 393
#     4  10  21  39  69 100 129 176 228 283 330 393
#     4  12  28  43  69  99 141 178 224 277 341 413
#     4  11  22  41  73  97 133 176 233 277 335 394
#     4  11  25  41  66 102 136 177 227 277 348 396
#
# _framework density 22.927059
#
# number of rings (size 3 to 8) (size 9 to 14) (size 15 to 20)
#    0.000    1.250    0.000    7.125    8.750    3.500 
#    0.000    1.875    0.000    0.000    0.000    0.000 
#    0.000    0.000    0.000    0.000    0.000    0.000 
#
# Total GULP energy -89613.009186 kJ/mol
# GULP energy per Si atom -5600.813074 kJ/mol
# Density = 2.287488 g / cm^3
# Si number density = 22.927059 Si / 1000 Ang^3
#
#
#
# Elastic Constant Matrix: (Units=GPa)
#
#
# Indices 1 2 3 4 5 6 
#
# 1 57.9316 22.4420 23.4418 16.6864 3.9578 -7.7859
# 2 22.4420 118.8717 53.1095 8.3703 5.1997 -21.5968
# 3 23.4418 53.1095 99.8894 1.2291 8.1093 4.1119
# 4 16.6864 8.3703 1.2291 37.1626 -2.4499 -2.7933
# 5 3.9578 5.1997 8.1093 -2.4499 35.9655 0.8953
# 6 -7.7859 -21.5968 4.1119 -2.7933 0.8953 31.6998
#
#
#
# Elastic Compliance Matrix: (Units=1/GPa)
#
#
# Indices 1 2 3 4 5 6 
#
# 1 0.023211 -0.000279 -0.005224 -0.009924 -0.002146 0.005374
# 2 -0.000279 0.013936 -0.007689 -0.002030 -0.000644 0.010263
# 3 -0.005224 -0.007689 0.015750 0.002838 -0.001465 -0.008273
# 4 -0.009924 -0.002030 0.002838 0.031812 0.002949 -0.001469
# 5 -0.002146 -0.000644 -0.001465 0.002949 0.028698 -0.001326
# 6 0.005374 0.010263 -0.008273 -0.001469 -0.001326 0.040839
#
#
# Mechanical properties :
#
#
# Convention : Reuss Voigt Hill
#
# Bulk Modulus (GPa) = 37.71758 52.74215 45.22986
# Shear Modulus (GPa) = 26.38966 32.81220 29.60093
#
# Velocity S-wave (km/s) = 3.39636 3.78717 3.59707
# Velocity P-wave (km/s) = 5.64510 6.49444 6.08461
#
# Compressibility (1/GPa) = 0.02651284
#
# Stress axis : x y z
#
# Youngs Moduli (GPa) = 43.08319 71.75509 63.49270
#
# Poissons Ratio (x) = 0.02003 0.33166
# Poissons Ratio (y) = 0.01203 0.48822
# Poissons Ratio (z) = 0.22505 0.55175
#
# Static dielectric constant tensor:
#      x y z
#    x 1.887330 -0.004120 -0.006290 
#    y -0.004120 1.839130 -0.018570 
#    z -0.006290 -0.018570 1.825580 
# 
# From -- ./inp_files/187543.got.cif
#   From: 2010.05.17/outbox.cif.g08.bks.cpg/sg2_94_cif.got.tgz:187543.got - 2010.06.03 11:33:40.
