data_PCOD9009900
_publ_section_title
;
Structure prediction by ZEFSAII (Michael W. Deem and Ramdas Pophale) SiO2 
 PCOD9009900
Probable space group: P -1
;
_chemical_formula_sum "Si O2"
_cell_formula_units_Z 12
_cell_length_a 11.020565
_cell_length_b 9.218781
_cell_length_c 10.032225
_cell_angle_alpha 52.880646
_cell_angle_beta 92.954728
_cell_angle_gamma 56.208230
_cell_volume 548.139989
_symmetry_space_group_name_H-M "P -1"
_symmetry_group_IT_number 2
_symmetry_cell_setting 'triclinic'
loop_
_space_group_symop_operation_xyz
x,y,z
-x,-y,-z
loop_
_atom_site_type_symbol
_atom_site_label
_atom_site_fract_x
_atom_site_fract_y
_atom_site_fract_z
Si Si1 0.601379 0.112274 0.298451
Si Si2 0.240124 0.111563 0.304610
Si Si3 0.143727 0.429045 0.875094
Si Si4 0.694242 0.388271 0.177630
Si Si5 0.660900 0.386834 0.475066
Si Si6 0.804843 0.626360 0.389463
O O1 0.742220 0.127788 0.293349
O O2 0.601382 0.062210 0.481747
O O3 0.669257 0.877010 0.340837
O O4 0.425939 0.397353 0.066876
O O5 0.064959 0.387381 0.216046
O O6 0.217577 0.927949 0.358884
O O7 0.258594 0.207967 0.119549
O O8 0.150789 0.638481 0.775807
O O9 0.222589 0.295446 0.810751
O O10 0.595449 0.495243 0.257893
O O11 0.500000 0.500000 0.500000
O O12 0.766445 0.451185 0.493253
O O13 0.000000 0.500000 0.500000
#
# Coordination Sequence:
#
# PCOD9009900 Si02
#       6
#     2   2   2   2   2   2
#     4  10  21  40  60  93 119 157 209 258 300 360
#     4  10  22  41  61  89 127 161 203 255 309 372
#     4  10  22  40  63  89 122 167 205 249 315 365
#     4   9  22  40  64  87 121 170 203 250 311 372
#     4  10  24  41  62  92 128 166 202 252 316 367
#     4  11  23  40  66  92 123 162 212 256 303 363
#
# _framework density 21.892216999999999
#
# number of rings (size 3 to 8) (size 9 to 14) (size 15 to 20)
#    0.000    2.000    1.667    0.000    7.000    4.000 
#    6.000    0.833    0.000    0.000    0.000    0.000 
#    0.000    0.000    0.000    0.000    0.000    0.000 
#
# Total GULP energy -66902.822945 kJ/mol
# GULP energy per Si atom -5575.235245 kJ/mol
# Density = 2.184239 g / cm^3
# Si number density = 21.892217 Si / 1000 Ang^3
#
#
#
# Elastic Constant Matrix: (Units=GPa)
#
#
# Indices 1 2 3 4 5 6 
#
# 1 102.9202 36.8180 38.8685 8.9627 -15.6007 20.4523
# 2 36.8180 113.8282 36.8041 8.3944 -15.2288 20.7115
# 3 38.8685 36.8041 109.5452 24.8999 -19.6598 -2.7341
# 4 8.9627 8.3944 24.8999 34.3130 -0.7553 -10.5256
# 5 -15.6007 -15.2288 -19.6598 -0.7553 21.7537 -8.4464
# 6 20.4523 20.7115 -2.7341 -10.5256 -8.4464 41.9514
#
#
#
# Elastic Compliance Matrix: (Units=1/GPa)
#
#
# Indices 1 2 3 4 5 6 
#
# 1 0.013384 -0.001597 -0.003216 -0.002523 0.003180 -0.005939
# 2 -0.001597 0.011537 -0.002484 -0.002101 0.002643 -0.005074
# 3 -0.003216 -0.002484 0.014928 -0.007945 0.010694 0.003927
# 4 -0.002523 -0.002101 -0.007945 0.039219 -0.004988 0.010585
# 5 0.003180 0.002643 0.010694 -0.004988 0.063209 0.009317
# 6 -0.005939 -0.005074 0.003927 0.010585 0.009317 0.034025
#
#
# Mechanical properties :
#
#
# Convention : Reuss Voigt Hill
#
# Bulk Modulus (GPa) = 39.59880 61.25275 50.42578
# Shear Modulus (GPa) = 25.08603 33.85714 29.47159
#
# Velocity S-wave (km/s) = 3.38877 3.93687 3.67306
# Velocity P-wave (km/s) = 5.78265 6.97891 6.40875
#
# Compressibility (1/GPa) = 0.02525329
#
# Stress axis : x y z
#
# Youngs Moduli (GPa) = 74.71472 86.68001 66.99028
#
# Poissons Ratio (x) = 0.13843 0.21547
# Poissons Ratio (y) = 0.11932 0.16641
# Poissons Ratio (z) = 0.24031 0.21533
#
# Static dielectric constant tensor:
#      x y z
#    x 1.894380 0.016310 0.000270 
#    y 0.016310 1.780030 0.014390 
#    z 0.000270 0.014390 1.806660 
# 
# From -- ./inp_files/145478.got.cif
#   From: 2010.05.17/outbox.cif.g08.bks.cpg/sg2_73_cif.got.tgz:145478.got - 2010.06.03 11:33:40.
