data_PCOD9009282
_publ_section_title
;
Structure prediction by ZEFSAII (Michael W. Deem and Ramdas Pophale) SiO2 
 PCOD9009282
Probable space group: P -1
;
_chemical_formula_sum "Si O2"
_cell_formula_units_Z 14
_cell_length_a 13.587863
_cell_length_b 14.788729
_cell_length_c 8.053717
_cell_angle_alpha 107.378957
_cell_angle_beta 52.827400
_cell_angle_gamma 150.232063
_cell_volume 525.719076
_symmetry_space_group_name_H-M "P -1"
_symmetry_group_IT_number 2
_symmetry_cell_setting 'triclinic'
loop_
_space_group_symop_operation_xyz
x,y,z
-x,-y,-z
loop_
_atom_site_type_symbol
_atom_site_label
_atom_site_fract_x
_atom_site_fract_y
_atom_site_fract_z
Si Si1 0.902129 0.537174 0.088033
Si Si2 0.431768 0.443903 0.735734
Si Si3 0.878033 0.271087 0.552005
Si Si4 0.599575 0.280628 0.910019
Si Si5 0.646451 0.820560 0.349387
Si Si6 0.847573 0.145766 0.186661
Si Si7 0.075889 0.901304 0.444929
O O1 0.684643 0.415926 0.384469
O O2 0.733116 0.409300 0.018290
O O3 0.140801 0.782222 0.948658
O O4 0.000000 0.500000 0.000000
O O5 0.500000 0.500000 0.500000
O O6 0.298436 0.247735 0.802045
O O7 0.733556 0.674066 0.644221
O O8 0.176780 0.338176 0.982854
O O9 0.709412 0.247975 0.765126
O O10 0.858193 0.164068 0.625343
O O11 0.211505 0.531490 0.315556
O O12 0.758181 0.150562 0.431463
O O13 0.259825 0.057150 0.178316
O O14 0.818352 0.970144 0.425658
O O15 0.675810 0.928750 0.252630
#
# Coordination Sequence:
#
# PCOD9009282 Si02
#       7
#     2   2   2   2   2   2   2
#     4  10  21  39  67  99 137 169 216 279 327 393
#     4  12  25  45  68  97 136 172 226 273 325 401
#     4   9  19  38  65  95 129 169 225 267 319 396
#     4   9  19  39  64  96 130 172 220 267 326 395
#     4  10  23  45  66  99 130 175 222 269 332 388
#     4  10  22  44  62  96 136 172 223 274 323 395
#     4  10  23  42  68  94 129 177 214 270 335 383
#
# _framework density 26.630189999999999
#
# number of rings (size 3 to 8) (size 9 to 14) (size 15 to 20)
#    0.000    2.000    1.429    0.857    2.000    3.429 
#    5.143    0.000    0.000    0.000    0.000    0.000 
#    0.000    0.000    0.000    0.000    0.000    0.000 
#
# Total GULP energy -78446.078395 kJ/mol
# GULP energy per Si atom -5603.291314 kJ/mol
# Density = 2.656958 g / cm^3
# Si number density = 26.630190 Si / 1000 Ang^3
#
#
#
# Elastic Constant Matrix: (Units=GPa)
#
#
# Indices 1 2 3 4 5 6 
#
# 1 69.3932 47.7278 27.3936 -10.7296 16.7594 -37.9978
# 2 47.7278 154.8001 48.0524 -12.7869 -0.2728 -17.0897
# 3 27.3936 48.0524 125.3930 -15.3632 5.3458 -8.9818
# 4 -10.7296 -12.7869 -15.3632 49.9604 -9.3599 -2.7688
# 5 16.7594 -0.2728 5.3458 -9.3599 42.8975 1.8829
# 6 -37.9978 -17.0897 -8.9818 -2.7688 1.8829 54.2716
#
#
#
# Elastic Compliance Matrix: (Units=1/GPa)
#
#
# Indices 1 2 3 4 5 6 
#
# 1 0.039076 -0.008207 -0.002444 0.004079 -0.015226 0.025106
# 2 -0.008207 0.009336 -0.002118 0.000503 0.003783 -0.003263
# 3 -0.002444 -0.002118 0.009487 0.001847 0.000194 -0.000721
# 4 0.004079 0.000503 0.001847 0.022368 0.002869 0.004361
# 5 -0.015226 0.003783 0.000194 0.002869 0.030340 -0.010343
# 6 0.025106 -0.003263 -0.000721 0.004361 -0.010343 0.035438
#
#
# Mechanical properties :
#
#
# Convention : Reuss Voigt Hill
#
# Bulk Modulus (GPa) = 30.90292 66.21488 48.55890
# Shear Modulus (GPa) = 27.41687 44.52007 35.96847
#
# Velocity S-wave (km/s) = 3.21213 4.09319 3.67913
# Velocity P-wave (km/s) = 5.03852 6.87441 6.02678
#
# Compressibility (1/GPa) = 0.03235940
#
# Stress axis : x y z
#
# Youngs Moduli (GPa) = 25.59145 107.11302 105.40852
#
# Poissons Ratio (x) = 0.87911 0.25764
# Poissons Ratio (y) = 0.21004 0.22325
# Poissons Ratio (z) = 0.06255 0.22686
#
# Static dielectric constant tensor:
#      x y z
#    x 1.789480 0.231390 0.258000 
#    y 0.231390 1.958080 -0.208420 
#    z 0.258000 -0.208420 1.904600 
# 
# From -- ./inp_files/315532.got.cif
#   From: 2010.05.17/outbox.cif.g08.bks.cpg/sg2_158_cif.got.tgz:315532.got - 2010.06.03 11:33:40.
