data_PCOD9009158
_publ_section_title
;
Structure prediction by ZEFSAII (Michael W. Deem and Ramdas Pophale) SiO2 
 PCOD9009158
Probable space group: P -1
;
_chemical_formula_sum "Si O2"
_cell_formula_units_Z 14
_cell_length_a 8.658250
_cell_length_b 18.939795
_cell_length_c 12.570643
_cell_angle_alpha 28.452439
_cell_angle_beta 89.556487
_cell_angle_gamma 110.517916
_cell_volume 649.598819
_symmetry_space_group_name_H-M "P -1"
_symmetry_group_IT_number 2
_symmetry_cell_setting 'triclinic'
loop_
_space_group_symop_operation_xyz
x,y,z
-x,-y,-z
loop_
_atom_site_type_symbol
_atom_site_label
_atom_site_fract_x
_atom_site_fract_y
_atom_site_fract_z
Si Si1 0.399894 0.575914 0.845949
Si Si2 0.196940 0.693999 0.369473
Si Si3 0.493360 0.490217 0.640148
Si Si4 0.620873 0.866285 0.260336
Si Si5 0.680684 0.306380 0.864635
Si Si6 0.456937 0.055931 0.533597
Si Si7 0.051290 0.193815 0.187733
O O1 0.591567 0.782958 0.489108
O O2 0.372826 0.684137 0.790036
O O3 0.500000 0.500000 0.000000
O O4 0.176812 0.379744 0.033873
O O5 0.380268 0.777446 0.346569
O O6 0.276919 0.666392 0.298438
O O7 0.935891 0.463324 0.704385
O O8 0.197827 0.870570 0.108531
O O9 0.500000 0.500000 0.500000
O O10 0.641586 0.735330 0.360454
O O11 0.585635 0.392273 0.794781
O O12 0.241952 0.323460 0.919980
O O13 0.523613 0.053371 0.229873
O O14 0.194261 0.927876 0.693825
O O15 0.500000 0.000000 0.500000
O O16 0.000000 0.000000 0.500000
#
# Coordination Sequence:
#
# PCOD9009158 Si02
#       7
#     2   2   2   2   2   2   2
#     4  11  23  42  70  97 133 179 227 276 338 407
#     4  10  21  39  67  93 128 173 214 276 336 388
#     4  11  23  39  66  97 134 175 221 271 335 402
#     4  10  21  41  64  94 134 171 221 278 334 399
#     4  11  22  39  63  97 128 170 221 268 335 400
#     4  12  26  45  70 100 134 178 229 282 338 405
#     4  11  24  46  70  97 136 180 224 282 336 400
#
# _framework density 21.551762
#
# number of rings (size 3 to 8) (size 9 to 14) (size 15 to 20)
#    0.000    1.143    4.286    2.571    4.000    1.143 
#    0.000    2.857    0.000    0.000    0.000    0.000 
#    0.000    0.000    0.000    0.000    0.000    0.000 
#
# Total GULP energy -78216.679272 kJ/mol
# GULP energy per Si atom -5586.905662 kJ/mol
# Density = 2.150271 g / cm^3
# Si number density = 21.551762 Si / 1000 Ang^3
#
#
#
# Elastic Constant Matrix: (Units=GPa)
#
#
# Indices 1 2 3 4 5 6 
#
# 1 77.5120 26.7111 19.6198 -4.0356 17.5038 -16.2063
# 2 26.7111 106.7990 21.9093 -13.7507 3.1996 -17.0825
# 3 19.6198 21.9093 93.5649 -10.7132 31.4077 -9.7695
# 4 -4.0356 -13.7507 -10.7132 40.6744 -3.8745 11.6444
# 5 17.5038 3.1996 31.4077 -3.8745 45.3913 -4.0149
# 6 -16.2063 -17.0825 -9.7695 11.6444 -4.0149 40.3835
#
#
#
# Elastic Compliance Matrix: (Units=1/GPa)
#
#
# Indices 1 2 3 4 5 6 
#
# 1 0.016319 -0.003218 -0.000512 -0.001542 -0.005404 0.004971
# 2 -0.003218 0.011263 -0.002240 0.002421 0.002423 0.002474
# 3 -0.000512 -0.002240 0.014895 0.001924 -0.009704 0.000931
# 4 -0.001542 0.002421 0.001924 0.027865 0.000845 -0.007080
# 5 -0.005404 0.002423 -0.009704 0.000845 0.030670 -0.000686
# 6 0.004971 0.002474 0.000931 -0.007080 -0.000686 0.030002
#
#
# Mechanical properties :
#
#
# Convention : Reuss Voigt Hill
#
# Bulk Modulus (GPa) = 32.74810 46.03961 39.39385
# Shear Modulus (GPa) = 32.65147 39.26556 35.95851
#
# Velocity S-wave (km/s) = 3.89656 4.27302 4.08912
# Velocity P-wave (km/s) = 5.95586 6.76415 6.37283
#
# Compressibility (1/GPa) = 0.03053613
#
# Stress axis : x y z
#
# Youngs Moduli (GPa) = 61.27771 88.78994 67.13809
#
# Poissons Ratio (x) = 0.28572 0.03437
# Poissons Ratio (y) = 0.19719 0.15040
# Poissons Ratio (z) = 0.03137 0.19891
#
# Static dielectric constant tensor:
#      x y z
#    x 1.773320 0.009110 0.031310 
#    y 0.009110 1.900930 -0.045540 
#    z 0.031310 -0.045540 1.824240 
# 
# From -- ./inp_files/192603.got.cif
#   From: 2010.05.17/outbox.cif.g08.bks.cpg/sg2_97_cif.got.tgz:192603.got - 2010.06.03 11:33:40.
