data_PCOD9009271
_publ_section_title
;
Structure prediction by ZEFSAII (Michael W. Deem and Ramdas Pophale) SiO2 
 PCOD9009271
Probable space group: P -1
;
_chemical_formula_sum "Si O2"
_cell_formula_units_Z 16
_cell_length_a 5.295908
_cell_length_b 20.186851
_cell_length_c 9.811079
_cell_angle_alpha 138.340830
_cell_angle_beta 66.422344
_cell_angle_gamma 109.590163
_cell_volume 637.841544
_symmetry_space_group_name_H-M "P -1"
_symmetry_group_IT_number 2
_symmetry_cell_setting 'triclinic'
loop_
_space_group_symop_operation_xyz
x,y,z
-x,-y,-z
loop_
_atom_site_type_symbol
_atom_site_label
_atom_site_fract_x
_atom_site_fract_y
_atom_site_fract_z
Si Si1 0.072597 0.075899 0.478682
Si Si2 0.606069 0.032954 0.176261
Si Si3 0.050446 0.707827 0.220511
Si Si4 0.657548 0.604988 0.600875
Si Si5 0.007472 0.499720 0.159933
Si Si6 0.595127 0.334789 0.651417
Si Si7 0.826360 0.284712 0.234577
Si Si8 0.049606 0.090760 0.970404
O O1 0.402330 0.092081 0.404286
O O2 0.931106 0.180696 0.673314
O O3 0.000000 0.000000 0.500000
O O4 0.990178 0.011672 0.263688
O O5 0.885650 0.091247 0.150875
O O6 0.500000 0.000000 0.000000
O O7 0.640874 0.925105 0.073785
O O8 0.728538 0.688494 0.300416
O O9 0.249443 0.697092 0.292043
O O10 0.084356 0.615323 0.966165
O O11 0.500000 0.500000 0.500000
O O12 0.431772 0.686106 0.754341
O O13 0.811454 0.579687 0.388134
O O14 0.906691 0.635832 0.697729
O O15 0.307858 0.547264 0.211044
O O16 0.000000 0.500000 0.000000
O O17 0.703654 0.284422 0.414543
O O18 0.964889 0.179715 0.031828
#
# Coordination Sequence:
#
# PCOD9009271 Si02
#       8
#     2   2   2   2   2   2   2   2
#     4  11  26  43  61  93 141 181 227 268 334 410
#     4   9  21  40  68  93 133 162 229 285 332 382
#     4  11  23  39  64  96 131 180 212 276 336 394
#     4  11  25  43  65  96 137 169 214 269 335 405
#     4   9  20  41  66  97 126 163 215 274 326 390
#     4  10  21  39  67  99 131 158 227 278 339 389
#     4  11  23  40  70  98 127 174 219 273 336 396
#     4  10  23  41  67  99 127 176 227 284 332 389
#
# _framework density 25.084603000000001
#
# number of rings (size 3 to 8) (size 9 to 14) (size 15 to 20)
#    0.000    1.750    0.000    3.750   10.500    4.500 
#    0.000    1.250    0.000    0.000    0.000    0.000 
#    0.000    0.000    0.000    0.000    0.000    0.000 
#
# Total GULP energy -89245.680035 kJ/mol
# GULP energy per Si atom -5577.855002 kJ/mol
# Density = 2.502751 g / cm^3
# Si number density = 25.084603 Si / 1000 Ang^3
#
#
#
# Elastic Constant Matrix: (Units=GPa)
#
#
# Indices 1 2 3 4 5 6 
#
# 1 93.5831 6.8795 0.7627 -1.3656 -18.0873 1.7292
# 2 6.8795 81.6295 23.0774 7.8201 -2.7131 -6.3197
# 3 0.7627 23.0774 76.6547 30.2705 -11.1710 -8.8996
# 4 -1.3656 7.8201 30.2705 43.6950 -6.8451 -1.8892
# 5 -18.0873 -2.7131 -11.1710 -6.8451 33.5411 8.5419
# 6 1.7292 -6.3197 -8.8996 -1.8892 8.5419 21.5536
#
#
#
# Elastic Compliance Matrix: (Units=1/GPa)
#
#
# Indices 1 2 3 4 5 6 
#
# 1 0.012457 -0.001366 0.000400 0.001444 0.008139 -0.004334
# 2 -0.001366 0.013684 -0.004070 0.000190 -0.001749 0.003151
# 3 0.000400 -0.004070 0.020229 -0.012623 0.002797 0.004913
# 4 0.001444 0.000190 -0.012623 0.032121 0.004194 -0.004119
# 5 0.008139 -0.001749 0.002797 0.004194 0.039772 -0.015406
# 6 -0.004334 0.003151 0.004913 -0.004119 -0.015406 0.055440
#
#
# Mechanical properties :
#
#
# Convention : Reuss Voigt Hill
#
# Bulk Modulus (GPa) = 27.55028 34.81183 31.18105
# Shear Modulus (GPa) = 25.52637 34.50113 30.01375
#
# Velocity S-wave (km/s) = 3.19346 3.71265 3.46280
# Velocity P-wave (km/s) = 4.96028 5.68210 5.33342
#
# Compressibility (1/GPa) = 0.03629728
#
# Stress axis : x y z
#
# Youngs Moduli (GPa) = 80.27599 73.07858 49.43278
#
# Poissons Ratio (x) = 0.09985 -0.01977
# Poissons Ratio (y) = 0.10968 0.20120
# Poissons Ratio (z) = -0.03210 0.29745
#
# Static dielectric constant tensor:
#      x y z
#    x 2.534670 0.179710 -0.118600 
#    y 0.179710 2.162170 0.049410 
#    z -0.118600 0.049410 2.096410 
# 
# From -- ./inp_files/370089.got.cif
#   From: 2010.05.17/outbox.cif.g08.bks.cpg/sg2_186_cif.got.tgz:370089.got - 2010.06.03 11:33:40.
