data_PCOD9009499
_publ_section_title
;
Structure prediction by ZEFSAII (Michael W. Deem and Ramdas Pophale) SiO2 
 PCOD9009499
Probable space group: P -1
;
_chemical_formula_sum "Si O2"
_cell_formula_units_Z 14
_cell_length_a 14.283803
_cell_length_b 5.200115
_cell_length_c 9.347202
_cell_angle_alpha 89.027673
_cell_angle_beta 69.037617
_cell_angle_gamma 55.505567
_cell_volume 518.569094
_symmetry_space_group_name_H-M "P -1"
_symmetry_group_IT_number 2
_symmetry_cell_setting 'triclinic'
loop_
_space_group_symop_operation_xyz
x,y,z
-x,-y,-z
loop_
_atom_site_type_symbol
_atom_site_label
_atom_site_fract_x
_atom_site_fract_y
_atom_site_fract_z
Si Si1 0.663208 0.214918 0.559734
Si Si2 0.423873 0.538523 0.887405
Si Si3 0.246462 0.415954 0.625743
Si Si4 0.162045 0.892593 0.908029
Si Si5 0.153385 0.404942 0.403076
Si Si6 0.946398 0.324970 0.826659
Si Si7 0.676452 0.830967 0.929138
O O1 0.541435 0.383848 0.721668
O O2 0.672477 0.467106 0.471754
O O3 0.675103 0.961853 0.442392
O O4 0.786578 0.968340 0.594560
O O5 0.298932 0.788187 0.859259
O O6 0.393545 0.294733 0.956410
O O7 0.405838 0.788209 0.015490
O O8 0.188340 0.590381 0.804254
O O9 0.137460 0.557341 0.563537
O O10 0.095019 0.894399 0.089809
O O11 0.068515 0.195886 0.853850
O O12 0.043852 0.630634 0.348543
O O13 0.277550 0.328692 0.252169
O O14 0.815288 0.675924 0.918482
#
# Coordination Sequence:
#
# PCOD9009499 Si02
#       7
#     2   2   2   2   2   2   2
#     4  10  23  40  61  93 129 163 202 254 302 376
#     4  11  22  38  63  94 122 164 206 252 308 358
#     4  10  23  41  63  92 129 162 202 250 317 363
#     4  10  21  39  69  91 124 164 207 254 314 360
#     4   8  21  40  63  90 128 157 208 253 308 362
#     4   8  19  43  64  95 119 161 209 263 296 367
#     4   9  21  37  62  92 121 158 205 257 302 354
#
# _framework density 26.99737
#
# number of rings (size 3 to 8) (size 9 to 14) (size 15 to 20)
#    1.714    0.857    0.000    0.857    2.000    5.714 
#    0.000    3.571    0.000    0.000    0.000    0.000 
#    0.000    0.000    0.000    0.000    0.000    0.000 
#
# Total GULP energy -78130.326930 kJ/mol
# GULP energy per Si atom -5580.737638 kJ/mol
# Density = 2.693592 g / cm^3
# Si number density = 26.997370 Si / 1000 Ang^3
#
#
#
# Elastic Constant Matrix: (Units=GPa)
#
#
# Indices 1 2 3 4 5 6 
#
# 1 47.4437 12.4843 27.6002 12.6936 -24.5977 6.1638
# 2 12.4843 80.1509 16.0540 13.6893 -2.1057 18.8082
# 3 27.6002 16.0540 111.0363 13.9054 -9.9867 7.5445
# 4 12.6936 13.6893 13.9054 41.6323 -4.5990 -0.1474
# 5 -24.5977 -2.1057 -9.9867 -4.5990 49.9325 1.7866
# 6 6.1638 18.8082 7.5445 -0.1474 1.7866 41.4682
#
#
#
# Elastic Compliance Matrix: (Units=1/GPa)
#
#
# Indices 1 2 3 4 5 6 
#
# 1 0.035512 -0.001852 -0.006058 -0.006469 0.015753 -0.004038
# 2 -0.001852 0.015145 -0.000816 -0.004232 -0.000596 -0.006435
# 3 -0.006058 -0.000816 0.010786 -0.001598 -0.000985 -0.000655
# 4 -0.006469 -0.004232 -0.001598 0.027792 -0.001244 0.003324
# 5 0.015753 -0.000596 -0.000985 -0.001244 0.027561 -0.003084
# 6 -0.004038 -0.006435 -0.000655 0.003324 -0.003084 0.027898
#
#
# Mechanical properties :
#
#
# Convention : Reuss Voigt Hill
#
# Bulk Modulus (GPa) = 22.73143 38.98977 30.86060
# Shear Modulus (GPa) = 28.27921 38.77277 33.52599
#
# Velocity S-wave (km/s) = 3.23999 3.79379 3.52778
# Velocity P-wave (km/s) = 4.73655 5.80206 5.29617
#
# Compressibility (1/GPa) = 0.04399195
#
# Stress axis : x y z
#
# Youngs Moduli (GPa) = 28.15971 66.02660 92.71326
#
# Poissons Ratio (x) = 0.12225 0.56166
# Poissons Ratio (y) = 0.05214 0.07565
# Poissons Ratio (z) = 0.17059 0.05388
#
# Static dielectric constant tensor:
#      x y z
#    x 2.242970 -0.091540 0.098790 
#    y -0.091540 2.132270 -0.051730 
#    z 0.098790 -0.051730 2.075960 
# 
# From -- ./inp_files/458886.got.cif
#   From: 2010.05.17/outbox.cif.g08.bks.cpg/sg2_230_cif.got.tgz:458886.got - 2010.06.03 11:33:40.
