data_PCOD9009215
_publ_section_title
;
Structure prediction by ZEFSAII (Michael W. Deem and Ramdas Pophale) SiO2 
 PCOD9009215
Probable space group: P -1
;
_chemical_formula_sum "Si O2"
_cell_formula_units_Z 14
_cell_length_a 7.839595
_cell_length_b 11.798107
_cell_length_c 14.504773
_cell_angle_alpha 29.602626
_cell_angle_beta 112.385771
_cell_angle_gamma 111.187666
_cell_volume 611.425389
_symmetry_space_group_name_H-M "P -1"
_symmetry_group_IT_number 2
_symmetry_cell_setting 'triclinic'
loop_
_space_group_symop_operation_xyz
x,y,z
-x,-y,-z
loop_
_atom_site_type_symbol
_atom_site_label
_atom_site_fract_x
_atom_site_fract_y
_atom_site_fract_z
Si Si1 0.857252 0.830685 0.281552
Si Si2 0.828747 0.461681 0.396201
Si Si3 0.418360 0.948348 0.421226
Si Si4 0.958482 0.809930 0.047755
Si Si5 0.221383 0.132080 0.550413
Si Si6 0.000343 0.667160 0.792760
Si Si7 0.686719 0.632263 0.984916
O O1 0.755148 0.660071 0.306131
O O2 0.777386 0.806413 0.384688
O O3 0.059143 0.724247 0.394623
O O4 0.902047 0.094535 0.071268
O O5 0.673387 0.306644 0.422422
O O6 0.975652 0.577629 0.272376
O O7 0.582205 0.960397 0.371700
O O8 0.500000 0.000000 0.500000
O O9 0.284432 0.152019 0.231028
O O10 0.746827 0.768498 0.995834
O O11 0.000000 0.000000 0.000000
O O12 0.166014 0.307914 0.332739
O O13 0.066072 0.922144 0.658366
O O14 0.166183 0.559749 0.847390
O O15 0.000000 0.500000 0.000000
O O16 0.500000 0.500000 0.000000
#
# Coordination Sequence:
#
# PCOD9009215 Si02
#       7
#     2   2   2   2   2   2   2
#     4  10  21  41  67  97 128 175 231 275 334 403
#     4  10  22  40  69  94 130 179 225 276 333 409
#     4  12  25  42  66 101 139 177 224 281 347 408
#     4  10  21  39  67  96 127 176 229 275 329 404
#     4  11  25  42  65  99 136 177 224 283 343 403
#     4  11  24  41  64  95 134 178 221 277 342 401
#     4  12  22  40  65  97 132 174 223 279 332 404
#
# _framework density 22.897316
#
# number of rings (size 3 to 8) (size 9 to 14) (size 15 to 20)
#    0.000    1.143    2.857    3.429    4.000    0.571 
#    0.000    0.000    0.000    1.714    0.000    0.000 
#    0.000    0.000    0.000    0.000    0.000    0.000 
#
# Total GULP energy -77947.045032 kJ/mol
# GULP energy per Si atom -5567.646074 kJ/mol
# Density = 2.284520 g / cm^3
# Si number density = 22.897316 Si / 1000 Ang^3
#
#
#
# Elastic Constant Matrix: (Units=GPa)
#
#
# Indices 1 2 3 4 5 6 
#
# 1 52.4785 28.0097 3.4791 -3.5869 -9.6880 -11.2334
# 2 28.0097 183.5738 31.9487 -7.4377 -19.6038 -0.6944
# 3 3.4791 31.9487 109.0423 0.3734 -19.0492 -0.5846
# 4 -3.5869 -7.4377 0.3734 35.2159 5.2243 -10.5724
# 5 -9.6880 -19.6038 -19.0492 5.2243 36.6087 4.0917
# 6 -11.2334 -0.6944 -0.5846 -10.5724 4.0917 32.4252
#
#
#
# Elastic Compliance Matrix: (Units=1/GPa)
#
#
# Indices 1 2 3 4 5 6 
#
# 1 0.023498 -0.003172 0.000806 0.003893 0.003385 0.008929
# 2 -0.003172 0.006400 -0.001451 0.000438 0.001891 -0.001084
# 3 0.000806 -0.001451 0.010469 -0.001287 0.005138 -0.000631
# 4 0.003893 0.000438 -0.001287 0.033648 -0.005662 0.013021
# 5 0.003385 0.001891 0.005138 -0.005662 0.033235 -0.004734
# 6 0.008929 -0.001084 -0.000631 0.013021 -0.004734 0.038742
#
#
# Mechanical properties :
#
#
# Convention : Reuss Voigt Hill
#
# Bulk Modulus (GPa) = 30.55215 52.44105 41.49660
# Shear Modulus (GPa) = 30.38846 39.62711 35.00779
#
# Velocity S-wave (km/s) = 3.64698 4.16461 3.91436
# Velocity P-wave (km/s) = 5.57727 6.78806 6.21224
#
# Compressibility (1/GPa) = 0.03273093
#
# Stress axis : x y z
#
# Youngs Moduli (GPa) = 42.55735 156.26131 95.52288
#
# Poissons Ratio (x) = 0.49574 -0.07696
# Poissons Ratio (y) = 0.13501 0.13858
# Poissons Ratio (z) = -0.03429 0.22669
#
# Static dielectric constant tensor:
#      x y z
#    x 1.893980 -0.011190 -0.024300 
#    y -0.011190 1.974460 0.040300 
#    z -0.024300 0.040300 1.927910 
# 
# From -- ./inp_files/498727.got.cif
#   From: 2010.05.17/outbox.cif.g08.bks.cpg/sg2_250_cif.got.tgz:498727.got - 2010.06.03 11:33:40.
