data_PCOD9009044
_publ_section_title
;
Structure prediction by ZEFSAII (Michael W. Deem and Ramdas Pophale) SiO2 
 PCOD9009044
Probable space group: P -1
;
_chemical_formula_sum "Si O2"
_cell_formula_units_Z 16
_cell_length_a 5.587109
_cell_length_b 18.311497
_cell_length_c 21.738058
_cell_angle_alpha 162.918208
_cell_angle_beta 114.720189
_cell_angle_gamma 66.212970
_cell_volume 593.346893
_symmetry_space_group_name_H-M "P -1"
_symmetry_group_IT_number 2
_symmetry_cell_setting 'triclinic'
loop_
_space_group_symop_operation_xyz
x,y,z
-x,-y,-z
loop_
_atom_site_type_symbol
_atom_site_label
_atom_site_fract_x
_atom_site_fract_y
_atom_site_fract_z
Si Si1 0.259599 0.343580 0.918487
Si Si2 0.629454 0.271835 0.006073
Si Si3 0.842170 0.788318 0.495847
Si Si4 0.444179 0.619046 0.412261
Si Si5 0.762261 0.848120 0.881528
Si Si6 0.519199 0.158313 0.690573
Si Si7 0.533997 0.767470 0.667938
Si Si8 0.162633 0.167176 0.985305
O O1 0.298577 0.138060 0.703771
O O2 0.360226 0.259314 0.928212
O O3 0.476426 0.558484 0.102305
O O4 0.000000 0.500000 0.000000
O O5 0.696861 0.558468 0.260969
O O6 0.910651 0.220532 0.960429
O O7 0.634712 0.020102 0.847414
O O8 0.681481 0.764217 0.523073
O O9 0.155619 0.745609 0.490869
O O10 0.773838 0.046147 0.662639
O O11 0.389592 0.373044 0.167436
O O12 0.527972 0.571221 0.453795
O O13 0.887284 0.764754 0.892888
O O14 0.686472 0.696232 0.689212
O O15 0.500000 0.000000 0.000000
O O16 0.000000 0.000000 0.000000
O O17 0.500000 0.000000 0.500000
O O18 0.259852 0.887491 0.760036
#
# Coordination Sequence:
#
# PCOD9009044 Si02
#       8
#     2   2   2   2   2   2   2   2
#     4  11  27  43  67 101 132 177 232 283 342 415
#     4  11  22  43  69  92 137 179 225 278 342 404
#     4  11  25  46  67 101 135 179 225 281 336 407
#     4  11  26  41  68 102 135 175 231 276 334 401
#     4  10  21  39  66  98 133 179 224 273 337 398
#     4  11  25  46  65  93 136 177 220 285 346 405
#     4  11  23  39  69  97 134 182 224 279 336 401
#     4  10  23  43  66  95 139 175 225 279 338 400
#
# _framework density 26.965675000000001
#
# number of rings (size 3 to 8) (size 9 to 14) (size 15 to 20)
#    0.000    1.250    3.750    0.750    7.000    3.000 
#    0.000    0.000    0.000    5.250    0.000    0.000 
#    0.000    0.000    0.000    0.000    0.000    0.000 
#
# Total GULP energy -89150.026757 kJ/mol
# GULP energy per Si atom -5571.876672 kJ/mol
# Density = 2.690430 g / cm^3
# Si number density = 26.965675 Si / 1000 Ang^3
#
#
#
# Elastic Constant Matrix: (Units=GPa)
#
#
# Indices 1 2 3 4 5 6 
#
# 1 77.2488 13.6784 15.9111 -10.6852 -7.2525 -3.8703
# 2 13.6784 100.1449 21.2082 -9.5328 6.9990 -4.5654
# 3 15.9111 21.2082 110.7427 -18.1080 -1.2788 -5.3724
# 4 -10.6852 -9.5328 -18.1080 53.9237 0.9758 9.1860
# 5 -7.2525 6.9990 -1.2788 0.9758 39.8775 5.3474
# 6 -3.8703 -4.5654 -5.3724 9.1860 5.3474 41.6272
#
#
#
# Elastic Compliance Matrix: (Units=1/GPa)
#
#
# Indices 1 2 3 4 5 6 
#
# 1 0.014047 -0.001630 -0.001345 0.001965 0.002727 0.000170
# 2 -0.001630 0.010861 -0.001678 0.000919 -0.002404 0.000929
# 3 -0.001345 -0.001678 0.010012 0.002735 0.000258 0.000346
# 4 0.001965 0.000919 0.002735 0.020685 0.000310 -0.003968
# 5 0.002727 -0.002404 0.000258 0.000310 0.026457 -0.003444
# 6 0.000170 0.000929 0.000346 -0.003968 -0.003444 0.025503
#
#
# Mechanical properties :
#
#
# Convention : Reuss Voigt Hill
#
# Bulk Modulus (GPa) = 39.04087 43.30354 41.17221
# Shear Modulus (GPa) = 39.86932 42.90827 41.38879
#
# Velocity S-wave (km/s) = 3.84933 3.99333 3.92199
# Velocity P-wave (km/s) = 5.85370 6.11195 5.98422
#
# Compressibility (1/GPa) = 0.02561418
#
# Stress axis : x y z
#
# Youngs Moduli (GPa) = 71.18886 92.06966 99.88401
#
# Poissons Ratio (x) = 0.15003 0.13435
# Poissons Ratio (y) = 0.11600 0.16764
# Poissons Ratio (z) = 0.09575 0.15453
#
# Static dielectric constant tensor:
#      x y z
#    x 2.321790 0.078540 0.081350 
#    y 0.078540 2.217050 -0.044390 
#    z 0.081350 -0.044390 2.206580 
# 
# From -- ./inp_files/52784.got.cif
#   From: 2010.05.17/outbox.cif.g08.bks.cpg/sg2_27_cif.got.tgz:52784.got - 2010.06.03 11:33:40.
