data_PCOD9009208
_publ_section_title
;
Structure prediction by ZEFSAII (Michael W. Deem and Ramdas Pophale) SiO2 
 PCOD9009208
Probable space group: P -1
;
_chemical_formula_sum "Si O2"
_cell_formula_units_Z 12
_cell_length_a 14.081806
_cell_length_b 9.045225
_cell_length_c 5.142163
_cell_angle_alpha 81.239587
_cell_angle_beta 51.625712
_cell_angle_gamma 79.394555
_cell_volume 504.093797
_symmetry_space_group_name_H-M "P -1"
_symmetry_group_IT_number 2
_symmetry_cell_setting 'triclinic'
loop_
_space_group_symop_operation_xyz
x,y,z
-x,-y,-z
loop_
_atom_site_type_symbol
_atom_site_label
_atom_site_fract_x
_atom_site_fract_y
_atom_site_fract_z
Si Si1 0.519488 0.736588 0.493479
Si Si2 0.608699 0.993253 0.021176
Si Si3 0.226551 0.792996 0.271328
Si Si4 0.649536 0.442519 0.539798
Si Si5 0.923425 0.375680 0.052809
Si Si6 0.960687 0.099455 0.791396
O O1 0.585035 0.611707 0.608606
O O2 0.437857 0.653824 0.452589
O O3 0.436351 0.876413 0.727810
O O4 0.621385 0.825850 0.156067
O O5 0.728253 0.061909 0.702378
O O6 0.500000 0.000000 0.000000
O O7 0.323492 0.646693 0.209690
O O8 0.111268 0.733763 0.625981
O O9 0.182542 0.849419 0.047294
O O10 0.785532 0.443226 0.185953
O O11 0.997175 0.266318 0.747448
O O12 0.000000 0.500000 0.000000
O O13 0.000000 0.000000 0.500000
O O14 0.000000 0.000000 0.000000
#
# Coordination Sequence:
#
# PCOD9009208 Si02
#       6
#     2   2   2   2   2   2
#     4  10  21  39  67  95 142 181 234 285 350 429
#     4  11  21  39  63 101 136 179 231 289 349 426
#     4  10  23  42  68  97 144 185 231 300 360 422
#     4   9  20  44  62  99 132 191 224 288 358 415
#     4  10  23  45  70 100 144 183 241 299 357 425
#     4  12  24  48  74 102 138 191 241 299 363 426
#
# _framework density 23.805088999999999
#
# number of rings (size 3 to 8) (size 9 to 14) (size 15 to 20)
#    1.000    0.667    3.333    1.000    0.000    2.667 
#    6.000    0.000    0.000    0.000    0.000    0.000 
#    0.000    0.000    0.000    0.000    0.000    0.000 
#
# Total GULP energy -66830.112969 kJ/mol
# GULP energy per Si atom -5569.176081 kJ/mol
# Density = 2.375091 g / cm^3
# Si number density = 23.805089 Si / 1000 Ang^3
#
#
#
# Elastic Constant Matrix: (Units=GPa)
#
#
# Indices 1 2 3 4 5 6 
#
# 1 150.3483 84.2144 38.9860 -23.1844 19.4006 -8.2152
# 2 84.2144 175.0699 47.7879 -11.3680 -9.5825 10.0905
# 3 38.9860 47.7879 74.8281 -10.6913 -0.4277 7.8196
# 4 -23.1844 -11.3680 -10.6913 49.4061 3.6338 -2.6846
# 5 19.4006 -9.5825 -0.4277 3.6338 40.8220 -13.5722
# 6 -8.2152 10.0905 7.8196 -2.6846 -13.5722 60.4164
#
#
#
# Elastic Compliance Matrix: (Units=1/GPa)
#
#
# Indices 1 2 3 4 5 6 
#
# 1 0.011818 -0.005199 -0.002399 0.004408 -0.006769 0.001461
# 2 -0.005199 0.009326 -0.003327 -0.001390 0.004451 -0.000896
# 3 -0.002399 -0.003327 0.017193 0.001742 -0.000274 -0.001980
# 4 0.004408 -0.001390 0.001742 0.022711 -0.004201 0.000671
# 5 -0.006769 0.004451 -0.000274 -0.004201 0.030828 0.005110
# 6 0.001461 -0.000896 -0.001980 0.000671 0.005110 0.018334
#
#
# Mechanical properties :
#
#
# Convention : Reuss Voigt Hill
#
# Bulk Modulus (GPa) = 60.65033 82.46920 71.55976
# Shear Modulus (GPa) = 36.34913 45.41275 40.88094
#
# Velocity S-wave (km/s) = 3.91186 4.37245 4.14855
# Velocity P-wave (km/s) = 6.77766 7.75950 7.28514
#
# Compressibility (1/GPa) = 0.01648796
#
# Stress axis : x y z
#
# Youngs Moduli (GPa) = 84.61649 107.22974 58.16444
#
# Poissons Ratio (x) = 0.55744 0.13953
# Poissons Ratio (y) = 0.43988 0.19350
# Poissons Ratio (z) = 0.20299 0.35673
#
# Static dielectric constant tensor:
#      x y z
#    x 2.023350 -0.019270 -0.126590 
#    y -0.019270 1.924360 0.041850 
#    z -0.126590 0.041850 2.267620 
# 
# From -- ./inp_files/87352.got.cif
#   From: 2010.05.17/outbox.cif.g08.bks.cpg/sg2_44_cif.got.tgz:87352.got - 2010.06.03 11:33:40.
