data_PCOD9009636
_publ_section_title
;
Structure prediction by ZEFSAII (Michael W. Deem and Ramdas Pophale) SiO2 
 PCOD9009636
Probable space group: P -1
;
_chemical_formula_sum "Si O2"
_cell_formula_units_Z 16
_cell_length_a 24.995261
_cell_length_b 6.062247
_cell_length_c 11.369594
_cell_angle_alpha 106.639074
_cell_angle_beta 149.906755
_cell_angle_gamma 65.413463
_cell_volume 775.195741
_symmetry_space_group_name_H-M "P -1"
_symmetry_group_IT_number 2
_symmetry_cell_setting 'triclinic'
loop_
_space_group_symop_operation_xyz
x,y,z
-x,-y,-z
loop_
_atom_site_type_symbol
_atom_site_label
_atom_site_fract_x
_atom_site_fract_y
_atom_site_fract_z
Si Si1 0.759108 0.343459 0.845476
Si Si2 0.479564 0.316215 0.776180
Si Si3 0.955424 0.984787 0.283185
Si Si4 0.068757 0.039121 0.253184
Si Si5 0.916997 0.543809 0.032381
Si Si6 0.665184 0.166126 0.298138
Si Si7 0.288165 0.106076 0.428922
Si Si8 0.526691 0.703568 0.498025
O O1 0.662916 0.589981 0.736243
O O2 0.711267 0.143752 0.669583
O O3 0.837077 0.400443 0.904360
O O4 0.839900 0.215694 0.085797
O O5 0.406878 0.578097 0.735828
O O6 0.386062 0.185139 0.570163
O O7 0.518244 0.340199 0.722019
O O8 0.588683 0.171333 0.040175
O O9 0.925738 0.740078 0.172933
O O10 0.024549 0.992678 0.292908
O O11 0.000000 0.000000 0.500000
O O12 0.202021 0.873245 0.476192
O O13 0.040211 0.332694 0.228306
O O14 0.000000 0.000000 0.000000
O O15 0.841101 0.703960 0.806294
O O16 0.675901 0.948088 0.376228
O O17 0.500000 0.500000 0.500000
O O18 0.500000 0.000000 0.500000
#
# Coordination Sequence:
#
# PCOD9009636 Si02
#       8
#     2   2   2   2   2   2   2   2
#     4  10  21  40  67  95 128 179 227 284 345 428
#     4  11  24  43  64  98 135 185 224 286 365 415
#     4  10  24  43  68  96 138 182 225 292 365 428
#     4  11  23  41  64 104 131 172 238 291 340 421
#     4  10  21  39  71  94 129 176 230 280 350 424
#     4  11  24  40  66  95 142 173 227 292 352 427
#     4  11  18  39  69  93 129 180 228 274 357 425
#     4  12  26  44  71 102 137 185 244 295 345 430
#
# _framework density 20.639949999999999
#
# number of rings (size 3 to 8) (size 9 to 14) (size 15 to 20)
#    0.000    1.250    2.500    4.125    1.750    6.000 
#    2.250    0.000    0.000    0.000    0.000    0.000 
#    0.000    0.000    0.000    0.000    0.000    0.000 
#
# Total GULP energy -89087.710599 kJ/mol
# GULP energy per Si atom -5567.981912 kJ/mol
# Density = 2.059297 g / cm^3
# Si number density = 20.639950 Si / 1000 Ang^3
#
#
#
# Elastic Constant Matrix: (Units=GPa)
#
#
# Indices 1 2 3 4 5 6 
#
# 1 101.8915 32.0239 51.1640 5.1689 -26.9716 5.0367
# 2 32.0239 105.0616 38.8527 -17.5987 -12.3430 -0.4920
# 3 51.1640 38.8527 155.3564 -19.3526 -40.4959 -6.1617
# 4 5.1689 -17.5987 -19.3526 32.5725 2.8623 9.8471
# 5 -26.9716 -12.3430 -40.4959 2.8623 36.6074 -5.8575
# 6 5.0367 -0.4920 -6.1617 9.8471 -5.8575 25.2747
#
#
#
# Elastic Compliance Matrix: (Units=1/GPa)
#
#
# Indices 1 2 3 4 5 6 
#
# 1 0.014581 -0.003698 -0.002902 -0.006816 0.006910 0.000572
# 2 -0.003698 0.012204 -0.001283 0.007223 -0.000974 -0.002378
# 3 -0.002902 -0.001283 0.010960 0.004251 0.009836 0.003849
# 4 -0.006816 0.007223 0.004251 0.043101 -0.003671 -0.015108
# 5 0.006910 -0.000974 0.009836 -0.003671 0.045317 0.012935
# 6 0.000572 -0.002378 0.003849 -0.015108 0.012935 0.049227
#
#
# Mechanical properties :
#
#
# Convention : Reuss Voigt Hill
#
# Bulk Modulus (GPa) = 45.50015 67.37675 56.43845
# Shear Modulus (GPa) = 25.19122 34.90885 30.05003
#
# Velocity S-wave (km/s) = 3.49737 4.11703 3.81979
# Velocity P-wave (km/s) = 6.19688 7.43738 6.84529
#
# Compressibility (1/GPa) = 0.02197795
#
# Stress axis : x y z
#
# Youngs Moduli (GPa) = 68.58386 81.93882 91.24428
#
# Poissons Ratio (x) = 0.30304 0.26482
# Poissons Ratio (y) = 0.25365 0.11702
# Poissons Ratio (z) = 0.19905 0.10509
#
# Static dielectric constant tensor:
#      x y z
#    x 1.859100 -0.010620 0.028140 
#    y -0.010620 1.830360 -0.040680 
#    z 0.028140 -0.040680 1.758180 
# 
# From -- ./inp_files/475927.got.cif
#   From: 2010.05.17/outbox.cif.g08.bks.cpg/sg2_238_cif.got.tgz:475927.got - 2010.06.03 11:33:40.
