data_PCOD9009847
_publ_section_title
;
Structure prediction by ZEFSAII (Michael W. Deem and Ramdas Pophale) SiO2 
 PCOD9009847
Probable space group: P -1
;
_chemical_formula_sum "Si O2"
_cell_formula_units_Z 16
_cell_length_a 14.564864
_cell_length_b 8.197130
_cell_length_c 9.577952
_cell_angle_alpha 54.444327
_cell_angle_beta 120.041810
_cell_angle_gamma 79.684875
_cell_volume 599.569957
_symmetry_space_group_name_H-M "P -1"
_symmetry_group_IT_number 2
_symmetry_cell_setting 'triclinic'
loop_
_space_group_symop_operation_xyz
x,y,z
-x,-y,-z
loop_
_atom_site_type_symbol
_atom_site_label
_atom_site_fract_x
_atom_site_fract_y
_atom_site_fract_z
Si Si1 0.598020 0.080270 0.922468
Si Si2 0.808351 0.925062 0.400568
Si Si3 0.088023 0.017689 0.177560
Si Si4 0.034578 0.334549 0.749643
Si Si5 0.454531 0.302357 0.440053
Si Si6 0.434816 0.844036 0.698479
Si Si7 0.132339 0.838817 0.876309
Si Si8 0.346079 0.415638 0.767795
O O1 0.561452 0.236736 0.675645
O O2 0.440981 0.248967 0.786218
O O3 0.684926 0.068151 0.117492
O O4 0.688194 0.765526 0.114410
O O5 0.906741 0.606144 0.608044
O O6 0.720358 0.015449 0.431469
O O7 0.871074 0.061931 0.331982
O O8 0.213925 0.713861 0.474896
O O9 0.983259 0.180255 0.150061
O O10 0.129448 0.161101 0.047651
O O11 0.000000 0.000000 0.000000
O O12 0.000000 0.500000 0.500000
O O13 0.088304 0.077757 0.823226
O O14 0.524636 0.285167 0.357790
O O15 0.449333 0.067437 0.579647
O O16 0.289426 0.568525 0.171921
O O17 0.554369 0.630228 0.009586
#
# Coordination Sequence:
#
# PCOD9009847 Si02
#       8
#     2   2   2   2   2   2   2   2
#     4   9  16  29  52  77 107 133 171 224 263 313
#     4  10  19  33  51  78 108 139 173 217 269 308
#     4  10  17  29  50  74 103 134 170 213 254 309
#     4   9  18  31  50  78 108 136 170 217 265 307
#     4  10  19  34  53  80 103 139 178 213 274 315
#     4   9  20  36  55  75 108 138 173 222 265 323
#     4  10  20  30  50  78 107 139 176 213 254 316
#     4   9  17  30  51  80 103 135 175 217 269 307
#
# _framework density 26.685793
#
# number of rings (size 3 to 8) (size 9 to 14) (size 15 to 20)
#    0.000    2.500    0.000    4.500    0.000    1.000 
#    0.000    1.875    0.000    1.500    0.000   19.250 
#    0.000    0.000    0.000    0.000    0.000    0.000 
#
# Total GULP energy -89089.902533 kJ/mol
# GULP energy per Si atom -5568.118908 kJ/mol
# Density = 2.662505 g / cm^3
# Si number density = 26.685793 Si / 1000 Ang^3
#
#
#
# Elastic Constant Matrix: (Units=GPa)
#
#
# Indices 1 2 3 4 5 6 
#
# 1 88.0762 28.9031 64.8113 -3.9010 -6.2245 -37.6302
# 2 28.9031 73.6534 81.1220 -12.0430 -7.3168 -28.5404
# 3 64.8113 81.1220 229.5587 -18.1311 -21.9288 -31.8906
# 4 -3.9010 -12.0430 -18.1311 48.6191 -12.7855 -2.8766
# 5 -6.2245 -7.3168 -21.9288 -12.7855 47.0624 7.7938
# 6 -37.6302 -28.5404 -31.8906 -2.8766 7.7938 53.5674
#
#
#
# Elastic Compliance Matrix: (Units=1/GPa)
#
#
# Indices 1 2 3 4 5 6 
#
# 1 0.019084 0.002209 -0.004520 0.000842 -0.001011 0.012085
# 2 0.002209 0.026783 -0.008186 0.004418 -0.000011 0.011187
# 3 -0.004520 -0.008186 0.008526 0.001398 0.002948 -0.002815
# 4 0.000842 0.004418 0.001398 0.024441 0.007425 0.004010
# 5 -0.001011 -0.000011 0.002948 0.007425 0.024865 -0.002180
# 6 0.012085 0.011187 -0.002815 0.004010 -0.002180 0.031974
#
#
# Mechanical properties :
#
#
# Convention : Reuss Voigt Hill
#
# Bulk Modulus (GPa) = 29.94121 82.32902 56.13511
# Shear Modulus (GPa) = 29.79746 44.27991 37.03869
#
# Velocity S-wave (km/s) = 3.34519 4.07788 3.72957
# Velocity P-wave (km/s) = 5.11514 7.28631 6.29504
#
# Compressibility (1/GPa) = 0.03339879
#
# Stress axis : x y z
#
# Youngs Moduli (GPa) = 52.40071 37.33767 117.28542
#
# Poissons Ratio (x) = -0.08249 0.53012
# Poissons Ratio (y) = -0.11577 0.96013
# Poissons Ratio (z) = 0.23685 0.30566
#
# Static dielectric constant tensor:
#      x y z
#    x 2.688950 0.103680 -0.190650 
#    y 0.103680 2.119780 0.023360 
#    z -0.190650 0.023360 2.092800 
# 
# From -- ./inp_files/332899.got.cif
#   From: 2010.05.17/outbox.cif.g08.bks.cpg/sg2_167_cif.got.tgz:332899.got - 2010.06.03 11:33:40.
