data_PCOD9009266
_publ_section_title
;
Structure prediction by ZEFSAII (Michael W. Deem and Ramdas Pophale) SiO2 
 PCOD9009266
Probable space group: P -1
;
_chemical_formula_sum "Si O2"
_cell_formula_units_Z 16
_cell_length_a 7.086827
_cell_length_b 17.391812
_cell_length_c 11.014169
_cell_angle_alpha 139.618452
_cell_angle_beta 92.294980
_cell_angle_gamma 62.455029
_cell_volume 654.569133
_symmetry_space_group_name_H-M "P -1"
_symmetry_group_IT_number 2
_symmetry_cell_setting 'triclinic'
loop_
_space_group_symop_operation_xyz
x,y,z
-x,-y,-z
loop_
_atom_site_type_symbol
_atom_site_label
_atom_site_fract_x
_atom_site_fract_y
_atom_site_fract_z
Si Si1 0.435868 0.454065 0.269359
Si Si2 0.167011 0.892851 0.186844
Si Si3 0.241925 0.166613 0.648387
Si Si4 0.381134 0.729089 0.711455
Si Si5 0.770331 0.189768 0.643250
Si Si6 0.204899 0.048307 0.999333
Si Si7 0.239438 0.417520 0.991079
Si Si8 0.378649 0.037373 0.244533
O O1 0.581847 0.611209 0.681443
O O2 0.715657 0.287690 0.038892
O O3 0.592440 0.395540 0.524887
O O4 0.257244 0.491206 0.198462
O O5 0.027157 0.788875 0.308678
O O6 0.226084 0.886855 0.324336
O O7 0.091491 0.852639 0.908327
O O8 0.242131 0.280591 0.870727
O O9 0.298015 0.159140 0.496207
O O10 0.500000 0.000000 0.500000
O O11 0.372634 0.858746 0.799626
O O12 0.317990 0.930594 0.163193
O O13 0.875616 0.061328 0.383261
O O14 0.478235 0.349832 0.828363
O O15 0.334254 0.065244 0.914798
O O16 0.225282 0.110538 0.202002
O O17 0.000000 0.500000 0.000000
#
# Coordination Sequence:
#
# PCOD9009266 Si02
#       8
#     2   2   2   2   2   2   2   2
#     4  10  21  42  70  98 142 182 234 300 353 432
#     4   9  16  37  70  96 132 180 226 294 341 420
#     4  11  23  41  70 108 141 191 239 291 362 437
#     4  10  22  41  71  97 133 195 243 295 358 423
#     4   9  20  39  67 101 142 186 239 285 352 434
#     4  10  22  41  68 103 134 187 242 295 354 414
#     4  11  25  43  67 107 150 186 232 297 368 434
#     4  10  21  39  67  98 142 173 238 298 339 426
#
# _framework density 24.443560000000002
#
# number of rings (size 3 to 8) (size 9 to 14) (size 15 to 20)
#    0.000    2.000    1.250    3.750    1.750    3.500 
#    2.250    3.125    0.000    0.000    0.000    0.000 
#    0.000    0.000    0.000    0.000    0.000    0.000 
#
# Total GULP energy -89094.632179 kJ/mol
# GULP energy per Si atom -5568.414511 kJ/mol
# Density = 2.438793 g / cm^3
# Si number density = 24.443560 Si / 1000 Ang^3
#
#
#
# Elastic Constant Matrix: (Units=GPa)
#
#
# Indices 1 2 3 4 5 6 
#
# 1 149.4115 32.6932 33.6434 -11.7115 -15.7794 -7.2841
# 2 32.6932 82.4685 34.9971 -14.8788 -3.5511 -17.0206
# 3 33.6434 34.9971 139.2550 -1.8386 16.1448 2.8927
# 4 -11.7115 -14.8788 -1.8386 35.7986 -1.5004 1.5683
# 5 -15.7794 -3.5511 16.1448 -1.5004 30.3211 -11.7107
# 6 -7.2841 -17.0206 2.8927 1.5683 -11.7107 40.0851
#
#
#
# Elastic Compliance Matrix: (Units=1/GPa)
#
#
# Indices 1 2 3 4 5 6 
#
# 1 0.008632 -0.000737 -0.002795 0.002529 0.007376 0.003513
# 2 -0.000737 0.018769 -0.005753 0.007188 0.009369 0.010707
# 3 -0.002795 -0.005753 0.010620 -0.002908 -0.010504 -0.006672
# 4 0.002529 0.007188 -0.002908 0.031696 0.007026 0.004534
# 5 0.007376 0.009369 -0.010504 0.007026 0.051960 0.020982
# 6 0.003513 0.010707 -0.006672 0.004534 0.020982 0.036565
#
#
# Mechanical properties :
#
#
# Convention : Reuss Voigt Hill
#
# Bulk Modulus (GPa) = 51.40791 63.75583 57.58187
# Shear Modulus (GPa) = 27.27830 39.22771 33.25300
#
# Velocity S-wave (km/s) = 3.34424 4.01038 3.69236
# Velocity P-wave (km/s) = 5.99907 6.89809 6.46423
#
# Compressibility (1/GPa) = 0.01945226
#
# Stress axis : x y z
#
# Youngs Moduli (GPa) = 115.84664 53.27884 94.16127
#
# Poissons Ratio (x) = 0.03925 0.26319
# Poissons Ratio (y) = 0.08535 0.54168
# Poissons Ratio (z) = 0.32380 0.30650
#
# Static dielectric constant tensor:
#      x y z
#    x 2.007130 -0.057380 0.050110 
#    y -0.057380 2.346200 0.194580 
#    z 0.050110 0.194580 2.472960 
# 
# From -- ./inp_files/406415.got.cif
#   From: 2010.05.17/outbox.cif.g08.bks.cpg/sg2_204_cif.got.tgz:406415.got - 2010.06.03 11:33:40.
