data_PCOD9009655
_publ_section_title
;
Structure prediction by ZEFSAII (Michael W. Deem and Ramdas Pophale) SiO2 
 PCOD9009655
Probable space group: P -1
;
_chemical_formula_sum "Si O2"
_cell_formula_units_Z 15
_cell_length_a 21.889590
_cell_length_b 18.591652
_cell_length_c 9.389601
_cell_angle_alpha 131.738594
_cell_angle_beta 38.226499
_cell_angle_gamma 162.279085
_cell_volume 646.862692
_symmetry_space_group_name_H-M "P -1"
_symmetry_group_IT_number 2
_symmetry_cell_setting 'triclinic'
loop_
_space_group_symop_operation_xyz
x,y,z
-x,-y,-z
loop_
_atom_site_type_symbol
_atom_site_label
_atom_site_fract_x
_atom_site_fract_y
_atom_site_fract_z
Si Si1 0.736332 0.364017 0.243089
Si Si2 0.434924 0.537025 0.578594
Si Si3 0.647799 0.094709 0.215334
Si Si4 0.838724 0.965520 0.891440
Si Si5 0.589899 0.833205 0.901798
Si Si6 0.500000 0.500000 0.000000
Si Si7 0.861802 0.642418 0.585002
Si Si8 0.756638 0.959469 0.352073
O O1 0.653744 0.181375 0.196169
O O2 0.765515 0.451691 0.452430
O O3 0.501056 0.204346 0.378267
O O4 0.032023 0.634510 0.986698
O O5 0.500000 0.500000 0.500000
O O6 0.423409 0.613744 0.813242
O O7 0.657648 0.768849 0.356969
O O8 0.147471 0.261476 0.670152
O O9 0.500000 0.000000 0.500000
O O10 0.508490 0.869578 0.122692
O O11 0.648489 0.838022 0.952100
O O12 0.775995 0.797616 0.817577
O O13 0.815528 0.995788 0.127684
O O14 0.876369 0.099031 0.648776
O O15 0.351230 0.467894 0.200281
O O16 0.984897 0.763322 0.676228
#
# Coordination Sequence:
#
# PCOD9009655 Si02
#       8
#     2   2   2   2   2   1   2   2
#     4  10  21  43  66  98 138 175 225 286 340 405
#     4  11  26  44  66  96 139 181 224 280 340 406
#     4  10  21  39  72 100 131 183 226 277 349 406
#     4  12  26  40  67  98 135 179 227 279 336 410
#     4  10  24  46  67  98 142 178 224 284 342 405
#     4  12  26  40  68 102 132 180 232 274 344 406
#     4  10  23  44  67  98 140 182 228 284 340 407
#     4  11  24  44  68 100 138 180 233 281 341 406
#
# _framework density 23.188846000000002
#
# number of rings (size 3 to 8) (size 9 to 14) (size 15 to 20)
#    0.000    1.333    1.333    4.000    3.733    2.133 
#    0.000   12.000    0.000   15.200    0.000    0.000 
#    0.000    0.000    0.000    0.000    0.000    0.000 
#
# Total GULP energy -83699.989156 kJ/mol
# GULP energy per Si atom -5579.999277 kJ/mol
# Density = 2.313607 g / cm^3
# Si number density = 23.188846 Si / 1000 Ang^3
#
#
#
# Elastic Constant Matrix: (Units=GPa)
#
#
# Indices 1 2 3 4 5 6 
#
# 1 71.0385 27.9132 8.6098 21.0875 -1.2544 1.8300
# 2 27.9132 119.1884 12.2074 21.4611 -6.1953 -2.6345
# 3 8.6098 12.2074 100.7094 13.0181 2.1142 11.6080
# 4 21.0875 21.4611 13.0181 26.4393 -0.2099 -5.4573
# 5 -1.2544 -6.1953 2.1142 -0.2099 45.1798 2.8534
# 6 1.8300 -2.6345 11.6080 -5.4573 2.8534 40.4922
#
#
#
# Elastic Compliance Matrix: (Units=1/GPa)
#
#
# Indices 1 2 3 4 5 6 
#
# 1 0.019247 -0.001977 0.000885 -0.014857 0.000360 -0.003280
# 2 -0.001977 0.010121 -0.000219 -0.006554 0.001323 -0.000166
# 3 0.000885 -0.000219 0.011269 -0.006946 -0.000300 -0.004200
# 4 -0.014857 -0.006554 -0.006946 0.060567 -0.001368 0.010495
# 5 0.000360 0.001323 -0.000300 -0.001368 0.022435 -0.001609
# 6 -0.003280 -0.000166 -0.004200 0.010495 -0.001609 0.027565
#
#
# Mechanical properties :
#
#
# Convention : Reuss Voigt Hill
#
# Bulk Modulus (GPa) = 26.30571 43.15523 34.73047
# Shear Modulus (GPa) = 30.03043 38.56933 34.29988
#
# Velocity S-wave (km/s) = 3.60257 4.08275 3.85015
# Velocity P-wave (km/s) = 5.35476 6.39342 5.89700
#
# Compressibility (1/GPa) = 0.03801456
#
# Stress axis : x y z
#
# Youngs Moduli (GPa) = 51.95522 98.80650 88.74188
#
# Poissons Ratio (x) = 0.19534 -0.07854
# Poissons Ratio (y) = 0.10271 0.01945
# Poissons Ratio (z) = -0.04598 0.02166
#
# Static dielectric constant tensor:
#      x y z
#    x 1.861230 0.001940 0.049710 
#    y 0.001940 1.922540 -0.019470 
#    z 0.049710 -0.019470 1.920500 
# 
# From -- ./inp_files/348566.got.cif
#   From: 2010.05.17/outbox.cif.g08.bks.cpg/sg2_175_cif.got.tgz:348566.got - 2010.06.03 11:33:40.
