data_PCOD9009832
_publ_section_title
;
Structure prediction by ZEFSAII (Michael W. Deem and Ramdas Pophale) SiO2 
 PCOD9009832
Probable space group: P -1
;
_chemical_formula_sum "Si O2"
_cell_formula_units_Z 14
_cell_length_a 9.529552
_cell_length_b 9.631182
_cell_length_c 7.330493
_cell_angle_alpha 100.959395
_cell_angle_beta 118.568082
_cell_angle_gamma 92.761954
_cell_volume 572.510203
_symmetry_space_group_name_H-M "P -1"
_symmetry_group_IT_number 2
_symmetry_cell_setting 'triclinic'
loop_
_space_group_symop_operation_xyz
x,y,z
-x,-y,-z
loop_
_atom_site_type_symbol
_atom_site_label
_atom_site_fract_x
_atom_site_fract_y
_atom_site_fract_z
Si Si1 0.973144 0.661379 0.008804
Si Si2 0.114222 0.117526 0.222889
Si Si3 0.327937 0.210475 0.070036
Si Si4 0.690096 0.948437 0.344472
Si Si5 0.264896 0.730522 0.454285
Si Si6 0.535670 0.330758 0.761960
Si Si7 0.342442 0.577863 0.769303
O O1 0.119038 0.748993 0.234637
O O2 0.807295 0.686809 0.007001
O O3 0.000000 0.500000 0.000000
O O4 0.957636 0.735669 0.820897
O O5 0.157234 0.080255 0.444394
O O6 0.286090 0.144802 0.227037
O O7 0.000000 0.000000 0.000000
O O8 0.292707 0.088232 0.865686
O O9 0.497516 0.309440 0.164788
O O10 0.536938 0.833624 0.284996
O O11 0.666069 0.110507 0.396688
O O12 0.384484 0.656422 0.382238
O O13 0.211903 0.625295 0.564660
O O14 0.390740 0.423179 0.721761
O O15 0.665400 0.389251 0.014059
#
# Coordination Sequence:
#
# PCOD9009832 Si02
#       7
#     2   2   2   2   2   2   2
#     4  10  23  41  62  89 121 156 203 245 300 353
#     4  10  21  40  60  85 121 161 192 243 300 354
#     4   9  22  41  64  83 126 156 197 245 303 353
#     4  11  22  40  62  90 119 162 201 240 303 354
#     4  12  23  37  62  94 119 155 203 250 293 352
#     4  10  23  39  63  89 123 155 203 243 300 358
#     4  10  22  42  63  88 120 162 197 247 300 349
#
# _framework density 24.453711999999999
#
# number of rings (size 3 to 8) (size 9 to 14) (size 15 to 20)
#    0.857    0.857    1.429    2.571    2.000    5.714 
#    2.571    0.714    0.000    0.000    0.000    0.000 
#    0.000    0.000    0.000    0.000    0.000    0.000 
#
# Total GULP energy -78242.004972 kJ/mol
# GULP energy per Si atom -5588.714641 kJ/mol
# Density = 2.439805 g / cm^3
# Si number density = 24.453712 Si / 1000 Ang^3
#
#
#
# Elastic Constant Matrix: (Units=GPa)
#
#
# Indices 1 2 3 4 5 6 
#
# 1 28.8439 7.0093 16.1314 7.9313 -11.8797 -5.9063
# 2 7.0093 114.4987 11.9127 5.8301 -20.6060 -20.4338
# 3 16.1314 11.9127 67.6132 -12.8464 -26.6619 -15.1689
# 4 7.9313 5.8301 -12.8464 40.4973 3.1207 1.9576
# 5 -11.8797 -20.6060 -26.6619 3.1207 35.9517 4.1580
# 6 -5.9063 -20.4338 -15.1689 1.9576 4.1580 28.0643
#
#
#
# Elastic Compliance Matrix: (Units=1/GPa)
#
#
# Indices 1 2 3 4 5 6 
#
# 1 0.048755 0.001697 -0.008840 -0.013738 0.011021 0.006044
# 2 0.001697 0.011564 0.002317 -0.002319 0.008068 0.008996
# 3 -0.008840 0.002317 0.027116 0.008175 0.016480 0.011471
# 4 -0.013738 -0.002319 0.008175 0.030578 -0.002233 -0.001963
# 5 0.011021 0.008068 0.016480 -0.002233 0.047311 0.010247
# 6 0.006044 0.008996 0.011471 -0.001963 0.010247 0.048273
#
#
# Mechanical properties :
#
#
# Convention : Reuss Voigt Hill
#
# Bulk Modulus (GPa) = 12.85635 31.22917 22.04276
# Shear Modulus (GPa) = 20.06601 32.62947 26.34774
#
# Velocity S-wave (km/s) = 2.86767 3.65682 3.28602
# Velocity P-wave (km/s) = 4.02909 5.53428 4.84055
#
# Compressibility (1/GPa) = 0.07778257
#
# Stress axis : x y z
#
# Youngs Moduli (GPa) = 20.51066 86.47381 36.87847
#
# Poissons Ratio (x) = -0.14671 0.32599
# Poissons Ratio (y) = -0.03480 -0.08543
# Poissons Ratio (z) = 0.18131 -0.20033
#
# Static dielectric constant tensor:
#      x y z
#    x 1.925600 0.008700 0.056020 
#    y 0.008700 1.922840 -0.006420 
#    z 0.056020 -0.006420 2.030560 
# 
# From -- ./inp_files/240049.got.cif
#   From: 2010.05.17/outbox.cif.g08.bks.cpg/sg2_121_cif.got.tgz:240049.got - 2010.06.03 11:33:40.
