data_PCOD9009591
_publ_section_title
;
Structure prediction by ZEFSAII (Michael W. Deem and Ramdas Pophale) SiO2 
 PCOD9009591
Probable space group: P -1
;
_chemical_formula_sum "Si O2"
_cell_formula_units_Z 16
_cell_length_a 7.731015
_cell_length_b 6.981921
_cell_length_c 20.206549
_cell_angle_alpha 48.989916
_cell_angle_beta 73.428000
_cell_angle_gamma 73.082655
_cell_volume 780.673820
_symmetry_space_group_name_H-M "P -1"
_symmetry_group_IT_number 2
_symmetry_cell_setting 'triclinic'
loop_
_space_group_symop_operation_xyz
x,y,z
-x,-y,-z
loop_
_atom_site_type_symbol
_atom_site_label
_atom_site_fract_x
_atom_site_fract_y
_atom_site_fract_z
Si Si1 0.946472 0.300632 0.275943
Si Si2 0.271434 0.624638 0.956332
Si Si3 0.405924 0.752004 0.048284
Si Si4 0.467666 0.681541 0.654001
Si Si5 0.945265 0.785516 0.861351
Si Si6 0.790677 0.354634 0.770443
Si Si7 0.996123 0.780824 0.464801
Si Si8 0.321548 0.897747 0.489230
O O1 0.727822 0.360292 0.287288
O O2 0.011849 0.338605 0.186294
O O3 0.051419 0.467079 0.276954
O O4 0.995024 0.004745 0.359869
O O5 0.450948 0.503867 0.924544
O O6 0.125549 0.769213 0.889883
O O7 0.305796 0.791076 0.979167
O O8 0.190169 0.376326 0.049294
O O9 0.284792 0.695931 0.136502
O O10 0.500000 0.000000 0.000000
O O11 0.627471 0.483442 0.712526
O O12 0.429133 0.703863 0.574231
O O13 0.534542 0.957226 0.598274
O O14 0.865406 0.079491 0.795611
O O15 0.179737 0.775603 0.488365
O O16 0.000000 0.500000 0.500000
O O17 0.815669 0.884115 0.504595
#
# Coordination Sequence:
#
# PCOD9009591 Si02
#       8
#     2   2   2   2   2   2   2   2
#     4  11  24  43  61  98 135 167 214 273 321 383
#     4  10  23  42  64  95 129 162 215 272 315 391
#     4  11  22  42  67  94 127 171 216 262 328 386
#     4  10  22  42  67  91 131 170 212 267 322 379
#     4  11  24  41  64  94 128 166 215 269 324 377
#     4  12  24  42  66  95 130 176 214 268 327 380
#     4  10  21  39  70  95 127 171 214 262 327 383
#     4   9  20  42  64  93 129 167 213 266 317 388
#
# _framework density 20.495118000000002
#
# number of rings (size 3 to 8) (size 9 to 14) (size 15 to 20)
#    0.000    1.500    3.750    0.750    1.750    2.500 
#    0.000    9.375    0.000    0.000    0.000    0.000 
#    0.000    0.000    0.000    0.000    0.000    0.000 
#
# Total GULP energy -89357.601563 kJ/mol
# GULP energy per Si atom -5584.850098 kJ/mol
# Density = 2.044847 g / cm^3
# Si number density = 20.495118 Si / 1000 Ang^3
#
#
#
# Elastic Constant Matrix: (Units=GPa)
#
#
# Indices 1 2 3 4 5 6 
#
# 1 141.2396 44.6925 29.2273 -4.8424 18.7968 23.4152
# 2 44.6925 53.8792 22.4544 -11.9757 20.5606 16.7970
# 3 29.2273 22.4544 51.3604 -12.6915 7.7200 -0.0804
# 4 -4.8424 -11.9757 -12.6915 21.3586 -2.1914 -5.4663
# 5 18.7968 20.5606 7.7200 -2.1914 37.6019 11.2007
# 6 23.4152 16.7970 -0.0804 -5.4663 11.2007 25.6166
#
#
#
# Elastic Compliance Matrix: (Units=1/GPa)
#
#
# Indices 1 2 3 4 5 6 
#
# 1 0.011104 -0.006337 -0.005178 -0.005986 0.000919 -0.007690
# 2 -0.006337 0.037829 -0.008615 0.010462 -0.011650 -0.011714
# 3 -0.005178 -0.008615 0.030445 0.015646 -0.002478 0.014900
# 4 -0.005986 0.010462 0.015646 0.063831 -0.006759 0.015237
# 5 0.000919 -0.011650 -0.002478 -0.006759 0.035673 -0.010249
# 6 -0.007690 -0.011714 0.014900 0.015237 -0.010249 0.061527
#
#
# Mechanical properties :
#
#
# Convention : Reuss Voigt Hill
#
# Bulk Modulus (GPa) = 25.56262 48.80308 37.18285
# Shear Modulus (GPa) = 17.02370 26.92242 21.97306
#
# Velocity S-wave (km/s) = 2.88518 3.62830 3.27786
# Velocity P-wave (km/s) = 4.85784 6.43556 5.70154
#
# Compressibility (1/GPa) = 0.03911961
#
# Stress axis : x y z
#
# Youngs Moduli (GPa) = 90.05626 26.43467 32.84596
#
# Poissons Ratio (x) = 0.16751 0.17008
# Poissons Ratio (y) = 0.57065 0.28296
# Poissons Ratio (z) = 0.46632 0.22773
#
# Static dielectric constant tensor:
#      x y z
#    x 1.768050 -0.011020 -0.012180 
#    y -0.011020 1.709390 0.015580 
#    z -0.012180 0.015580 1.732390 
# 
# From -- ./inp_files/585072.got.cif
#   From: 2010.05.17/outbox.cif.g08.bks.cpg/sg2_293_cif.got.tgz:585072.got - 2010.06.03 11:33:40.
