data_PCOD9009876
_publ_section_title
;
Structure prediction by ZEFSAII (Michael W. Deem and Ramdas Pophale) SiO2 
 PCOD9009876
Probable space group: P -1
;
_chemical_formula_sum "Si O2"
_cell_formula_units_Z 16
_cell_length_a 14.141870
_cell_length_b 8.764507
_cell_length_c 11.513952
_cell_angle_alpha 111.215961
_cell_angle_beta 45.269740
_cell_angle_gamma 128.627443
_cell_volume 784.301208
_symmetry_space_group_name_H-M "P -1"
_symmetry_group_IT_number 2
_symmetry_cell_setting 'triclinic'
loop_
_space_group_symop_operation_xyz
x,y,z
-x,-y,-z
loop_
_atom_site_type_symbol
_atom_site_label
_atom_site_fract_x
_atom_site_fract_y
_atom_site_fract_z
Si Si1 0.659086 0.711377 0.447277
Si Si2 0.435421 0.843845 0.688558
Si Si3 0.439506 0.459964 0.908755
Si Si4 0.157829 0.216299 0.926694
Si Si5 0.635895 0.293110 0.651264
Si Si6 0.190218 0.491906 0.640684
Si Si7 0.376500 0.775471 0.080861
Si Si8 0.143434 0.597620 0.045773
O O1 0.500000 0.500000 0.500000
O O2 0.587049 0.832493 0.589000
O O3 0.741828 0.779697 0.268957
O O4 0.773722 0.676206 0.417953
O O5 0.338311 0.687811 0.627671
O O6 0.513419 0.070025 0.652873
O O7 0.294012 0.761535 0.883496
O O8 0.263124 0.277953 0.971263
O O9 0.556834 0.416313 0.732341
O O10 0.500000 0.500000 0.000000
O O11 0.441315 0.652136 0.931830
O O12 0.126759 0.390034 0.986470
O O13 0.000000 0.000000 0.000000
O O14 0.800050 0.425449 0.474474
O O15 0.642850 0.264129 0.775491
O O16 0.026422 0.430794 0.829185
O O17 0.204052 0.680006 0.145736
O O18 0.500000 0.000000 0.000000
#
# Coordination Sequence:
#
# PCOD9009876 Si02
#       8
#     2   2   2   2   2   2   2   2
#     4  10  21  40  60  90 127 171 205 253 319 381
#     4  11  22  39  64  90 124 169 210 249 314 381
#     4   9  21  40  61  94 121 165 218 257 301 381
#     4  11  23  37  64  94 134 166 203 268 331 369
#     4  11  23  37  66  90 123 163 216 260 297 387
#     4  11  24  37  59  97 130 158 203 266 325 362
#     4  10  21  42  66  90 116 174 216 254 309 377
#     4  11  23  40  63  91 129 162 209 262 318 373
#
# _framework density 20.400326
#
# number of rings (size 3 to 8) (size 9 to 14) (size 15 to 20)
#    0.000    1.500    3.750    2.250    5.250    0.500 
#    0.000    0.000    0.000    1.500    0.000    0.000 
#    0.000    0.000    0.000    0.000    0.000    0.000 
#
# Total GULP energy -89149.285667 kJ/mol
# GULP energy per Si atom -5571.830354 kJ/mol
# Density = 2.035389 g / cm^3
# Si number density = 20.400326 Si / 1000 Ang^3
#
#
#
# Elastic Constant Matrix: (Units=GPa)
#
#
# Indices 1 2 3 4 5 6 
#
# 1 91.1209 27.0555 44.5910 -6.8646 0.5914 5.4008
# 2 27.0555 94.1183 41.8476 -6.9552 -9.3208 6.1606
# 3 44.5910 41.8476 131.5460 -17.4164 -10.9006 -10.3899
# 4 -6.8646 -6.9552 -17.4164 27.3058 -3.7523 -4.1459
# 5 0.5914 -9.3208 -10.9006 -3.7523 31.3094 5.5003
# 6 5.4008 6.1606 -10.3899 -4.1459 5.5003 23.2427
#
#
#
# Elastic Compliance Matrix: (Units=1/GPa)
#
#
# Indices 1 2 3 4 5 6 
#
# 1 0.014110 -0.001843 -0.004846 -0.000974 -0.001792 -0.004706
# 2 -0.001843 0.013621 -0.003819 0.000219 0.003796 -0.005749
# 3 -0.004846 -0.003819 0.012299 0.007279 0.002650 0.008307
# 4 -0.000974 0.000219 0.007279 0.043391 0.006111 0.009716
# 5 -0.001792 0.003796 0.002650 0.006111 0.035957 -0.006824
# 6 -0.004706 -0.005749 0.008307 0.009716 -0.006824 0.052703
#
#
# Mechanical properties :
#
#
# Convention : Reuss Voigt Hill
#
# Bulk Modulus (GPa) = 52.59075 60.41926 56.50501
# Shear Modulus (GPa) = 25.07084 29.92432 27.49758
#
# Velocity S-wave (km/s) = 3.50943 3.83411 3.67536
# Velocity P-wave (km/s) = 6.50052 7.02009 6.76530
#
# Compressibility (1/GPa) = 0.01901475
#
# Stress axis : x y z
#
# Youngs Moduli (GPa) = 70.87060 73.41530 81.30867
#
# Poissons Ratio (x) = 0.13530 0.39401
# Poissons Ratio (y) = 0.13061 0.31051
# Poissons Ratio (z) = 0.34343 0.28036
#
# Static dielectric constant tensor:
#      x y z
#    x 1.837130 -0.009370 0.035870 
#    y -0.009370 1.702070 0.042890 
#    z 0.035870 0.042890 1.736850 
# 
# From -- ./inp_files/331860.got.cif
#   From: 2010.05.17/outbox.cif.g08.bks.cpg/sg2_166_cif.got.tgz:331860.got - 2010.06.03 11:33:40.
