data_PCOD9009645
_publ_section_title
;
Structure prediction by ZEFSAII (Michael W. Deem and Ramdas Pophale) SiO2 
 PCOD9009645
Probable space group: P -1
;
_chemical_formula_sum "Si O2"
_cell_formula_units_Z 15
_cell_length_a 7.336555
_cell_length_b 7.835901
_cell_length_c 12.698366
_cell_angle_alpha 72.644484
_cell_angle_beta 129.534314
_cell_angle_gamma 94.873453
_cell_volume 531.895978
_symmetry_space_group_name_H-M "P -1"
_symmetry_group_IT_number 2
_symmetry_cell_setting 'triclinic'
loop_
_space_group_symop_operation_xyz
x,y,z
-x,-y,-z
loop_
_atom_site_type_symbol
_atom_site_label
_atom_site_fract_x
_atom_site_fract_y
_atom_site_fract_z
Si Si1 0.730856 0.313929 0.413125
Si Si2 0.107831 0.359347 0.712526
Si Si3 0.203223 0.392334 0.298204
Si Si4 0.650334 0.929067 0.463262
Si Si5 0.697365 0.127229 0.825261
Si Si6 0.069272 0.251197 0.063117
Si Si7 0.500000 0.000000 0.000000
Si Si8 0.539037 0.705319 0.967385
O O1 0.762580 0.477699 0.315849
O O2 0.484233 0.374799 0.375790
O O3 0.966445 0.285638 0.579037
O O4 0.712883 0.113018 0.401504
O O5 0.296266 0.234770 0.880534
O O6 0.903611 0.439149 0.703226
O O7 0.161677 0.225768 0.390420
O O8 0.063229 0.362563 0.145797
O O9 0.508429 0.827460 0.343720
O O10 0.500000 0.000000 0.500000
O O11 0.871609 0.966297 0.861215
O O12 0.599256 0.045290 0.908707
O O13 0.840805 0.276900 0.898884
O O14 0.303960 0.290842 0.078815
O O15 0.329666 0.856269 0.898344
O O16 0.500000 0.500000 0.000000
#
# Coordination Sequence:
#
# PCOD9009645 Si02
#       8
#     2   2   2   2   2   2   1   2
#     4  10  23  45  64 103 144 181 239 301 348 440
#     4  11  26  43  70  99 141 190 236 293 368 430
#     4  11  23  43  72 103 139 188 232 296 363 428
#     4  10  21  39  71  98 137 188 232 297 357 419
#     4  10  21  40  69 102 137 184 236 297 357 428
#     4  10  22  40  66 102 140 179 243 294 353 436
#     4  10  26  46  72 102 144 192 236 302 368 432
#     4  11  26  47  70 102 146 189 238 304 361 432
#
# _framework density 28.201003
#
# number of rings (size 3 to 8) (size 9 to 14) (size 15 to 20)
#    0.000    1.600    2.667    1.200    7.467    4.267 
#    2.400    0.000    0.000    0.000    0.000    0.000 
#    0.000    0.000    0.000    0.000    0.000    0.000 
#
# Total GULP energy -83844.335049 kJ/mol
# GULP energy per Si atom -5589.622337 kJ/mol
# Density = 2.813682 g / cm^3
# Si number density = 28.201003 Si / 1000 Ang^3
#
#
#
# Elastic Constant Matrix: (Units=GPa)
#
#
# Indices 1 2 3 4 5 6 
#
# 1 92.4866 21.3656 28.6125 1.1062 -0.9485 6.3361
# 2 21.3656 131.6724 49.1742 26.4629 -0.7754 8.9343
# 3 28.6125 49.1742 183.8580 18.2138 -18.2155 19.1038
# 4 1.1062 26.4629 18.2138 44.4095 1.0446 2.3759
# 5 -0.9485 -0.7754 -18.2155 1.0446 37.4012 -1.1522
# 6 6.3361 8.9343 19.1038 2.3759 -1.1522 52.2819
#
#
#
# Elastic Compliance Matrix: (Units=1/GPa)
#
#
# Indices 1 2 3 4 5 6 
#
# 1 0.011662 -0.001546 -0.001513 0.001300 -0.000530 -0.000667
# 2 -0.001546 0.009539 -0.001832 -0.004849 -0.000616 -0.000566
# 3 -0.001513 -0.001832 0.006843 -0.001654 0.003245 -0.001857
# 4 0.001300 -0.004849 -0.001654 0.026088 -0.001600 0.000055
# 5 -0.000530 -0.000616 0.003245 -0.001600 0.028326 -0.000319
# 6 -0.000667 -0.000566 -0.001857 0.000055 -0.000319 0.019974
#
#
# Mechanical properties :
#
#
# Convention : Reuss Voigt Hill
#
# Bulk Modulus (GPa) = 54.76329 67.36908 61.06618
# Shear Modulus (GPa) = 42.26398 47.40948 44.83673
#
# Velocity S-wave (km/s) = 3.87547 4.10460 3.99168
# Velocity P-wave (km/s) = 6.28385 6.81208 6.55329
#
# Compressibility (1/GPa) = 0.01826041
#
# Stress axis : x y z
#
# Youngs Moduli (GPa) = 85.74501 104.82953 146.13593
#
# Poissons Ratio (x) = 0.16210 0.22116
# Poissons Ratio (y) = 0.13259 0.26779
# Poissons Ratio (z) = 0.12976 0.19210
#
# Static dielectric constant tensor:
#      x y z
#    x 2.274340 -0.066920 0.115840 
#    y -0.066920 2.634910 -0.182500 
#    z 0.115840 -0.182500 2.283810 
# 
# From -- ./inp_files/382127.got.cif
#   From: 2010.05.17/outbox.cif.g08.bks.cpg/sg2_192_cif.got.tgz:382127.got - 2010.06.03 11:33:40.
