data_PCOD9009055
_publ_section_title
;
Structure prediction by ZEFSAII (Michael W. Deem and Ramdas Pophale) SiO2 
 PCOD9009055
Probable space group: P -1
;
_chemical_formula_sum "Si O2"
_cell_formula_units_Z 14
_cell_length_a 9.463451
_cell_length_b 9.862338
_cell_length_c 7.941680
_cell_angle_alpha 103.228725
_cell_angle_beta 126.617797
_cell_angle_gamma 64.581494
_cell_volume 536.951670
_symmetry_space_group_name_H-M "P -1"
_symmetry_group_IT_number 2
_symmetry_cell_setting 'triclinic'
loop_
_space_group_symop_operation_xyz
x,y,z
-x,-y,-z
loop_
_atom_site_type_symbol
_atom_site_label
_atom_site_fract_x
_atom_site_fract_y
_atom_site_fract_z
Si Si1 0.657985 0.618842 0.966081
Si Si2 0.149154 0.580150 0.651454
Si Si3 0.647161 0.617904 0.553291
Si Si4 0.841234 0.839140 0.107824
Si Si5 0.766254 0.159261 0.292006
Si Si6 0.703454 0.906382 0.691945
Si Si7 0.778892 0.175626 0.705040
O O1 0.665388 0.585395 0.758897
O O2 0.445777 0.736027 0.888904
O O3 0.730160 0.482853 0.110565
O O4 0.800548 0.706530 0.128591
O O5 0.273727 0.523345 0.552376
O O6 0.096820 0.758638 0.655697
O O7 0.000000 0.500000 0.500000
O O8 0.754568 0.733746 0.626753
O O9 0.570756 0.293825 0.634007
O O10 0.040162 0.778625 0.130967
O O11 0.828046 0.987132 0.236565
O O12 0.676825 0.899152 0.869950
O O13 0.763078 0.160122 0.490038
O O14 0.500000 0.000000 0.500000
O O15 0.816799 0.013782 0.767812
#
# Coordination Sequence:
#
# PCOD9009055 Si02
#       7
#     2   2   2   2   2   2   2
#     4  10  24  46  67  96 134 182 227 277 341 389
#     4  12  27  46  69  98 136 184 224 277 339 408
#     4   9  23  44  68  96 135 177 228 274 335 409
#     4  11  22  40  70 104 132 172 227 284 332 401
#     4  11  25  42  65 104 135 177 223 274 346 401
#     4   9  20  38  62  99 127 175 217 274 337 380
#     4  10  21  39  66  99 133 170 222 280 336 387
#
# _framework density 26.07311
#
# number of rings (size 3 to 8) (size 9 to 14) (size 15 to 20)
#    0.000    1.714    0.000    3.429    8.000    2.857 
#    2.571    0.000    0.000    0.000    0.000    0.000 
#    0.000    0.000    0.000    0.000    0.000    0.000 
#
# Total GULP energy -78340.314590 kJ/mol
# GULP energy per Si atom -5595.736756 kJ/mol
# Density = 2.601377 g / cm^3
# Si number density = 26.073110 Si / 1000 Ang^3
#
#
#
# Elastic Constant Matrix: (Units=GPa)
#
#
# Indices 1 2 3 4 5 6 
#
# 1 77.0056 30.3105 10.3867 10.1017 10.9747 17.7731
# 2 30.3105 135.5995 24.4492 6.8141 -17.5371 26.3805
# 3 10.3867 24.4492 89.0737 -16.2501 -4.5260 -0.4979
# 4 10.1017 6.8141 -16.2501 36.2427 12.1861 0.8294
# 5 10.9747 -17.5371 -4.5260 12.1861 38.6936 5.6992
# 6 17.7731 26.3805 -0.4979 0.8294 5.6992 51.6121
#
#
#
# Elastic Compliance Matrix: (Units=1/GPa)
#
#
# Indices 1 2 3 4 5 6 
#
# 1 0.016356 -0.003091 -0.001894 -0.003148 -0.004756 -0.003495
# 2 -0.003091 0.010971 -0.003225 -0.005178 0.007893 -0.005363
# 3 -0.001894 -0.003225 0.013686 0.007953 -0.002203 0.002548
# 4 -0.003148 -0.005178 0.007953 0.037253 -0.012939 0.004637
# 5 -0.004756 0.007893 -0.002203 -0.012939 0.035490 -0.006129
# 6 -0.003495 -0.005363 0.002548 0.004637 -0.006129 0.023947
#
#
# Mechanical properties :
#
#
# Convention : Reuss Voigt Hill
#
# Bulk Modulus (GPa) = 40.66252 47.99685 44.32968
# Shear Modulus (GPa) = 30.80333 41.07851 35.94092
#
# Velocity S-wave (km/s) = 3.44091 3.97358 3.71680
# Velocity P-wave (km/s) = 5.60499 6.28498 5.95470
#
# Compressibility (1/GPa) = 0.02459267
#
# Stress axis : x y z
#
# Youngs Moduli (GPa) = 61.14102 91.14642 73.06857
#
# Poissons Ratio (x) = 0.28177 0.13840
# Poissons Ratio (y) = 0.18901 0.23561
# Poissons Ratio (z) = 0.11581 0.29390
#
# Static dielectric constant tensor:
#      x y z
#    x 2.109850 0.015870 0.074880 
#    y 0.015870 2.086370 0.028800 
#    z 0.074880 0.028800 2.057500 
# 
# From -- ./inp_files/240018.got.cif
#   From: 2010.05.17/outbox.cif.g08.bks.cpg/sg2_121_cif.got.tgz:240018.got - 2010.06.03 11:33:40.
