data_PCOD9009533
_publ_section_title
;
Structure prediction by ZEFSAII (Michael W. Deem and Ramdas Pophale) SiO2 
 PCOD9009533
Probable space group: P -1
;
_chemical_formula_sum "Si O2"
_cell_formula_units_Z 16
_cell_length_a 18.049846
_cell_length_b 15.766804
_cell_length_c 24.813632
_cell_angle_alpha 19.355730
_cell_angle_beta 20.521269
_cell_angle_gamma 30.887165
_cell_volume 800.571615
_symmetry_space_group_name_H-M "P -1"
_symmetry_group_IT_number 2
_symmetry_cell_setting 'triclinic'
loop_
_space_group_symop_operation_xyz
x,y,z
-x,-y,-z
loop_
_atom_site_type_symbol
_atom_site_label
_atom_site_fract_x
_atom_site_fract_y
_atom_site_fract_z
Si Si1 0.920445 0.972961 0.509518
Si Si2 0.057877 0.417534 0.595584
Si Si3 0.052301 0.267893 0.066688
Si Si4 0.398374 0.630043 0.540600
Si Si5 0.210752 0.986985 0.898973
Si Si6 0.220018 0.243169 0.484516
Si Si7 0.244060 0.919211 0.229191
Si Si8 0.594306 0.435650 0.032285
O O1 0.785936 0.679748 0.767374
O O2 0.131068 0.998085 0.312723
O O3 0.753451 0.162967 0.495666
O O4 0.000000 0.000000 0.500000
O O5 0.207851 0.299982 0.522333
O O6 0.172811 0.609187 0.449782
O O7 0.946419 0.606369 0.521838
O O8 0.879855 0.187653 0.881984
O O9 0.148315 0.080749 0.152634
O O10 0.233878 0.402463 0.820422
O O11 0.854689 0.066675 0.292528
O O12 0.000000 0.500000 0.000000
O O13 0.500000 0.500000 0.500000
O O14 0.605819 0.768701 0.352110
O O15 0.332976 0.828600 0.871171
O O16 0.000000 0.000000 0.000000
O O17 0.437391 0.377563 0.224995
O O18 0.500000 0.000000 0.000000
O O19 0.500000 0.500000 0.000000
#
# Coordination Sequence:
#
# PCOD9009533 Si02
#       8
#     2   2   2   2   2   2   2   2
#     4  12  27  45  71 103 138 178 234 286 337 416
#     4  10  21  42  65  95 130 166 231 271 327 399
#     4  11  22  42  67  95 137 180 227 271 347 408
#     4  12  27  44  69 101 141 182 221 285 350 402
#     4  12  26  43  68  99 136 181 226 279 339 403
#     4  10  21  39  69  98 124 176 225 281 324 401
#     4  11  25  43  68  94 134 183 221 279 340 403
#     4  12  21  45  73  95 131 182 235 271 337 402
#
# _framework density 19.985720000000001
#
# number of rings (size 3 to 8) (size 9 to 14) (size 15 to 20)
#    0.000    0.750    5.000    2.250    7.000    1.000 
#    0.000    0.625    0.000    0.000    0.000    0.000 
#    0.000    0.000    0.000    0.000    0.000    0.000 
#
# Total GULP energy -89258.877823 kJ/mol
# GULP energy per Si atom -5578.679864 kJ/mol
# Density = 1.994023 g / cm^3
# Si number density = 19.985720 Si / 1000 Ang^3
#
#
#
# Elastic Constant Matrix: (Units=GPa)
#
#
# Indices 1 2 3 4 5 6 
#
# 1 78.0591 23.7690 14.8607 8.3452 -4.6254 12.7492
# 2 23.7690 104.7105 12.7959 21.2213 0.6770 25.6464
# 3 14.8607 12.7959 97.3778 13.8758 12.0388 11.5005
# 4 8.3452 21.2213 13.8758 38.8881 7.9354 8.8091
# 5 -4.6254 0.6770 12.0388 7.9354 32.5557 15.3930
# 6 12.7492 25.6464 11.5005 8.8091 15.3930 25.5365
#
#
#
# Elastic Compliance Matrix: (Units=1/GPa)
#
#
# Indices 1 2 3 4 5 6 
#
# 1 0.015837 -0.000234 -0.001860 -0.001796 0.008838 -0.011542
# 2 -0.000234 0.015625 -0.000114 -0.006106 0.010513 -0.019755
# 3 -0.001860 -0.000114 0.011503 -0.002695 -0.003275 -0.001233
# 4 -0.001796 -0.006106 -0.002695 0.031516 -0.007791 0.002068
# 5 0.008838 0.010513 -0.003275 -0.007791 0.055908 -0.044509
# 6 -0.011542 -0.019755 -0.001233 0.002068 -0.044509 0.091433
#
#
# Mechanical properties :
#
#
# Convention : Reuss Voigt Hill
#
# Bulk Modulus (GPa) = 25.94060 42.55541 34.24800
# Shear Modulus (GPa) = 20.91287 34.64417 27.77852
#
# Velocity S-wave (km/s) = 3.23831 4.16798 3.73221
# Velocity P-wave (km/s) = 5.19518 6.67098 5.97879
#
# Compressibility (1/GPa) = 0.03854961
#
# Stress axis : x y z
#
# Youngs Moduli (GPa) = 63.14390 63.99900 86.93601
#
# Poissons Ratio (x) = 0.01497 0.16167
# Poissons Ratio (y) = 0.01477 0.00992
# Poissons Ratio (z) = 0.11743 0.00730
#
# Static dielectric constant tensor:
#      x y z
#    x 1.700900 0.005580 -0.004810 
#    y 0.005580 1.744650 0.010360 
#    z -0.004810 0.010360 1.725220 
# 
# From -- ./inp_files/436327.got.cif
#   From: 2010.05.17/outbox.cif.g08.bks.cpg/sg2_219_cif.got.tgz:436327.got - 2010.06.03 11:33:40.
