data_PCOD9009961
_publ_section_title
;
Structure prediction by ZEFSAII (Michael W. Deem and Ramdas Pophale) SiO2 
 PCOD9009961
Probable space group: P -1
;
_chemical_formula_sum "Si O2"
_cell_formula_units_Z 12
_cell_length_a 7.673916
_cell_length_b 6.209117
_cell_length_c 14.845237
_cell_angle_alpha 75.269491
_cell_angle_beta 44.768164
_cell_angle_gamma 59.249074
_cell_volume 421.137783
_symmetry_space_group_name_H-M "P -1"
_symmetry_group_IT_number 2
_symmetry_cell_setting 'triclinic'
loop_
_space_group_symop_operation_xyz
x,y,z
-x,-y,-z
loop_
_atom_site_type_symbol
_atom_site_label
_atom_site_fract_x
_atom_site_fract_y
_atom_site_fract_z
Si Si1 0.251909 0.340080 0.492829
Si Si2 0.270948 0.447766 0.842806
Si Si3 0.982210 0.970178 0.903934
Si Si4 0.027806 0.568770 0.224062
Si Si5 0.754647 0.954957 0.811636
Si Si6 0.234353 0.848964 0.505765
O O1 0.112064 0.341960 0.638942
O O2 0.000000 0.500000 0.500000
O O3 0.372333 0.040372 0.448072
O O4 0.360126 0.549194 0.458608
O O5 0.195458 0.397025 0.776603
O O6 0.534428 0.214293 0.817694
O O7 0.281936 0.711396 0.806196
O O8 0.000000 0.500000 0.000000
O O9 0.792444 0.909110 0.910447
O O10 0.880211 0.239975 0.868416
O O11 0.000000 0.000000 0.000000
O O12 0.283637 0.285596 0.175548
O O13 0.058353 0.877235 0.660232
O O14 0.000000 0.000000 0.500000
#
# Coordination Sequence:
#
# PCOD9009961 Si02
#       6
#     2   2   2   2   2   2
#     4   9  17  33  63  93 120 162 210 262 325 379
#     4  11  24  42  57  90 129 166 215 266 315 386
#     4  11  22  40  59  91 124 163 212 269 317 386
#     4  10  21  40  61  87 125 161 214 266 317 384
#     4  10  23  39  64  88 123 172 210 261 331 379
#     4   9  17  34  62  95 119 158 214 262 319 387
#
# _framework density 28.494240000000001
#
# number of rings (size 3 to 8) (size 9 to 14) (size 15 to 20)
#    0.000    2.000    3.333    0.000    0.000    4.667 
#    0.000    0.000    0.000   25.000    0.000    0.000 
#    0.000    0.000    0.000    0.000    0.000    0.000 
#
# Total GULP energy -66837.064707 kJ/mol
# GULP energy per Si atom -5569.755392 kJ/mol
# Density = 2.842939 g / cm^3
# Si number density = 28.494240 Si / 1000 Ang^3
#
#
#
# Elastic Constant Matrix: (Units=GPa)
#
#
# Indices 1 2 3 4 5 6 
#
# 1 123.4212 60.5115 37.6830 9.5236 39.9089 -20.7300
# 2 60.5115 213.6115 51.3765 22.2064 -3.6802 16.5740
# 3 37.6830 51.3765 97.8826 -0.4551 44.1801 -23.2609
# 4 9.5236 22.2064 -0.4551 57.8420 4.8559 7.9357
# 5 39.9089 -3.6802 44.1801 4.8559 62.1905 -12.3871
# 6 -20.7300 16.5740 -23.2609 7.9357 -12.3871 66.7621
#
#
#
# Elastic Compliance Matrix: (Units=1/GPa)
#
#
# Indices 1 2 3 4 5 6 
#
# 1 0.013969 -0.005350 0.003443 0.000016 -0.010759 0.004867
# 2 -0.005350 0.008784 -0.007527 -0.002648 0.008600 -0.004554
# 3 0.003443 -0.007527 0.022399 0.002975 -0.017372 0.007165
# 4 0.000016 -0.002648 0.002975 0.018838 -0.004007 -0.001284
# 5 -0.010759 0.008600 -0.017372 -0.004007 0.035248 -0.004512
# 6 0.004867 -0.004554 0.007165 -0.001284 -0.004512 0.019432
#
#
# Mechanical properties :
#
#
# Convention : Reuss Voigt Hill
#
# Bulk Modulus (GPa) = 38.04558 81.56190 59.80374
# Shear Modulus (GPa) = 34.17614 56.38187 45.27901
#
# Velocity S-wave (km/s) = 3.46700 4.45310 3.99062
# Velocity P-wave (km/s) = 5.42290 7.42470 6.50131
#
# Compressibility (1/GPa) = 0.02628426
#
# Stress axis : x y z
#
# Youngs Moduli (GPa) = 71.58604 113.84271 44.64405
#
# Poissons Ratio (x) = 0.60905 -0.15370
# Poissons Ratio (y) = 0.38298 0.33604
# Poissons Ratio (z) = -0.24646 0.85690
#
# Static dielectric constant tensor:
#      x y z
#    x 2.260450 0.179940 -0.216980 
#    y 0.179940 2.434080 0.030160 
#    z -0.216980 0.030160 2.315710 
# 
# From -- ./inp_files/29557.got.cif
#   From: 2010.05.17/outbox.cif.g08.bks.cpg/sg2_15_cif.got.tgz:29557.got - 2010.06.03 11:33:40.
