data_PCOD9009610
_publ_section_title
;
Structure prediction by ZEFSAII (Michael W. Deem and Ramdas Pophale) SiO2 
 PCOD9009610
Probable space group: P -1
;
_chemical_formula_sum "Si O2"
_cell_formula_units_Z 14
_cell_length_a 25.491742
_cell_length_b 8.259225
_cell_length_c 8.944748
_cell_angle_alpha 116.212351
_cell_angle_beta 37.354207
_cell_angle_gamma 141.559483
_cell_volume 623.353123
_symmetry_space_group_name_H-M "P -1"
_symmetry_group_IT_number 2
_symmetry_cell_setting 'triclinic'
loop_
_space_group_symop_operation_xyz
x,y,z
-x,-y,-z
loop_
_atom_site_type_symbol
_atom_site_label
_atom_site_fract_x
_atom_site_fract_y
_atom_site_fract_z
Si Si1 0.897976 0.666780 0.640434
Si Si2 0.208380 0.425624 0.630717
Si Si3 0.599420 0.938703 0.639458
Si Si4 0.128879 0.707237 0.674037
Si Si5 0.467640 0.654167 0.119386
Si Si6 0.990718 0.212938 0.257712
Si Si7 0.581410 0.180321 0.236083
O O1 0.874660 0.490877 0.484540
O O2 0.972905 0.680927 0.612076
O O3 0.748940 0.497430 0.975694
O O4 0.000000 0.000000 0.500000
O O5 0.318601 0.459114 0.451233
O O6 0.309200 0.724906 0.431628
O O7 0.087266 0.111496 0.695288
O O8 0.135653 0.421746 0.922138
O O9 0.513348 0.821517 0.631825
O O10 0.726173 0.019979 0.447146
O O11 0.476618 0.709062 0.945227
O O12 0.100069 0.802233 0.644940
O O13 0.000000 0.500000 0.000000
O O14 0.573515 0.975775 0.081194
O O15 0.500000 0.500000 0.000000
O O16 0.500000 0.000000 0.500000
#
# Coordination Sequence:
#
# PCOD9009610 Si02
#       7
#     2   2   2   2   2   2   2
#     4  12  27  45  71 106 144 191 231 293 361 421
#     4  10  21  39  70  99 132 186 229 284 346 420
#     4  11  22  44  69  98 134 181 234 280 350 413
#     4  12  25  44  70 102 140 184 238 296 345 423
#     4  11  23  42  72 100 135 177 239 287 344 417
#     4  11  24  42  68 100 146 177 237 282 353 416
#     4  11  25  47  73 100 142 184 233 290 356 422
#
# _framework density 22.45918
#
# number of rings (size 3 to 8) (size 9 to 14) (size 15 to 20)
#    0.000    0.857    2.857    5.571    4.000    0.000 
#    2.571    0.714    0.000    0.000    0.000    0.000 
#    0.000    0.000    0.000    0.000    0.000    0.000 
#
# Total GULP energy -78034.500298 kJ/mol
# GULP energy per Si atom -5573.892878 kJ/mol
# Density = 2.240806 g / cm^3
# Si number density = 22.459180 Si / 1000 Ang^3
#
#
#
# Elastic Constant Matrix: (Units=GPa)
#
#
# Indices 1 2 3 4 5 6 
#
# 1 157.4906 12.2207 39.7136 -8.8703 2.6547 -1.0098
# 2 12.2207 29.7968 16.7752 -11.1204 7.3174 -6.0942
# 3 39.7136 16.7752 95.8834 -18.1943 -11.2804 -2.5408
# 4 -8.8703 -11.1204 -18.1943 32.4989 2.2006 0.1974
# 5 2.6547 7.3174 -11.2804 2.2006 36.5441 1.2156
# 6 -1.0098 -6.0942 -2.5408 0.1974 1.2156 31.8576
#
#
#
# Elastic Compliance Matrix: (Units=1/GPa)
#
#
# Indices 1 2 3 4 5 6 
#
# 1 0.007192 -0.001002 -0.002941 0.000058 -0.001228 -0.000152
# 2 -0.001002 0.047508 -0.006664 0.013049 -0.012580 0.008924
# 3 -0.002941 -0.006664 0.014339 0.004560 0.005715 -0.000471
# 4 0.000058 0.013049 0.004560 0.038031 -0.003592 0.002763
# 5 -0.001228 -0.012580 0.005715 -0.003592 0.032059 -0.003191
# 6 -0.000152 0.008924 -0.000471 0.002763 -0.003191 0.033159
#
#
# Mechanical properties :
#
#
# Convention : Reuss Voigt Hill
#
# Bulk Modulus (GPa) = 20.90979 46.73222 33.82101
# Shear Modulus (GPa) = 23.87292 34.47754 29.17523
#
# Velocity S-wave (km/s) = 3.26382 3.92231 3.60812
# Velocity P-wave (km/s) = 4.85116 6.43160 5.69646
#
# Compressibility (1/GPa) = 0.04782449
#
# Stress axis : x y z
#
# Youngs Moduli (GPa) = 139.04460 21.04918 69.74169
#
# Poissons Ratio (x) = 0.02109 0.20512
# Poissons Ratio (y) = 0.13929 0.46476
# Poissons Ratio (z) = 0.40894 0.14027
#
# Static dielectric constant tensor:
#      x y z
#    x 1.957140 -0.004100 -0.060410 
#    y -0.004100 1.847140 0.001380 
#    z -0.060410 0.001380 1.861660 
# 
# From -- ./inp_files/356476.got.cif
#   From: 2010.05.17/outbox.cif.g08.bks.cpg/sg2_179_cif.got.tgz:356476.got - 2010.06.03 11:33:40.
