data_PCOD9009894
_publ_section_title
;
Structure prediction by ZEFSAII (Michael W. Deem and Ramdas Pophale) SiO2 
 PCOD9009894
Probable space group: P -1
;
_chemical_formula_sum "Si O2"
_cell_formula_units_Z 14
_cell_length_a 12.979352
_cell_length_b 15.070591
_cell_length_c 13.719015
_cell_angle_alpha 138.382079
_cell_angle_beta 157.657577
_cell_angle_gamma 51.476584
_cell_volume 652.008392
_symmetry_space_group_name_H-M "P -1"
_symmetry_group_IT_number 2
_symmetry_cell_setting 'triclinic'
loop_
_space_group_symop_operation_xyz
x,y,z
-x,-y,-z
loop_
_atom_site_type_symbol
_atom_site_label
_atom_site_fract_x
_atom_site_fract_y
_atom_site_fract_z
Si Si1 0.436736 0.992997 0.100730
Si Si2 0.236506 0.114819 0.855840
Si Si3 0.878589 0.285643 0.730426
Si Si4 0.865182 0.473039 0.701953
Si Si5 0.362511 0.352299 0.705637
Si Si6 0.307794 0.750639 0.936468
Si Si7 0.464597 0.468158 0.170582
O O1 0.681840 0.132634 0.453232
O O2 0.499688 0.893296 0.986097
O O3 0.230134 0.062208 0.917639
O O4 0.355545 0.897239 0.044143
O O5 0.154270 0.256560 0.899068
O O6 0.000000 0.000000 0.500000
O O7 0.749746 0.364493 0.599606
O O8 0.975915 0.384161 0.987636
O O9 0.629469 0.489935 0.435058
O O10 0.124957 0.429481 0.842433
O O11 0.435787 0.389772 0.688312
O O12 0.026472 0.309939 0.390018
O O13 0.500000 0.500000 0.000000
O O14 0.515434 0.249651 0.809553
O O15 0.426244 0.650446 0.886273
#
# Coordination Sequence:
#
# PCOD9009894 Si02
#       7
#     2   2   2   2   2   2   2
#     4  10  22  36  60  89 122 157 192 248 298 356
#     4   9  20  36  56  84 126 153 194 245 286 352
#     4  10  24  39  56  86 126 156 207 234 287 358
#     4  11  25  38  63  85 119 172 194 241 289 353
#     4  10  21  40  60  92 122 148 195 256 299 356
#     4  11  22  36  67  92 120 153 191 248 318 346
#     4  11  22  40  62  89 119 153 203 245 300 351
#
# _framework density 21.472116
#
# number of rings (size 3 to 8) (size 9 to 14) (size 15 to 20)
#    0.000    1.714    0.000    5.143   14.000    1.143 
#    0.000    0.000    0.000    5.143    0.000    0.000 
#    0.000    0.000    0.000    0.000    0.000    0.000 
#
# Total GULP energy -78112.425872 kJ/mol
# GULP energy per Si atom -5579.458991 kJ/mol
# Density = 2.142324 g / cm^3
# Si number density = 21.472116 Si / 1000 Ang^3
#
#
#
# Elastic Constant Matrix: (Units=GPa)
#
#
# Indices 1 2 3 4 5 6 
#
# 1 48.7672 33.4106 28.6560 1.4785 4.9684 28.1781
# 2 33.4106 102.3273 39.4046 -7.8700 -3.6993 41.4592
# 3 28.6560 39.4046 92.9714 -13.7013 9.0078 14.6239
# 4 1.4785 -7.8700 -13.7013 37.4654 10.8194 0.7303
# 5 4.9684 -3.6993 9.0078 10.8194 30.4812 -6.1549
# 6 28.1781 41.4592 14.6239 0.7303 -6.1549 44.1272
#
#
#
# Elastic Compliance Matrix: (Units=1/GPa)
#
#
# Indices 1 2 3 4 5 6 
#
# 1 0.040074 -0.001251 -0.007636 -0.001745 -0.008459 -0.023035
# 2 -0.001251 0.018117 -0.004595 0.002492 -0.000104 -0.014755
# 3 -0.007636 -0.004595 0.016207 0.006935 -0.005984 0.002872
# 4 -0.001745 0.002492 0.006935 0.034231 -0.014858 -0.006165
# 5 -0.008459 -0.000104 -0.005984 -0.014858 0.044016 0.013868
# 6 -0.023035 -0.014755 0.002872 -0.006165 0.013868 0.052319
#
#
# Mechanical properties :
#
#
# Convention : Reuss Voigt Hill
#
# Bulk Modulus (GPa) = 21.08164 49.66758 35.37461
# Shear Modulus (GPa) = 20.18264 31.92109 26.05186
#
# Velocity S-wave (km/s) = 3.06918 3.85987 3.48701
# Velocity P-wave (km/s) = 4.73279 6.56096 5.72038
#
# Compressibility (1/GPa) = 0.04743464
#
# Stress axis : x y z
#
# Youngs Moduli (GPa) = 24.95376 55.19782 61.70195
#
# Poissons Ratio (x) = 0.06906 0.47114
# Poissons Ratio (y) = 0.03122 0.28349
# Poissons Ratio (z) = 0.19054 0.25361
#
# Static dielectric constant tensor:
#      x y z
#    x 1.877360 0.003650 0.054440 
#    y 0.003650 1.832760 -0.030150 
#    z 0.054440 -0.030150 1.823050 
# 
# From -- ./inp_files/533876.got.cif
#   From: 2010.05.17/outbox.cif.g08.bks.cpg/sg2_267_cif.got.tgz:533876.got - 2010.06.03 11:33:40.
