data_PCOD9009981
_publ_section_title
;
Structure prediction by ZEFSAII (Michael W. Deem and Ramdas Pophale) SiO2 
 PCOD9009981
Probable space group: P -1
;
_chemical_formula_sum "Si O2"
_cell_formula_units_Z 16
_cell_length_a 5.061869
_cell_length_b 5.444743
_cell_length_c 23.169441
_cell_angle_alpha 75.570611
_cell_angle_beta 96.089848
_cell_angle_gamma 99.419795
_cell_volume 608.654125
_symmetry_space_group_name_H-M "P -1"
_symmetry_group_IT_number 2
_symmetry_cell_setting 'triclinic'
loop_
_space_group_symop_operation_xyz
x,y,z
-x,-y,-z
loop_
_atom_site_type_symbol
_atom_site_label
_atom_site_fract_x
_atom_site_fract_y
_atom_site_fract_z
Si Si1 0.005288 0.492396 0.183674
Si Si2 0.272930 0.532866 0.077196
Si Si3 0.443872 0.940414 0.569399
Si Si4 0.231220 0.235233 0.984264
Si Si5 0.257277 0.441148 0.543551
Si Si6 0.839405 0.933821 0.212541
Si Si7 0.407717 0.521639 0.284587
Si Si8 0.289304 0.964629 0.321762
O O1 0.256364 0.481901 0.147176
O O2 0.810412 0.228943 0.181581
O O3 0.113466 0.475006 0.251998
O O4 0.930253 0.780466 0.167558
O O5 0.508502 0.759429 0.050558
O O6 0.960195 0.565413 0.056459
O O7 0.330055 0.317683 0.045992
O O8 0.303346 0.648154 0.583620
O O9 0.709876 0.988813 0.612173
O O10 0.500000 0.000000 0.500000
O O11 0.259964 0.145070 0.575222
O O12 0.000000 0.000000 0.000000
O O13 0.500000 0.500000 0.500000
O O14 0.000000 0.500000 0.500000
O O15 0.049838 0.952450 0.270363
O O16 0.584173 0.742174 0.238971
O O17 0.485801 0.235583 0.297462
O O18 0.378247 0.684179 0.332171
#
# Coordination Sequence:
#
# PCOD9009981 Si02
#       8
#     2   2   2   2   2   2   2   2
#     4  10  23  38  64  94 124 165 218 275 317 395
#     4  10  23  39  61  97 126 173 227 269 326 395
#     4  10  21  40  63  92 127 167 212 264 321 393
#     4  10  22  42  61  91 136 176 217 269 332 391
#     4  10  21  40  61  88 127 161 205 259 308 368
#     4  10  22  42  63  91 127 162 213 268 342 379
#     4  10  21  40  62  92 121 166 207 272 329 395
#     4  10  21  41  61  90 128 160 213 261 326 399
#
# _framework density 26.287504999999999
#
# number of rings (size 3 to 8) (size 9 to 14) (size 15 to 20)
#    0.000    2.000    0.000    2.250    3.500    0.000 
#   13.500    0.000    0.000    0.000    0.000    0.000 
#    0.000    0.000    0.000    0.000    0.000    0.000 
#
# Total GULP energy -89133.367632 kJ/mol
# GULP energy per Si atom -5570.835477 kJ/mol
# Density = 2.622767 g / cm^3
# Si number density = 26.287505 Si / 1000 Ang^3
#
#
#
# Elastic Constant Matrix: (Units=GPa)
#
#
# Indices 1 2 3 4 5 6 
#
# 1 102.3494 31.0625 1.7155 5.8944 4.0505 17.1975
# 2 31.0625 228.6972 22.0923 17.4128 17.7589 8.0704
# 3 1.7155 22.0923 62.9814 23.0687 10.4116 7.5462
# 4 5.8944 17.4128 23.0687 32.5429 7.1100 -4.2042
# 5 4.0505 17.7589 10.4116 7.1100 20.6710 -7.9584
# 6 17.1975 8.0704 7.5462 -4.2042 -7.9584 31.9594
#
#
#
# Elastic Compliance Matrix: (Units=1/GPa)
#
#
# Indices 1 2 3 4 5 6 
#
# 1 0.011921 -0.000918 0.003425 -0.004087 -0.005271 -0.008842
# 2 -0.000918 0.005049 -0.000153 -0.001759 -0.004260 -0.002037
# 3 0.003425 -0.000153 0.026179 -0.018064 -0.012721 -0.013529
# 4 -0.004087 -0.001759 -0.018064 0.046835 0.000368 0.013161
# 5 -0.005271 -0.004260 -0.012721 0.000368 0.068609 0.024049
# 6 -0.008842 -0.002037 -0.013529 0.013161 0.024049 0.047477
#
#
# Mechanical properties :
#
#
# Convention : Reuss Voigt Hill
#
# Bulk Modulus (GPa) = 20.89590 55.97428 38.43509
# Shear Modulus (GPa) = 23.00827 39.64517 31.32672
#
# Velocity S-wave (km/s) = 2.96168 3.88769 3.45584
# Velocity P-wave (km/s) = 4.43415 6.44139 5.52961
#
# Compressibility (1/GPa) = 0.04785628
#
# Stress axis : x y z
#
# Youngs Moduli (GPa) = 83.88427 198.07433 38.19899
#
# Poissons Ratio (x) = 0.18173 -0.13083
# Poissons Ratio (y) = 0.07696 0.00586
# Poissons Ratio (z) = -0.28729 0.03039
#
# Static dielectric constant tensor:
#      x y z
#    x 2.105790 -0.074250 -0.005900 
#    y -0.074250 2.198830 -0.052440 
#    z -0.005900 -0.052440 2.183870 
# 
# From -- ./inp_files/125915.got.cif
#   From: 2010.05.17/outbox.cif.g08.bks.cpg/sg2_63_cif.got.tgz:125915.got - 2010.06.03 11:33:40.
