data_PCOD9009619
_publ_section_title
;
Structure prediction by ZEFSAII (Michael W. Deem and Ramdas Pophale) SiO2 
 PCOD9009619
Probable space group: P -1
;
_chemical_formula_sum "Si O2"
_cell_formula_units_Z 16
_cell_length_a 15.751306
_cell_length_b 11.971428
_cell_length_c 9.484201
_cell_angle_alpha 90.670799
_cell_angle_beta 79.854305
_cell_angle_gamma 26.124944
_cell_volume 713.165545
_symmetry_space_group_name_H-M "P -1"
_symmetry_group_IT_number 2
_symmetry_cell_setting 'triclinic'
loop_
_space_group_symop_operation_xyz
x,y,z
-x,-y,-z
loop_
_atom_site_type_symbol
_atom_site_label
_atom_site_fract_x
_atom_site_fract_y
_atom_site_fract_z
Si Si1 0.062722 0.276917 0.637051
Si Si2 0.389427 0.545489 0.640011
Si Si3 0.295489 0.164735 0.079060
Si Si4 0.021780 0.073532 0.275832
Si Si5 0.933170 0.934412 0.060973
Si Si6 0.737356 0.993083 0.700440
Si Si7 0.312322 0.996571 0.828954
Si Si8 0.203157 0.624133 0.237902
O O1 0.266543 0.045824 0.676797
O O2 0.883566 0.556904 0.777991
O O3 0.968476 0.262032 0.650845
O O4 0.133377 0.227123 0.460499
O O5 0.500000 0.500000 0.500000
O O6 0.246604 0.790060 0.790452
O O7 0.548531 0.281551 0.679756
O O8 0.222337 0.662290 0.611822
O O9 0.333920 0.006334 0.156207
O O10 0.242745 0.189309 0.935869
O O11 0.500000 0.000000 0.000000
O O12 0.112882 0.084642 0.289872
O O13 0.037377 0.050304 0.100786
O O14 0.148272 0.677793 0.087327
O O15 0.152798 0.812403 0.291991
O O16 0.839187 0.922406 0.069438
O O17 0.558755 0.686102 0.791516
#
# Coordination Sequence:
#
# PCOD9009619 Si02
#       8
#     2   2   2   2   2   2   2   2
#     4  11  26  47  67  99 140 180 233 292 348 409
#     4  11  24  43  67 108 151 183 225 277 349 426
#     4  12  26  49  75  99 133 184 245 298 344 406
#     4  11  24  40  68 105 143 182 227 284 349 413
#     4  10  22  38  67 103 141 177 229 285 338 416
#     4  12  27  45  71 104 146 184 232 286 350 423
#     4  11  22  42  74  98 131 183 232 290 348 402
#     4  10  21  39  71 101 137 177 228 278 349 413
#
# _framework density 22.435182999999999
#
# number of rings (size 3 to 8) (size 9 to 14) (size 15 to 20)
#    0.000    1.000    2.500    5.250    3.500    5.000 
#    2.250    0.625    0.000    0.000    0.000    0.000 
#    0.000    0.000    0.000    0.000    0.000    0.000 
#
# Total GULP energy -89478.345508 kJ/mol
# GULP energy per Si atom -5592.396594 kJ/mol
# Density = 2.238412 g / cm^3
# Si number density = 22.435183 Si / 1000 Ang^3
#
#
#
# Elastic Constant Matrix: (Units=GPa)
#
#
# Indices 1 2 3 4 5 6 
#
# 1 153.8079 40.3022 40.5280 -4.9388 -0.1790 -18.3700
# 2 40.3022 119.6584 32.1969 1.7965 2.1169 -27.1751
# 3 40.5280 32.1969 112.5312 -5.1895 -4.2419 -12.5085
# 4 -4.9388 1.7965 -5.1895 27.6177 5.8342 -0.2680
# 5 -0.1790 2.1169 -4.2419 5.8342 25.7418 -0.6902
# 6 -18.3700 -27.1751 -12.5085 -0.2680 -0.6902 33.1042
#
#
#
# Elastic Compliance Matrix: (Units=1/GPa)
#
#
# Indices 1 2 3 4 5 6 
#
# 1 0.007759 -0.001561 -0.002056 0.001202 -0.000369 0.002250
# 2 -0.001561 0.011127 -0.001864 -0.001116 -0.000778 0.007538
# 3 -0.002056 -0.001864 0.010430 0.001393 0.001577 0.001314
# 4 0.001202 -0.001116 0.001393 0.038535 -0.008393 0.000415
# 5 -0.000369 -0.000778 0.001577 -0.008393 0.041085 0.000541
# 6 0.002250 0.007538 0.001314 0.000415 0.000541 0.038155
#
#
# Mechanical properties :
#
#
# Convention : Reuss Voigt Hill
#
# Bulk Modulus (GPa) = 54.48542 68.00572 61.24557
# Shear Modulus (GPa) = 30.45574 35.49076 32.97325
#
# Velocity S-wave (km/s) = 3.68842 3.98166 3.83784
# Velocity P-wave (km/s) = 6.51749 7.17747 6.85543
#
# Compressibility (1/GPa) = 0.01835354
#
# Stress axis : x y z
#
# Youngs Moduli (GPa) = 128.87803 89.87188 95.87587
#
# Poissons Ratio (x) = 0.14027 0.19715
# Poissons Ratio (y) = 0.20114 0.17875
# Poissons Ratio (z) = 0.26502 0.16755
#
# Static dielectric constant tensor:
#      x y z
#    x 1.843590 0.016040 0.034010 
#    y 0.016040 1.857360 -0.002050 
#    z 0.034010 -0.002050 1.852270 
# 
# From -- ./inp_files/307730.got.cif
#   From: 2010.05.17/outbox.cif.g08.bks.cpg/sg2_154_cif.got.tgz:307730.got - 2010.06.03 11:33:40.
