data_PCOD9009642
_publ_section_title
;
Structure prediction by ZEFSAII (Michael W. Deem and Ramdas Pophale) SiO2 
 PCOD9009642
Probable space group: P -1
;
_chemical_formula_sum "Si O2"
_cell_formula_units_Z 14
_cell_length_a 8.554139
_cell_length_b 11.554687
_cell_length_c 13.545508
_cell_angle_alpha 39.404730
_cell_angle_beta 48.283773
_cell_angle_gamma 57.045017
_cell_volume 633.144009
_symmetry_space_group_name_H-M "P -1"
_symmetry_group_IT_number 2
_symmetry_cell_setting 'triclinic'
loop_
_space_group_symop_operation_xyz
x,y,z
-x,-y,-z
loop_
_atom_site_type_symbol
_atom_site_label
_atom_site_fract_x
_atom_site_fract_y
_atom_site_fract_z
Si Si1 0.620255 0.893034 0.880879
Si Si2 0.327267 0.388032 0.787904
Si Si3 0.263701 0.943489 0.649904
Si Si4 0.785814 0.003919 0.148908
Si Si5 0.039265 0.696911 0.752750
Si Si6 0.289335 0.394016 0.567838
Si Si7 0.097190 0.777242 0.445638
O O1 0.801981 0.771217 0.826188
O O2 0.411063 0.928257 0.881140
O O3 0.719857 0.084154 0.737948
O O4 0.594688 0.778385 0.066691
O O5 0.111483 0.482119 0.860561
O O6 0.305953 0.343419 0.710953
O O7 0.496305 0.542226 0.610363
O O8 0.219432 0.884992 0.819779
O O9 0.112158 0.119778 0.572092
O O10 0.500000 0.000000 0.500000
O O11 0.188554 0.794681 0.702332
O O12 0.766979 0.794794 0.329637
O O13 0.000000 0.000000 0.000000
O O14 0.084195 0.755792 0.582938
O O15 0.141251 0.579640 0.507996
#
# Coordination Sequence:
#
# PCOD9009642 Si02
#       7
#     2   2   2   2   2   2   2
#     4  11  22  40  68  92 129 166 223 261 319 376
#     4  10  21  39  71  97 122 164 218 281 308 376
#     4  11  22  41  68  94 133 173 211 261 330 389
#     4  12  28  44  61  96 140 173 211 267 326 396
#     4  10  21  42  67 100 123 165 223 271 317 377
#     4  10  23  42  63  94 131 164 218 264 326 380
#     4  10  22  41  73  96 123 171 220 272 316 381
#
# _framework density 22.111872999999999
#
# number of rings (size 3 to 8) (size 9 to 14) (size 15 to 20)
#    0.000    1.429    0.000    7.286    6.000    1.714 
#    2.571    0.714    0.000    0.000    0.000    0.000 
#    0.000    0.000    0.000    0.000    0.000    0.000 
#
# Total GULP energy -78281.412712 kJ/mol
# GULP energy per Si atom -5591.529479 kJ/mol
# Density = 2.206154 g / cm^3
# Si number density = 22.111873 Si / 1000 Ang^3
#
#
#
# Elastic Constant Matrix: (Units=GPa)
#
#
# Indices 1 2 3 4 5 6 
#
# 1 137.5631 45.1898 40.1857 -0.6840 8.0650 -27.0477
# 2 45.1898 106.1821 31.2440 6.3212 9.3349 -25.1408
# 3 40.1857 31.2440 76.2966 10.4803 17.7262 -4.5947
# 4 -0.6840 6.3212 10.4803 35.9519 -14.2275 -5.6200
# 5 8.0650 9.3349 17.7262 -14.2275 33.7410 -0.5376
# 6 -27.0477 -25.1408 -4.5947 -5.6200 -0.5376 38.1973
#
#
#
# Elastic Compliance Matrix: (Units=1/GPa)
#
#
# Indices 1 2 3 4 5 6 
#
# 1 0.010649 -0.001866 -0.005740 0.004344 0.002919 0.006302
# 2 -0.001866 0.012998 -0.003433 -0.000924 -0.001630 0.006662
# 3 -0.005740 -0.003433 0.022441 -0.012874 -0.014988 -0.005730
# 4 0.004344 -0.000924 -0.012874 0.042492 0.024018 0.007509
# 5 0.002919 -0.001630 -0.014988 0.024018 0.047447 0.003393
# 6 0.006302 0.006662 -0.005730 0.007509 0.003393 0.035490
#
#
# Mechanical properties :
#
#
# Convention : Reuss Voigt Hill
#
# Bulk Modulus (GPa) = 41.64962 61.47564 51.56263
# Shear Modulus (GPa) = 24.80185 35.13953 29.97069
#
# Velocity S-wave (km/s) = 3.35274 3.99076 3.68559
# Velocity P-wave (km/s) = 5.81933 7.00695 6.44057
#
# Compressibility (1/GPa) = 0.02400982
#
# Stress axis : x y z
#
# Youngs Moduli (GPa) = 93.90777 76.93675 44.56042
#
# Poissons Ratio (x) = 0.14357 0.25577
# Poissons Ratio (y) = 0.17524 0.15298
# Poissons Ratio (z) = 0.53901 0.26413
#
# Static dielectric constant tensor:
#      x y z
#    x 1.811540 0.006420 0.009040 
#    y 0.006420 1.863380 0.026260 
#    z 0.009040 0.026260 1.835960 
# 
# From -- ./inp_files/391809.got.cif
#   From: 2010.05.17/outbox.cif.g08.bks.cpg/sg2_196_cif.got.tgz:391809.got - 2010.06.03 11:33:40.
