data_PCOD9009576
_publ_section_title
;
Structure prediction by ZEFSAII (Michael W. Deem and Ramdas Pophale) SiO2 
 PCOD9009576
Probable space group: P -1
;
_chemical_formula_sum "Si O2"
_cell_formula_units_Z 16
_cell_length_a 9.398111
_cell_length_b 13.445643
_cell_length_c 12.030298
_cell_angle_alpha 128.509963
_cell_angle_beta 143.961124
_cell_angle_gamma 68.557741
_cell_volume 667.707091
_symmetry_space_group_name_H-M "P -1"
_symmetry_group_IT_number 2
_symmetry_cell_setting 'triclinic'
loop_
_space_group_symop_operation_xyz
x,y,z
-x,-y,-z
loop_
_atom_site_type_symbol
_atom_site_label
_atom_site_fract_x
_atom_site_fract_y
_atom_site_fract_z
Si Si1 0.735050 0.086447 0.875673
Si Si2 0.938056 0.923825 0.137457
Si Si3 0.987339 0.854852 0.353954
Si Si4 0.040035 0.784403 0.670340
Si Si5 0.473534 0.681467 0.156214
Si Si6 0.549965 0.357907 0.132838
Si Si7 0.468686 0.806664 0.634021
Si Si8 0.711082 0.434676 0.812967
O O1 0.556481 0.172538 0.784087
O O2 0.881996 0.057080 0.841991
O O3 0.583867 0.950376 0.746294
O O4 0.929374 0.178518 0.152194
O O5 0.052725 0.867013 0.273161
O O6 0.891070 0.065614 0.232894
O O7 0.674233 0.815138 0.864256
O O8 0.194189 0.799645 0.503480
O O9 0.704256 0.764708 0.125130
O O10 0.000000 0.000000 0.500000
O O11 0.231042 0.696270 0.716634
O O12 0.760797 0.707762 0.398173
O O13 0.291461 0.615407 0.096589
O O14 0.398173 0.602790 0.937597
O O15 0.460664 0.465521 0.220142
O O16 0.426284 0.687476 0.438400
O O17 0.000000 0.500000 0.000000
#
# Coordination Sequence:
#
# PCOD9009576 Si02
#       8
#     2   2   2   2   2   2   2   2
#     4  10  21  39  70 108 132 166 229 284 341 404
#     4  11  22  38  67 105 136 174 219 285 349 396
#     4  12  24  40  66  98 138 175 219 280 342 404
#     4  10  21  41  69 103 135 169 228 283 337 406
#     4  11  23  44  77  97 132 184 220 281 348 392
#     4  11  26  45  64  99 138 178 233 276 326 408
#     4  11  23  42  68  97 137 176 223 282 336 399
#     4  12  25  47  70  97 138 186 230 275 331 407
#
# _framework density 23.962603000000001
#
# number of rings (size 3 to 8) (size 9 to 14) (size 15 to 20)
#    0.000    1.000    1.250    7.875    0.000    5.000 
#    0.000    3.125    0.000    0.000    0.000    0.000 
#    0.000    0.000    0.000    0.000    0.000    0.000 
#
# Total GULP energy -89612.163492 kJ/mol
# GULP energy per Si atom -5600.760218 kJ/mol
# Density = 2.390806 g / cm^3
# Si number density = 23.962603 Si / 1000 Ang^3
#
#
#
# Elastic Constant Matrix: (Units=GPa)
#
#
# Indices 1 2 3 4 5 6 
#
# 1 92.0498 44.5164 33.1747 -7.7027 -4.0633 -21.2265
# 2 44.5164 93.0694 59.0341 10.5140 -4.2392 -38.7837
# 3 33.1747 59.0341 112.1034 -13.2716 8.3735 -18.6668
# 4 -7.7027 10.5140 -13.2716 41.2844 -7.6155 -1.0550
# 5 -4.0633 -4.2392 8.3735 -7.6155 29.4158 2.5910
# 6 -21.2265 -38.7837 -18.6668 -1.0550 2.5910 49.1602
#
#
#
# Elastic Compliance Matrix: (Units=1/GPa)
#
#
# Indices 1 2 3 4 5 6 
#
# 1 0.015153 -0.007442 -0.000018 0.005158 0.002304 0.000654
# 2 -0.007442 0.030505 -0.012932 -0.012465 0.002453 0.015546
# 3 -0.000018 -0.012932 0.016358 0.007679 -0.004217 -0.003612
# 4 0.005158 -0.012465 0.007679 0.031698 0.005315 -0.004291
# 5 0.002304 0.002453 -0.004217 0.005315 0.037289 -0.000522
# 6 0.000654 0.015546 -0.003612 -0.004291 -0.000522 0.031453
#
#
# Mechanical properties :
#
#
# Convention : Reuss Voigt Hill
#
# Bulk Modulus (GPa) = 47.09628 63.40811 55.25220
# Shear Modulus (GPa) = 23.77342 34.67189 29.22266
#
# Velocity S-wave (km/s) = 3.15319 3.80796 3.49594
# Velocity P-wave (km/s) = 5.74052 6.77147 6.27720
#
# Compressibility (1/GPa) = 0.02123310
#
# Stress axis : x y z
#
# Youngs Moduli (GPa) = 65.99212 32.78122 61.13061
#
# Poissons Ratio (x) = 0.24395 0.00109
# Poissons Ratio (y) = 0.49111 0.79056
# Poissons Ratio (z) = 0.00117 0.42394
#
# Static dielectric constant tensor:
#      x y z
#    x 1.987990 0.017430 -0.033140 
#    y 0.017430 1.918750 -0.002600 
#    z -0.033140 -0.002600 1.893220 
# 
# From -- ./inp_files/399718.got.cif
#   From: 2010.05.17/outbox.cif.g08.bks.cpg/sg2_200_cif.got.tgz:399718.got - 2010.06.03 11:33:40.
