data_PCOD9009186
_publ_section_title
;
Structure prediction by ZEFSAII (Michael W. Deem and Ramdas Pophale) SiO2 
 PCOD9009186
Probable space group: P -1
;
_chemical_formula_sum "Si O2"
_cell_formula_units_Z 14
_cell_length_a 5.152149
_cell_length_b 14.678142
_cell_length_c 26.656599
_cell_angle_alpha 160.575929
_cell_angle_beta 65.915489
_cell_angle_gamma 114.964162
_cell_volume 607.423314
_symmetry_space_group_name_H-M "P -1"
_symmetry_group_IT_number 2
_symmetry_cell_setting 'triclinic'
loop_
_space_group_symop_operation_xyz
x,y,z
-x,-y,-z
loop_
_atom_site_type_symbol
_atom_site_label
_atom_site_fract_x
_atom_site_fract_y
_atom_site_fract_z
Si Si1 0.227440 0.264848 0.904100
Si Si2 0.655452 0.889665 0.292515
Si Si3 0.977002 0.390903 0.814136
Si Si4 0.430406 0.475797 0.596415
Si Si5 0.061090 0.660979 0.631527
Si Si6 0.841326 0.098351 0.112275
Si Si7 0.317553 0.866470 0.992792
O O1 0.164398 0.191220 0.812424
O O2 0.500000 0.500000 0.000000
O O3 0.250348 0.957883 0.763780
O O4 0.025256 0.398705 0.028889
O O5 0.858479 0.856412 0.306599
O O6 0.352228 0.694295 0.218560
O O7 0.543940 0.184904 0.446290
O O8 0.161911 0.557424 0.842636
O O9 0.726526 0.679858 0.678620
O O10 0.237649 0.495800 0.571909
O O11 0.243467 0.596100 0.717805
O O12 0.000000 0.500000 0.500000
O O13 0.552673 0.890614 0.029869
O O14 0.058160 0.047744 0.112409
O O15 0.000000 0.000000 0.000000
O O16 0.500000 0.000000 0.000000
#
# Coordination Sequence:
#
# PCOD9009186 Si02
#       7
#     2   2   2   2   2   2   2
#     4  10  23  40  62  93 135 179 222 273 325 391
#     4  11  24  38  59  90 135 176 213 266 326 410
#     4  11  22  39  61  91 127 174 222 263 335 394
#     4  12  24  42  65  95 136 179 226 277 341 394
#     4  12  25  41  66  95 138 183 232 271 330 405
#     4  10  21  39  67  95 121 159 217 284 344 386
#     4  10  21  40  67  95 122 159 219 290 342 388
#
# _framework density 23.048176999999999
#
# number of rings (size 3 to 8) (size 9 to 14) (size 15 to 20)
#    0.000    1.143    1.429    5.143    0.000    4.571 
#    0.000    0.000    0.000   20.571    0.000    0.000 
#    0.000    0.000    0.000    0.000    0.000    0.000 
#
# Total GULP energy -77959.491657 kJ/mol
# GULP energy per Si atom -5568.535118 kJ/mol
# Density = 2.299572 g / cm^3
# Si number density = 23.048177 Si / 1000 Ang^3
#
#
#
# Elastic Constant Matrix: (Units=GPa)
#
#
# Indices 1 2 3 4 5 6 
#
# 1 132.0927 20.4843 7.5806 -5.9493 -5.4048 4.5429
# 2 20.4843 98.3331 29.7972 10.3580 0.4511 6.5186
# 3 7.5806 29.7972 97.2231 0.4107 -7.5387 -5.7420
# 4 -5.9493 10.3580 0.4107 35.4247 -2.8598 3.3072
# 5 -5.4048 0.4511 -7.5387 -2.8598 32.8401 7.8754
# 6 4.5429 6.5186 -5.7420 3.3072 7.8754 30.1245
#
#
#
# Elastic Compliance Matrix: (Units=1/GPa)
#
#
# Indices 1 2 3 4 5 6 
#
# 1 0.008084 -0.001810 -0.000029 0.002189 0.001917 -0.001574
# 2 -0.001810 0.012263 -0.003829 -0.003707 -0.001088 -0.002419
# 3 -0.000029 -0.003829 0.011773 0.000938 0.002261 0.002383
# 4 0.002189 -0.003707 0.000938 0.030359 0.004175 -0.003774
# 5 0.001917 -0.001088 0.002261 0.004175 0.033802 -0.008918
# 6 -0.001574 -0.002419 0.002383 -0.003774 -0.008918 0.037156
#
#
# Mechanical properties :
#
#
# Convention : Reuss Voigt Hill
#
# Bulk Modulus (GPa) = 48.11399 49.26366 48.68883
# Shear Modulus (GPa) = 32.95947 37.66365 35.31156
#
# Velocity S-wave (km/s) = 3.78567 4.04682 3.91842
# Velocity P-wave (km/s) = 6.32686 6.57695 6.45312
#
# Compressibility (1/GPa) = 0.02078397
#
# Stress axis : x y z
#
# Youngs Moduli (GPa) = 123.70122 81.54854 84.93722
#
# Poissons Ratio (x) = 0.14762 0.00247
# Poissons Ratio (y) = 0.22392 0.32520
# Poissons Ratio (z) = 0.00360 0.31223
#
# Static dielectric constant tensor:
#      x y z
#    x 1.557210 0.377770 -0.155870 
#    y 0.377770 1.482780 0.183630 
#    z -0.155870 0.183630 1.851900 
# 
# From -- ./inp_files/615671.got.cif
#   From: 2010.05.17/outbox.cif.g08.bks.cpg/sg2_308_cif.got.tgz:615671.got - 2010.06.03 11:33:40.
