data_PCOD9009018
_publ_section_title
;
Structure prediction by ZEFSAII (Michael W. Deem and Ramdas Pophale) SiO2 
 PCOD9009018
Probable space group: P -1
;
_chemical_formula_sum "Si O2"
_cell_formula_units_Z 14
_cell_length_a 7.989276
_cell_length_b 7.643497
_cell_length_c 9.624312
_cell_angle_alpha 119.338324
_cell_angle_beta 91.173509
_cell_angle_gamma 82.573591
_cell_volume 507.416381
_symmetry_space_group_name_H-M "P -1"
_symmetry_group_IT_number 2
_symmetry_cell_setting 'triclinic'
loop_
_space_group_symop_operation_xyz
x,y,z
-x,-y,-z
loop_
_atom_site_type_symbol
_atom_site_label
_atom_site_fract_x
_atom_site_fract_y
_atom_site_fract_z
Si Si1 0.713761 0.951305 0.103352
Si Si2 0.819491 0.604177 0.490705
Si Si3 0.855752 0.533830 0.825168
Si Si4 0.589443 0.925649 0.681052
Si Si5 0.545995 0.338913 0.672767
Si Si6 0.929395 0.852794 0.333072
Si Si7 0.233203 0.645976 0.823582
O O1 0.813247 0.961389 0.255501
O O2 0.522684 0.028890 0.169934
O O3 0.764202 0.117596 0.063128
O O4 0.751108 0.717085 0.975240
O O5 0.763914 0.787844 0.665537
O O6 0.830441 0.726629 0.391622
O O7 0.735434 0.412123 0.362634
O O8 0.000000 0.500000 0.500000
O O9 0.710615 0.452169 0.692919
O O10 0.931925 0.312846 0.802412
O O11 0.037819 0.614794 0.835199
O O12 0.518538 0.765223 0.509497
O O13 0.596112 0.137509 0.688101
O O14 0.402010 0.494305 0.815037
O O15 0.000000 0.000000 0.500000
#
# Coordination Sequence:
#
# PCOD9009018 Si02
#       7
#     2   2   2   2   2   2   2
#     4  12  24  40  65 101 140 182 226 283 347 405
#     4  10  21  39  66  97 128 173 227 280 339 402
#     4  11  24  43  69  97 137 186 231 280 341 409
#     4  10  21  41  67  99 137 170 225 294 344 408
#     4  10  22  45  70  96 133 182 231 283 343 405
#     4  11  22  40  66  96 133 178 228 280 339 404
#     4  10  24  42  64  96 141 183 228 282 333 407
#
# _framework density 27.590752999999999
#
# number of rings (size 3 to 8) (size 9 to 14) (size 15 to 20)
#    0.000    1.429    0.000    6.857    0.000    6.857 
#    0.000    2.857    0.000    0.000    0.000    0.000 
#    0.000    0.000    0.000    0.000    0.000    0.000 
#
# Total GULP energy -78062.299177 kJ/mol
# GULP energy per Si atom -5575.878513 kJ/mol
# Density = 2.752796 g / cm^3
# Si number density = 27.590753 Si / 1000 Ang^3
#
#
#
# Elastic Constant Matrix: (Units=GPa)
#
#
# Indices 1 2 3 4 5 6 
#
# 1 130.8976 37.8291 49.0428 29.6085 -18.0076 -3.7585
# 2 37.8291 111.4177 42.6135 37.7984 -4.0750 -7.7557
# 3 49.0428 42.6135 112.2396 42.8203 -5.3070 -4.8703
# 4 29.6085 37.7984 42.8203 46.7148 -13.7066 -14.4669
# 5 -18.0076 -4.0750 -5.3070 -13.7066 54.4563 16.8308
# 6 -3.7585 -7.7557 -4.8703 -14.4669 16.8308 49.6276
#
#
#
# Elastic Compliance Matrix: (Units=1/GPa)
#
#
# Indices 1 2 3 4 5 6 
#
# 1 0.009990 -0.001605 -0.002954 -0.001900 0.002817 -0.001293
# 2 -0.001605 0.012896 -0.000704 -0.009419 -0.001922 -0.000269
# 3 -0.002954 -0.000704 0.015085 -0.012575 -0.002174 -0.001782
# 4 -0.001900 -0.009419 -0.012575 0.046274 0.006480 0.008442
# 5 0.002817 -0.001922 -0.002174 0.006480 0.022430 -0.006019
# 6 -0.001293 -0.000269 -0.001782 0.008442 -0.006019 0.024337
#
#
# Mechanical properties :
#
#
# Convention : Reuss Voigt Hill
#
# Bulk Modulus (GPa) = 36.43578 68.16953 52.30265
# Shear Modulus (GPa) = 33.18143 45.16435 39.17289
#
# Velocity S-wave (km/s) = 3.47166 4.05030 3.77209
# Velocity P-wave (km/s) = 5.41335 6.82893 6.16192
#
# Compressibility (1/GPa) = 0.02744555
#
# Stress axis : x y z
#
# Youngs Moduli (GPa) = 100.09778 77.54485 66.29117
#
# Poissons Ratio (x) = 0.12443 0.19584
# Poissons Ratio (y) = 0.16062 0.04666
# Poissons Ratio (z) = 0.29571 0.05459
#
# Static dielectric constant tensor:
#      x y z
#    x 2.389850 -0.000320 -0.032120 
#    y -0.000320 2.259600 -0.018910 
#    z -0.032120 -0.018910 2.351880 
# 
# From -- ./inp_files/377088.got.cif
#   From: 2010.05.17/outbox.cif.g08.bks.cpg/sg2_189_cif.got.tgz:377088.got - 2010.06.03 11:33:40.
