data_PCOD9009389
_publ_section_title
;
Structure prediction by ZEFSAII (Michael W. Deem and Ramdas Pophale) SiO2 
 PCOD9009389
Probable space group: P -1
;
_chemical_formula_sum "Si O2"
_cell_formula_units_Z 16
_cell_length_a 7.516196
_cell_length_b 9.571087
_cell_length_c 14.350468
_cell_angle_alpha 103.947286
_cell_angle_beta 49.667508
_cell_angle_gamma 127.408822
_cell_volume 605.040471
_symmetry_space_group_name_H-M "P -1"
_symmetry_group_IT_number 2
_symmetry_cell_setting 'triclinic'
loop_
_space_group_symop_operation_xyz
x,y,z
-x,-y,-z
loop_
_atom_site_type_symbol
_atom_site_label
_atom_site_fract_x
_atom_site_fract_y
_atom_site_fract_z
Si Si1 0.232898 0.075009 0.255337
Si Si2 0.866997 0.652599 0.035993
Si Si3 0.405789 0.823594 0.227328
Si Si4 0.372815 0.747049 0.012608
Si Si5 0.810261 0.153914 0.234349
Si Si6 0.625849 0.790801 0.502350
Si Si7 0.843152 0.581739 0.489623
Si Si8 0.286101 0.402261 0.268393
O O1 0.333160 0.967482 0.254553
O O2 0.895506 0.967033 0.384409
O O3 0.401196 0.289650 0.251572
O O4 0.339614 0.093488 0.115954
O O5 0.562597 0.601012 0.172546
O O6 0.093946 0.723865 0.056347
O O7 0.732269 0.453954 0.007719
O O8 0.046654 0.776278 0.906339
O O9 0.443335 0.782470 0.103131
O O10 0.113320 0.647283 0.341814
O O11 0.655280 0.940718 0.239831
O O12 0.571759 0.175214 0.364130
O O13 0.079264 0.278404 0.233936
O O14 0.757103 0.711974 0.508524
O O15 0.424154 0.625416 0.473380
O O16 0.897236 0.606051 0.584713
#
# Coordination Sequence:
#
# PCOD9009389 Si02
#       8
#     2   2   2   2   2   2   2   2
#     4  10  21  40  60  96 121 159 204 256 305 358
#     4  10  23  40  65  92 124 160 206 262 302 361
#     4  11  22  38  67  93 124 157 207 259 305 363
#     4  10  21  39  68  96 120 154 211 262 309 350
#     4  12  24  41  61  92 128 169 201 247 307 378
#     4  10  23  39  66  92 126 155 211 259 307 356
#     4  10  23  40  63  95 123 159 206 261 303 363
#     4  11  25  41  61  88 131 168 203 244 312 370
#
# _framework density 26.444512
#
# number of rings (size 3 to 8) (size 9 to 14) (size 15 to 20)
#    0.000    1.500    1.250    3.000    8.750    4.500 
#    0.000    3.750    0.000    0.000    0.000    0.000 
#    0.000    0.000    0.000    0.000    0.000    0.000 
#
# Total GULP energy -89428.096005 kJ/mol
# GULP energy per Si atom -5589.256000 kJ/mol
# Density = 2.638432 g / cm^3
# Si number density = 26.444512 Si / 1000 Ang^3
#
#
#
# Elastic Constant Matrix: (Units=GPa)
#
#
# Indices 1 2 3 4 5 6 
#
# 1 74.4376 9.6197 46.0125 -1.1780 2.9253 16.1735
# 2 9.6197 112.4403 43.1213 -5.7767 10.1372 14.0689
# 3 46.0125 43.1213 173.5041 -18.1778 -0.0236 33.3361
# 4 -1.1780 -5.7767 -18.1778 42.9725 4.7532 3.4269
# 5 2.9253 10.1372 -0.0236 4.7532 44.1478 2.9611
# 6 16.1735 14.0689 33.3361 3.4269 2.9611 31.9845
#
#
#
# Elastic Compliance Matrix: (Units=1/GPa)
#
#
# Indices 1 2 3 4 5 6 
#
# 1 0.016713 0.000645 -0.003754 -0.000572 -0.000882 -0.004680
# 2 0.000645 0.010227 -0.002137 0.000944 -0.002327 -0.002483
# 3 -0.003754 -0.002137 0.009067 0.003923 0.000799 -0.007106
# 4 -0.000572 0.000944 0.003923 0.025857 -0.002508 -0.006753
# 5 -0.000882 -0.002327 0.000799 -0.002508 0.023600 -0.001279
# 6 -0.004680 -0.002483 -0.007106 -0.006753 -0.001279 0.042972
#
#
# Mechanical properties :
#
#
# Convention : Reuss Voigt Hill
#
# Bulk Modulus (GPa) = 39.19100 61.98765 50.58933
# Shear Modulus (GPa) = 33.91371 41.26285 37.58828
#
# Velocity S-wave (km/s) = 3.58501 3.95442 3.77424
# Velocity P-wave (km/s) = 5.65585 6.65894 6.17779
#
# Compressibility (1/GPa) = 0.02551606
#
# Stress axis : x y z
#
# Youngs Moduli (GPa) = 59.83239 97.78015 110.29495
#
# Poissons Ratio (x) = -0.06310 0.41400
# Poissons Ratio (y) = -0.03861 0.23573
# Poissons Ratio (z) = 0.22458 0.20898
#
# Static dielectric constant tensor:
#      x y z
#    x 2.278620 -0.062080 -0.096580 
#    y -0.062080 2.039620 0.047530 
#    z -0.096580 0.047530 2.086530 
# 
# From -- ./inp_files/218651.got.cif
#   From: 2010.05.17/outbox.cif.g08.bks.cpg/sg2_110_cif.got.tgz:218651.got - 2010.06.03 11:33:40.
