data_PCOD9009097
_publ_section_title
;
Structure prediction by ZEFSAII (Michael W. Deem and Ramdas Pophale) SiO2 
 PCOD9009097
Probable space group: P -1
;
_chemical_formula_sum "Si O2"
_cell_formula_units_Z 16
_cell_length_a 9.394283
_cell_length_b 5.557326
_cell_length_c 22.573239
_cell_angle_alpha 56.489372
_cell_angle_beta 132.642125
_cell_angle_gamma 128.981948
_cell_volume 657.324100
_symmetry_space_group_name_H-M "P -1"
_symmetry_group_IT_number 2
_symmetry_cell_setting 'triclinic'
loop_
_space_group_symop_operation_xyz
x,y,z
-x,-y,-z
loop_
_atom_site_type_symbol
_atom_site_label
_atom_site_fract_x
_atom_site_fract_y
_atom_site_fract_z
Si Si1 0.086925 0.235495 0.570634
Si Si2 0.653391 0.759159 0.462960
Si Si3 0.878397 0.710123 0.193797
Si Si4 0.893630 0.072648 0.260404
Si Si5 0.274379 0.558829 0.231324
Si Si6 0.092219 0.738386 0.049054
Si Si7 0.613925 0.856347 0.006083
Si Si8 0.384871 0.056602 0.286290
O O1 0.295329 0.337282 0.574435
O O2 0.000000 0.500000 0.500000
O O3 0.888196 0.917757 0.535368
O O4 0.115030 0.148004 0.656989
O O5 0.500000 0.500000 0.500000
O O6 0.539733 0.990914 0.384226
O O7 0.817802 0.856150 0.098972
O O8 0.803861 0.333875 0.216037
O O9 0.132872 0.853896 0.254873
O O10 0.796464 0.842338 0.208490
O O11 0.139597 0.305949 0.278458
O O12 0.097372 0.569873 0.134439
O O13 0.400944 0.904007 0.248580
O O14 0.409424 0.411971 0.252527
O O15 0.000000 0.500000 0.000000
O O16 0.328407 0.938129 0.064824
O O17 0.000000 0.000000 0.000000
O O18 0.500000 0.500000 0.000000
O O19 0.500000 0.000000 0.000000
#
# Coordination Sequence:
#
# PCOD9009097 Si02
#       8
#     2   2   2   2   2   2   2   2
#     4  11  28  46  74 112 149 195 246 310 375 446
#     4  11  26  48  76 107 149 195 250 306 373 451
#     4  10  21  43  72  96 141 198 239 295 370 440
#     4  10  21  42  70  99 142 190 236 297 371 428
#     4  10  21  39  67 102 136 182 245 298 356 429
#     4  12  23  43  75 103 138 190 251 296 358 447
#     4  12  26  46  70 109 150 193 239 309 382 435
#     4  10  22  41  69 102 137 186 247 290 364 433
#
# _framework density 24.341113
#
# number of rings (size 3 to 8) (size 9 to 14) (size 15 to 20)
#    0.000    1.250    0.000    6.750    8.750    0.500 
#    6.750    0.000    0.000    0.000    0.000    0.000 
#    0.000    0.000    0.000    0.000    0.000    0.000 
#
# Total GULP energy -89392.188947 kJ/mol
# GULP energy per Si atom -5587.011809 kJ/mol
# Density = 2.428571 g / cm^3
# Si number density = 24.341113 Si / 1000 Ang^3
#
#
#
# Elastic Constant Matrix: (Units=GPa)
#
#
# Indices 1 2 3 4 5 6 
#
# 1 137.6052 61.9888 35.5149 -13.6922 -5.8737 -11.6060
# 2 61.9888 118.4663 20.2534 0.0536 -8.9076 -42.9553
# 3 35.5149 20.2534 115.3320 -10.9582 -7.5460 -12.3924
# 4 -13.6922 0.0536 -10.9582 43.2540 -6.5836 -1.2337
# 5 -5.8737 -8.9076 -7.5460 -6.5836 41.2426 -8.3586
# 6 -11.6060 -42.9553 -12.3924 -1.2337 -8.3586 62.3109
#
#
#
# Elastic Compliance Matrix: (Units=1/GPa)
#
#
# Indices 1 2 3 4 5 6 
#
# 1 0.010673 -0.006224 -0.002258 0.002680 -0.000366 -0.002748
# 2 -0.006224 0.015717 0.000485 -0.000877 0.004558 0.010366
# 3 -0.002258 0.000485 0.009890 0.002220 0.002403 0.002247
# 4 0.002680 -0.000877 0.002220 0.025327 0.004945 0.001501
# 5 -0.000366 0.004558 0.002403 0.004945 0.027906 0.007393
# 6 -0.002748 0.010366 0.002247 0.001501 0.007393 0.024151
#
#
# Mechanical properties :
#
#
# Convention : Reuss Voigt Hill
#
# Bulk Modulus (GPa) = 49.29418 67.43531 58.36475
# Shear Modulus (GPa) = 36.65160 46.27125 41.46143
#
# Velocity S-wave (km/s) = 3.88461 4.36472 4.13164
# Velocity P-wave (km/s) = 6.35733 7.29146 6.84036
#
# Compressibility (1/GPa) = 0.02028637
#
# Stress axis : x y z
#
# Youngs Moduli (GPa) = 93.69459 63.62690 101.10832
#
# Poissons Ratio (x) = 0.39600 0.22833
# Poissons Ratio (y) = 0.58313 -0.04906
# Poissons Ratio (z) = 0.21158 -0.03087
#
# Static dielectric constant tensor:
#      x y z
#    x 2.021550 -0.135960 0.023720 
#    y -0.135960 2.768730 0.011310 
#    z 0.023720 0.011310 1.917260 
# 
# From -- ./inp_files/585575.got.cif
#   From: 2010.05.17/outbox.cif.g08.bks.cpg/sg2_293_cif.got.tgz:585575.got - 2010.06.03 11:33:40.
