data_PCOD9009860
_publ_section_title
;
Structure prediction by ZEFSAII (Michael W. Deem and Ramdas Pophale) SiO2 
 PCOD9009860
Probable space group: P -1
;
_chemical_formula_sum "Si O2"
_cell_formula_units_Z 14
_cell_length_a 7.699973
_cell_length_b 9.726443
_cell_length_c 22.758837
_cell_angle_alpha 142.210027
_cell_angle_beta 36.797477
_cell_angle_gamma 135.847892
_cell_volume 608.737351
_symmetry_space_group_name_H-M "P -1"
_symmetry_group_IT_number 2
_symmetry_cell_setting 'triclinic'
loop_
_space_group_symop_operation_xyz
x,y,z
-x,-y,-z
loop_
_atom_site_type_symbol
_atom_site_label
_atom_site_fract_x
_atom_site_fract_y
_atom_site_fract_z
Si Si1 0.097601 0.163447 0.141610
Si Si2 0.257148 0.086362 0.517283
Si Si3 0.901869 0.408954 0.781366
Si Si4 0.074193 0.852934 0.197089
Si Si5 0.433572 0.068472 0.721117
Si Si6 0.254669 0.721038 0.988159
Si Si7 0.077429 0.769807 0.563070
O O1 0.063026 0.322399 0.149865
O O2 0.128585 0.898087 0.041387
O O3 0.418752 0.294855 0.126280
O O4 0.809115 0.137279 0.252488
O O5 0.592376 0.146771 0.472433
O O6 0.128954 0.305078 0.644398
O O7 0.312730 0.019837 0.413047
O O8 0.087923 0.867050 0.527299
O O9 0.585681 0.256370 0.791443
O O10 0.942436 0.340128 0.814117
O O11 0.761726 0.827590 0.238269
O O12 0.308390 0.842233 0.079217
O O13 0.125986 0.094934 0.298895
O O14 0.000000 0.500000 0.000000
O O15 0.000000 0.500000 0.500000
#
# Coordination Sequence:
#
# PCOD9009860 Si02
#       7
#     2   2   2   2   2   2   2
#     4  10  22  38  62  92 117 155 213 253 305 383
#     4   9  20  35  56  90 128 164 208 250 301 372
#     4  11  22  39  61  91 126 159 205 262 307 363
#     4   9  21  40  63  90 123 160 205 254 308 368
#     4  10  21  40  60  88 130 170 202 250 309 363
#     4  10  21  44  67  87 122 163 204 264 319 363
#     4   9  18  36  61  92 127 164 205 251 304 368
#
# _framework density 22.998424
#
# number of rings (size 3 to 8) (size 9 to 14) (size 15 to 20)
#    0.000    2.286    0.000    3.000    0.000    6.857 
#    0.000   21.429    0.000    0.000    0.000    0.000 
#    0.000    0.000    0.000    0.000    0.000    0.000 
#
# Total GULP energy -78071.563182 kJ/mol
# GULP energy per Si atom -5576.540227 kJ/mol
# Density = 2.294608 g / cm^3
# Si number density = 22.998424 Si / 1000 Ang^3
#
#
#
# Elastic Constant Matrix: (Units=GPa)
#
#
# Indices 1 2 3 4 5 6 
#
# 1 92.0129 38.7184 -1.6946 -0.5632 -0.6740 -34.7243
# 2 38.7184 163.8571 41.8416 16.5135 0.4288 -23.1577
# 3 -1.6946 41.8416 66.9251 -11.9906 -5.5429 -6.2464
# 4 -0.5632 16.5135 -11.9906 35.6232 -5.4354 -16.4193
# 5 -0.6740 0.4288 -5.5429 -5.4354 23.5735 5.4911
# 6 -34.7243 -23.1577 -6.2464 -16.4193 5.4911 35.3826
#
#
#
# Elastic Compliance Matrix: (Units=1/GPa)
#
#
# Indices 1 2 3 4 5 6 
#
# 1 0.028621 -0.007632 0.013789 0.026103 0.001505 0.037408
# 2 -0.007632 0.010725 -0.010178 -0.012574 -0.003962 -0.007488
# 3 0.013789 -0.010178 0.029287 0.026728 0.008232 0.023167
# 4 0.026103 -0.012574 0.026728 0.069187 0.010981 0.052509
# 5 0.001505 -0.003962 0.008232 0.010981 0.047453 -0.001931
# 6 0.037408 -0.007488 0.023167 0.052509 -0.001931 0.088830
#
#
# Mechanical properties :
#
#
# Convention : Reuss Voigt Hill
#
# Bulk Modulus (GPa) = 16.50402 53.39176 34.94789
# Shear Modulus (GPa) = 16.53756 35.17785 25.85771
#
# Velocity S-wave (km/s) = 2.68446 3.91522 3.35673
# Velocity P-wave (km/s) = 4.09880 6.61093 5.50021
#
# Compressibility (1/GPa) = 0.06059131
#
# Stress axis : x y z
#
# Youngs Moduli (GPa) = 34.93900 93.24398 34.14454
#
# Poissons Ratio (x) = 0.71163 -0.47082
# Poissons Ratio (y) = 0.26665 0.34752
# Poissons Ratio (z) = -0.48177 0.94903
#
# Static dielectric constant tensor:
#      x y z
#    x 1.921440 0.012470 -0.027350 
#    y 0.012470 1.846540 0.019100 
#    z -0.027350 0.019100 1.988960 
# 
# From -- ./inp_files/606857.got.cif
#   From: 2010.05.17/outbox.cif.g08.bks.cpg/sg2_304_cif.got.tgz:606857.got - 2010.06.03 11:33:40.
