data_PCOD9009887
_publ_section_title
;
Structure prediction by ZEFSAII (Michael W. Deem and Ramdas Pophale) SiO2 
 PCOD9009887
Probable space group: P -1
;
_chemical_formula_sum "Si O2"
_cell_formula_units_Z 16
_cell_length_a 10.069604
_cell_length_b 10.189959
_cell_length_c 8.584517
_cell_angle_alpha 49.084978
_cell_angle_beta 105.117447
_cell_angle_gamma 117.045810
_cell_volume 591.951380
_symmetry_space_group_name_H-M "P -1"
_symmetry_group_IT_number 2
_symmetry_cell_setting 'triclinic'
loop_
_space_group_symop_operation_xyz
x,y,z
-x,-y,-z
loop_
_atom_site_type_symbol
_atom_site_label
_atom_site_fract_x
_atom_site_fract_y
_atom_site_fract_z
Si Si1 0.591068 0.916919 0.201796
Si Si2 0.946587 0.949986 0.786838
Si Si3 0.075018 0.440010 0.926026
Si Si4 0.363510 0.474921 0.166703
Si Si5 0.301486 0.055712 0.461890
Si Si6 0.141420 0.740023 0.441668
Si Si7 0.297809 0.567313 0.414216
Si Si8 0.306270 0.258697 0.878877
O O1 0.656390 0.011354 0.310749
O O2 0.470220 0.709322 0.362281
O O3 0.712344 0.887153 0.153414
O O4 0.500000 0.000000 0.000000
O O5 0.867334 0.950021 0.595618
O O6 0.982145 0.165892 0.681358
O O7 0.009972 0.787785 0.934217
O O8 0.808643 0.849035 0.942432
O O9 0.082321 0.568402 0.678822
O O10 0.246418 0.482838 0.996542
O O11 0.000000 0.500000 0.000000
O O12 0.390099 0.281044 0.300907
O O13 0.285214 0.476474 0.309965
O O14 0.522124 0.650928 0.080307
O O15 0.287506 0.903558 0.441497
O O16 0.197489 0.682134 0.344384
O O17 0.279058 0.427669 0.658809
#
# Coordination Sequence:
#
# PCOD9009887 Si02
#       8
#     2   2   2   2   2   2   2   2
#     4  11  21  32  51  88 131 171 198 237 296 373
#     4   9  22  39  62  90 125 159 197 255 305 358
#     4  11  24  44  67  87 116 164 213 261 310 357
#     4  10  21  40  60  91 124 169 204 246 302 365
#     4   9  20  37  51  87 121 161 208 239 302 354
#     4  10  23  40  60  93 121 159 206 255 303 367
#     4  11  20  36  59  87 131 164 201 240 303 377
#     4  11  19  36  60  88 130 167 197 237 306 375
#
# _framework density 27.029245
#
# number of rings (size 3 to 8) (size 9 to 14) (size 15 to 20)
#    0.750    1.000    3.750    1.500    3.500    4.000 
#    0.000    0.625    0.000    0.750    0.000    0.000 
#    0.000    0.000    0.000    0.000    0.000    0.000 
#
# Total GULP energy -89415.577269 kJ/mol
# GULP energy per Si atom -5588.473579 kJ/mol
# Density = 2.696773 g / cm^3
# Si number density = 27.029245 Si / 1000 Ang^3
#
#
#
# Elastic Constant Matrix: (Units=GPa)
#
#
# Indices 1 2 3 4 5 6 
#
# 1 63.6279 47.2075 43.3408 -3.1751 -5.1865 -12.5308
# 2 47.2075 147.9662 44.1836 4.1051 10.5931 -9.1935
# 3 43.3408 44.1836 129.0426 -5.7195 12.5611 -5.6013
# 4 -3.1751 4.1051 -5.7195 38.2933 -12.5968 6.3026
# 5 -5.1865 10.5931 12.5611 -12.5968 24.4932 -5.4432
# 6 -12.5308 -9.1935 -5.6013 6.3026 -5.4432 59.2305
#
#
#
# Elastic Compliance Matrix: (Units=1/GPa)
#
#
# Indices 1 2 3 4 5 6 
#
# 1 0.031380 -0.008673 -0.008956 0.007974 0.020303 0.005463
# 2 -0.008673 0.010236 0.000034 -0.004606 -0.008774 -0.000559
# 3 -0.008956 0.000034 0.011484 -0.001763 -0.009028 -0.001446
# 4 0.007974 -0.004606 -0.001763 0.034411 0.022098 -0.000825
# 5 0.020303 -0.008774 -0.009028 0.022098 0.066208 0.005813
# 6 0.005463 -0.000559 -0.001446 -0.000825 0.005813 0.018437
#
#
# Mechanical properties :
#
#
# Convention : Reuss Voigt Hill
#
# Bulk Modulus (GPa) = 55.83330 67.78894 61.81112
# Shear Modulus (GPa) = 23.43938 38.13041 30.78490
#
# Velocity S-wave (km/s) = 2.94800 3.76002 3.37849
# Velocity P-wave (km/s) = 5.68235 6.63209 6.17550
#
# Compressibility (1/GPa) = 0.01791046
#
# Stress axis : x y z
#
# Youngs Moduli (GPa) = 31.86757 97.69093 87.07991
#
# Poissons Ratio (x) = 0.84724 0.77986
# Poissons Ratio (y) = 0.27638 -0.00292
# Poissons Ratio (z) = 0.28540 -0.00328
#
# Static dielectric constant tensor:
#      x y z
#    x 2.223060 0.002420 0.049380 
#    y 0.002420 2.186940 -0.030080 
#    z 0.049380 -0.030080 2.136390 
# 
# From -- ./inp_files/256383.got.cif
#   From: 2010.05.17/outbox.cif.g08.bks.cpg/sg2_129_cif.got.tgz:256383.got - 2010.06.03 11:33:40.
