data_PCOD9009684
_publ_section_title
;
Structure prediction by ZEFSAII (Michael W. Deem and Ramdas Pophale) SiO2 
 PCOD9009684
Probable space group: P -1
;
_chemical_formula_sum "Si O2"
_cell_formula_units_Z 10
_cell_length_a 7.767693
_cell_length_b 12.414338
_cell_length_c 5.585736
_cell_angle_alpha 100.471338
_cell_angle_beta 62.994500
_cell_angle_gamma 126.369346
_cell_volume 383.539075
_symmetry_space_group_name_H-M "P -1"
_symmetry_group_IT_number 2
_symmetry_cell_setting 'triclinic'
loop_
_space_group_symop_operation_xyz
x,y,z
-x,-y,-z
loop_
_atom_site_type_symbol
_atom_site_label
_atom_site_fract_x
_atom_site_fract_y
_atom_site_fract_z
Si Si1 0.255809 0.991782 0.615443
Si Si2 0.878779 0.697572 0.827948
Si Si3 0.418905 0.562237 0.376132
Si Si4 0.401209 0.091533 0.064340
Si Si5 0.800908 0.344113 0.108089
O O1 0.026759 0.839061 0.659277
O O2 0.500000 0.000000 0.500000
O O3 0.281673 0.070956 0.390648
O O4 0.248292 0.046244 0.902603
O O5 0.806565 0.569603 0.660844
O O6 0.061267 0.717607 0.921894
O O7 0.632601 0.647516 0.089043
O O8 0.500000 0.500000 0.500000
O O9 0.349900 0.651117 0.582837
O O10 0.622476 0.248429 0.975521
O O11 0.500000 0.000000 0.000000
O O12 0.000000 0.500000 0.000000
#
# Coordination Sequence:
#
# PCOD9009684 Si02
#       5
#     2   2   2   2   2
#     4  10  21  39  73  96 137 185 232 283 353 413
#     4  11  24  45  69  99 141 187 228 297 344 420
#     4  11  26  43  65 105 142 177 238 287 355 413
#     4  10  22  41  67 106 134 179 240 282 348 422
#     4  12  24  42  76 102 136 189 234 287 353 420
#
# _framework density 26.072963999999999
#
# number of rings (size 3 to 8) (size 9 to 14) (size 15 to 20)
#    0.000    1.200    6.000    0.600    8.400    1.600 
#    0.000    2.000    0.000    0.000    0.000    0.000 
#    0.000    0.000    0.000    0.000    0.000    0.000 
#
# Total GULP energy -56022.712439 kJ/mol
# GULP energy per Si atom -5602.271244 kJ/mol
# Density = 2.601362 g / cm^3
# Si number density = 26.072964 Si / 1000 Ang^3
#
#
#
# Elastic Constant Matrix: (Units=GPa)
#
#
# Indices 1 2 3 4 5 6 
#
# 1 92.9985 17.3494 19.6139 2.1833 4.4109 16.7665
# 2 17.3494 202.5401 59.9528 -10.8380 -10.3405 27.1300
# 3 19.6139 59.9528 96.1574 4.4670 16.3736 12.0197
# 4 2.1833 -10.8380 4.4670 45.5969 0.7514 10.6867
# 5 4.4109 -10.3405 16.3736 0.7514 38.7674 3.0796
# 6 16.7665 27.1300 12.0197 10.6867 3.0796 33.4563
#
#
#
# Elastic Compliance Matrix: (Units=1/GPa)
#
#
# Indices 1 2 3 4 5 6 
#
# 1 0.012174 0.000452 -0.002068 0.001156 0.000071 -0.006100
# 2 0.000452 0.007646 -0.005025 0.003669 0.004532 -0.006210
# 3 -0.002068 -0.005025 0.015220 -0.002747 -0.007577 0.001218
# 4 0.001156 0.003669 -0.002747 0.025543 0.002382 -0.010946
# 5 0.000071 0.004532 -0.007577 0.002382 0.030512 -0.004558
# 6 -0.006100 -0.006210 0.001218 -0.010946 -0.004558 0.041461
#
#
# Mechanical properties :
#
#
# Convention : Reuss Voigt Hill
#
# Bulk Modulus (GPa) = 45.96244 65.05869 55.51056
# Shear Modulus (GPa) = 32.66043 43.21612 37.93827
#
# Velocity S-wave (km/s) = 3.54313 4.07567 3.81869
# Velocity P-wave (km/s) = 5.86558 6.86693 6.38591
#
# Compressibility (1/GPa) = 0.02175690
#
# Stress axis : x y z
#
# Youngs Moduli (GPa) = 82.14203 130.79486 65.70286
#
# Poissons Ratio (x) = -0.05912 0.13590
# Poissons Ratio (y) = -0.03713 0.33016
# Poissons Ratio (z) = 0.16990 0.65725
#
# Static dielectric constant tensor:
#      x y z
#    x 2.019530 -0.010360 0.017740 
#    y -0.010360 2.040170 -0.027180 
#    z 0.017740 -0.027180 2.114540 
# 
# From -- ./inp_files/15143.got.cif
#   From: 2010.05.17/outbox.cif.g08.bks.cpg/sg2_8_cif.got.tgz:15143.got - 2010.06.03 11:33:40.
