data_PCOD9009378
_publ_section_title
;
Structure prediction by ZEFSAII (Michael W. Deem and Ramdas Pophale) SiO2 
 PCOD9009378
Probable space group: P -1
;
_chemical_formula_sum "Si O2"
_cell_formula_units_Z 16
_cell_length_a 9.363889
_cell_length_b 10.970204
_cell_length_c 10.860085
_cell_angle_alpha 51.174607
_cell_angle_beta 54.795891
_cell_angle_gamma 88.608894
_cell_volume 602.368951
_symmetry_space_group_name_H-M "P -1"
_symmetry_group_IT_number 2
_symmetry_cell_setting 'triclinic'
loop_
_space_group_symop_operation_xyz
x,y,z
-x,-y,-z
loop_
_atom_site_type_symbol
_atom_site_label
_atom_site_fract_x
_atom_site_fract_y
_atom_site_fract_z
Si Si1 0.060361 0.315864 0.149019
Si Si2 0.450685 0.098340 0.358593
Si Si3 0.915164 0.381280 0.918359
Si Si4 0.469464 0.604817 0.335829
Si Si5 0.082884 0.881309 0.095885
Si Si6 0.419731 0.906424 0.272908
Si Si7 0.532803 0.569154 0.796350
Si Si8 0.828387 0.947809 0.823012
O O1 0.073150 0.132420 0.267696
O O2 0.955390 0.317275 0.071768
O O3 0.008843 0.405416 0.233500
O O4 0.301930 0.484488 0.911367
O O5 0.668625 0.262724 0.092231
O O6 0.355499 0.210988 0.386958
O O7 0.500000 0.000000 0.500000
O O8 0.330613 0.932541 0.428493
O O9 0.001165 0.309526 0.814134
O O10 0.500000 0.500000 0.500000
O O11 0.361292 0.711571 0.370672
O O12 0.384181 0.501548 0.311228
O O13 0.702787 0.770269 0.085162
O O14 0.333396 0.991086 0.892636
O O15 0.038399 0.879689 0.263651
O O16 0.000000 0.000000 0.000000
O O17 0.350148 0.020361 0.154237
O O18 0.500000 0.500000 0.000000
#
# Coordination Sequence:
#
# PCOD9009378 Si02
#       8
#     2   2   2   2   2   2   2   2
#     4   9  17  31  50  74 106 137 178 226 274 318
#     4  10  19  33  53  79 108 140 180 226 275 331
#     4   9  18  30  48  78 106 137 178 225 271 321
#     4  10  19  32  51  79 110 141 179 220 274 328
#     4  10  17  29  49  76 105 135 175 220 268 317
#     4  10  21  34  52  82 111 139 182 230 278 320
#     4  10  20  33  53  77 107 142 180 228 275 318
#     4  10  19  33  53  78 109 137 175 231 277 315
#
# _framework density 26.561793000000002
#
# number of rings (size 3 to 8) (size 9 to 14) (size 15 to 20)
#    0.000    2.250    1.250    3.750    0.000    2.000 
#    0.000    0.000    0.000    3.000    0.000   14.000 
#    0.000    0.000    0.000    0.000    0.000    0.000 
#
# Total GULP energy -89224.534310 kJ/mol
# GULP energy per Si atom -5576.533394 kJ/mol
# Density = 2.650134 g / cm^3
# Si number density = 26.561793 Si / 1000 Ang^3
#
#
#
# Elastic Constant Matrix: (Units=GPa)
#
#
# Indices 1 2 3 4 5 6 
#
# 1 106.5877 58.4904 26.7034 -7.0311 6.9934 -20.5231
# 2 58.4904 371.0629 59.1469 -23.3850 6.6276 -8.4920
# 3 26.7034 59.1469 74.3695 -4.6598 19.8652 -1.7810
# 4 -7.0311 -23.3850 -4.6598 41.9867 -1.1554 -4.7515
# 5 6.9934 6.6276 19.8652 -1.1554 44.7394 -5.2559
# 6 -20.5231 -8.4920 -1.7810 -4.7515 -5.2559 55.5910
#
#
#
# Elastic Compliance Matrix: (Units=1/GPa)
#
#
# Indices 1 2 3 4 5 6 
#
# 1 0.011692 -0.001157 -0.003161 0.001444 0.000277 0.004188
# 2 -0.001157 0.003334 -0.002352 0.001447 0.000793 0.000205
# 3 -0.003161 -0.002352 0.018413 -0.000192 -0.007534 -0.001665
# 4 0.001444 0.001447 -0.000192 0.025197 0.000644 0.002963
# 5 0.000277 0.000793 -0.007534 0.000644 0.025844 0.002480
# 6 0.004188 0.000205 -0.001665 0.002963 0.002480 0.020000
#
#
# Mechanical properties :
#
#
# Convention : Reuss Voigt Hill
#
# Bulk Modulus (GPa) = 49.75635 93.41127 71.58381
# Shear Modulus (GPa) = 40.15387 55.64203 47.89795
#
# Velocity S-wave (km/s) = 3.89230 4.58188 4.25109
# Velocity P-wave (km/s) = 6.24283 7.95207 7.14872
#
# Compressibility (1/GPa) = 0.02009794
#
# Stress axis : x y z
#
# Youngs Moduli (GPa) = 85.52506 299.93306 54.31043
#
# Poissons Ratio (x) = 0.34711 0.17168
# Poissons Ratio (y) = 0.09898 0.12776
# Poissons Ratio (z) = 0.27035 0.70554
#
# Static dielectric constant tensor:
#      x y z
#    x 2.078400 -0.015320 -0.027600 
#    y -0.015320 2.267080 0.069760 
#    z -0.027600 0.069760 2.124860 
# 
# From -- ./inp_files/386692.got.cif
#   From: 2010.05.17/outbox.cif.g08.bks.cpg/sg2_194_cif.got.tgz:386692.got - 2010.06.03 11:33:40.
