data_PCOD9009607
_publ_section_title
;
Structure prediction by ZEFSAII (Michael W. Deem and Ramdas Pophale) SiO2 
 PCOD9009607
Probable space group: P -1
;
_chemical_formula_sum "Si O2"
_cell_formula_units_Z 16
_cell_length_a 19.675179
_cell_length_b 9.465272
_cell_length_c 9.238952
_cell_angle_alpha 78.120198
_cell_angle_beta 143.516494
_cell_angle_gamma 124.630790
_cell_volume 722.506556
_symmetry_space_group_name_H-M "P -1"
_symmetry_group_IT_number 2
_symmetry_cell_setting 'triclinic'
loop_
_space_group_symop_operation_xyz
x,y,z
-x,-y,-z
loop_
_atom_site_type_symbol
_atom_site_label
_atom_site_fract_x
_atom_site_fract_y
_atom_site_fract_z
Si Si1 0.525576 0.055132 0.201283
Si Si2 0.737908 0.078359 0.767676
Si Si3 0.682308 0.774494 0.309322
Si Si4 0.052918 0.879140 0.118254
Si Si5 0.324261 0.532462 0.712144
Si Si6 0.903602 0.570907 0.410877
Si Si7 0.256195 0.002662 0.899765
Si Si8 0.108828 0.511462 0.903899
O O1 0.598764 0.992015 0.435509
O O2 0.652364 0.297381 0.366835
O O3 0.500000 0.000000 0.000000
O O4 0.366298 0.978454 0.016489
O O5 0.883180 0.130070 0.921130
O O6 0.691841 0.942788 0.856114
O O7 0.792431 0.278899 0.889350
O O8 0.719075 0.639356 0.427793
O O9 0.793444 0.977877 0.544452
O O10 0.715620 0.833278 0.184489
O O11 0.499051 0.647309 0.047477
O O12 0.935038 0.661811 0.035488
O O13 0.000000 0.000000 0.000000
O O14 0.203947 0.443922 0.654954
O O15 0.823255 0.480415 0.136258
O O16 0.071464 0.798412 0.626741
O O17 0.951347 0.460007 0.590075
#
# Coordination Sequence:
#
# PCOD9009607 Si02
#       8
#     2   2   2   2   2   2   2   2
#     4  11  24  42  72  94 135 170 221 269 334 393
#     4  11  24  41  67  99 134 170 222 278 327 386
#     4  10  23  45  64  92 141 174 227 255 340 403
#     4  12  26  42  64  96 137 178 221 272 330 393
#     4  10  23  39  70  96 126 182 215 270 325 403
#     4  10  21  39  70  98 130 165 228 273 329 384
#     4  10  22  42  65 101 127 174 217 277 321 394
#     4  10  23  40  64 100 134 165 223 275 330 387
#
# _framework density 22.145126999999999
#
# number of rings (size 3 to 8) (size 9 to 14) (size 15 to 20)
#    0.000    1.500    1.250    3.000   10.500    1.500 
#    2.250    0.000    0.000    3.750    0.000    0.000 
#    0.000    0.000    0.000    0.000    0.000    0.000 
#
# Total GULP energy -89430.241966 kJ/mol
# GULP energy per Si atom -5589.390123 kJ/mol
# Density = 2.209472 g / cm^3
# Si number density = 22.145127 Si / 1000 Ang^3
#
#
#
# Elastic Constant Matrix: (Units=GPa)
#
#
# Indices 1 2 3 4 5 6 
#
# 1 106.7717 8.9170 30.2202 -1.5694 5.5162 24.1374
# 2 8.9170 77.8452 15.3908 -3.1964 2.1923 13.0276
# 3 30.2202 15.3908 65.0454 -2.8192 -14.5747 12.1475
# 4 -1.5694 -3.1964 -2.8192 31.9942 4.3947 -2.4452
# 5 5.5162 2.1923 -14.5747 4.3947 40.2266 2.7145
# 6 24.1374 13.0276 12.1475 -2.4452 2.7145 28.9405
#
#
#
# Elastic Compliance Matrix: (Units=1/GPa)
#
#
# Indices 1 2 3 4 5 6 
#
# 1 0.012928 0.001132 -0.005355 0.000045 -0.003190 -0.008742
# 2 0.001132 0.014421 -0.003214 0.001018 -0.001823 -0.005830
# 3 -0.005355 -0.003214 0.021342 -0.000228 0.008930 -0.003902
# 4 0.000045 0.001018 -0.000228 0.032069 -0.003828 0.002668
# 5 -0.003190 -0.001823 0.008930 -0.003828 0.029275 -0.003337
# 6 -0.008742 -0.005830 -0.003902 0.002668 -0.003337 0.046645
#
#
# Mechanical properties :
#
#
# Convention : Reuss Voigt Hill
#
# Bulk Modulus (GPa) = 29.56959 39.85758 34.71359
# Shear Modulus (GPa) = 27.34845 33.24122 30.29483
#
# Velocity S-wave (km/s) = 3.51802 3.87856 3.70268
# Velocity P-wave (km/s) = 5.46659 6.17212 5.83003
#
# Compressibility (1/GPa) = 0.03381853
#
# Stress axis : x y z
#
# Youngs Moduli (GPa) = 77.34853 69.34568 46.85596
#
# Poissons Ratio (x) = -0.07853 0.25090
# Poissons Ratio (y) = -0.08759 0.15059
# Poissons Ratio (z) = 0.41418 0.22288
#
# Static dielectric constant tensor:
#      x y z
#    x 1.805590 -0.019570 -0.024100 
#    y -0.019570 1.829850 0.003900 
#    z -0.024100 0.003900 1.881500 
# 
# From -- ./inp_files/328966.got.cif
#   From: 2010.05.17/outbox.cif.g08.bks.cpg/sg2_165_cif.got.tgz:328966.got - 2010.06.03 11:33:40.
