data_PCOD9009317
_publ_section_title
;
Structure prediction by ZEFSAII (Michael W. Deem and Ramdas Pophale) SiO2 
 PCOD9009317
Probable space group: P -1
;
_chemical_formula_sum "Si O2"
_cell_formula_units_Z 16
_cell_length_a 9.970964
_cell_length_b 16.872848
_cell_length_c 5.493811
_cell_angle_alpha 80.502620
_cell_angle_beta 115.504829
_cell_angle_gamma 76.711555
_cell_volume 774.335457
_symmetry_space_group_name_H-M "P -1"
_symmetry_group_IT_number 2
_symmetry_cell_setting 'triclinic'
loop_
_space_group_symop_operation_xyz
x,y,z
-x,-y,-z
loop_
_atom_site_type_symbol
_atom_site_label
_atom_site_fract_x
_atom_site_fract_y
_atom_site_fract_z
Si Si1 0.464463 0.958940 0.740704
Si Si2 0.063821 0.780503 0.319345
Si Si3 0.645068 0.701707 0.582460
Si Si4 0.684676 0.369682 0.154459
Si Si5 0.302404 0.775260 0.128862
Si Si6 0.159713 0.925099 0.601549
Si Si7 0.404078 0.463739 0.254153
Si Si8 0.721279 0.774758 0.093749
O O1 0.283127 0.965078 0.569891
O O2 0.500000 0.000000 0.500000
O O3 0.573418 0.860469 0.896724
O O4 0.500000 0.000000 0.000000
O O5 0.160429 0.689709 0.559921
O O6 0.139712 0.772424 0.116444
O O7 0.116140 0.855345 0.442094
O O8 0.880629 0.798068 0.198246
O O9 0.455607 0.754582 0.428930
O O10 0.667866 0.601499 0.645274
O O11 0.702032 0.733224 0.360010
O O12 0.723651 0.718425 0.884226
O O13 0.534359 0.408784 0.191484
O O14 0.644503 0.303278 0.977951
O O15 0.709624 0.450898 0.004962
O O16 0.255048 0.868413 0.929719
O O17 0.000000 0.000000 0.500000
O O18 0.500000 0.500000 0.500000
#
# Coordination Sequence:
#
# PCOD9009317 Si02
#       8
#     2   2   2   2   2   2   2   2
#     4  12  27  46  70 103 141 180 228 293 353 408
#     4  11  25  44  70  97 138 191 227 290 346 419
#     4  12  24  45  69 105 133 188 226 290 346 414
#     4  10  21  39  68 104 136 172 238 289 340 405
#     4  11  22  42  72  97 135 182 241 284 344 411
#     4  11  26  44  71 101 138 183 241 287 342 422
#     4  11  21  37  72 105 135 175 239 290 340 416
#     4  12  28  46  69  99 147 183 232 282 363 416
#
# _framework density 20.662879
#
# number of rings (size 3 to 8) (size 9 to 14) (size 15 to 20)
#    0.000    0.750    3.750    3.000    8.750    0.500 
#    0.000    1.250    0.000    0.000    0.000    0.000 
#    0.000    0.000    0.000    0.000    0.000    0.000 
#
# Total GULP energy -89384.924279 kJ/mol
# GULP energy per Si atom -5586.557767 kJ/mol
# Density = 2.061585 g / cm^3
# Si number density = 20.662879 Si / 1000 Ang^3
#
#
#
# Elastic Constant Matrix: (Units=GPa)
#
#
# Indices 1 2 3 4 5 6 
#
# 1 144.2684 40.8498 35.6791 -8.6311 -7.7825 17.8345
# 2 40.8498 115.3050 44.1979 -4.9515 -14.0150 1.6442
# 3 35.6791 44.1979 67.1770 -6.9368 -25.3103 11.3748
# 4 -8.6311 -4.9515 -6.9368 30.2443 1.3665 2.7323
# 5 -7.7825 -14.0150 -25.3103 1.3665 38.6996 -5.0310
# 6 17.8345 1.6442 11.3748 2.7323 -5.0310 34.4822
#
#
#
# Elastic Compliance Matrix: (Units=1/GPa)
#
#
# Indices 1 2 3 4 5 6 
#
# 1 0.008751 -0.001964 -0.003101 0.001876 -0.001537 -0.003783
# 2 -0.001964 0.012211 -0.007806 -0.000588 -0.000673 0.002957
# 3 -0.003101 -0.007806 0.028437 0.004226 0.014263 -0.005659
# 4 0.001876 -0.000588 0.004226 0.034872 0.001054 -0.004946
# 5 -0.001537 -0.000673 0.014263 0.001054 0.034722 0.001105
# 6 -0.003783 0.002957 -0.005659 -0.004946 0.001105 0.033236
#
#
# Mechanical properties :
#
#
# Convention : Reuss Voigt Hill
#
# Bulk Modulus (GPa) = 42.26872 63.13378 52.70125
# Shear Modulus (GPa) = 26.90231 34.42013 30.66122
#
# Velocity S-wave (km/s) = 3.61219 4.08584 3.85629
# Velocity P-wave (km/s) = 6.15613 7.27182 6.73711
#
# Compressibility (1/GPa) = 0.02365816
#
# Stress axis : x y z
#
# Youngs Moduli (GPa) = 114.26638 81.89015 35.16514
#
# Poissons Ratio (x) = 0.16085 0.10904
# Poissons Ratio (y) = 0.22445 0.27450
# Poissons Ratio (z) = 0.35431 0.63924
#
# Static dielectric constant tensor:
#      x y z
#    x 1.459650 0.247840 0.386940 
#    y 0.247840 1.657520 -0.245290 
#    z 0.386940 -0.245290 1.207190 
# 
# From -- ./inp_files/38179.got.cif
#   From: 2010.05.17/outbox.cif.g08.bks.cpg/sg2_20_cif.got.tgz:38179.got - 2010.06.03 11:33:40.
