data_PCOD9009457
_publ_section_title
;
Structure prediction by ZEFSAII (Michael W. Deem and Ramdas Pophale) SiO2 
 PCOD9009457
Probable space group: P -1
;
_chemical_formula_sum "Si O2"
_cell_formula_units_Z 14
_cell_length_a 9.968999
_cell_length_b 9.931271
_cell_length_c 8.201976
_cell_angle_alpha 123.752271
_cell_angle_beta 120.828781
_cell_angle_gamma 64.629759
_cell_volume 567.895667
_symmetry_space_group_name_H-M "P -1"
_symmetry_group_IT_number 2
_symmetry_cell_setting 'triclinic'
loop_
_space_group_symop_operation_xyz
x,y,z
-x,-y,-z
loop_
_atom_site_type_symbol
_atom_site_label
_atom_site_fract_x
_atom_site_fract_y
_atom_site_fract_z
Si Si1 0.309627 0.147039 0.147466
Si Si2 0.977301 0.182039 0.533574
Si Si3 0.143862 0.005065 0.218831
Si Si4 0.299248 0.632064 0.134866
Si Si5 0.625061 0.184887 0.230587
Si Si6 0.653118 0.487156 0.262013
Si Si7 0.161710 0.489391 0.269113
O O1 0.282609 0.063366 0.243638
O O2 0.474756 0.209309 0.271701
O O3 0.160972 0.295219 0.118323
O O4 0.327870 0.002268 0.927969
O O5 0.785611 0.220353 0.428371
O O6 0.993909 0.362420 0.729004
O O7 0.073056 0.141970 0.399503
O O8 0.000000 0.000000 0.500000
O O9 0.206012 0.822128 0.205511
O O10 0.000000 0.000000 0.000000
O O11 0.490077 0.621144 0.240184
O O12 0.260953 0.533896 0.204498
O O13 0.262885 0.548462 0.884276
O O14 0.594461 0.315256 0.152366
O O15 0.758941 0.520717 0.504519
#
# Coordination Sequence:
#
# PCOD9009457 Si02
#       7
#     2   2   2   2   2   2   2
#     4  11  23  40  70  98 132 172 219 291 339 369
#     4  11  23  41  67  95 132 180 224 258 331 420
#     4  12  23  44  66  93 133 185 218 266 339 414
#     4  11  21  39  70  95 128 185 224 260 336 406
#     4  10  21  41  66  98 132 174 217 275 338 394
#     4  10  21  39  69 101 130 174 226 275 326 413
#     4  11  23  41  69  99 133 172 225 283 328 388
#
# _framework density 24.652417
#
# number of rings (size 3 to 8) (size 9 to 14) (size 15 to 20)
#    0.000    1.143    5.714    1.286    2.000    0.571 
#    0.000    7.143    0.000    0.000    0.000    0.000 
#    0.000    0.000    0.000    0.000    0.000    0.000 
#
# Total GULP energy -78153.910666 kJ/mol
# GULP energy per Si atom -5582.422190 kJ/mol
# Density = 2.459631 g / cm^3
# Si number density = 24.652417 Si / 1000 Ang^3
#
#
#
# Elastic Constant Matrix: (Units=GPa)
#
#
# Indices 1 2 3 4 5 6 
#
# 1 79.9732 9.6576 32.5654 -3.4889 -17.9556 16.3692
# 2 9.6576 149.9719 31.8781 15.9627 -6.2303 -16.2466
# 3 32.5654 31.8781 101.1399 -1.8085 -38.2762 -9.7780
# 4 -3.4889 15.9627 -1.8085 46.3894 -7.2488 -11.8344
# 5 -17.9556 -6.2303 -38.2762 -7.2488 37.6489 -5.6812
# 6 16.3692 -16.2466 -9.7780 -11.8344 -5.6812 36.8033
#
#
#
# Elastic Compliance Matrix: (Units=1/GPa)
#
#
# Indices 1 2 3 4 5 6 
#
# 1 0.017147 -0.000711 -0.006366 -0.001316 -0.000187 -0.010084
# 2 -0.000711 0.007729 -0.003002 -0.002779 -0.002396 0.001667
# 3 -0.006366 -0.003002 0.023715 0.009001 0.024495 0.014482
# 4 -0.001316 -0.002779 0.009001 0.028607 0.015587 0.013355
# 5 -0.000187 -0.002396 0.024495 0.015587 0.056897 0.019328
# 6 -0.010084 0.001667 0.014482 0.013355 0.019328 0.043518
#
#
# Mechanical properties :
#
#
# Convention : Reuss Voigt Hill
#
# Bulk Modulus (GPa) = 35.17276 53.25411 44.21344
# Shear Modulus (GPa) = 24.12565 41.30059 32.71312
#
# Velocity S-wave (km/s) = 3.13170 4.09750 3.64672
# Velocity P-wave (km/s) = 5.23213 6.63588 5.97537
#
# Compressibility (1/GPa) = 0.02843109
#
# Stress axis : x y z
#
# Youngs Moduli (GPa) = 58.31946 129.38711 42.16817
#
# Poissons Ratio (x) = 0.09201 0.26844
# Poissons Ratio (y) = 0.04147 0.12661
# Poissons Ratio (z) = 0.37126 0.38847
#
# Static dielectric constant tensor:
#      x y z
#    x 2.001990 0.023020 0.091050 
#    y 0.023020 2.091150 0.096270 
#    z 0.091050 0.096270 2.102790 
# 
# From -- ./inp_files/235640.got.cif
#   From: 2010.05.17/outbox.cif.g08.bks.cpg/sg2_118_cif.got.tgz:235640.got - 2010.06.03 11:33:40.
