data_PCOD9009508
_publ_section_title
;
Structure prediction by ZEFSAII (Michael W. Deem and Ramdas Pophale) SiO2 
 PCOD9009508
Probable space group: P -1
;
_chemical_formula_sum "Si O2"
_cell_formula_units_Z 16
_cell_length_a 9.176598
_cell_length_b 15.210821
_cell_length_c 9.165317
_cell_angle_alpha 85.334929
_cell_angle_beta 105.511693
_cell_angle_gamma 138.428738
_cell_volume 803.748437
_symmetry_space_group_name_H-M "P -1"
_symmetry_group_IT_number 2
_symmetry_cell_setting 'triclinic'
loop_
_space_group_symop_operation_xyz
x,y,z
-x,-y,-z
loop_
_atom_site_type_symbol
_atom_site_label
_atom_site_fract_x
_atom_site_fract_y
_atom_site_fract_z
Si Si1 0.863915 0.017424 0.883040
Si Si2 0.165386 0.862848 0.565493
Si Si3 0.006370 0.397221 0.997183
Si Si4 0.353638 0.317087 0.446924
Si Si5 0.599934 0.125551 0.104081
Si Si6 0.030123 0.273191 0.780111
Si Si7 0.539652 0.490373 0.758775
Si Si8 0.226737 0.071440 0.461001
O O1 0.963276 0.161524 0.883579
O O2 0.617829 0.911394 0.909222
O O3 0.847073 0.984707 0.713935
O O4 0.000000 0.000000 0.000000
O O5 0.295500 0.860934 0.716253
O O6 0.914099 0.777126 0.576848
O O7 0.109962 0.798745 0.399875
O O8 0.308899 0.016700 0.561577
O O9 0.246956 0.461195 0.110712
O O10 0.796974 0.263609 0.051560
O O11 0.983356 0.345266 0.836495
O O12 0.000000 0.500000 0.000000
O O13 0.499573 0.421714 0.604509
O O14 0.411286 0.388430 0.299442
O O15 0.386077 0.226814 0.473503
O O16 0.500000 0.000000 0.000000
O O17 0.301173 0.382611 0.798393
O O18 0.000000 0.000000 0.500000
#
# Coordination Sequence:
#
# PCOD9009508 Si02
#       8
#     2   2   2   2   2   2   2   2
#     4  11  26  42  67 102 130 173 234 272 338 403
#     4   9  20  42  67  94 133 168 225 268 343 393
#     4  12  27  45  64 101 136 179 222 276 343 398
#     4   9  18  37  66  98 123 173 215 269 330 394
#     4  12  26  46  70  94 138 186 218 285 337 395
#     4  10  23  45  67  98 131 178 219 285 328 399
#     4  10  21  39  69  92 132 175 221 266 333 399
#     4   9  20  36  66 100 128 165 215 279 327 393
#
# _framework density 19.906725000000002
#
# number of rings (size 3 to 8) (size 9 to 14) (size 15 to 20)
#    0.000    1.750    2.500    1.125    7.000    4.000 
#    2.250    0.625    0.000    0.000    0.000    0.000 
#    0.000    0.000    0.000    0.000    0.000    0.000 
#
# Total GULP energy -89328.612527 kJ/mol
# GULP energy per Si atom -5583.038283 kJ/mol
# Density = 1.986142 g / cm^3
# Si number density = 19.906725 Si / 1000 Ang^3
#
#
#
# Elastic Constant Matrix: (Units=GPa)
#
#
# Indices 1 2 3 4 5 6 
#
# 1 101.9306 52.0082 56.4602 2.1938 -9.4258 2.8893
# 2 52.0082 117.5727 37.5243 -5.9385 5.0964 -20.5716
# 3 56.4602 37.5243 71.4755 -2.9934 4.6626 -2.4707
# 4 2.1938 -5.9385 -2.9934 22.6380 -0.9799 -2.8690
# 5 -9.4258 5.0964 4.6626 -0.9799 25.7465 7.6745
# 6 2.8893 -20.5716 -2.4707 -2.8690 7.6745 32.1312
#
#
#
# Elastic Compliance Matrix: (Units=1/GPa)
#
#
# Indices 1 2 3 4 5 6 
#
# 1 0.028544 -0.010797 -0.019200 -0.009362 0.020696 -0.016735
# 2 -0.010797 0.016237 0.001565 0.006895 -0.011623 0.014878
# 3 -0.019200 0.001565 0.029935 0.006745 -0.015270 0.009280
# 4 -0.009362 0.006895 0.006745 0.048967 -0.007725 0.011992
# 5 0.020696 -0.011623 -0.015270 -0.007725 0.058696 -0.025186
# 6 -0.016735 0.014878 0.009280 0.011992 -0.025186 0.049953
#
#
# Mechanical properties :
#
#
# Convention : Reuss Voigt Hill
#
# Bulk Modulus (GPa) = 56.01175 64.77377 60.39276
# Shear Modulus (GPa) = 16.94075 25.76889 21.35482
#
# Velocity S-wave (km/s) = 2.92037 3.60179 3.27883
# Velocity P-wave (km/s) = 6.29043 7.06445 6.68865
#
# Compressibility (1/GPa) = 0.01785340
#
# Stress axis : x y z
#
# Youngs Moduli (GPa) = 35.03334 61.58784 33.40568
#
# Poissons Ratio (x) = 0.66494 0.64140
# Poissons Ratio (y) = 0.37824 -0.05230
# Poissons Ratio (z) = 0.67265 -0.09641
#
# Static dielectric constant tensor:
#      x y z
#    x 1.694090 -0.021590 -0.001540 
#    y -0.021590 1.746200 0.007280 
#    z -0.001540 0.007280 1.705910 
# 
# From -- ./inp_files/207412.got.cif
#   From: 2010.05.17/outbox.cif.g08.bks.cpg/sg2_104_cif.got.tgz:207412.got - 2010.06.03 11:33:40.
