data_PCOD9009332
_publ_section_title
;
Structure prediction by ZEFSAII (Michael W. Deem and Ramdas Pophale) SiO2 
 PCOD9009332
Probable space group: P -1
;
_chemical_formula_sum "Si O2"
_cell_formula_units_Z 12
_cell_length_a 8.877896
_cell_length_b 5.450272
_cell_length_c 10.996204
_cell_angle_alpha 95.036546
_cell_angle_beta 106.788478
_cell_angle_gamma 71.800326
_cell_volume 483.909760
_symmetry_space_group_name_H-M "P -1"
_symmetry_group_IT_number 2
_symmetry_cell_setting 'triclinic'
loop_
_space_group_symop_operation_xyz
x,y,z
-x,-y,-z
loop_
_atom_site_type_symbol
_atom_site_label
_atom_site_fract_x
_atom_site_fract_y
_atom_site_fract_z
Si Si1 0.740197 0.049393 0.915612
Si Si2 0.638033 0.566415 0.454736
Si Si3 0.022153 0.696603 0.114837
Si Si4 0.384639 0.237777 0.798354
Si Si5 0.799559 0.197019 0.272307
Si Si6 0.131854 0.281727 0.298662
O O1 0.769474 0.839733 0.805036
O O2 0.803900 0.263590 0.874070
O O3 0.551102 0.144733 0.910223
O O4 0.870343 0.944997 0.050656
O O5 0.500000 0.500000 0.500000
O O6 0.562212 0.745541 0.329566
O O7 0.756347 0.312326 0.404219
O O8 0.747756 0.698392 0.565669
O O9 0.030844 0.569680 0.242527
O O10 0.000000 0.500000 0.000000
O O11 0.287238 0.539619 0.815475
O O12 0.284985 0.029489 0.769359
O O13 0.995555 0.141023 0.294474
#
# Coordination Sequence:
#
# PCOD9009332 Si02
#       6
#     2   2   2   2   2   2
#     4  10  21  39  68  89 122 166 216 264 304 378
#     4  10  22  39  66  94 129 165 215 252 313 372
#     4   9  21  38  64  93 120 160 220 257 317 365
#     4  10  24  42  63  92 130 164 211 254 314 374
#     4  10  25  42  60  98 132 167 205 256 321 371
#     4  11  22  39  65  92 128 167 208 263 312 373
#
# _framework density 24.798010000000001
#
# number of rings (size 3 to 8) (size 9 to 14) (size 15 to 20)
#    1.000    1.000    0.000    2.500    7.000    4.667 
#    0.000    1.667    0.000    0.000    0.000    0.000 
#    0.000    0.000    0.000    0.000    0.000    0.000 
#
# Total GULP energy -67042.064341 kJ/mol
# GULP energy per Si atom -5586.838695 kJ/mol
# Density = 2.474157 g / cm^3
# Si number density = 24.798010 Si / 1000 Ang^3
#
#
#
# Elastic Constant Matrix: (Units=GPa)
#
#
# Indices 1 2 3 4 5 6 
#
# 1 116.5586 41.7498 31.0250 -13.8412 12.0781 22.1855
# 2 41.7498 112.2003 2.9224 6.1748 15.3801 29.2347
# 3 31.0250 2.9224 77.0885 -4.9099 14.2861 12.5942
# 4 -13.8412 6.1748 -4.9099 28.7695 7.9001 -2.9407
# 5 12.0781 15.3801 14.2861 7.9001 48.3541 3.0741
# 6 22.1855 29.2347 12.5942 -2.9407 3.0741 43.8932
#
#
#
# Elastic Compliance Matrix: (Units=1/GPa)
#
#
# Indices 1 2 3 4 5 6 
#
# 1 0.012362 -0.004159 -0.003816 0.006432 -0.001571 -0.001842
# 2 -0.004159 0.012911 0.002601 -0.004349 -0.002658 -0.007348
# 3 -0.003816 0.002601 0.015975 0.001169 -0.004531 -0.003992
# 4 0.006432 -0.004349 0.001169 0.041307 -0.007483 0.002602
# 5 -0.001571 -0.002658 -0.004531 -0.007483 0.024375 0.001656
# 6 -0.001842 -0.007348 -0.003992 0.002602 0.001656 0.029812
#
#
# Mechanical properties :
#
#
# Convention : Reuss Voigt Hill
#
# Bulk Modulus (GPa) = 32.78683 50.80464 41.79573
# Shear Modulus (GPa) = 31.71437 39.54672 35.63054
#
# Velocity S-wave (km/s) = 3.58006 3.99777 3.79467
# Velocity P-wave (km/s) = 5.50812 6.46849 6.00753
#
# Compressibility (1/GPa) = 0.03050005
#
# Stress axis : x y z
#
# Youngs Moduli (GPa) = 80.89274 77.45365 62.59607
#
# Poissons Ratio (x) = 0.32214 0.23885
# Poissons Ratio (y) = 0.33644 -0.16279
# Poissons Ratio (z) = 0.30866 -0.20142
#
# Static dielectric constant tensor:
#      x y z
#    x 2.010100 -0.168970 -0.077320 
#    y -0.168970 2.171440 0.028820 
#    z -0.077320 0.028820 1.952140 
# 
# From -- ./inp_files/31730.got.cif
#   From: 2010.05.17/outbox.cif.g08.bks.cpg/sg2_16_cif.got.tgz:31730.got - 2010.06.03 11:33:40.
