data_PCOD9009418
_publ_section_title
;
Structure prediction by ZEFSAII (Michael W. Deem and Ramdas Pophale) SiO2 
 PCOD9009418
Probable space group: P -1
;
_chemical_formula_sum "Si O2"
_cell_formula_units_Z 16
_cell_length_a 15.396412
_cell_length_b 10.128328
_cell_length_c 8.245295
_cell_angle_alpha 33.649877
_cell_angle_beta 117.377848
_cell_angle_gamma 119.870580
_cell_volume 615.069629
_symmetry_space_group_name_H-M "P -1"
_symmetry_group_IT_number 2
_symmetry_cell_setting 'triclinic'
loop_
_space_group_symop_operation_xyz
x,y,z
-x,-y,-z
loop_
_atom_site_type_symbol
_atom_site_label
_atom_site_fract_x
_atom_site_fract_y
_atom_site_fract_z
Si Si1 0.665275 0.328318 0.472501
Si Si2 0.863679 0.215567 0.612338
Si Si3 0.690998 0.852822 0.523433
Si Si4 0.191968 0.215736 0.794111
Si Si5 0.575300 0.883247 0.077786
Si Si6 0.401317 0.690719 0.892605
Si Si7 0.892269 0.066479 0.309507
Si Si8 0.967975 0.473965 0.731228
O O1 0.765788 0.311089 0.477406
O O2 0.699998 0.595020 0.308830
O O3 0.642468 0.110569 0.803365
O O4 0.579028 0.286674 0.306600
O O5 0.947933 0.279012 0.765075
O O6 0.920502 0.358858 0.361548
O O7 0.823286 0.927507 0.902094
O O8 0.666186 0.587003 0.859362
O O9 0.809713 0.964841 0.479192
O O10 0.637273 0.788779 0.367522
O O11 0.647534 0.078969 0.330632
O O12 0.168649 0.047179 0.788444
O O13 0.105645 0.358257 0.551764
O O14 0.501227 0.711476 0.063826
O O15 0.500000 0.000000 0.000000
O O16 0.000000 0.000000 0.500000
O O17 0.927076 0.346671 0.993625
#
# Coordination Sequence:
#
# PCOD9009418 Si02
#       8
#     2   2   2   2   2   2   2   2
#     4  11  24  43  71 107 146 188 244 310 377 447
#     4   9  19  36  60  93 135 179 236 292 365 426
#     4  11  26  50  76 109 153 199 253 307 377 442
#     4  10  21  39  68  97 136 195 241 308 367 436
#     4  10  23  49  78 108 147 196 247 307 382 455
#     4  11  27  48  76 113 150 196 252 314 374 447
#     4  11  26  42  67 103 147 200 251 306 361 445
#     4   9  19  37  59  92 130 186 242 295 354 426
#
# _framework density 26.013316
#
# number of rings (size 3 to 8) (size 9 to 14) (size 15 to 20)
#    0.000    1.750    0.000    3.375    8.750    2.500 
#    4.500    3.125    0.000    0.000    0.000    0.000 
#    0.000    0.000    0.000    0.000    0.000    0.000 
#
# Total GULP energy -89386.875011 kJ/mol
# GULP energy per Si atom -5586.679688 kJ/mol
# Density = 2.595411 g / cm^3
# Si number density = 26.013316 Si / 1000 Ang^3
#
#
#
# Elastic Constant Matrix: (Units=GPa)
#
#
# Indices 1 2 3 4 5 6 
#
# 1 94.4240 6.4716 25.6952 -7.3102 2.1326 23.8912
# 2 6.4716 165.9699 22.5586 -12.3251 -8.4000 3.3034
# 3 25.6952 22.5586 147.1442 -19.8882 -12.5541 -7.4425
# 4 -7.3102 -12.3251 -19.8882 48.0060 5.9594 -5.7640
# 5 2.1326 -8.4000 -12.5541 5.9594 31.0501 -0.2334
# 6 23.8912 3.3034 -7.4425 -5.7640 -0.2334 29.0624
#
#
#
# Elastic Compliance Matrix: (Units=1/GPa)
#
#
# Indices 1 2 3 4 5 6 
#
# 1 0.014947 0.000005 -0.003562 -0.000490 -0.002471 -0.013317
# 2 0.000005 0.006281 -0.000753 0.001072 0.001184 -0.000689
# 3 -0.003562 -0.000753 0.008500 0.003123 0.002922 0.005833
# 4 -0.000490 0.001072 0.003123 0.023363 -0.002855 0.005692
# 5 -0.002471 0.001184 0.002922 -0.002855 0.034443 0.002356
# 6 -0.013317 -0.000689 0.005833 0.005692 0.002356 0.048076
#
#
# Mechanical properties :
#
#
# Convention : Reuss Voigt Hill
#
# Bulk Modulus (GPa) = 47.37466 57.44320 52.40893
# Shear Modulus (GPa) = 33.05482 45.14455 39.09969
#
# Velocity S-wave (km/s) = 3.56854 4.17038 3.88114
# Velocity P-wave (km/s) = 5.93553 6.73198 6.34626
#
# Compressibility (1/GPa) = 0.02110833
#
# Stress axis : x y z
#
# Youngs Moduli (GPa) = 66.90446 159.22298 117.64868
#
# Poissons Ratio (x) = -0.00077 0.41901
# Poissons Ratio (y) = -0.00032 0.08855
# Poissons Ratio (z) = 0.23828 0.11985
#
# Static dielectric constant tensor:
#      x y z
#    x 2.082030 -0.059860 -0.008030 
#    y -0.059860 2.191380 -0.024660 
#    z -0.008030 -0.024660 2.029040 
# 
# From -- ./inp_files/332648.got.cif
#   From: 2010.05.17/outbox.cif.g08.bks.cpg/sg2_167_cif.got.tgz:332648.got - 2010.06.03 11:33:40.
