data_PCOD9009673
_publ_section_title
;
Structure prediction by ZEFSAII (Michael W. Deem and Ramdas Pophale) SiO2 
 PCOD9009673
Probable space group: P -1
;
_chemical_formula_sum "Si O2"
_cell_formula_units_Z 16
_cell_length_a 10.100783
_cell_length_b 7.763280
_cell_length_c 13.246998
_cell_angle_alpha 57.466012
_cell_angle_beta 105.638202
_cell_angle_gamma 135.008898
_cell_volume 608.368778
_symmetry_space_group_name_H-M "P -1"
_symmetry_group_IT_number 2
_symmetry_cell_setting 'triclinic'
loop_
_space_group_symop_operation_xyz
x,y,z
-x,-y,-z
loop_
_atom_site_type_symbol
_atom_site_label
_atom_site_fract_x
_atom_site_fract_y
_atom_site_fract_z
Si Si1 0.920509 0.429442 0.270524
Si Si2 0.803973 0.859475 0.447540
Si Si3 0.954302 0.653238 0.003716
Si Si4 0.467719 0.916200 0.898191
Si Si5 0.166084 0.721960 0.387725
Si Si6 0.612518 0.511322 0.714596
Si Si7 0.996803 0.006189 0.742663
Si Si8 0.531400 0.249792 0.270426
O O1 0.807113 0.100322 0.339713
O O2 0.010808 0.650474 0.128325
O O3 0.748012 0.399093 0.281563
O O4 0.101696 0.533582 0.337248
O O5 0.832178 0.782988 0.368067
O O6 0.648514 0.646190 0.568132
O O7 0.000000 0.000000 0.500000
O O8 0.727228 0.414428 0.031516
O O9 0.044849 0.936671 0.876536
O O10 0.000000 0.500000 0.000000
O O11 0.500577 0.184210 0.785367
O O12 0.536133 0.861943 0.825804
O O13 0.500000 0.000000 0.000000
O O14 0.000000 0.500000 0.500000
O O15 0.108672 0.892181 0.290671
O O16 0.380873 0.947937 0.393238
O O17 0.824644 0.700691 0.748820
O O18 0.506774 0.564772 0.750339
#
# Coordination Sequence:
#
# PCOD9009673 Si02
#       8
#     2   2   2   2   2   2   2   2
#     4  11  24  45  69 100 144 183 225 304 352 414
#     4  10  21  39  72  98 134 182 229 293 352 408
#     4  11  23  42  66 101 139 178 239 287 350 424
#     4  11  24  42  71  97 135 195 228 283 360 411
#     4  11  25  43  73 104 136 196 229 286 371 412
#     4  10  22  43  69 100 138 185 231 296 351 413
#     4  10  21  41  66 102 140 177 240 291 340 433
#     4  10  26  45  65 109 140 173 245 289 345 425
#
# _framework density 26.299838999999999
#
# number of rings (size 3 to 8) (size 9 to 14) (size 15 to 20)
#    0.000    1.500    2.500    2.250    7.000    4.000 
#    2.250    2.500    0.000    0.000    0.000    0.000 
#    0.000    0.000    0.000    0.000    0.000    0.000 
#
# Total GULP energy -89089.751924 kJ/mol
# GULP energy per Si atom -5568.109495 kJ/mol
# Density = 2.623998 g / cm^3
# Si number density = 26.299839 Si / 1000 Ang^3
#
#
#
# Elastic Constant Matrix: (Units=GPa)
#
#
# Indices 1 2 3 4 5 6 
#
# 1 115.5308 13.3529 42.1606 -1.9821 -22.8394 -34.5643
# 2 13.3529 82.0944 41.3384 13.2524 -2.2193 -5.3254
# 3 42.1606 41.3384 168.4675 8.3565 -12.8750 -12.4035
# 4 -1.9821 13.2524 8.3565 35.7449 -1.7205 2.6130
# 5 -22.8394 -2.2193 -12.8750 -1.7205 36.6576 -2.1375
# 6 -34.5643 -5.3254 -12.4035 2.6130 -2.1375 53.1023
#
#
#
# Elastic Compliance Matrix: (Units=1/GPa)
#
#
# Indices 1 2 3 4 5 6 
#
# 1 0.013758 -0.000602 -0.002078 0.001240 0.008370 0.008685
# 2 -0.000602 0.014699 -0.003241 -0.004803 -0.000818 0.000529
# 3 -0.002078 -0.003241 0.007372 -0.000593 0.001077 0.000117
# 4 0.001240 -0.004803 -0.000593 0.030132 0.001616 -0.001231
# 5 0.008370 -0.000818 0.001077 0.001616 0.033300 0.006879
# 6 0.008685 0.000529 0.000117 -0.001231 0.006879 0.024903
#
#
# Mechanical properties :
#
#
# Convention : Reuss Voigt Hill
#
# Bulk Modulus (GPa) = 41.69107 62.19964 51.94535
# Shear Modulus (GPa) = 34.72200 43.05036 38.88618
#
# Velocity S-wave (km/s) = 3.63745 4.05026 3.84939
# Velocity P-wave (km/s) = 5.79034 6.75088 6.28897
#
# Compressibility (1/GPa) = 0.02398595
#
# Stress axis : x y z
#
# Youngs Moduli (GPa) = 72.68530 68.03281 135.65580
#
# Poissons Ratio (x) = 0.04096 0.28185
# Poissons Ratio (y) = 0.04376 0.43973
# Poissons Ratio (z) = 0.15102 0.22053
#
# Static dielectric constant tensor:
#      x y z
#    x 2.325810 0.096450 -0.274830 
#    y 0.096450 2.321320 -0.007110 
#    z -0.274830 -0.007110 2.346480 
# 
# From -- ./inp_files/515067.got.cif
#   From: 2010.05.17/outbox.cif.g08.bks.cpg/sg2_258_cif.got.tgz:515067.got - 2010.06.03 11:33:40.
