data_PCOD9009068
_publ_section_title
;
Structure prediction by ZEFSAII (Michael W. Deem and Ramdas Pophale) SiO2 
 PCOD9009068
Probable space group: P -1
;
_chemical_formula_sum "Si O2"
_cell_formula_units_Z 16
_cell_length_a 11.576201
_cell_length_b 10.022124
_cell_length_c 11.822688
_cell_angle_alpha 58.097985
_cell_angle_beta 126.841311
_cell_angle_gamma 110.892750
_cell_volume 930.322701
_symmetry_space_group_name_H-M "P -1"
_symmetry_group_IT_number 2
_symmetry_cell_setting 'triclinic'
loop_
_space_group_symop_operation_xyz
x,y,z
-x,-y,-z
loop_
_atom_site_type_symbol
_atom_site_label
_atom_site_fract_x
_atom_site_fract_y
_atom_site_fract_z
Si Si1 0.344646 0.842963 0.573634
Si Si2 0.931576 0.571476 0.746927
Si Si3 0.907531 0.720657 0.300761
Si Si4 0.194365 0.554984 0.483381
Si Si5 0.866689 0.014494 0.001435
Si Si6 0.929954 0.150129 0.445919
Si Si7 0.929696 0.716184 0.921661
Si Si8 0.672679 0.919905 0.747247
O O1 0.300127 0.689708 0.539534
O O2 0.237239 0.858582 0.609985
O O3 0.511390 0.849826 0.703837
O O4 0.324283 0.986344 0.411002
O O5 0.029540 0.697258 0.675105
O O6 0.802399 0.507775 0.615321
O O7 0.888880 0.659323 0.797045
O O8 0.020001 0.427527 0.909118
O O9 0.806836 0.591083 0.364836
O O10 0.034569 0.626368 0.360005
O O11 0.989500 0.821305 0.400940
O O12 0.841397 0.848679 0.124902
O O13 0.931751 0.155905 0.054949
O O14 0.729915 0.035022 0.831165
O O15 0.000000 0.000000 0.000000
O O16 0.000000 0.000000 0.500000
O O17 0.791099 0.791086 0.861067
#
# Coordination Sequence:
#
# PCOD9009068 Si02
#       8
#     2   2   2   2   2   2   2   2
#     4  10  20  33  50  73  99 132 166 200 243 295
#     4  10  19  30  52  77  98 126 164 205 247 284
#     4   9  17  27  47  72  93 122 164 203 242 285
#     4   9  16  30  46  69  99 124 159 204 238 283
#     4  10  17  29  49  70  93 126 164 205 243 280
#     4  10  18  32  53  75  98 127 164 206 244 285
#     4  10  19  32  50  76 102 126 164 207 243 289
#     4  10  20  33  50  72 100 132 166 200 245 295
#
# _framework density 17.198333000000002
#
# number of rings (size 3 to 8) (size 9 to 14) (size 15 to 20)
#    0.000    2.250    0.000    7.500    0.000    0.000 
#    0.000    3.125    0.000    9.000    0.000    0.000 
#    0.000    0.000    0.000    0.000    0.000    0.000 
#
# Total GULP energy -89083.952343 kJ/mol
# GULP energy per Si atom -5567.747021 kJ/mol
# Density = 1.715919 g / cm^3
# Si number density = 17.198333 Si / 1000 Ang^3
#
#
#
# Elastic Constant Matrix: (Units=GPa)
#
#
# Indices 1 2 3 4 5 6 
#
# 1 68.7640 42.2301 30.0454 8.9808 3.5094 6.1214
# 2 42.2301 100.3928 27.4752 11.9348 8.4506 -5.2565
# 3 30.0454 27.4752 65.8263 2.6491 -3.7839 3.1875
# 4 8.9808 11.9348 2.6491 32.0608 1.2833 -3.4076
# 5 3.5094 8.4506 -3.7839 1.2833 23.2180 7.9042
# 6 6.1214 -5.2565 3.1875 -3.4076 7.9042 23.8323
#
#
#
# Elastic Compliance Matrix: (Units=1/GPa)
#
#
# Indices 1 2 3 4 5 6 
#
# 1 0.023672 -0.008147 -0.006793 -0.003927 0.001196 -0.007926
# 2 -0.008147 0.015714 -0.003609 -0.002072 -0.007798 0.008331
# 3 -0.006793 -0.003609 0.020355 0.000865 0.006957 -0.003957
# 4 -0.003927 -0.002072 0.000865 0.033733 -0.002442 0.006069
# 5 0.001196 -0.007798 0.006957 -0.002442 0.054247 -0.021298
# 6 -0.007926 0.008331 -0.003957 0.006069 -0.021298 0.054294
#
#
# Mechanical properties :
#
#
# Convention : Reuss Voigt Hill
#
# Bulk Modulus (GPa) = 44.16417 48.27605 46.22011
# Shear Modulus (GPa) = 20.27069 24.83773 22.55421
#
# Velocity S-wave (km/s) = 3.43686 3.80438 3.62528
# Velocity P-wave (km/s) = 6.44084 6.88686 6.66758
#
# Compressibility (1/GPa) = 0.02264279
#
# Stress axis : x y z
#
# Youngs Moduli (GPa) = 42.24475 63.63566 49.12752
#
# Poissons Ratio (x) = 0.51844 0.33374
# Poissons Ratio (y) = 0.34417 0.17729
# Poissons Ratio (z) = 0.28699 0.22965
#
# Static dielectric constant tensor:
#      x y z
#    x 1.598780 -0.021610 -0.024250 
#    y -0.021610 1.655990 0.004520 
#    z -0.024250 0.004520 1.594750 
# 
# From -- ./inp_files/345226.got.cif
#   From: 2010.05.17/outbox.cif.g08.bks.cpg/sg2_173_cif.got.tgz:345226.got - 2010.06.03 11:33:40.
