data_PCOD9009247
_publ_section_title
;
Structure prediction by ZEFSAII (Michael W. Deem and Ramdas Pophale) SiO2 
 PCOD9009247
Probable space group: P -1
;
_chemical_formula_sum "Si O2"
_cell_formula_units_Z 14
_cell_length_a 9.468472
_cell_length_b 24.522199
_cell_length_c 8.156351
_cell_angle_alpha 138.987644
_cell_angle_beta 128.529954
_cell_angle_gamma 28.187825
_cell_volume 581.578604
_symmetry_space_group_name_H-M "P -1"
_symmetry_group_IT_number 2
_symmetry_cell_setting 'triclinic'
loop_
_space_group_symop_operation_xyz
x,y,z
-x,-y,-z
loop_
_atom_site_type_symbol
_atom_site_label
_atom_site_fract_x
_atom_site_fract_y
_atom_site_fract_z
Si Si1 0.083426 0.848189 0.156303
Si Si2 0.678113 0.827558 0.157905
Si Si3 0.929655 0.325496 0.394965
Si Si4 0.547785 0.131089 0.559379
Si Si5 0.933536 0.432014 0.348530
Si Si6 0.939193 0.932952 0.878853
Si Si7 0.722820 0.342110 0.622811
O O1 0.360956 0.809185 0.293372
O O2 0.836905 0.963756 0.375691
O O3 0.141991 0.729376 0.893842
O O4 0.934886 0.935299 0.076347
O O5 0.567588 0.824092 0.236314
O O6 0.997177 0.750142 0.261885
O O7 0.381927 0.983295 0.229811
O O8 0.781947 0.725900 0.862933
O O9 0.281100 0.192331 0.395998
O O10 0.882798 0.426739 0.489186
O O11 0.763740 0.383433 0.582287
O O12 0.610445 0.528307 0.253352
O O13 0.000000 0.500000 0.500000
O O14 0.215050 0.772549 0.663647
O O15 0.000000 0.000000 0.000000
#
# Coordination Sequence:
#
# PCOD9009247 Si02
#       7
#     2   2   2   2   2   2   2
#     4  10  21  39  67  97 142 171 225 264 340 397
#     4  11  23  42  65  99 134 171 225 275 332 390
#     4  10  23  44  68  92 133 179 227 267 337 397
#     4  10  21  40  64 105 131 178 217 277 325 408
#     4  12  26  46  68  94 135 175 223 280 344 393
#     4  11  20  38  68  99 135 170 217 274 335 384
#     4  10  24  44  67  97 134 177 223 271 328 407
#
# _framework density 24.072413999999998
#
# number of rings (size 3 to 8) (size 9 to 14) (size 15 to 20)
#    0.000    1.429    1.429    3.429    2.000    3.429 
#    5.143    1.429    0.000    0.000    0.000    0.000 
#    0.000    0.000    0.000    0.000    0.000    0.000 
#
# Total GULP energy -78279.863665 kJ/mol
# GULP energy per Si atom -5591.418833 kJ/mol
# Density = 2.401762 g / cm^3
# Si number density = 24.072414 Si / 1000 Ang^3
#
#
#
# Elastic Constant Matrix: (Units=GPa)
#
#
# Indices 1 2 3 4 5 6 
#
# 1 108.8742 30.2547 19.0927 2.7720 19.4421 3.1289
# 2 30.2547 78.0727 12.0490 10.9710 4.2967 -13.9507
# 3 19.0927 12.0490 48.9689 -3.7952 6.4809 -2.4031
# 4 2.7720 10.9710 -3.7952 27.4733 -5.5878 0.8701
# 5 19.4421 4.2967 6.4809 -5.5878 28.1802 6.5539
# 6 3.1289 -13.9507 -2.4031 0.8701 6.5539 50.0340
#
#
#
# Elastic Compliance Matrix: (Units=1/GPa)
#
#
# Indices 1 2 3 4 5 6 
#
# 1 0.012115 -0.003796 -0.003010 -0.001547 -0.007162 -0.000996
# 2 -0.003796 0.016740 -0.002688 -0.007233 -0.001948 0.005157
# 3 -0.003010 -0.002688 0.022893 0.004080 -0.002143 0.000748
# 4 -0.001547 -0.007233 0.004080 0.042265 0.010504 -0.003835
# 5 -0.007162 -0.001948 -0.002143 0.010504 0.044752 -0.006243
# 6 -0.000996 0.005157 0.000748 -0.003835 -0.006243 0.022407
#
#
# Mechanical properties :
#
#
# Convention : Reuss Voigt Hill
#
# Bulk Modulus (GPa) = 30.52743 39.85649 35.19196
# Shear Modulus (GPa) = 26.16701 32.77212 29.46956
#
# Velocity S-wave (km/s) = 3.30056 3.69371 3.50266
# Velocity P-wave (km/s) = 5.21862 5.89782 5.56858
#
# Compressibility (1/GPa) = 0.03275742
#
# Stress axis : x y z
#
# Youngs Moduli (GPa) = 82.54361 59.73840 43.68181
#
# Poissons Ratio (x) = 0.22679 0.13149
# Poissons Ratio (y) = 0.31337 0.11743
# Poissons Ratio (z) = 0.24847 0.16059
#
# Static dielectric constant tensor:
#      x y z
#    x 1.939900 -0.008320 0.011680 
#    y -0.008320 1.934590 -0.038890 
#    z 0.011680 -0.038890 1.964670 
# 
# From -- ./inp_files/189594.got.cif
#   From: 2010.05.17/outbox.cif.g08.bks.cpg/sg2_95_cif.got.tgz:189594.got - 2010.06.03 11:33:40.
