data_PCOD9009524
_publ_section_title
;
Structure prediction by ZEFSAII (Michael W. Deem and Ramdas Pophale) SiO2 
 PCOD9009524
Probable space group: P -1
;
_chemical_formula_sum "Si O2"
_cell_formula_units_Z 15
_cell_length_a 9.238244
_cell_length_b 9.366059
_cell_length_c 7.720278
_cell_angle_alpha 114.024380
_cell_angle_beta 64.462029
_cell_angle_gamma 93.992962
_cell_volume 545.963732
_symmetry_space_group_name_H-M "P -1"
_symmetry_group_IT_number 2
_symmetry_cell_setting 'triclinic'
loop_
_space_group_symop_operation_xyz
x,y,z
-x,-y,-z
loop_
_atom_site_type_symbol
_atom_site_label
_atom_site_fract_x
_atom_site_fract_y
_atom_site_fract_z
Si Si1 0.479239 0.362535 0.306165
Si Si2 0.000000 0.000000 0.500000
Si Si3 0.791773 0.104615 0.033331
Si Si4 0.949540 0.368746 0.240900
Si Si5 0.193360 0.292990 0.638942
Si Si6 0.390900 0.113849 0.745837
Si Si7 0.756405 0.483382 0.740516
Si Si8 0.275386 0.827261 0.252634
O O1 0.500000 0.500000 0.500000
O O2 0.637881 0.239244 0.153123
O O3 0.333247 0.276026 0.411645
O O4 0.417225 0.446550 0.204246
O O5 0.842353 0.086306 0.499027
O O6 0.063993 0.179904 0.596409
O O7 0.924910 0.202460 0.089750
O O8 0.726600 0.975052 0.119241
O O9 0.825622 0.061019 0.791290
O O10 0.884015 0.523172 0.235781
O O11 0.843506 0.398397 0.484287
O O12 0.132134 0.386511 0.202801
O O13 0.289648 0.244702 0.742460
O O14 0.537968 0.158397 0.812078
O O15 0.500000 0.000000 0.500000
O O16 0.745972 0.354109 0.826821
#
# Coordination Sequence:
#
# PCOD9009524 Si02
#       8
#     2   1   2   2   2   2   2   2
#     4  11  20  39  67 102 130 172 220 271 330 400
#     4  12  24  44  66  92 132 184 226 260 346 394
#     4  12  25  42  67 103 141 165 224 287 331 384
#     4  10  22  42  67  99 131 170 230 271 328 400
#     4  11  22  40  71  94 127 176 227 269 317 407
#     4  12  23  42  71  96 130 183 224 266 333 406
#     4  10  21  39  69  96 128 182 215 266 332 402
#     4  12  26  43  67  98 138 174 224 283 331 395
#
# _framework density 27.474352
#
# number of rings (size 3 to 8) (size 9 to 14) (size 15 to 20)
#    0.000    0.800    6.667    2.000    0.000    1.067 
#    0.000    0.667    0.000    0.000    0.000    0.000 
#    0.000    0.000    0.000    0.000    0.000    0.000 
#
# Total GULP energy -83936.359716 kJ/mol
# GULP energy per Si atom -5595.757314 kJ/mol
# Density = 2.741182 g / cm^3
# Si number density = 27.474352 Si / 1000 Ang^3
#
#
#
# Elastic Constant Matrix: (Units=GPa)
#
#
# Indices 1 2 3 4 5 6 
#
# 1 188.5383 69.4740 23.9192 -3.9328 8.2633 13.8576
# 2 69.4740 157.1584 38.9082 -25.5038 4.3673 12.1088
# 3 23.9192 38.9082 110.2867 -2.8640 -0.0966 5.6595
# 4 -3.9328 -25.5038 -2.8640 41.7316 -1.7647 6.2561
# 5 8.2633 4.3673 -0.0966 -1.7647 38.8281 5.2305
# 6 13.8576 12.1088 5.6595 6.2561 5.2305 54.3574
#
#
#
# Elastic Compliance Matrix: (Units=1/GPa)
#
#
# Indices 1 2 3 4 5 6 
#
# 1 0.006484 -0.002862 -0.000387 -0.001095 -0.001007 -0.000752
# 2 -0.002862 0.009244 -0.002410 0.005473 0.000043 -0.001713
# 3 -0.000387 -0.002410 0.010001 -0.000753 0.000392 -0.000357
# 4 -0.001095 0.005473 -0.000753 0.027844 0.001448 -0.004206
# 5 -0.001007 0.000043 0.000392 0.001448 0.026367 -0.002497
# 6 -0.000752 -0.001713 -0.000357 -0.004206 -0.002497 0.019731
#
#
# Mechanical properties :
#
#
# Convention : Reuss Voigt Hill
#
# Bulk Modulus (GPa) = 69.40015 80.06513 74.73264
# Shear Modulus (GPa) = 43.17977 48.56221 45.87099
#
# Velocity S-wave (km/s) = 3.96869 4.20878 4.09050
# Velocity P-wave (km/s) = 6.80555 7.26798 7.04056
#
# Compressibility (1/GPa) = 0.01440919
#
# Stress axis : x y z
#
# Youngs Moduli (GPa) = 154.21534 108.17882 99.99296
#
# Poissons Ratio (x) = 0.30964 0.03872
# Poissons Ratio (y) = 0.44142 0.24102
# Poissons Ratio (z) = 0.05972 0.26075
#
# Static dielectric constant tensor:
#      x y z
#    x 2.190630 0.009950 -0.278550 
#    y 0.009950 2.229600 -0.392980 
#    z -0.278550 -0.392980 3.952690 
# 
# From -- ./inp_files/155329.got.cif
#   From: 2010.05.17/outbox.cif.g08.bks.cpg/sg2_78_cif.got.tgz:155329.got - 2010.06.03 11:33:40.
