data_PCOD9009454
_publ_section_title
;
Structure prediction by ZEFSAII (Michael W. Deem and Ramdas Pophale) SiO2 
 PCOD9009454
Probable space group: P -1
;
_chemical_formula_sum "Si O2"
_cell_formula_units_Z 12
_cell_length_a 5.701918
_cell_length_b 19.326598
_cell_length_c 11.134683
_cell_angle_alpha 26.249290
_cell_angle_beta 62.747092
_cell_angle_gamma 59.861092
_cell_volume 469.228610
_symmetry_space_group_name_H-M "P -1"
_symmetry_group_IT_number 2
_symmetry_cell_setting 'triclinic'
loop_
_space_group_symop_operation_xyz
x,y,z
-x,-y,-z
loop_
_atom_site_type_symbol
_atom_site_label
_atom_site_fract_x
_atom_site_fract_y
_atom_site_fract_z
Si Si1 0.584423 0.950985 0.922640
Si Si2 0.916524 0.489131 0.827416
Si Si3 0.819289 0.076300 0.267433
Si Si4 0.676297 0.444207 0.194283
Si Si5 0.583938 0.666193 0.200139
Si Si6 0.547963 0.826066 0.607353
O O1 0.898578 0.935304 0.844451
O O2 0.432326 0.095369 0.647721
O O3 0.542551 0.781505 0.146265
O O4 0.500000 0.000000 0.000000
O O5 0.816609 0.392521 0.112925
O O6 0.110179 0.382691 0.848906
O O7 0.629197 0.581538 0.691680
O O8 0.111805 0.591788 0.688639
O O9 0.757033 0.114868 0.361642
O O10 0.725271 0.914366 0.511800
O O11 0.608851 0.226168 0.020238
O O12 0.628150 0.637301 0.893303
O O13 0.500000 0.500000 0.500000
#
# Coordination Sequence:
#
# PCOD9009454 Si02
#       6
#     2   2   2   2   2   2
#     4  11  26  44  65  99 136 179 231 285 354 421
#     4  10  22  41  63 105 136 180 229 291 347 422
#     4  10  22  42  67  98 128 174 232 283 346 416
#     4  10  21  39  69 100 140 171 234 292 354 408
#     4  11  25  44  68  93 138 185 230 283 350 423
#     4  10  21  39  70  97 128 178 222 296 339 417
#
# _framework density 25.573891
#
# number of rings (size 3 to 8) (size 9 to 14) (size 15 to 20)
#    0.000    1.667    1.667    1.500    2.333    6.000 
#    6.000    0.000    0.000    0.000    0.000    0.000 
#    0.000    0.000    0.000    0.000    0.000    0.000 
#
# Total GULP energy -67129.681628 kJ/mol
# GULP energy per Si atom -5594.140136 kJ/mol
# Density = 2.551568 g / cm^3
# Si number density = 25.573891 Si / 1000 Ang^3
#
#
#
# Elastic Constant Matrix: (Units=GPa)
#
#
# Indices 1 2 3 4 5 6 
#
# 1 137.6461 39.6677 30.2340 -2.3877 -11.2560 -6.9614
# 2 39.6677 203.0650 70.0894 7.0694 1.1006 15.9860
# 3 30.2340 70.0894 121.9756 -16.2190 -19.5311 10.0993
# 4 -2.3877 7.0694 -16.2190 44.6776 8.3246 4.8323
# 5 -11.2560 1.1006 -19.5311 8.3246 27.2862 -0.3515
# 6 -6.9614 15.9860 10.0993 4.8323 -0.3515 50.8227
#
#
#
# Elastic Compliance Matrix: (Units=1/GPa)
#
#
# Indices 1 2 3 4 5 6 
#
# 1 0.008207 -0.001415 -0.000963 -0.000426 0.002906 0.001821
# 2 -0.001415 0.006870 -0.004281 -0.001948 -0.003348 -0.001342
# 3 -0.000963 -0.004281 0.012800 0.004019 0.007690 -0.001658
# 4 -0.000426 -0.001948 0.004019 0.025347 -0.004988 -0.002689
# 5 0.002906 -0.003348 0.007690 -0.004988 0.045018 0.000709
# 6 0.001821 -0.001342 -0.001658 -0.002689 0.000709 0.020938
#
#
# Mechanical properties :
#
#
# Convention : Reuss Voigt Hill
#
# Bulk Modulus (GPa) = 68.68724 82.51877 75.60301
# Shear Modulus (GPa) = 36.40308 46.07032 41.23670
#
# Velocity S-wave (km/s) = 3.77695 4.24896 4.01989
# Velocity P-wave (km/s) = 6.77770 7.51056 7.15352
#
# Compressibility (1/GPa) = 0.01455874
#
# Stress axis : x y z
#
# Youngs Moduli (GPa) = 121.85110 145.55682 78.12469
#
# Poissons Ratio (x) = 0.20597 0.07524
# Poissons Ratio (y) = 0.17242 0.33445
# Poissons Ratio (z) = 0.11736 0.62313
#
# Static dielectric constant tensor:
#      x y z
#    x 2.171590 0.010810 -0.009700 
#    y 0.010810 2.053550 0.002010 
#    z -0.009700 0.002010 1.964520 
# 
# From -- ./inp_files/81949.got.cif
#   From: 2010.05.17/outbox.cif.g08.bks.cpg/sg2_41_cif.got.tgz:81949.got - 2010.06.03 11:33:40.
