data_PCOD9009895
_publ_section_title
;
Structure prediction by ZEFSAII (Michael W. Deem and Ramdas Pophale) SiO2 
 PCOD9009895
Probable space group: P -1
;
_chemical_formula_sum "Si O2"
_cell_formula_units_Z 16
_cell_length_a 23.122461
_cell_length_b 5.530183
_cell_length_c 5.360526
_cell_angle_alpha 79.027240
_cell_angle_beta 116.057259
_cell_angle_gamma 95.534642
_cell_volume 604.463187
_symmetry_space_group_name_H-M "P -1"
_symmetry_group_IT_number 2
_symmetry_cell_setting 'triclinic'
loop_
_space_group_symop_operation_xyz
x,y,z
-x,-y,-z
loop_
_atom_site_type_symbol
_atom_site_label
_atom_site_fract_x
_atom_site_fract_y
_atom_site_fract_z
Si Si1 0.323050 0.185930 0.984262
Si Si2 0.957191 0.519734 0.162104
Si Si3 0.073559 0.009414 0.737863
Si Si4 0.821492 0.833832 0.497001
Si Si5 0.216821 0.698973 0.403457
Si Si6 0.421278 0.297148 0.734189
Si Si7 0.460937 0.833287 0.656418
Si Si8 0.301484 0.659584 0.077445
O O1 0.248138 0.155458 0.775119
O O2 0.364907 0.319351 0.824982
O O3 0.325609 0.377683 0.180315
O O4 0.346324 0.904013 0.100493
O O5 0.927519 0.789724 0.082625
O O6 0.000000 0.500000 0.500000
O O7 0.912834 0.275632 0.128838
O O8 0.000000 0.500000 0.000000
O O9 0.122335 0.099596 0.601294
O O10 0.000000 0.000000 0.500000
O O11 0.826055 0.549047 0.633651
O O12 0.815832 0.039243 0.660828
O O13 0.261027 0.667472 0.741123
O O14 0.258275 0.699509 0.231317
O O15 0.433701 0.564278 0.576939
O O16 0.411803 0.033199 0.633057
O O17 0.487483 0.242627 0.020259
O O18 0.500000 0.000000 0.500000
#
# Coordination Sequence:
#
# PCOD9009895 Si02
#       8
#     2   2   2   2   2   2   2   2
#     4  10  21  40  60  92 122 169 204 264 319 377
#     4  10  21  40  62  90 121 156 210 260 316 378
#     4  10  21  40  62  91 122 165 209 261 316 378
#     4  10  21  40  63  89 128 162 211 260 318 379
#     4  10  21  40  61  88 121 170 204 262 317 380
#     4  10  21  40  63  88 133 158 217 261 313 388
#     4  10  21  40  63  94 122 170 208 262 317 375
#     4  10  21  40  62  88 131 161 214 253 320 381
#
# _framework density 26.469767999999998
#
# number of rings (size 3 to 8) (size 9 to 14) (size 15 to 20)
#    0.000    2.000    0.000    3.000    0.000    0.000 
#   13.500   30.000    0.000    0.000    0.000    0.000 
#    0.000    0.000    0.000    0.000    0.000    0.000 
#
# Total GULP energy -89569.279670 kJ/mol
# GULP energy per Si atom -5598.079979 kJ/mol
# Density = 2.640952 g / cm^3
# Si number density = 26.469768 Si / 1000 Ang^3
#
#
#
# Elastic Constant Matrix: (Units=GPa)
#
#
# Indices 1 2 3 4 5 6 
#
# 1 114.8316 64.6221 34.9601 3.9419 -25.0616 -10.8699
# 2 64.6221 300.0727 75.4745 0.1395 -11.4483 -4.4434
# 3 34.9601 75.4745 112.4424 2.7438 -15.3222 -13.5005
# 4 3.9419 0.1395 2.7438 65.3693 -5.4436 0.7454
# 5 -25.0616 -11.4483 -15.3222 -5.4436 70.4588 -0.7744
# 6 -10.8699 -4.4434 -13.5005 0.7454 -0.7744 56.8235
#
#
#
# Elastic Compliance Matrix: (Units=1/GPa)
#
#
# Indices 1 2 3 4 5 6 
#
# 1 0.011114 -0.001852 -0.001554 -0.000345 0.003306 0.001662
# 2 -0.001852 0.004325 -0.002472 0.000173 -0.000487 -0.000612
# 3 -0.001554 -0.002472 0.011527 -0.000281 0.001556 0.002273
# 4 -0.000345 0.000173 -0.000281 0.015419 0.001032 -0.000307
# 5 0.003306 -0.000487 0.001556 0.001032 0.015720 0.001165
# 6 0.001662 -0.000612 0.002273 -0.000307 0.001165 0.018428
#
#
# Mechanical properties :
#
#
# Convention : Reuss Voigt Hill
#
# Bulk Modulus (GPa) = 65.73783 97.49556 81.61670
# Shear Modulus (GPa) = 53.55577 62.01632 57.78605
#
# Velocity S-wave (km/s) = 4.50297 4.84561 4.67743
# Velocity P-wave (km/s) = 7.20587 8.25950 7.75061
#
# Compressibility (1/GPa) = 0.01521194
#
# Stress axis : x y z
#
# Youngs Moduli (GPa) = 89.97415 231.20209 86.74977
#
# Poissons Ratio (x) = 0.42811 0.13483
# Poissons Ratio (y) = 0.16660 0.21440
# Poissons Ratio (z) = 0.13985 0.57142
#
# Static dielectric constant tensor:
#      x y z
#    x 2.008130 -0.059600 0.065620 
#    y -0.059600 2.103610 0.017730 
#    z 0.065620 0.017730 2.162870 
# 
# From -- ./inp_files/12957.got.cif
#   From: 2010.05.17/outbox.cif.g08.bks.cpg/sg2_7_cif.got.tgz:12957.got - 2010.06.03 11:33:40.
