data_PCOD9009150
_publ_section_title
;
Structure prediction by ZEFSAII (Michael W. Deem and Ramdas Pophale) SiO2 
 PCOD9009150
Probable space group: P -1
;
_chemical_formula_sum "Si O2"
_cell_formula_units_Z 15
_cell_length_a 11.305036
_cell_length_b 8.618242
_cell_length_c 18.212583
_cell_angle_alpha 62.853697
_cell_angle_beta 35.531776
_cell_angle_gamma 43.181936
_cell_volume 662.399465
_symmetry_space_group_name_H-M "P -1"
_symmetry_group_IT_number 2
_symmetry_cell_setting 'triclinic'
loop_
_space_group_symop_operation_xyz
x,y,z
-x,-y,-z
loop_
_atom_site_type_symbol
_atom_site_label
_atom_site_fract_x
_atom_site_fract_y
_atom_site_fract_z
Si Si1 0.690888 0.354858 0.118621
Si Si2 0.180214 0.568941 0.720452
Si Si3 0.695418 0.915178 0.989955
Si Si4 0.968953 0.575241 0.297354
Si Si5 0.879202 0.156761 0.912445
Si Si6 0.632763 0.164316 0.481650
Si Si7 0.901773 0.407079 0.621950
Si Si8 0.000000 0.500000 0.000000
O O1 0.379700 0.527545 0.270835
O O2 0.685019 0.339132 0.037112
O O3 0.861886 0.093912 0.124662
O O4 0.858940 0.427230 0.037282
O O5 0.976878 0.597087 0.756988
O O6 0.479507 0.301302 0.607908
O O7 0.227087 0.743459 0.640649
O O8 0.022574 0.647291 0.861295
O O9 0.679789 0.803513 0.092336
O O10 0.727534 0.098808 0.952785
O O11 0.500000 0.000000 0.000000
O O12 0.642987 0.726365 0.449197
O O13 0.005512 0.746574 0.210241
O O14 0.149046 0.464664 0.302839
O O15 0.852915 0.880362 0.433229
O O16 0.000000 0.500000 0.500000
#
# Coordination Sequence:
#
# PCOD9009150 Si02
#       8
#     2   2   2   2   2   2   2   1
#     4  10  24  43  66 100 136 175 224 283 353 401
#     4   9  21  41  66  92 129 175 229 272 337 406
#     4  11  24  40  68  98 132 179 229 282 347 414
#     4  10  21  39  67  92 129 176 220 274 334 405
#     4  10  22  43  68  96 132 178 220 285 341 407
#     4   9  21  42  63  91 127 174 220 271 335 400
#     4  12  25  40  64 101 135 173 228 281 337 417
#     4  10  24  44  60  98 138 176 222 286 342 410
#
# _framework density 22.644946000000001
#
# number of rings (size 3 to 8) (size 9 to 14) (size 15 to 20)
#    0.800    1.067    0.000    2.800    5.600    2.667 
#    0.000    0.667    0.000    0.000    0.000    0.000 
#    0.000    0.000    0.000    0.000    0.000    0.000 
#
# Total GULP energy -83524.789312 kJ/mol
# GULP energy per Si atom -5568.319287 kJ/mol
# Density = 2.259340 g / cm^3
# Si number density = 22.644946 Si / 1000 Ang^3
#
#
#
# Elastic Constant Matrix: (Units=GPa)
#
#
# Indices 1 2 3 4 5 6 
#
# 1 122.3586 28.2142 37.9675 -15.3810 -23.8172 16.5116
# 2 28.2142 56.5265 22.7157 -13.1128 -16.7208 9.1569
# 3 37.9675 22.7157 73.6262 -17.1131 -6.6626 9.8543
# 4 -15.3810 -13.1128 -17.1131 46.0908 10.0226 -6.0545
# 5 -23.8172 -16.7208 -6.6626 10.0226 30.5259 3.6080
# 6 16.5116 9.1569 9.8543 -6.0545 3.6080 27.3031
#
#
#
# Elastic Compliance Matrix: (Units=1/GPa)
#
#
# Indices 1 2 3 4 5 6 
#
# 1 0.012439 -0.000584 -0.004596 -0.000706 0.009450 -0.007073
# 2 -0.000584 0.025351 -0.005011 0.001357 0.012805 -0.007732
# 3 -0.004596 -0.005011 0.018306 0.004572 -0.003762 -0.000636
# 4 -0.000706 0.001357 0.004572 0.025942 -0.007933 0.005123
# 5 0.009450 0.012805 -0.003762 -0.007933 0.050956 -0.017144
# 6 -0.007073 -0.007732 -0.000636 0.005123 -0.017144 0.047127
#
#
# Mechanical properties :
#
#
# Convention : Reuss Voigt Hill
#
# Bulk Modulus (GPa) = 28.00200 47.81180 37.90690
# Shear Modulus (GPa) = 23.53946 31.69155 27.61550
#
# Velocity S-wave (km/s) = 3.22763 3.74504 3.49592
# Velocity P-wave (km/s) = 5.12666 6.31348 5.75077
#
# Compressibility (1/GPa) = 0.03571173
#
# Stress axis : x y z
#
# Youngs Moduli (GPa) = 80.39401 39.44565 54.62736
#
# Poissons Ratio (x) = 0.02305 0.25109
# Poissons Ratio (y) = 0.04697 0.27376
# Poissons Ratio (z) = 0.36953 0.19768
#
# Static dielectric constant tensor:
#      x y z
#    x 1.760170 0.119030 -0.075750 
#    y 0.119030 1.708590 0.199200 
#    z -0.075750 0.199200 1.802260 
# 
# From -- ./inp_files/594013.got.cif
#   From: 2010.05.17/outbox.cif.g08.bks.cpg/sg2_298_cif.got.tgz:594013.got - 2010.06.03 11:33:40.
