data_PCOD9009057
_publ_section_title
;
Structure prediction by ZEFSAII (Michael W. Deem and Ramdas Pophale) SiO2 
 PCOD9009057
Probable space group: P -1
;
_chemical_formula_sum "Si O2"
_cell_formula_units_Z 14
_cell_length_a 20.885541
_cell_length_b 4.986957
_cell_length_c 5.585629
_cell_angle_alpha 84.015839
_cell_angle_beta 68.614378
_cell_angle_gamma 100.427773
_cell_volume 523.481072
_symmetry_space_group_name_H-M "P -1"
_symmetry_group_IT_number 2
_symmetry_cell_setting 'triclinic'
loop_
_space_group_symop_operation_xyz
x,y,z
-x,-y,-z
loop_
_atom_site_type_symbol
_atom_site_label
_atom_site_fract_x
_atom_site_fract_y
_atom_site_fract_z
Si Si1 0.178749 0.862462 0.868142
Si Si2 0.709283 0.990657 0.680064
Si Si3 0.417001 0.499889 0.126962
Si Si4 0.047450 0.867270 0.269691
Si Si5 0.447469 0.703825 0.568518
Si Si6 0.221649 0.448237 0.223631
Si Si7 0.912526 0.536395 0.357006
O O1 0.246596 0.031921 0.618720
O O2 0.125325 0.675076 0.769409
O O3 0.123949 0.024833 0.049789
O O4 0.205736 0.638682 0.013726
O O5 0.629876 0.813266 0.775907
O O6 0.742154 0.805763 0.843619
O O7 0.729457 0.312330 0.696327
O O8 0.406923 0.651659 0.375659
O O9 0.500000 0.500000 0.000000
O O10 0.403174 0.638017 0.880067
O O11 0.070693 0.635110 0.420881
O O12 0.987861 0.730744 0.168925
O O13 0.000000 0.000000 0.500000
O O14 0.500000 0.500000 0.500000
O O15 0.500000 0.000000 0.500000
O O16 0.148115 0.322463 0.475001
#
# Coordination Sequence:
#
# PCOD9009057 Si02
#       7
#     2   2   2   2   2   2   2
#     4  10  23  45  70  95 140 190 234 291 365 430
#     4  11  26  47  69 106 141 189 242 293 367 437
#     4  10  24  47  76 110 148 191 245 308 370 442
#     4  10  21  39  66  99 133 174 236 299 352 421
#     4  10  22  42  70 105 144 182 230 293 363 431
#     4  10  25  45  69  99 145 182 239 297 353 438
#     4   9  21  41  60  98 131 179 232 289 353 426
#
# _framework density 26.744043000000001
#
# number of rings (size 3 to 8) (size 9 to 14) (size 15 to 20)
#    0.000    2.000    0.000    0.857    8.000    7.429 
#   12.857    0.000    0.000    0.000    0.000    0.000 
#    0.000    0.000    0.000    0.000    0.000    0.000 
#
# Total GULP energy -78336.653665 kJ/mol
# GULP energy per Si atom -5595.475262 kJ/mol
# Density = 2.668317 g / cm^3
# Si number density = 26.744043 Si / 1000 Ang^3
#
#
#
# Elastic Constant Matrix: (Units=GPa)
#
#
# Indices 1 2 3 4 5 6 
#
# 1 106.8540 16.2706 32.9623 -11.6401 -10.6003 16.8609
# 2 16.2706 115.2450 27.6215 -6.3368 8.0687 4.2241
# 3 32.9623 27.6215 153.6436 -9.8228 -0.6724 24.2264
# 4 -11.6401 -6.3368 -9.8228 50.3934 11.3429 0.1548
# 5 -10.6003 8.0687 -0.6724 11.3429 47.8093 -1.8795
# 6 16.8609 4.2241 24.2264 0.1548 -1.8795 47.8919
#
#
#
# Elastic Compliance Matrix: (Units=1/GPa)
#
#
# Indices 1 2 3 4 5 6 
#
# 1 0.010840 -0.001108 -0.001566 0.001601 0.002077 -0.002850
# 2 -0.001108 0.009375 -0.001416 0.001120 -0.002106 0.000193
# 3 -0.001566 -0.001416 0.007673 0.001051 -0.000376 -0.003223
# 4 0.001601 0.001120 0.001051 0.021695 -0.005024 -0.001461
# 5 0.002077 -0.002106 -0.000376 -0.005024 0.022941 0.000562
# 6 -0.002850 0.000193 -0.003223 -0.001461 0.000562 0.023524
#
#
# Mechanical properties :
#
#
# Convention : Reuss Voigt Hill
#
# Bulk Modulus (GPa) = 50.73756 58.82793 54.78274
# Shear Modulus (GPa) = 45.12780 49.14480 47.13630
#
# Velocity S-wave (km/s) = 4.11225 4.29137 4.20277
# Velocity P-wave (km/s) = 6.44672 6.82634 6.63924
#
# Compressibility (1/GPa) = 0.01970927
#
# Stress axis : x y z
#
# Youngs Moduli (GPa) = 92.24718 106.66776 130.33165
#
# Poissons Ratio (x) = 0.11820 0.20404
# Poissons Ratio (y) = 0.10222 0.18451
# Poissons Ratio (z) = 0.14442 0.15101
#
# Static dielectric constant tensor:
#      x y z
#    x 2.131030 0.010360 0.039450 
#    y 0.010360 2.106350 0.083950 
#    z 0.039450 0.083950 2.184920 
# 
# From -- ./inp_files/8057.got.cif
#   From: 2010.05.17/outbox.cif.g08.bks.cpg/sg2_5_cif.got.tgz:8057.got - 2010.06.03 11:33:40.
