data_PCOD9009616
_publ_section_title
;
Structure prediction by ZEFSAII (Michael W. Deem and Ramdas Pophale) SiO2 
 PCOD9009616
Probable space group: P -1
;
_chemical_formula_sum "Si O2"
_cell_formula_units_Z 16
_cell_length_a 19.531346
_cell_length_b 12.411095
_cell_length_c 15.930757
_cell_angle_alpha 136.879376
_cell_angle_beta 155.523790
_cell_angle_gamma 29.311468
_cell_volume 743.650758
_symmetry_space_group_name_H-M "P -1"
_symmetry_group_IT_number 2
_symmetry_cell_setting 'triclinic'
loop_
_space_group_symop_operation_xyz
x,y,z
-x,-y,-z
loop_
_atom_site_type_symbol
_atom_site_label
_atom_site_fract_x
_atom_site_fract_y
_atom_site_fract_z
Si Si1 0.723270 0.179987 0.331245
Si Si2 0.088451 0.266997 0.667941
Si Si3 0.435985 0.465082 0.499045
Si Si4 0.253602 0.356453 0.355862
Si Si5 0.044837 0.030826 0.159578
Si Si6 0.654080 0.068430 0.781970
Si Si7 0.751788 0.534586 0.134670
Si Si8 0.667426 0.534312 0.227015
O O1 0.655999 0.336890 0.424969
O O2 0.716476 0.002600 0.248848
O O3 0.503795 0.361463 0.123768
O O4 0.000000 0.000000 0.500000
O O5 0.197707 0.341284 0.786681
O O6 0.947827 0.421904 0.683174
O O7 0.892922 0.328499 0.420122
O O8 0.500000 0.500000 0.500000
O O9 0.264003 0.438942 0.324677
O O10 0.692678 0.204296 0.655260
O O11 0.505890 0.193884 0.600153
O O12 0.225426 0.187456 0.223279
O O13 0.974463 0.260991 0.211100
O O14 0.848549 0.069577 0.015052
O O15 0.000000 0.000000 0.000000
O O16 0.459437 0.237737 0.732678
O O17 0.741990 0.556716 0.235325
O O18 0.500000 0.500000 0.000000
#
# Coordination Sequence:
#
# PCOD9009616 Si02
#       8
#     2   2   2   2   2   2   2   2
#     4  12  25  47  71  96 146 196 232 285 366 434
#     4  11  25  43  70 100 140 187 238 292 356 425
#     4  12  28  44  69 106 143 188 234 297 360 421
#     4  10  21  43  67 101 134 181 235 286 355 414
#     4  12  22  42  71  99 134 175 239 286 343 421
#     4  10  21  39  71 100 135 180 230 294 345 414
#     4  12  25  43  70 104 139 182 242 294 352 423
#     4  11  23  41  67 105 139 180 231 290 355 420
#
# _framework density 21.515477000000001
#
# number of rings (size 3 to 8) (size 9 to 14) (size 15 to 20)
#    0.000    0.750    5.000    2.250    5.250    2.000 
#    0.000    0.625    0.000    0.000    0.000    0.000 
#    0.000    0.000    0.000    0.000    0.000    0.000 
#
# Total GULP energy -89282.458364 kJ/mol
# GULP energy per Si atom -5580.153648 kJ/mol
# Density = 2.146651 g / cm^3
# Si number density = 21.515477 Si / 1000 Ang^3
#
#
#
# Elastic Constant Matrix: (Units=GPa)
#
#
# Indices 1 2 3 4 5 6 
#
# 1 132.6421 32.6232 3.3454 -1.6709 -8.0457 3.8954
# 2 32.6232 138.1864 14.1139 -12.2004 -6.3499 16.5070
# 3 3.3454 14.1139 48.7373 -6.9366 -0.4849 -2.6900
# 4 -1.6709 -12.2004 -6.9366 30.1753 5.0069 5.5721
# 5 -8.0457 -6.3499 -0.4849 5.0069 24.5754 7.3554
# 6 3.8954 16.5070 -2.6900 5.5721 7.3554 36.1293
#
#
#
# Elastic Compliance Matrix: (Units=1/GPa)
#
#
# Indices 1 2 3 4 5 6 
#
# 1 0.008139 -0.001794 -0.000130 -0.000626 0.002468 -0.000474
# 2 -0.001794 0.008920 -0.002215 0.003528 0.002481 -0.005096
# 3 -0.000130 -0.002215 0.021847 0.003961 -0.001706 0.002389
# 4 -0.000626 0.003528 0.003961 0.037384 -0.005039 -0.005989
# 5 0.002468 0.002481 -0.001706 -0.005039 0.046171 -0.010149
# 6 -0.000474 -0.005096 0.002389 -0.005989 -0.010149 0.033226
#
#
# Mechanical properties :
#
#
# Convention : Reuss Voigt Hill
#
# Bulk Modulus (GPa) = 32.64744 46.63675 39.64209
# Shear Modulus (GPa) = 28.70700 36.14157 32.42429
#
# Velocity S-wave (km/s) = 3.65670 4.10298 3.88625
# Velocity P-wave (km/s) = 5.74765 6.64596 6.21306
#
# Compressibility (1/GPa) = 0.03063028
#
# Stress axis : x y z
#
# Youngs Moduli (GPa) = 122.86203 112.10206 45.77261
#
# Poissons Ratio (x) = 0.20106 0.00595
# Poissons Ratio (y) = 0.22036 0.10137
# Poissons Ratio (z) = 0.01598 0.24827
#
# Static dielectric constant tensor:
#      x y z
#    x 1.774880 -0.048690 0.020010 
#    y -0.048690 1.703010 -0.027880 
#    z 0.020010 -0.027880 1.819540 
# 
# From -- ./inp_files/538469.got.cif
#   From: 2010.05.17/outbox.cif.g08.bks.cpg/sg2_270_cif.got.tgz:538469.got - 2010.06.03 11:33:40.
