data_PCOD9009862
_publ_section_title
;
Structure prediction by ZEFSAII (Michael W. Deem and Ramdas Pophale) SiO2 
 PCOD9009862
Probable space group: P -1
;
_chemical_formula_sum "Si O2"
_cell_formula_units_Z 14
_cell_length_a 5.053202
_cell_length_b 5.335706
_cell_length_c 27.236873
_cell_angle_alpha 81.531678
_cell_angle_beta 45.583281
_cell_angle_gamma 92.163189
_cell_volume 508.409948
_symmetry_space_group_name_H-M "P -1"
_symmetry_group_IT_number 2
_symmetry_cell_setting 'triclinic'
loop_
_space_group_symop_operation_xyz
x,y,z
-x,-y,-z
loop_
_atom_site_type_symbol
_atom_site_label
_atom_site_fract_x
_atom_site_fract_y
_atom_site_fract_z
Si Si1 0.720878 0.879567 0.720621
Si Si2 0.439269 0.487364 0.402079
Si Si3 0.278251 0.138197 0.899618
Si Si4 0.507814 0.959096 0.442462
Si Si5 0.369020 0.626905 0.061251
Si Si6 0.321013 0.607171 0.304611
Si Si7 0.726784 0.693969 0.828129
O O1 0.491895 0.619477 0.733771
O O2 0.892358 0.840868 0.752493
O O3 0.059671 0.976225 0.635292
O O4 0.487015 0.107178 0.744681
O O5 0.327805 0.181683 0.433811
O O6 0.292252 0.575658 0.367636
O O7 0.898820 0.547680 0.338483
O O8 0.357491 0.669240 0.451810
O O9 0.296592 0.219182 0.952520
O O10 0.568103 0.401800 0.835985
O O11 0.893143 0.172735 0.923919
O O12 0.426598 0.878866 0.875954
O O13 0.500000 0.000000 0.500000
O O14 0.159783 0.390961 0.129987
O O15 0.500000 0.500000 0.000000
#
# Coordination Sequence:
#
# PCOD9009862 Si02
#       7
#     2   2   2   2   2   2   2
#     4  10  21  43  61  93 127 172 212 272 324 387
#     4  10  21  40  60  89 120 158 205 262 317 382
#     4  10  24  42  67 101 133 178 223 269 331 393
#     4  10  21  40  65  94 126 167 216 268 326 387
#     4  10  24  45  70 101 137 176 222 273 329 394
#     4  10  21  40  62  89 119 163 208 256 320 379
#     4  10  24  43  65  98 136 176 225 274 331 397
#
# _framework density 27.536835
#
# number of rings (size 3 to 8) (size 9 to 14) (size 15 to 20)
#    0.857    1.143    0.000    2.571    2.000    1.143 
#   15.429   17.143    0.000    0.000    0.000    0.000 
#    0.000    0.000    0.000    0.000    0.000    0.000 
#
# Total GULP energy -78346.774872 kJ/mol
# GULP energy per Si atom -5596.198205 kJ/mol
# Density = 2.747416 g / cm^3
# Si number density = 27.536835 Si / 1000 Ang^3
#
#
#
# Elastic Constant Matrix: (Units=GPa)
#
#
# Indices 1 2 3 4 5 6 
#
# 1 89.4754 24.4911 46.8393 -4.5679 33.8142 -5.1773
# 2 24.4911 210.8490 35.5416 -2.2783 22.3897 -0.3058
# 3 46.8393 35.5416 174.7572 7.2454 32.7411 2.1747
# 4 -4.5679 -2.2783 7.2454 49.0603 -6.1295 8.9727
# 5 33.8142 22.3897 32.7411 -6.1295 45.3911 -6.8219
# 6 -5.1773 -0.3058 2.1747 8.9727 -6.8219 45.9015
#
#
#
# Elastic Compliance Matrix: (Units=1/GPa)
#
#
# Indices 1 2 3 4 5 6 
#
# 1 0.016462 -0.000413 -0.002450 0.000541 -0.010166 0.000354
# 2 -0.000413 0.005082 -0.000586 0.000109 -0.001802 -0.000274
# 3 -0.002450 -0.000586 0.007217 -0.001600 -0.003431 -0.000819
# 4 0.000541 0.000109 -0.001600 0.021728 0.003083 -0.003652
# 5 -0.010166 -0.001802 -0.003431 0.003083 0.033901 0.003440
# 6 0.000354 -0.000274 -0.000819 -0.003652 0.003440 0.023088
#
#
# Mechanical properties :
#
#
# Convention : Reuss Voigt Hill
#
# Bulk Modulus (GPa) = 45.74213 76.53618 61.13916
# Shear Modulus (GPa) = 41.09666 52.61790 46.85728
#
# Velocity S-wave (km/s) = 3.86738 4.37603 4.12955
# Velocity P-wave (km/s) = 6.04893 7.30666 6.70734
#
# Compressibility (1/GPa) = 0.02186168
#
# Stress axis : x y z
#
# Youngs Moduli (GPa) = 60.74571 196.78394 138.55240
#
# Poissons Ratio (x) = 0.08132 0.33951
# Poissons Ratio (y) = 0.02510 0.08121
# Poissons Ratio (z) = 0.14885 0.11535
#
# Static dielectric constant tensor:
#      x y z
#    x 2.307800 0.011470 -0.153490 
#    y 0.011470 2.248620 -0.050510 
#    z -0.153490 -0.050510 2.187770 
# 
# From -- ./inp_files/13109.got.cif
#   From: 2010.05.17/outbox.cif.g08.bks.cpg/sg2_7_cif.got.tgz:13109.got - 2010.06.03 11:33:40.
