data_PCOD9009095
_publ_section_title
;
Structure prediction by ZEFSAII (Michael W. Deem and Ramdas Pophale) SiO2 
 PCOD9009095
Probable space group: P -1
;
_chemical_formula_sum "Si O2"
_cell_formula_units_Z 16
_cell_length_a 9.581615
_cell_length_b 11.837005
_cell_length_c 10.981340
_cell_angle_alpha 51.859192
_cell_angle_beta 68.620905
_cell_angle_gamma 40.283165
_cell_volume 619.278715
_symmetry_space_group_name_H-M "P -1"
_symmetry_group_IT_number 2
_symmetry_cell_setting 'triclinic'
loop_
_space_group_symop_operation_xyz
x,y,z
-x,-y,-z
loop_
_atom_site_type_symbol
_atom_site_label
_atom_site_fract_x
_atom_site_fract_y
_atom_site_fract_z
Si Si1 0.506003 0.573117 0.081770
Si Si2 0.001021 0.209096 0.258144
Si Si3 0.575746 0.632015 0.378554
Si Si4 0.128238 0.310416 0.720323
Si Si5 0.703342 0.960679 0.934566
Si Si6 0.045574 0.840047 0.438269
Si Si7 0.378744 0.370619 0.364148
Si Si8 0.345063 0.945246 0.741771
O O1 0.749637 0.422691 0.160280
O O2 0.383978 0.537823 0.221978
O O3 0.500000 0.500000 0.000000
O O4 0.410422 0.794800 0.931422
O O5 0.050079 0.182232 0.402499
O O6 0.017112 0.027739 0.345874
O O7 0.168284 0.171329 0.141681
O O8 0.778400 0.605213 0.316657
O O9 0.400124 0.809842 0.215720
O O10 0.502201 0.716601 0.484466
O O11 0.704741 0.390482 0.493248
O O12 0.876194 0.497145 0.633404
O O13 0.311898 0.125398 0.688191
O O14 0.131415 0.188613 0.908504
O O15 0.500000 0.000000 0.000000
O O16 0.903492 0.911702 0.317540
O O17 0.500978 0.200014 0.327712
#
# Coordination Sequence:
#
# PCOD9009095 Si02
#       8
#     2   2   2   2   2   2   2   2
#     4  10  21  39  67 102 131 166 228 275 336 406
#     4  11  23  45  70  98 137 177 226 280 342 404
#     4  11  25  46  62  99 139 175 235 279 325 413
#     4  11  25  45  66  96 138 179 228 279 338 395
#     4  10  24  45  66  94 135 180 223 276 333 403
#     4  11  24  41  69 101 136 178 225 279 342 394
#     4  11  22  42  70  98 134 178 223 280 338 402
#     4  11  23  42  67 102 133 176 222 280 339 400
#
# _framework density 25.836506
#
# number of rings (size 3 to 8) (size 9 to 14) (size 15 to 20)
#    0.000    1.250    3.750    2.625    3.500    2.500 
#    4.500    1.250    0.000    0.000    0.000    0.000 
#    0.000    0.000    0.000    0.000    0.000    0.000 
#
# Total GULP energy -89503.389769 kJ/mol
# GULP energy per Si atom -5593.961861 kJ/mol
# Density = 2.577770 g / cm^3
# Si number density = 25.836506 Si / 1000 Ang^3
#
#
#
# Elastic Constant Matrix: (Units=GPa)
#
#
# Indices 1 2 3 4 5 6 
#
# 1 34.0065 -1.0604 11.8922 -10.0239 12.2566 -5.4546
# 2 -1.0604 112.5134 37.6639 -2.9175 5.5525 -1.3034
# 3 11.8922 37.6639 169.6293 -17.6803 20.3484 -0.0832
# 4 -10.0239 -2.9175 -17.6803 57.5962 -11.4291 -5.6027
# 5 12.2566 5.5525 20.3484 -11.4291 29.7092 -7.9846
# 6 -5.4546 -1.3034 -0.0832 -5.6027 -7.9846 50.5393
#
#
#
# Elastic Compliance Matrix: (Units=1/GPa)
#
#
# Indices 1 2 3 4 5 6 
#
# 1 0.035689 0.001382 -0.000944 0.003794 -0.012238 0.002373
# 2 0.001382 0.009663 -0.002146 -0.000077 -0.000869 0.000249
# 3 -0.000944 -0.002146 0.007000 0.001069 -0.003759 -0.000621
# 4 0.003794 -0.000077 0.001069 0.019964 0.006373 0.003629
# 5 -0.012238 -0.000869 -0.003759 0.006373 0.045663 0.006571
# 6 0.002373 0.000249 -0.000621 0.003629 0.006571 0.021489
#
#
# Mechanical properties :
#
#
# Convention : Reuss Voigt Hill
#
# Bulk Modulus (GPa) = 20.43486 45.90448 33.16967
# Shear Modulus (GPa) = 31.40761 45.41250 38.41005
#
# Velocity S-wave (km/s) = 3.49037 4.19703 3.85990
# Velocity P-wave (km/s) = 4.91630 6.42593 5.72113
#
# Compressibility (1/GPa) = 0.04893598
#
# Stress axis : x y z
#
# Youngs Moduli (GPa) = 28.01966 103.48708 142.85620
#
# Poissons Ratio (x) = -0.14305 0.13491
# Poissons Ratio (y) = -0.03873 0.30659
# Poissons Ratio (z) = 0.02646 0.22209
#
# Static dielectric constant tensor:
#      x y z
#    x 1.985970 0.008320 -0.045860 
#    y 0.008320 2.067110 0.033290 
#    z -0.045860 0.033290 2.083940 
# 
# From -- ./inp_files/432565.got.cif
#   From: 2010.05.17/outbox.cif.g08.bks.cpg/sg2_217_cif.got.tgz:432565.got - 2010.06.03 11:33:40.
