data_PCOD9009540
_publ_section_title
;
Structure prediction by ZEFSAII (Michael W. Deem and Ramdas Pophale) SiO2 
 PCOD9009540
Probable space group: P -1
;
_chemical_formula_sum "Si O2"
_cell_formula_units_Z 14
_cell_length_a 8.116766
_cell_length_b 20.648113
_cell_length_c 10.176620
_cell_angle_alpha 158.864067
_cell_angle_beta 99.219342
_cell_angle_gamma 73.128654
_cell_volume 557.540155
_symmetry_space_group_name_H-M "P -1"
_symmetry_group_IT_number 2
_symmetry_cell_setting 'triclinic'
loop_
_space_group_symop_operation_xyz
x,y,z
-x,-y,-z
loop_
_atom_site_type_symbol
_atom_site_label
_atom_site_fract_x
_atom_site_fract_y
_atom_site_fract_z
Si Si1 0.344511 0.585413 0.747084
Si Si2 0.982031 0.864842 0.122107
Si Si3 0.434019 0.238527 0.574215
Si Si4 0.415843 0.965906 0.558877
Si Si5 0.148832 0.827611 0.530822
Si Si6 0.900306 0.407864 0.709826
Si Si7 0.213570 0.412340 0.624422
O O1 0.500000 0.500000 0.500000
O O2 0.335097 0.423302 0.538996
O O3 0.154407 0.670651 0.806647
O O4 0.377483 0.767186 0.161886
O O5 0.000000 0.000000 0.500000
O O6 0.781391 0.867940 0.121225
O O7 0.971892 0.986294 0.217689
O O8 0.452628 0.074292 0.374176
O O9 0.641071 0.199564 0.491905
O O10 0.332095 0.261065 0.465113
O O11 0.309262 0.440626 0.017712
O O12 0.500000 0.000000 0.500000
O O13 0.087233 0.790555 0.596602
O O14 0.156337 0.637156 0.090858
O O15 0.020334 0.389000 0.559129
O O16 0.000000 0.500000 0.000000
#
# Coordination Sequence:
#
# PCOD9009540 Si02
#       7
#     2   2   2   2   2   2   2
#     4  11  23  37  53  77 114 152 175 214 280 332
#     4   9  17  32  53  73 106 140 181 219 258 322
#     4   9  16  28  51  83 107 126 178 235 263 302
#     4  10  21  34  60  84 103 140 184 234 265 304
#     4   9  14  27  48  78 100 129 169 230 269 291
#     4   8  16  22  44  77 106 130 163 224 270 304
#     4  10  17  29  49  79 106 137 177 224 266 311
#
# _framework density 25.110299999999999
#
# number of rings (size 3 to 8) (size 9 to 14) (size 15 to 20)
#    0.000    2.857    4.286    1.714    2.000    3.429 
#    0.000    0.714    0.000    6.857    0.000    0.000 
#    0.000    0.000    0.000    0.000    0.000    0.000 
#
# Total GULP energy -78142.504595 kJ/mol
# GULP energy per Si atom -5581.607471 kJ/mol
# Density = 2.505315 g / cm^3
# Si number density = 25.110300 Si / 1000 Ang^3
#
#
#
# Elastic Constant Matrix: (Units=GPa)
#
#
# Indices 1 2 3 4 5 6 
#
# 1 68.3786 76.7003 18.6520 10.0681 -3.7990 21.8949
# 2 76.7003 200.5868 43.3827 11.7939 -47.5267 33.0867
# 3 18.6520 43.3827 72.0102 5.2649 -11.7177 5.8027
# 4 10.0681 11.7939 5.2649 41.6362 -3.0338 -18.8534
# 5 -3.7990 -47.5267 -11.7177 -3.0338 38.9736 -8.1219
# 6 21.8949 33.0867 5.8027 -18.8534 -8.1219 55.6709
#
#
#
# Elastic Compliance Matrix: (Units=1/GPa)
#
#
# Indices 1 2 3 4 5 6 
#
# 1 0.037163 -0.015992 -0.001450 -0.010910 -0.019563 -0.011509
# 2 -0.015992 0.015538 -0.002586 0.001068 0.016721 0.000126
# 3 -0.001450 -0.002586 0.016089 -0.000633 0.001586 0.000447
# 4 -0.010910 0.001068 -0.000633 0.034211 0.006087 0.016196
# 5 -0.019563 0.016721 0.001586 0.006087 0.046432 0.006426
# 6 -0.011509 0.000126 0.000447 0.016196 0.006426 0.028790
#
#
# Mechanical properties :
#
#
# Convention : Reuss Voigt Hill
#
# Bulk Modulus (GPa) = 34.80158 68.71617 51.75888
# Shear Modulus (GPa) = 21.94365 40.73884 31.34125
#
# Velocity S-wave (km/s) = 2.95937 4.03227 3.53674
# Velocity P-wave (km/s) = 5.05636 7.00743 6.11027
#
# Compressibility (1/GPa) = 0.02873433
#
# Stress axis : x y z
#
# Youngs Moduli (GPa) = 26.90847 64.35805 62.15519
#
# Poissons Ratio (x) = 1.02922 0.09010
# Poissons Ratio (y) = 0.43032 0.16073
# Poissons Ratio (z) = 0.03901 0.16643
#
# Static dielectric constant tensor:
#      x y z
#    x 2.019870 -0.081620 0.070230 
#    y -0.081620 1.923680 -0.043850 
#    z 0.070230 -0.043850 2.086370 
# 
# From -- ./inp_files/405069.got.cif
#   From: 2010.05.17/outbox.cif.g08.bks.cpg/sg2_203_cif.got.tgz:405069.got - 2010.06.03 11:33:40.
