data_PCOD9009973
_publ_section_title
;
Structure prediction by ZEFSAII (Michael W. Deem and Ramdas Pophale) SiO2 
 PCOD9009973
Probable space group: P -1
;
_chemical_formula_sum "Si O2"
_cell_formula_units_Z 12
_cell_length_a 4.898222
_cell_length_b 14.957863
_cell_length_c 14.735801
_cell_angle_alpha 30.665285
_cell_angle_beta 74.186606
_cell_angle_gamma 87.784638
_cell_volume 485.829893
_symmetry_space_group_name_H-M "P -1"
_symmetry_group_IT_number 2
_symmetry_cell_setting 'triclinic'
loop_
_space_group_symop_operation_xyz
x,y,z
-x,-y,-z
loop_
_atom_site_type_symbol
_atom_site_label
_atom_site_fract_x
_atom_site_fract_y
_atom_site_fract_z
Si Si1 0.676987 0.789981 0.044045
Si Si2 0.661090 0.334799 0.194002
Si Si3 0.280931 0.673881 0.610744
Si Si4 0.636029 0.378268 0.968578
Si Si5 0.053642 0.213618 0.614869
Si Si6 0.040772 0.798967 0.163410
O O1 0.559965 0.710874 0.024125
O O2 0.384617 0.826927 0.078904
O O3 0.971054 0.988700 0.826624
O O4 0.794886 0.691728 0.200334
O O5 0.678576 0.229391 0.377214
O O6 0.443717 0.443675 0.147413
O O7 0.568477 0.246192 0.179879
O O8 0.000000 0.500000 0.000000
O O9 0.605733 0.674221 0.551488
O O10 0.996762 0.469595 0.830186
O O11 0.178879 0.768667 0.454030
O O12 0.020166 0.285068 0.656023
O O13 0.000000 0.000000 0.000000
#
# Coordination Sequence:
#
# PCOD9009973 Si02
#       6
#     2   2   2   2   2   2
#     4  11  23  39  66  92 118 157 214 248 282 358
#     4   9  20  40  67  82 122 164 201 233 313 369
#     4  11  21  39  63  89 122 163 192 243 312 361
#     4  10  22  41  65  91 117 161 207 247 292 366
#     4  11  21  39  62  89 122 162 195 246 305 353
#     4  10  21  40  61  88 124 166 198 238 302 365
#
# _framework density 24.700001
#
# number of rings (size 3 to 8) (size 9 to 14) (size 15 to 20)
#    0.000    1.667    1.667    5.000    4.667    0.000 
#    0.000    6.667    0.000    0.000    0.000    0.000 
#    0.000    0.000    0.000    0.000    0.000    0.000 
#
# Total GULP energy -67031.255099 kJ/mol
# GULP energy per Si atom -5585.937925 kJ/mol
# Density = 2.464378 g / cm^3
# Si number density = 24.700001 Si / 1000 Ang^3
#
#
#
# Elastic Constant Matrix: (Units=GPa)
#
#
# Indices 1 2 3 4 5 6 
#
# 1 113.7981 38.7499 22.0763 27.4849 -2.3690 21.2684
# 2 38.749916085.3872********** 1491.3307 3939.9796 -213.4190
# 3 22.0763********** 8992.2929-1024.0799-2925.8674 211.6925
# 4 27.4849 1491.3307-1024.0799 186.0854 373.5154 -9.5248
# 5 -2.3690 3939.9796-2925.8674 373.5154 1024.0853 -41.7931
# 6 21.2684 -213.4190 211.6925 -9.5248 -41.7931 49.0993
#
#
#
# Elastic Compliance Matrix: (Units=1/GPa)
#
#
# Indices 1 2 3 4 5 6 
#
# 1 0.011631 0.000656 0.001922 -0.008161 0.005675 -0.007225
# 2 0.000656 0.005258 0.006269 -0.010904 0.001443 -0.005347
# 3 0.001922 0.006269 0.009900 -0.015174 0.009241 -0.011344
# 4 -0.008161 -0.010904 -0.015174 0.047931 -0.018281 0.015303
# 5 0.005675 0.001443 0.009241 -0.018281 0.027859 -0.015861
# 6 -0.007225 -0.005347 -0.011344 0.015303 -0.015861 0.038634
#
#
# Mechanical properties :
#
#
# Convention : Reuss Voigt Hill
#
# Bulk Modulus (GPa) = 22.47977 183.64485 103.06231
# Shear Modulus (GPa) = 36.14139 2715.90835 1376.02487
#
# Velocity S-wave (km/s) = 3.82935 33.19556 23.62847
# Velocity P-wave (km/s) = 5.35469 39.29086 28.03965
#
# Compressibility (1/GPa) = 0.04448444
#
# Stress axis : x y z
#
# Youngs Moduli (GPa) = 85.98000 190.18942 101.00695
#
# Poissons Ratio (x) = -0.12481 -0.19415
# Poissons Ratio (y) = -0.05642 -0.63326
# Poissons Ratio (z) = -0.16526 -1.19238
#
# Static dielectric constant tensor:
#      x y z
#    x 2.025850 -0.026470 0.100020 
#    y -0.026470 2.102690 -0.003100 
#    z 0.100020 -0.003100 2.014000 
# 
# From -- ./inp_files/28138.got.cif
#   From: 2010.05.17/outbox.cif.g08.bks.cpg/sg2_15_cif.got.tgz:28138.got - 2010.06.03 11:33:40.
