data_PCOD9009621
_publ_section_title
;
Structure prediction by ZEFSAII (Michael W. Deem and Ramdas Pophale) SiO2 
 PCOD9009621
Probable space group: P -1
;
_chemical_formula_sum "Si O2"
_cell_formula_units_Z 14
_cell_length_a 5.631710
_cell_length_b 9.827957
_cell_length_c 15.280703
_cell_angle_alpha 48.693918
_cell_angle_beta 114.337669
_cell_angle_gamma 114.190631
_cell_volume 567.025229
_symmetry_space_group_name_H-M "P -1"
_symmetry_group_IT_number 2
_symmetry_cell_setting 'triclinic'
loop_
_space_group_symop_operation_xyz
x,y,z
-x,-y,-z
loop_
_atom_site_type_symbol
_atom_site_label
_atom_site_fract_x
_atom_site_fract_y
_atom_site_fract_z
Si Si1 0.819979 0.544033 0.037006
Si Si2 0.591165 0.909678 0.465014
Si Si3 0.398723 0.092899 0.030688
Si Si4 0.972103 0.775845 0.190600
Si Si5 0.004042 0.234187 0.300738
Si Si6 0.247655 0.594439 0.437812
Si Si7 0.947899 0.101982 0.163970
O O1 0.920999 0.426500 0.180060
O O2 0.500000 0.500000 0.000000
O O3 0.000000 0.500000 0.000000
O O4 0.905149 0.767570 0.946666
O O5 0.372120 0.788478 0.421643
O O6 0.774544 0.771737 0.589836
O O7 0.500000 0.000000 0.500000
O O8 0.759879 0.076978 0.363669
O O9 0.278572 0.257111 0.898317
O O10 0.652983 0.146662 0.108006
O O11 0.500000 0.000000 0.000000
O O12 0.192167 0.924820 0.111562
O O13 0.108603 0.618266 0.314141
O O14 0.905925 0.890353 0.217313
O O15 0.091291 0.155147 0.254728
O O16 0.500000 0.500000 0.500000
O O17 0.000000 0.500000 0.500000
#
# Coordination Sequence:
#
# PCOD9009621 Si02
#       7
#     2   2   2   2   2   2   2
#     4  10  24  40  63 105 136 175 228 294 361 421
#     4  11  26  48  78 105 145 204 252 302 371 442
#     4   9  20  38  65 101 129 182 235 289 360 443
#     4  10  22  42  70  97 140 190 242 293 368 446
#     4  10  24  43  72 103 145 185 247 300 367 442
#     4  12  31  50  75 110 150 199 253 312 370 432
#     4  10  21  39  71 101 140 184 232 301 375 437
#
# _framework density 24.690259000000001
#
# number of rings (size 3 to 8) (size 9 to 14) (size 15 to 20)
#    0.000    1.714    0.000    1.714   20.000    1.143 
#    5.143    0.000    0.000    0.000    0.000    0.000 
#    0.000    0.000    0.000    0.000    0.000    0.000 
#
# Total GULP energy -78221.098334 kJ/mol
# GULP energy per Si atom -5587.221310 kJ/mol
# Density = 2.463406 g / cm^3
# Si number density = 24.690259 Si / 1000 Ang^3
#
#
#
# Elastic Constant Matrix: (Units=GPa)
#
#
# Indices 1 2 3 4 5 6 
#
# 1 107.1186 10.5297 50.4741 -3.6363 14.3636 3.4636
# 2 10.5297 44.3931 3.8656 13.8530 0.9096 -1.9282
# 3 50.4741 3.8656 187.0978 16.3971 12.8866 10.7329
# 4 -3.6363 13.8530 16.3971 37.8690 2.7900 9.2917
# 5 14.3636 0.9096 12.8866 2.7900 43.1155 5.8878
# 6 3.4636 -1.9282 10.7329 9.2917 5.8878 49.4321
#
#
#
# Elastic Compliance Matrix: (Units=1/GPa)
#
#
# Indices 1 2 3 4 5 6 
#
# 1 0.011822 -0.003848 -0.003238 0.004350 -0.003072 -0.000727
# 2 -0.003848 0.027089 0.001274 -0.011654 0.000652 0.003163
# 3 -0.003238 0.001274 0.006563 -0.003469 -0.000628 -0.000422
# 4 0.004350 -0.011654 -0.003469 0.034238 -0.001527 -0.006260
# 5 -0.003072 0.000652 -0.000628 -0.001527 0.024802 -0.002290
# 6 -0.000727 0.003163 -0.000422 -0.006260 -0.002290 0.021945
#
#
# Mechanical properties :
#
#
# Convention : Reuss Voigt Hill
#
# Bulk Modulus (GPa) = 29.54247 52.03869 40.79058
# Shear Modulus (GPa) = 33.47424 44.33267 38.90345
#
# Velocity S-wave (km/s) = 3.68607 4.24199 3.97376
# Velocity P-wave (km/s) = 5.48702 6.71677 6.13280
#
# Compressibility (1/GPa) = 0.03384957
#
# Stress axis : x y z
#
# Youngs Moduli (GPa) = 84.58498 36.91570 152.35984
#
# Poissons Ratio (x) = 0.14206 0.49331
# Poissons Ratio (y) = 0.32550 -0.19403
# Poissons Ratio (z) = 0.27387 -0.04701
#
# Static dielectric constant tensor:
#      x y z
#    x 10.237960 -0.414680 1.461330 
#    y -0.414680 2.049510 -0.071240 
#    z 1.461330 -0.071240 2.215610 
# 
# From -- ./inp_files/549087.got.cif
#   From: 2010.05.17/outbox.cif.g08.bks.cpg/sg2_275_cif.got.tgz:549087.got - 2010.06.03 11:33:40.
