data_PCOD9009651
_publ_section_title
;
Structure prediction by ZEFSAII (Michael W. Deem and Ramdas Pophale) SiO2 
 PCOD9009651
Probable space group: P -1
;
_chemical_formula_sum "Si O2"
_cell_formula_units_Z 16
_cell_length_a 8.669491
_cell_length_b 14.379871
_cell_length_c 9.185374
_cell_angle_alpha 105.000201
_cell_angle_beta 71.315237
_cell_angle_gamma 141.769629
_cell_volume 671.222009
_symmetry_space_group_name_H-M "P -1"
_symmetry_group_IT_number 2
_symmetry_cell_setting 'triclinic'
loop_
_space_group_symop_operation_xyz
x,y,z
-x,-y,-z
loop_
_atom_site_type_symbol
_atom_site_label
_atom_site_fract_x
_atom_site_fract_y
_atom_site_fract_z
Si Si1 0.971870 0.484721 0.677901
Si Si2 0.990605 0.310624 0.124102
Si Si3 0.426189 0.050910 0.266577
Si Si4 0.067640 0.133026 0.104878
Si Si5 0.118610 0.729207 0.182110
Si Si6 0.231341 0.930869 0.568612
Si Si7 0.547724 0.737792 0.730082
Si Si8 0.240817 0.327635 0.535467
O O1 0.253340 0.601281 0.715915
O O2 0.000000 0.500000 0.500000
O O3 0.854143 0.534367 0.780893
O O4 0.832945 0.332435 0.738925
O O5 0.066946 0.233533 0.056940
O O6 0.728937 0.187239 0.247245
O O7 0.931427 0.325861 0.988304
O O8 0.377109 0.117766 0.204838
O O9 0.344335 0.909180 0.182669
O O10 0.262652 0.003916 0.438846
O O11 0.339304 0.260044 0.159519
O O12 0.847657 0.045317 0.259379
O O13 0.000000 0.000000 0.000000
O O14 0.878482 0.686056 0.286872
O O15 0.988330 0.752106 0.539918
O O16 0.500000 0.000000 0.500000
O O17 0.691757 0.751250 0.557355
O O18 0.500000 0.500000 0.500000
#
# Coordination Sequence:
#
# PCOD9009651 Si02
#       8
#     2   2   2   2   2   2   2   2
#     4  11  26  46  75 104 140 201 257 307 376 458
#     4  11  24  44  71 106 154 189 248 317 388 446
#     4  10  22  40  73 104 141 195 252 318 376 438
#     4  11  24  42  72 110 159 195 242 315 394 441
#     4  11  23  42  74 104 146 190 254 307 390 444
#     4  10  21  40  70 107 147 195 263 308 363 458
#     4  10  23  43  70 103 152 189 248 312 373 448
#     4  10  21  39  71  99 146 197 247 305 386 434
#
# _framework density 23.837122000000001
#
# number of rings (size 3 to 8) (size 9 to 14) (size 15 to 20)
#    0.000    1.500    2.500    1.500    5.250    6.500 
#    0.000    0.625    5.500    0.000    0.000    0.000 
#    0.000    0.000    0.000    0.000    0.000    0.000 
#
# Total GULP energy -89126.209867 kJ/mol
# GULP energy per Si atom -5570.388117 kJ/mol
# Density = 2.378287 g / cm^3
# Si number density = 23.837122 Si / 1000 Ang^3
#
#
#
# Elastic Constant Matrix: (Units=GPa)
#
#
# Indices 1 2 3 4 5 6 
#
# 1 88.7140 44.1558 18.8605 5.9549 3.2705 -11.0572
# 2 44.1558 94.7177 19.0425 9.8208 -3.4123 -11.5719
# 3 18.8605 19.0425 124.2703 23.5894 -4.9748 -12.3904
# 4 5.9549 9.8208 23.5894 28.8037 -7.7953 -11.7452
# 5 3.2705 -3.4123 -4.9748 -7.7953 37.6936 -3.7435
# 6 -11.0572 -11.5719 -12.3904 -11.7452 -3.7435 56.2269
#
#
#
# Elastic Compliance Matrix: (Units=1/GPa)
#
#
# Indices 1 2 3 4 5 6 
#
# 1 0.015096 -0.006725 -0.001249 0.000169 -0.001928 0.001216
# 2 -0.006725 0.014221 -0.000584 -0.002122 0.001467 0.001130
# 3 -0.001249 -0.000584 0.009764 -0.007506 -0.000188 0.000205
# 4 0.000169 -0.002122 -0.007506 0.047595 0.009491 0.008516
# 5 -0.001928 0.001467 -0.000188 0.009491 0.029146 0.003805
# 6 0.001216 0.001130 0.000205 0.008516 0.003805 0.020334
#
#
# Mechanical properties :
#
#
# Convention : Reuss Voigt Hill
#
# Bulk Modulus (GPa) = 45.52589 52.42440 48.97515
# Shear Modulus (GPa) = 31.13450 39.58772 35.36111
#
# Velocity S-wave (km/s) = 3.61797 4.07966 3.85573
# Velocity P-wave (km/s) = 6.04923 6.65072 6.35709
#
# Compressibility (1/GPa) = 0.02196552
#
# Stress axis : x y z
#
# Youngs Moduli (GPa) = 66.24194 70.31783 102.41947
#
# Poissons Ratio (x) = 0.47288 0.12788
# Poissons Ratio (y) = 0.44547 0.05984
# Poissons Ratio (z) = 0.08271 0.04109
#
# Static dielectric constant tensor:
#      x y z
#    x 2.019340 -0.025670 0.037690 
#    y -0.025670 1.999680 0.015130 
#    z 0.037690 0.015130 1.971990 
# 
# From -- ./inp_files/207701.got.cif
#   From: 2010.05.17/outbox.cif.g08.bks.cpg/sg2_104_cif.got.tgz:207701.got - 2010.06.03 11:33:40.
