data_PCOD9009888
_publ_section_title
;
Structure prediction by ZEFSAII (Michael W. Deem and Ramdas Pophale) SiO2 
 PCOD9009888
Probable space group: P -1
;
_chemical_formula_sum "Si O2"
_cell_formula_units_Z 16
_cell_length_a 7.357749
_cell_length_b 9.257267
_cell_length_c 17.362945
_cell_angle_alpha 33.567002
_cell_angle_beta 85.629906
_cell_angle_gamma 94.826786
_cell_volume 628.179284
_symmetry_space_group_name_H-M "P -1"
_symmetry_group_IT_number 2
_symmetry_cell_setting 'triclinic'
loop_
_space_group_symop_operation_xyz
x,y,z
-x,-y,-z
loop_
_atom_site_type_symbol
_atom_site_label
_atom_site_fract_x
_atom_site_fract_y
_atom_site_fract_z
Si Si1 0.146273 0.588080 0.073770
Si Si2 0.419229 0.602882 0.191228
Si Si3 0.466603 0.785734 0.397153
Si Si4 0.001807 0.885698 0.818607
Si Si5 0.161598 0.450503 0.782149
Si Si6 0.304854 0.888190 0.207930
Si Si7 0.913574 0.554071 0.387354
Si Si8 0.320719 0.052765 0.525224
O O1 0.334238 0.613611 0.104870
O O2 0.064316 0.281763 0.181540
O O3 0.007458 0.680199 0.097428
O O4 0.136158 0.752822 0.923351
O O5 0.636196 0.593869 0.183758
O O6 0.387617 0.835861 0.146475
O O7 0.304559 0.323812 0.362528
O O8 0.500000 0.500000 0.500000
O O9 0.455416 0.934304 0.251346
O O10 0.250347 0.714360 0.470394
O O11 0.611416 0.912461 0.403620
O O12 0.815757 0.894305 0.871651
O O13 0.101949 0.201478 0.665080
O O14 0.124989 0.361214 0.735282
O O15 0.166610 0.770168 0.642874
O O16 0.139973 0.605433 0.357874
O O17 0.500000 0.000000 0.500000
#
# Coordination Sequence:
#
# PCOD9009888 Si02
#       8
#     2   2   2   2   2   2   2   2
#     4  11  23  47  65  90 126 162 214 269 310 368
#     4  11  22  42  65  93 127 170 209 250 316 375
#     4  12  21  37  60  93 138 159 205 259 301 385
#     4   9  25  42  67  89 123 162 216 266 312 369
#     4  11  23  40  65  95 128 166 209 256 311 375
#     4  10  22  39  64  92 124 172 207 250 319 366
#     4  10  21  40  60  91 125 165 208 248 312 373
#     4  10  22  36  58  94 133 158 202 253 306 376
#
# _framework density 25.470431999999999
#
# number of rings (size 3 to 8) (size 9 to 14) (size 15 to 20)
#    0.750    0.750    5.000    0.375    5.250    2.500 
#    0.000    6.250    0.000    0.000    0.000    0.000 
#    0.000    0.000    0.000    0.000    0.000    0.000 
#
# Total GULP energy -89395.375225 kJ/mol
# GULP energy per Si atom -5587.210952 kJ/mol
# Density = 2.541246 g / cm^3
# Si number density = 25.470432 Si / 1000 Ang^3
#
#
#
# Elastic Constant Matrix: (Units=GPa)
#
#
# Indices 1 2 3 4 5 6 
#
# 1 96.3607 37.6904 14.2557 5.0541 9.8254 4.7787
# 2 37.6904 142.5769 26.7437 21.1945 18.1453 3.9489
# 3 14.2557 26.7437 52.7452 8.8154 21.5200 16.1750
# 4 5.0541 21.1945 8.8154 38.1057 9.6703 10.1331
# 5 9.8254 18.1453 21.5200 9.6703 36.3919 6.4152
# 6 4.7787 3.9489 16.1750 10.1331 6.4152 44.7741
#
#
#
# Elastic Compliance Matrix: (Units=1/GPa)
#
#
# Indices 1 2 3 4 5 6 
#
# 1 0.011772 -0.002830 -0.001234 0.000736 -0.001134 -0.000565
# 2 -0.002830 0.009070 -0.003258 -0.004118 -0.001048 0.001761
# 3 -0.001234 -0.003258 0.029039 0.001022 -0.014024 -0.008293
# 4 0.000736 -0.004118 0.001022 0.031401 -0.005977 -0.006335
# 5 -0.001134 -0.001048 -0.014024 -0.005977 0.037978 0.001191
# 6 -0.000565 0.001761 -0.008293 -0.006335 0.001191 0.026498
#
#
# Mechanical properties :
#
#
# Convention : Reuss Voigt Hill
#
# Bulk Modulus (GPa) = 28.37995 49.89583 39.13789
# Shear Modulus (GPa) = 29.04478 38.05387 33.54933
#
# Velocity S-wave (km/s) = 3.38055 3.86948 3.63324
# Velocity P-wave (km/s) = 5.13848 6.29254 5.74456
#
# Compressibility (1/GPa) = 0.03523614
#
# Stress axis : x y z
#
# Youngs Moduli (GPa) = 84.94609 110.25664 34.43672
#
# Poissons Ratio (x) = 0.31203 0.04250
# Poissons Ratio (y) = 0.24040 0.11220
# Poissons Ratio (z) = 0.10482 0.35924
#
# Static dielectric constant tensor:
#      x y z
#    x 2.075050 -0.019440 -0.066370 
#    y -0.019440 1.960460 -0.022090 
#    z -0.066370 -0.022090 2.135230 
# 
# From -- ./inp_files/556802.got.cif
#   From: 2010.05.17/outbox.cif.g08.bks.cpg/sg2_279_cif.got.tgz:556802.got - 2010.06.03 11:33:40.
