data_PCOD9009286
_publ_section_title
;
Structure prediction by ZEFSAII (Michael W. Deem and Ramdas Pophale) SiO2 
 PCOD9009286
Probable space group: P -1
;
_chemical_formula_sum "Si O2"
_cell_formula_units_Z 16
_cell_length_a 19.586944
_cell_length_b 15.392470
_cell_length_c 8.899386
_cell_angle_alpha 142.639828
_cell_angle_beta 35.713502
_cell_angle_gamma 152.092088
_cell_volume 703.098983
_symmetry_space_group_name_H-M "P -1"
_symmetry_group_IT_number 2
_symmetry_cell_setting 'triclinic'
loop_
_space_group_symop_operation_xyz
x,y,z
-x,-y,-z
loop_
_atom_site_type_symbol
_atom_site_label
_atom_site_fract_x
_atom_site_fract_y
_atom_site_fract_z
Si Si1 0.023117 0.269666 0.268554
Si Si2 0.095678 0.033829 0.694434
Si Si3 0.471338 0.847122 0.724608
Si Si4 0.700679 0.329412 0.514129
Si Si5 0.847586 0.885894 0.722920
Si Si6 0.247538 0.889585 0.658484
Si Si7 0.499294 0.566259 0.929672
Si Si8 0.422569 0.316022 0.488573
O O1 0.909859 0.278034 0.385453
O O2 0.142160 0.455846 0.417145
O O3 0.911130 0.070740 0.291230
O O4 0.099436 0.210512 0.942859
O O5 0.259572 0.123326 0.444887
O O6 0.924140 0.864115 0.695473
O O7 0.327813 0.723075 0.686524
O O8 0.472592 0.717717 0.664606
O O9 0.618923 0.970537 0.513761
O O10 0.500000 0.000000 0.000000
O O11 0.699577 0.185986 0.420365
O O12 0.559400 0.319935 0.805372
O O13 0.675168 0.686301 0.715858
O O14 0.000000 0.000000 0.500000
O O15 0.803478 0.009360 0.023178
O O16 0.374324 0.369062 0.792734
O O17 0.500000 0.500000 0.000000
O O18 0.500000 0.500000 0.500000
#
# Coordination Sequence:
#
# PCOD9009286 Si02
#       8
#     2   2   2   2   2   2   2   2
#     4  10  21  41  71 104 140 189 243 296 368 441
#     4  10  21  39  67  99 141 183 233 303 369 420
#     4  12  28  47  70 108 153 197 249 310 378 450
#     4  12  24  43  77 107 145 199 248 304 376 453
#     4  11  24  42  69 106 146 189 248 307 371 443
#     4  11  24  47  73 105 151 201 244 301 382 451
#     4  12  23  43  75 108 140 184 255 308 370 440
#     4  12  25  43  69 105 142 187 246 311 368 432
#
# _framework density 22.756398999999998
#
# number of rings (size 3 to 8) (size 9 to 14) (size 15 to 20)
#    0.000    0.750    5.000    2.250    3.500    1.000 
#    0.000    1.875    0.000    0.000    0.000    0.000 
#    0.000    0.000    0.000    0.000    0.000    0.000 
#
# Total GULP energy -89083.244835 kJ/mol
# GULP energy per Si atom -5567.702802 kJ/mol
# Density = 2.270460 g / cm^3
# Si number density = 22.756399 Si / 1000 Ang^3
#
#
#
# Elastic Constant Matrix: (Units=GPa)
#
#
# Indices 1 2 3 4 5 6 
#
# 1 175.9499 50.8798 34.3123 9.5205 -26.2199 3.9954
# 2 50.8798 98.8891 26.5855 0.0739 -2.4188 13.5797
# 3 34.3123 26.5855 80.4794 9.4545 2.1658 -3.5893
# 4 9.5205 0.0739 9.4545 35.9764 0.5394 3.0336
# 5 -26.2199 -2.4188 2.1658 0.5394 33.3452 6.9595
# 6 3.9954 13.5797 -3.5893 3.0336 6.9595 56.2845
#
#
#
# Elastic Compliance Matrix: (Units=1/GPa)
#
#
# Indices 1 2 3 4 5 6 
#
# 1 0.008182 -0.003309 -0.002416 -0.001566 0.006513 -0.000657
# 2 -0.003309 0.013104 -0.003269 0.001985 -0.000816 -0.003141
# 3 -0.002416 -0.003269 0.015157 -0.003499 -0.003599 0.002560
# 4 -0.001566 0.001985 -0.003499 0.029313 -0.000904 -0.002059
# 5 0.006513 -0.000816 -0.003599 -0.000904 0.036330 -0.004938
# 6 -0.000657 -0.003141 0.002560 -0.002059 -0.004938 0.019456
#
#
# Mechanical properties :
#
#
# Convention : Reuss Voigt Hill
#
# Bulk Modulus (GPa) = 54.18679 64.31930 59.25304
# Shear Modulus (GPa) = 34.32117 41.35727 37.83922
#
# Velocity S-wave (km/s) = 3.88777 4.26771 4.08216
# Velocity P-wave (km/s) = 6.63448 7.25328 6.95077
#
# Compressibility (1/GPa) = 0.01845468
#
# Stress axis : x y z
#
# Youngs Moduli (GPa) = 122.22417 76.31331 65.97401
#
# Poissons Ratio (x) = 0.25255 0.15937
# Poissons Ratio (y) = 0.40449 0.21568
# Poissons Ratio (z) = 0.29525 0.24948
#
# Static dielectric constant tensor:
#      x y z
#    x 1.906500 0.031050 0.046560 
#    y 0.031050 1.886150 -0.002600 
#    z 0.046560 -0.002600 1.918900 
# 
# From -- ./inp_files/335796.got.cif
#   From: 2010.05.17/outbox.cif.g08.bks.cpg/sg2_168_cif.got.tgz:335796.got - 2010.06.03 11:33:40.
