data_PCOD9009365
_publ_section_title
;
Structure prediction by ZEFSAII (Michael W. Deem and Ramdas Pophale) SiO2 
 PCOD9009365
Probable space group: P -1
;
_chemical_formula_sum "Si O2"
_cell_formula_units_Z 16
_cell_length_a 12.026735
_cell_length_b 9.052339
_cell_length_c 8.950266
_cell_angle_alpha 120.173080
_cell_angle_beta 61.319739
_cell_angle_gamma 105.998496
_cell_volume 738.281183
_symmetry_space_group_name_H-M "P -1"
_symmetry_group_IT_number 2
_symmetry_cell_setting 'triclinic'
loop_
_space_group_symop_operation_xyz
x,y,z
-x,-y,-z
loop_
_atom_site_type_symbol
_atom_site_label
_atom_site_fract_x
_atom_site_fract_y
_atom_site_fract_z
Si Si1 0.030091 0.673936 0.976075
Si Si2 0.494390 0.625443 0.831425
Si Si3 0.784689 0.882566 0.269753
Si Si4 0.881725 0.500652 0.466597
Si Si5 0.750657 0.167449 0.886712
Si Si6 0.739916 0.228290 0.586313
Si Si7 0.547044 0.741758 0.191599
Si Si8 0.276639 0.214727 0.399727
O O1 0.087758 0.611619 0.753245
O O2 0.132158 0.791934 0.060571
O O3 0.000000 0.500000 0.000000
O O4 0.903004 0.776351 0.089959
O O5 0.454042 0.428911 0.791934
O O6 0.598521 0.669007 0.661115
O O7 0.370750 0.731885 0.931521
O O8 0.549537 0.691070 0.990004
O O9 0.668289 0.856559 0.218309
O O10 0.740756 0.816521 0.429065
O O11 0.813819 0.083385 0.379913
O O12 0.765091 0.408786 0.583896
O O13 0.842888 0.685790 0.532860
O O14 0.000000 0.500000 0.500000
O O15 0.782383 0.238728 0.735957
O O16 0.717137 0.967561 0.779415
O O17 0.589884 0.178760 0.656972
#
# Coordination Sequence:
#
# PCOD9009365 Si02
#       8
#     2   2   2   2   2   2   2   2
#     4  12  25  44  65  96 127 170 216 261 322 377
#     4  10  21  39  68  94 127 170 213 262 318 375
#     4  11  25  40  67  93 132 169 215 264 316 378
#     4  12  27  43  67  93 132 169 215 263 322 384
#     4  10  24  43  69  94 133 166 214 262 318 381
#     4  10  23  44  65  97 127 173 210 264 320 376
#     4  10  21  40  65  96 130 168 212 263 319 375
#     4  11  24  43  65  99 126 171 212 267 319 372
#
# _framework density 21.671959000000001
#
# number of rings (size 3 to 8) (size 9 to 14) (size 15 to 20)
#    0.000    1.250    2.500    2.250    3.500    4.000 
#    0.000    0.000    0.000    0.000    0.000    0.000 
#    0.000    0.000    0.000    0.000    0.000    0.000 
#
# Total GULP energy -89532.967829 kJ/mol
# GULP energy per Si atom -5595.810489 kJ/mol
# Density = 2.162263 g / cm^3
# Si number density = 21.671959 Si / 1000 Ang^3
#
#
#
# Elastic Constant Matrix: (Units=GPa)
#
#
# Indices 1 2 3 4 5 6 
#
# 1 79.8180 -11.8397 8.5419 1.1269 3.8794 2.9236
# 2 -11.8397 42.4009 1.3788 -7.9206 -0.6599 -13.3962
# 3 8.5419 1.3788 39.7215 8.4258 -13.0889 -5.1396
# 4 1.1269 -7.9206 8.4258 25.8245 -4.8165 -8.0622
# 5 3.8794 -0.6599 -13.0889 -4.8165 30.2725 9.2590
# 6 2.9236 -13.3962 -5.1396 -8.0622 9.2590 25.8899
#
#
#
# Elastic Compliance Matrix: (Units=1/GPa)
#
#
# Indices 1 2 3 4 5 6 
#
# 1 0.013878 0.005205 -0.004722 0.002534 -0.004045 0.002424
# 2 0.005205 0.037097 -0.005570 0.019826 -0.007134 0.026227
# 3 -0.004722 -0.005570 0.032840 -0.010907 0.014272 -0.004330
# 4 0.002534 0.019826 -0.010907 0.055828 -0.003852 0.026570
# 5 -0.004045 -0.007134 0.014272 -0.003852 0.044288 -0.017440
# 6 0.002424 0.026227 -0.004330 0.026570 -0.017440 0.065573
#
#
# Mechanical properties :
#
#
# Convention : Reuss Voigt Hill
#
# Bulk Modulus (GPa) = 13.57905 17.56693 15.57299
# Shear Modulus (GPa) = 17.59171 27.32134 22.45653
#
# Velocity S-wave (km/s) = 2.85217 3.55445 3.22250
# Velocity P-wave (km/s) = 4.13834 4.99689 4.58774
#
# Compressibility (1/GPa) = 0.07364283
#
# Stress axis : x y z
#
# Youngs Moduli (GPa) = 72.05700 26.95602 30.45061
#
# Poissons Ratio (x) = -0.14031 0.14378
# Poissons Ratio (y) = -0.37506 0.16960
# Poissons Ratio (z) = 0.34023 0.15014
#
# Static dielectric constant tensor:
#      x y z
#    x 1.752950 0.005680 -0.017450 
#    y 0.005680 1.774940 -0.002580 
#    z -0.017450 -0.002580 1.770610 
# 
# From -- ./inp_files/184807.got.cif
#   From: 2010.05.17/outbox.cif.g08.bks.cpg/sg2_93_cif.got.tgz:184807.got - 2010.06.03 11:33:40.
