data_PCOD9009008
_publ_section_title
;
Structure prediction by ZEFSAII (Michael W. Deem and Ramdas Pophale) SiO2 
 PCOD9009008
Probable space group: P -1
;
_chemical_formula_sum "Si O2"
_cell_formula_units_Z 16
_cell_length_a 11.664988
_cell_length_b 19.723541
_cell_length_c 9.603340
_cell_angle_alpha 137.907278
_cell_angle_beta 144.168612
_cell_angle_gamma 29.949667
_cell_volume 639.785298
_symmetry_space_group_name_H-M "P -1"
_symmetry_group_IT_number 2
_symmetry_cell_setting 'triclinic'
loop_
_space_group_symop_operation_xyz
x,y,z
-x,-y,-z
loop_
_atom_site_type_symbol
_atom_site_label
_atom_site_fract_x
_atom_site_fract_y
_atom_site_fract_z
Si Si1 0.817120 0.485035 0.874343
Si Si2 0.036201 0.145408 0.044061
Si Si3 0.752818 0.286489 0.397825
Si Si4 0.065337 0.859833 0.367944
Si Si5 0.249894 0.015161 0.321462
Si Si6 0.181190 0.362513 0.304734
Si Si7 0.228228 0.564391 0.751692
Si Si8 0.553136 0.071786 0.332446
O O1 0.785713 0.394094 0.617986
O O2 0.524050 0.633109 0.832006
O O3 0.000000 0.500000 0.000000
O O4 0.977303 0.404771 0.048111
O O5 0.892711 0.288543 0.200264
O O6 0.119023 0.032278 0.068234
O O7 0.316798 0.081012 0.157762
O O8 0.876837 0.191319 0.811591
O O9 0.738959 0.239863 0.467128
O O10 0.011329 0.156042 0.377675
O O11 0.000000 0.000000 0.500000
O O12 0.779676 0.928394 0.259472
O O13 0.500000 0.000000 0.500000
O O14 0.357136 0.913248 0.404492
O O15 0.256872 0.454944 0.517237
O O16 0.435346 0.201741 0.319375
O O17 0.007616 0.391909 0.313039
O O18 0.500000 0.500000 0.000000
#
# Coordination Sequence:
#
# PCOD9009008 Si02
#       8
#     2   2   2   2   2   2   2   2
#     4  11  26  43  74 101 139 188 237 297 344 421
#     4  10  21  39  66  97 125 178 224 274 354 408
#     4  10  24  48  68 105 146 181 239 293 356 414
#     4  11  24  42  68  97 133 182 231 284 342 420
#     4   9  20  41  71  99 134 182 222 286 357 414
#     4  10  23  42  64 104 129 174 234 273 348 421
#     4  10  23  39  67  94 135 178 215 285 345 414
#     4   9  20  42  66  93 136 170 223 287 336 419
#
# _framework density 25.008389000000001
#
# number of rings (size 3 to 8) (size 9 to 14) (size 15 to 20)
#    0.000    2.000    0.000    1.875    7.000    3.000 
#    0.000    2.500    0.000    0.000    0.000    0.000 
#    0.000    0.000    0.000    0.000    0.000    0.000 
#
# Total GULP energy -89297.877445 kJ/mol
# GULP energy per Si atom -5581.117340 kJ/mol
# Density = 2.495147 g / cm^3
# Si number density = 25.008389 Si / 1000 Ang^3
#
#
#
# Elastic Constant Matrix: (Units=GPa)
#
#
# Indices 1 2 3 4 5 6 
#
# 1 94.6761 39.6155 20.7014 -9.7990 -17.2302 9.5622
# 2 39.6155 110.0057 26.9481 -23.2402 -3.4654 -5.2350
# 3 20.7014 26.9481 108.0888 -26.5142 -9.5973 2.0287
# 4 -9.7990 -23.2402 -26.5142 43.9928 6.8100 -1.5771
# 5 -17.2302 -3.4654 -9.5973 6.8100 45.4918 -13.3814
# 6 9.5622 -5.2350 2.0287 -1.5771 -13.3814 45.9147
#
#
#
# Elastic Compliance Matrix: (Units=1/GPa)
#
#
# Indices 1 2 3 4 5 6 
#
# 1 0.013711 -0.004807 -0.001259 -0.000951 0.004057 -0.002198
# 2 -0.004807 0.012206 -0.001041 0.005017 -0.001196 0.002263
# 3 -0.001259 -0.001041 0.011263 0.005809 0.000990 0.000134
# 4 -0.000951 0.005017 0.005809 0.029146 -0.002921 0.000663
# 5 0.004057 -0.001196 0.000990 -0.002921 0.025969 0.006443
# 6 -0.002198 0.002263 0.000134 0.000663 0.006443 0.024390
#
#
# Mechanical properties :
#
#
# Convention : Reuss Voigt Hill
#
# Bulk Modulus (GPa) = 43.54240 54.14451 48.84345
# Shear Modulus (GPa) = 36.08702 42.11356 39.10029
#
# Velocity S-wave (km/s) = 3.80280 4.10808 3.95838
# Velocity P-wave (km/s) = 6.06058 6.64826 6.36121
#
# Compressibility (1/GPa) = 0.02296612
#
# Stress axis : x y z
#
# Youngs Moduli (GPa) = 72.93444 81.92527 88.78882
#
# Poissons Ratio (x) = 0.39380 0.11182
# Poissons Ratio (y) = 0.35059 0.09240
# Poissons Ratio (z) = 0.09185 0.08526
#
# Static dielectric constant tensor:
#      x y z
#    x 2.224050 -0.028200 -0.148740 
#    y -0.028200 1.880950 0.070050 
#    z -0.148740 0.070050 2.227080 
# 
# From -- ./inp_files/283285.got.cif
#   From: 2010.05.17/outbox.cif.g08.bks.cpg/sg2_142_cif.got.tgz:283285.got - 2010.06.03 11:33:40.
