data_PCOD9009513
_publ_section_title
;
Structure prediction by ZEFSAII (Michael W. Deem and Ramdas Pophale) SiO2 
 PCOD9009513
Probable space group: P -1
;
_chemical_formula_sum "Si O2"
_cell_formula_units_Z 15
_cell_length_a 7.703732
_cell_length_b 11.747747
_cell_length_c 8.764499
_cell_angle_alpha 103.679208
_cell_angle_beta 51.059260
_cell_angle_gamma 79.542507
_cell_volume 539.225182
_symmetry_space_group_name_H-M "P -1"
_symmetry_group_IT_number 2
_symmetry_cell_setting 'triclinic'
loop_
_space_group_symop_operation_xyz
x,y,z
-x,-y,-z
loop_
_atom_site_type_symbol
_atom_site_label
_atom_site_fract_x
_atom_site_fract_y
_atom_site_fract_z
Si Si1 0.970628 0.220356 0.094989
Si Si2 0.032793 0.526951 0.748013
Si Si3 0.500000 0.500000 0.000000
Si Si4 0.600885 0.846023 0.407677
Si Si5 0.569107 0.613095 0.247872
Si Si6 0.811148 0.734377 0.584747
Si Si7 0.657832 0.240236 0.997834
Si Si8 0.202583 0.040673 0.176313
O O1 0.162487 0.213339 0.853753
O O2 0.089910 0.090492 0.086916
O O3 0.932840 0.343790 0.258073
O O4 0.732543 0.248097 0.134624
O O5 0.237426 0.458503 0.747260
O O6 0.070199 0.415529 0.574640
O O7 0.750012 0.570554 0.980863
O O8 0.587500 0.456812 0.752839
O O9 0.323367 0.652977 0.086021
O O10 0.453917 0.765186 0.400277
O O11 0.671491 0.805363 0.528653
O O12 0.500000 0.000000 0.500000
O O13 0.622527 0.740206 0.826211
O O14 0.919486 0.833554 0.610294
O O15 0.819780 0.090302 0.811603
O O16 0.500000 0.000000 0.000000
#
# Coordination Sequence:
#
# PCOD9009513 Si02
#       8
#     2   2   1   2   2   2   2   2
#     4  11  22  43  70  92 133 178 208 265 334 393
#     4   9  19  40  64  91 127 168 219 252 327 384
#     4  12  24  40  66  96 132 178 214 268 324 390
#     4  10  21  39  69  94 126 170 220 261 326 389
#     4   9  20  38  62  92 127 174 207 265 318 392
#     4  10  23  41  65  99 131 165 221 276 310 385
#     4  11  25  43  66  95 135 173 216 264 336 381
#     4  10  23  42  66  96 130 171 217 265 324 386
#
# _framework density 27.817693999999999
#
# number of rings (size 3 to 8) (size 9 to 14) (size 15 to 20)
#    0.000    1.867    1.333    2.800    9.333    1.067 
#    0.000    2.000    0.000    0.000    0.000    0.000 
#    0.000    0.000    0.000    0.000    0.000    0.000 
#
# Total GULP energy -83781.525355 kJ/mol
# GULP energy per Si atom -5585.435024 kJ/mol
# Density = 2.775438 g / cm^3
# Si number density = 27.817694 Si / 1000 Ang^3
#
#
#
# Elastic Constant Matrix: (Units=GPa)
#
#
# Indices 1 2 3 4 5 6 
#
# 1 126.1856 53.4281 24.2665 11.1902 21.1685 -17.0741
# 2 53.4281 233.1902 51.8718 34.9930 20.7531 -12.5354
# 3 24.2665 51.8718 110.7007 28.7818 26.4135 8.6347
# 4 11.1902 34.9930 28.7818 58.2102 16.5101 17.6508
# 5 21.1685 20.7531 26.4135 16.5101 26.3378 5.0956
# 6 -17.0741 -12.5354 8.6347 17.6508 5.0956 45.8840
#
#
#
# Elastic Compliance Matrix: (Units=1/GPa)
#
#
# Indices 1 2 3 4 5 6 
#
# 1 0.010505 -0.001408 -0.000011 -0.000259 -0.008035 0.004519
# 2 -0.001408 0.005578 -0.001683 -0.002940 -0.000211 0.002471
# 3 -0.000011 -0.001683 0.012859 -0.002235 -0.009982 -0.000916
# 4 -0.000259 -0.002940 -0.002235 0.025605 -0.009490 -0.009275
# 5 -0.008035 -0.000211 -0.009982 -0.009490 0.061392 -0.004336
# 6 0.004519 0.002471 -0.000916 -0.009275 -0.004336 0.028372
#
#
# Mechanical properties :
#
#
# Convention : Reuss Voigt Hill
#
# Bulk Modulus (GPa) = 43.97905 81.02327 62.50116
# Shear Modulus (GPa) = 31.62652 48.78707 40.20680
#
# Velocity S-wave (km/s) = 3.37548 4.19240 3.80592
# Velocity P-wave (km/s) = 5.57099 7.25429 6.46764
#
# Compressibility (1/GPa) = 0.02273810
#
# Stress axis : x y z
#
# Youngs Moduli (GPa) = 95.19015 179.27347 77.76727
#
# Poissons Ratio (x) = 0.25235 0.00087
# Poissons Ratio (y) = 0.13399 0.13090
# Poissons Ratio (z) = 0.00107 0.30176
#
# Static dielectric constant tensor:
#      x y z
#    x 1.274270 -0.429090 -0.159900 
#    y -0.429090 1.899240 -0.021770 
#    z -0.159900 -0.021770 2.217420 
# 
# From -- ./inp_files/189175.got.cif
#   From: 2010.05.17/outbox.cif.g08.bks.cpg/sg2_95_cif.got.tgz:189175.got - 2010.06.03 11:33:40.
