data_PCOD9009212
_publ_section_title
;
Structure prediction by ZEFSAII (Michael W. Deem and Ramdas Pophale) SiO2 
 PCOD9009212
Probable space group: P -1
;
_chemical_formula_sum "Si O2"
_cell_formula_units_Z 16
_cell_length_a 21.712659
_cell_length_b 8.171725
_cell_length_c 8.268371
_cell_angle_alpha 145.136606
_cell_angle_beta 57.179917
_cell_angle_gamma 124.537537
_cell_volume 681.548335
_symmetry_space_group_name_H-M "P -1"
_symmetry_group_IT_number 2
_symmetry_cell_setting 'triclinic'
loop_
_space_group_symop_operation_xyz
x,y,z
-x,-y,-z
loop_
_atom_site_type_symbol
_atom_site_label
_atom_site_fract_x
_atom_site_fract_y
_atom_site_fract_z
Si Si1 0.941703 0.863425 0.829189
Si Si2 0.536233 0.635768 0.390360
Si Si3 0.522606 0.810173 0.122297
Si Si4 0.211337 0.373011 0.980613
Si Si5 0.691328 0.837391 0.794483
Si Si6 0.059509 0.510541 0.778810
Si Si7 0.696471 0.038448 0.575460
Si Si8 0.784967 0.426522 0.237009
O O1 0.867920 0.647580 0.837916
O O2 0.970049 0.697352 0.503605
O O3 0.918639 0.149161 0.027567
O O4 0.000000 0.000000 0.000000
O O5 0.500000 0.500000 0.500000
O O6 0.619702 0.850167 0.453105
O O7 0.489375 0.862669 0.566172
O O8 0.532157 0.322510 0.056587
O O9 0.500000 0.500000 0.000000
O O10 0.610386 0.839959 0.982472
O O11 0.278325 0.609455 0.167665
O O12 0.234679 0.066662 0.688507
O O13 0.207430 0.470946 0.878527
O O14 0.689754 0.937329 0.690869
O O15 0.717031 0.536081 0.505091
O O16 0.757372 0.073995 0.983434
O O17 0.135651 0.441301 0.682115
O O18 0.000000 0.500000 0.000000
#
# Coordination Sequence:
#
# PCOD9009212 Si02
#       8
#     2   2   2   2   2   2   2   2
#     4  12  26  46  71 104 142 179 222 288 349 407
#     4  12  24  42  71  95 132 181 245 289 342 418
#     4  12  26  44  62  99 138 181 231 295 363 408
#     4  10  22  42  65  96 135 172 223 280 350 401
#     4  10  21  40  67  90 132 177 227 277 345 414
#     4  12  26  46  72 105 140 179 234 274 337 430
#     4  10  21  39  67  96 125 176 231 285 335 410
#     4  10  22  42  67  95 128 181 223 275 337 416
#
# _framework density 23.475957000000001
#
# number of rings (size 3 to 8) (size 9 to 14) (size 15 to 20)
#    0.000    1.000    1.250    5.250    3.500    3.000 
#   13.500    0.000    0.000    0.000    0.000    0.000 
#    0.000    0.000    0.000    0.000    0.000    0.000 
#
# Total GULP energy -89327.192376 kJ/mol
# GULP energy per Si atom -5582.949523 kJ/mol
# Density = 2.342253 g / cm^3
# Si number density = 23.475957 Si / 1000 Ang^3
#
#
#
# Elastic Constant Matrix: (Units=GPa)
#
#
# Indices 1 2 3 4 5 6 
#
# 1 75.9871 20.6912 25.8604 -10.4142 2.4861 30.1957
# 2 20.6912 73.9912 30.2185 -3.4306 -4.3222 16.8084
# 3 25.8604 30.2185 148.7499 7.6977 5.5922 4.7534
# 4 -10.4142 -3.4306 7.6977 28.2850 2.9649 -8.9619
# 5 2.4861 -4.3222 5.5922 2.9649 36.7772 6.3781
# 6 30.1957 16.8084 4.7534 -8.9619 6.3781 32.6070
#
#
#
# Elastic Compliance Matrix: (Units=1/GPa)
#
#
# Indices 1 2 3 4 5 6 
#
# 1 0.022677 -0.000072 -0.003507 0.002668 0.002273 -0.020163
# 2 -0.000072 0.017220 -0.003326 -0.000401 0.004171 -0.009251
# 3 -0.003507 -0.003326 0.008102 -0.002637 -0.001763 0.003401
# 4 0.002668 -0.000401 -0.002637 0.040778 -0.004898 0.010286
# 5 0.002273 0.004171 -0.001763 -0.004898 0.030139 -0.011240
# 6 -0.020163 -0.009251 0.003401 0.010286 -0.011240 0.058639
#
#
# Mechanical properties :
#
#
# Convention : Reuss Voigt Hill
#
# Bulk Modulus (GPa) = 29.24958 50.25205 39.75082
# Shear Modulus (GPa) = 24.65933 34.33107 29.49520
#
# Velocity S-wave (km/s) = 3.24452 3.82827 3.54842
# Velocity P-wave (km/s) = 5.14998 6.40259 5.81014
#
# Compressibility (1/GPa) = 0.03418852
#
# Stress axis : x y z
#
# Youngs Moduli (GPa) = 44.09769 58.07064 123.42383
#
# Poissons Ratio (x) = 0.00420 0.43284
# Poissons Ratio (y) = 0.00319 0.41053
# Poissons Ratio (z) = 0.15465 0.19315
#
# Static dielectric constant tensor:
#      x y z
#    x 1.955900 -0.048700 0.042790 
#    y -0.048700 1.863290 -0.036880 
#    z 0.042790 -0.036880 1.836280 
# 
# From -- ./inp_files/351965.got.cif
#   From: 2010.05.17/outbox.cif.g08.bks.cpg/sg2_176_cif.got.tgz:351965.got - 2010.06.03 11:33:40.
