data_PCOD9009224
_publ_section_title
;
Structure prediction by ZEFSAII (Michael W. Deem and Ramdas Pophale) SiO2 
 PCOD9009224
Probable space group: P -1
;
_chemical_formula_sum "Si O2"
_cell_formula_units_Z 16
_cell_length_a 12.450097
_cell_length_b 18.828371
_cell_length_c 9.701825
_cell_angle_alpha 143.124833
_cell_angle_beta 141.398330
_cell_angle_gamma 31.495897
_cell_volume 676.188198
_symmetry_space_group_name_H-M "P -1"
_symmetry_group_IT_number 2
_symmetry_cell_setting 'triclinic'
loop_
_space_group_symop_operation_xyz
x,y,z
-x,-y,-z
loop_
_atom_site_type_symbol
_atom_site_label
_atom_site_fract_x
_atom_site_fract_y
_atom_site_fract_z
Si Si1 0.318079 0.547359 0.069652
Si Si2 0.699747 0.483653 0.525195
Si Si3 0.447940 0.967373 0.747565
Si Si4 0.145889 0.878467 0.340235
Si Si5 0.783725 0.579260 0.999321
Si Si6 0.861153 0.874029 0.836161
Si Si7 0.156457 0.185735 0.563975
Si Si8 0.841269 0.481381 0.392819
O O1 0.535318 0.474660 0.259778
O O2 0.210341 0.719811 0.207560
O O3 0.182782 0.518780 0.989901
O O4 0.342285 0.473360 0.832212
O O5 0.617896 0.589075 0.739493
O O6 0.768996 0.548522 0.576114
O O7 0.900156 0.319705 0.521402
O O8 0.360197 0.869344 0.519311
O O9 0.657420 0.911100 0.777209
O O10 0.249714 0.108956 0.684402
O O11 0.500000 0.000000 0.000000
O O12 0.000000 0.000000 0.500000
O O13 0.991214 0.923600 0.121432
O O14 0.732735 0.733239 0.233152
O O15 0.000000 0.500000 0.000000
O O16 0.800656 0.918266 0.683911
O O17 0.027714 0.694246 0.721031
O O18 0.000000 0.500000 0.500000
#
# Coordination Sequence:
#
# PCOD9009224 Si02
#       8
#     2   2   2   2   2   2   2   2
#     4  11  23  41  66 101 136 172 229 275 342 409
#     4  10  22  39  63  98 134 173 216 277 339 393
#     4  12  26  45  74  98 132 188 229 282 344 408
#     4  11  26  44  69 103 140 179 230 284 334 404
#     4  10  22  40  65  94 129 176 215 279 335 394
#     4  10  23  46  66 101 136 181 229 278 346 397
#     4  10  24  46  67 101 137 171 231 281 342 408
#     4  10  21  39  67  96 138 174 218 281 334 411
#
# _framework density 23.662051999999999
#
# number of rings (size 3 to 8) (size 9 to 14) (size 15 to 20)
#    0.000    1.500    1.250    3.375    7.000    0.500 
#    9.000    0.000    0.000    0.000    0.000    0.000 
#    0.000    0.000    0.000    0.000    0.000    0.000 
#
# Total GULP energy -89387.607396 kJ/mol
# GULP energy per Si atom -5586.725462 kJ/mol
# Density = 2.360820 g / cm^3
# Si number density = 23.662052 Si / 1000 Ang^3
#
#
#
# Elastic Constant Matrix: (Units=GPa)
#
#
# Indices 1 2 3 4 5 6 
#
# 1 87.4632 19.6405 33.1634 -12.2737 -4.1883 21.4886
# 2 19.6405 86.4872 43.4246 -20.9903 -10.7552 18.4038
# 3 33.1634 43.4246 163.5254 -34.6471 -22.4813 15.3288
# 4 -12.2737 -20.9903 -34.6471 43.4319 7.3183 0.0948
# 5 -4.1883 -10.7552 -22.4813 7.3183 50.1424 -4.1429
# 6 21.4886 18.4038 15.3288 0.0948 -4.1429 37.2477
#
#
#
# Elastic Compliance Matrix: (Units=1/GPa)
#
#
# Indices 1 2 3 4 5 6 
#
# 1 0.014316 -0.000233 -0.001636 0.002747 -0.000612 -0.007546
# 2 -0.000233 0.015577 -0.002150 0.005593 0.000998 -0.006580
# 3 -0.001636 -0.002150 0.008496 0.004875 0.002398 -0.001236
# 4 0.002747 0.005593 0.004875 0.030644 -0.001402 -0.006589
# 5 -0.000612 0.000998 0.002398 -0.001402 0.021490 0.001267
# 6 -0.007546 -0.006580 -0.001236 -0.006589 0.001267 0.035118
#
#
# Mechanical properties :
#
#
# Convention : Reuss Voigt Hill
#
# Bulk Modulus (GPa) = 32.94850 58.88142 45.91496
# Shear Modulus (GPa) = 34.77112 42.24756 38.50934
#
# Velocity S-wave (km/s) = 3.83755 4.23005 4.03857
# Velocity P-wave (km/s) = 5.79574 6.98542 6.41820
#
# Compressibility (1/GPa) = 0.03035040
#
# Stress axis : x y z
#
# Youngs Moduli (GPa) = 69.85065 64.19867 117.69590
#
# Poissons Ratio (x) = 0.01498 0.19257
# Poissons Ratio (y) = 0.01629 0.25305
# Poissons Ratio (z) = 0.11429 0.13803
#
# Static dielectric constant tensor:
#      x y z
#    x 2.001600 -0.010680 0.060950 
#    y -0.010680 1.938290 -0.015710 
#    z 0.060950 -0.015710 2.017000 
# 
# From -- ./inp_files/280200.got.cif
#   From: 2010.05.17/outbox.cif.g08.bks.cpg/sg2_141_cif.got.tgz:280200.got - 2010.06.03 11:33:40.
