data_PCOD9009956
_publ_section_title
;
Structure prediction by ZEFSAII (Michael W. Deem and Ramdas Pophale) SiO2 
 PCOD9009956
Probable space group: P -1
;
_chemical_formula_sum "Si O2"
_cell_formula_units_Z 16
_cell_length_a 24.536303
_cell_length_b 8.574094
_cell_length_c 5.138148
_cell_angle_alpha 109.256666
_cell_angle_beta 59.915263
_cell_angle_gamma 133.051118
_cell_volume 683.353549
_symmetry_space_group_name_H-M "P -1"
_symmetry_group_IT_number 2
_symmetry_cell_setting 'triclinic'
loop_
_space_group_symop_operation_xyz
x,y,z
-x,-y,-z
loop_
_atom_site_type_symbol
_atom_site_label
_atom_site_fract_x
_atom_site_fract_y
_atom_site_fract_z
Si Si1 0.939723 0.722322 0.205468
Si Si2 0.106540 0.150527 0.113632
Si Si3 0.707256 0.214688 0.091594
Si Si4 0.737888 0.809908 0.307433
Si Si5 0.619503 0.776262 0.207063
Si Si6 0.196890 0.723763 0.580522
Si Si7 0.504148 0.293676 0.180807
Si Si8 0.402782 0.650505 0.488582
O O1 0.906970 0.800985 0.539035
O O2 0.896410 0.480394 0.255841
O O3 0.912160 0.740108 0.997256
O O4 0.036774 0.896391 0.090115
O O5 0.194422 0.217261 0.902291
O O6 0.757538 0.248506 0.246404
O O7 0.652066 0.279272 0.318165
O O8 0.648565 0.961207 0.041241
O O9 0.766227 0.326591 0.766357
O O10 0.693508 0.785805 0.130341
O O11 0.662394 0.607590 0.537850
O O12 0.783059 0.053480 0.416409
O O13 0.544244 0.540494 0.172065
O O14 0.586240 0.823195 0.564781
O O15 0.551346 0.301667 0.323939
O O16 0.531155 0.233462 0.835322
#
# Coordination Sequence:
#
# PCOD9009956 Si02
#       8
#     2   2   2   2   2   2   2   2
#     4  10  21  40  61  87 119 151 186 231 284 333
#     4  10  22  39  63  88 116 151 189 232 279 338
#     4  11  23  38  59  86 116 151 192 239 284 334
#     4  10  22  38  60  86 115 151 193 234 281 342
#     4   9  22  40  58  83 117 151 190 237 291 338
#     4  11  22  37  59  85 119 153 186 234 285 335
#     4  10  22  39  59  81 113 153 191 238 289 340
#     4  11  22  37  59  84 111 150 197 238 283 338
#
# _framework density 23.41394
#
# number of rings (size 3 to 8) (size 9 to 14) (size 15 to 20)
#    0.000    1.750    0.000    3.750    0.000   13.000 
#    0.000    0.000    0.000    8.250    0.000    0.000 
#    0.000    0.000    0.000    0.000    0.000    0.000 
#
# Total GULP energy -89508.546984 kJ/mol
# GULP energy per Si atom -5594.284186 kJ/mol
# Density = 2.336065 g / cm^3
# Si number density = 23.413940 Si / 1000 Ang^3
#
#
#
# Elastic Constant Matrix: (Units=GPa)
#
#
# Indices 1 2 3 4 5 6 
#
# 1 53.4568 -2.9179 23.9678 -3.0477 -0.2487 11.8850
# 2 -2.9179 82.5206 -12.7629 -21.7868 2.2202 -1.2638
# 3 23.9678 -12.7629 90.5409 -12.6421 20.6063 8.8457
# 4 -3.0477 -21.7868 -12.6421 35.7991 3.1495 -4.9625
# 5 -0.2487 2.2202 20.6063 3.1495 34.0190 -0.2088
# 6 11.8850 -1.2638 8.8457 -4.9625 -0.2088 22.3273
#
#
#
# Elastic Compliance Matrix: (Units=1/GPa)
#
#
# Indices 1 2 3 4 5 6 
#
# 1 0.024009 -0.001367 -0.007023 -0.003174 0.004747 -0.010736
# 2 -0.001367 0.016436 0.005489 0.012624 -0.005562 0.002237
# 3 -0.007023 0.005489 0.017950 0.010025 -0.012217 -0.000949
# 4 -0.003174 0.012624 0.010025 0.040851 -0.010656 0.007413
# 5 0.004747 -0.005562 -0.012217 -0.010656 0.038180 -0.000013
# 6 -0.010736 0.002237 -0.000949 0.007413 -0.000013 0.052653
#
#
# Mechanical properties :
#
#
# Convention : Reuss Voigt Hill
#
# Bulk Modulus (GPa) = 19.01441 27.01027 23.01234
# Shear Modulus (GPa) = 23.42878 32.97782 28.20330
#
# Velocity S-wave (km/s) = 3.16671 3.75703 3.47443
# Velocity P-wave (km/s) = 4.63782 5.51193 5.09366
#
# Compressibility (1/GPa) = 0.05259168
#
# Stress axis : x y z
#
# Youngs Moduli (GPa) = 41.65113 60.84354 55.70912
#
# Poissons Ratio (x) = 0.08320 0.39124
# Poissons Ratio (y) = 0.05696 -0.30578
# Poissons Ratio (z) = 0.29252 -0.33396
#
# Static dielectric constant tensor:
#      x y z
#    x 1.826660 0.015510 0.016880 
#    y 0.015510 1.996130 0.015790 
#    z 0.016880 0.015790 1.862230 
# 
# From -- ./inp_files/51263.got.cif
#   From: 2010.05.17/outbox.cif.g08.bks.cpg/sg2_26_cif.got.tgz:51263.got - 2010.06.03 11:33:40.
