data_PCOD9009558
_publ_section_title
;
Structure prediction by ZEFSAII (Michael W. Deem and Ramdas Pophale) SiO2 
 PCOD9009558
Probable space group: P -1
;
_chemical_formula_sum "Si O2"
_cell_formula_units_Z 15
_cell_length_a 11.664314
_cell_length_b 7.825796
_cell_length_c 9.675057
_cell_angle_alpha 93.251802
_cell_angle_beta 79.572676
_cell_angle_gamma 43.360950
_cell_volume 572.700359
_symmetry_space_group_name_H-M "P -1"
_symmetry_group_IT_number 2
_symmetry_cell_setting 'triclinic'
loop_
_space_group_symop_operation_xyz
x,y,z
-x,-y,-z
loop_
_atom_site_type_symbol
_atom_site_label
_atom_site_fract_x
_atom_site_fract_y
_atom_site_fract_z
Si Si1 0.761445 0.644142 0.319464
Si Si2 0.307678 0.271027 0.214072
Si Si3 0.195539 0.776216 0.778696
Si Si4 0.654497 0.012036 0.581873
Si Si5 0.912883 0.171505 0.665544
Si Si6 0.723495 0.853025 0.061658
Si Si7 0.290996 0.763483 0.046019
Si Si8 0.500000 0.500000 0.500000
O O1 0.846094 0.363590 0.287596
O O2 0.551532 0.823891 0.374056
O O3 0.813396 0.688531 0.172891
O O4 0.775171 0.758789 0.447515
O O5 0.201396 0.534019 0.329011
O O6 0.291741 0.104028 0.282595
O O7 0.514265 0.090310 0.155959
O O8 0.251490 0.313886 0.070859
O O9 0.383790 0.629833 0.673914
O O10 0.211373 0.735582 0.937088
O O11 0.055705 0.052852 0.749061
O O12 0.643582 0.211574 0.531185
O O13 0.784331 0.192391 0.784649
O O14 0.000000 0.000000 0.500000
O O15 0.760023 0.996255 0.995066
O O16 0.500000 0.500000 0.000000
#
# Coordination Sequence:
#
# PCOD9009558 Si02
#       8
#     2   2   2   2   2   2   2   1
#     4   9  18  36  59  94 130 181 221 282 349 409
#     4  10  21  41  67 100 138 182 229 289 360 419
#     4  11  25  43  70 100 147 185 239 295 357 425
#     4   9  18  33  60  93 136 173 230 280 345 416
#     4  12  27  47  70 104 149 189 231 297 368 420
#     4  10  21  39  70 100 131 180 240 290 340 426
#     4  12  26  44  72 105 137 186 249 290 345 429
#     4  10  22  38  70 104 138 182 242 292 350 420
#
# _framework density 26.191707000000001
#
# number of rings (size 3 to 8) (size 9 to 14) (size 15 to 20)
#    0.000    1.600    1.333    2.800    7.467    2.133 
#    0.000    6.667    0.000    0.000    0.000    0.000 
#    0.000    0.000    0.000    0.000    0.000    0.000 
#
# Total GULP energy -83639.425075 kJ/mol
# GULP energy per Si atom -5575.961672 kJ/mol
# Density = 2.613209 g / cm^3
# Si number density = 26.191707 Si / 1000 Ang^3
#
#
#
# Elastic Constant Matrix: (Units=GPa)
#
#
# Indices 1 2 3 4 5 6 
#
# 1 36.1840 19.9486 26.0996 3.9995 -6.8988 -1.3217
# 2 19.9486 101.4301 64.0799 0.8085 -2.9907 18.7245
# 3 26.0996 64.0799 166.8579 -11.9832 -12.9130 0.7217
# 4 3.9995 0.8085 -11.9832 49.7150 4.8156 -5.6600
# 5 -6.8988 -2.9907 -12.9130 4.8156 30.9251 -5.9935
# 6 -1.3217 18.7245 0.7217 -5.6600 -5.9935 31.0483
#
#
#
# Elastic Compliance Matrix: (Units=1/GPa)
#
#
# Indices 1 2 3 4 5 6 
#
# 1 0.035066 -0.005922 -0.002888 -0.003489 0.007749 0.005991
# 2 -0.005922 0.016774 -0.005933 -0.002132 -0.004054 -0.011402
# 3 -0.002888 -0.005933 0.009134 0.002731 0.003008 0.004321
# 4 -0.003489 -0.002132 0.002731 0.021840 -0.002353 0.004601
# 5 0.007749 -0.004054 0.003008 -0.002353 0.037125 0.009442
# 6 0.005991 -0.011402 0.004321 0.004601 0.009442 0.041900
#
#
# Mechanical properties :
#
#
# Convention : Reuss Voigt Hill
#
# Bulk Modulus (GPa) = 31.75763 58.30312 45.03038
# Shear Modulus (GPa) = 24.77446 35.29395 30.03421
#
# Velocity S-wave (km/s) = 3.07887 3.67485 3.38998
# Velocity P-wave (km/s) = 4.97902 6.34937 5.70548
#
# Compressibility (1/GPa) = 0.03148849
#
# Stress axis : x y z
#
# Youngs Moduli (GPa) = 28.51762 59.61483 109.48579
#
# Poissons Ratio (x) = 0.35304 0.31614
# Poissons Ratio (y) = 0.16888 0.64960
# Poissons Ratio (z) = 0.08235 0.35371
#
# Static dielectric constant tensor:
#      x y z
#    x 2.239510 0.067980 -0.060250 
#    y 0.067980 2.076210 -0.008370 
#    z -0.060250 -0.008370 2.097020 
# 
# From -- ./inp_files/295182.got.cif
#   From: 2010.05.17/outbox.cif.g08.bks.cpg/sg2_148_cif.got.tgz:295182.got - 2010.06.03 11:33:40.
