data_PCOD9009905
_publ_section_title
;
Structure prediction by ZEFSAII (Michael W. Deem and Ramdas Pophale) SiO2 
 PCOD9009905
Probable space group: P -1
;
_chemical_formula_sum "Si O2"
_cell_formula_units_Z 16
_cell_length_a 12.634047
_cell_length_b 20.806223
_cell_length_c 9.011265
_cell_angle_alpha 131.922026
_cell_angle_beta 79.907755
_cell_angle_gamma 141.505326
_cell_volume 724.735236
_symmetry_space_group_name_H-M "P -1"
_symmetry_group_IT_number 2
_symmetry_cell_setting 'triclinic'
loop_
_space_group_symop_operation_xyz
x,y,z
-x,-y,-z
loop_
_atom_site_type_symbol
_atom_site_label
_atom_site_fract_x
_atom_site_fract_y
_atom_site_fract_z
Si Si1 0.960191 0.070849 0.648772
Si Si2 0.813409 0.083147 0.445982
Si Si3 0.725824 0.329039 0.185689
Si Si4 0.948948 0.740649 0.840120
Si Si5 0.376694 0.690933 0.274114
Si Si6 0.874003 0.581640 0.359322
Si Si7 0.066768 0.700400 0.018357
Si Si8 0.474680 0.879970 0.785114
O O1 0.979880 0.137731 0.590268
O O2 0.668150 0.872891 0.469765
O O3 0.117798 0.225538 0.988691
O O4 0.000000 0.000000 0.500000
O O5 0.949281 0.234293 0.512272
O O6 0.559148 0.855128 0.088375
O O7 0.751478 0.109331 0.627202
O O8 0.931777 0.549968 0.420230
O O9 0.797339 0.288798 0.039427
O O10 0.687691 0.287257 0.305890
O O11 0.987384 0.696752 0.889782
O O12 0.771356 0.579744 0.498522
O O13 0.237135 0.951053 0.022425
O O14 0.376439 0.785564 0.496912
O O15 0.194151 0.505288 0.143346
O O16 0.264374 0.584251 0.978217
O O17 0.500000 0.000000 0.000000
#
# Coordination Sequence:
#
# PCOD9009905 Si02
#       8
#     2   2   2   2   2   2   2   2
#     4  10  22  47  73  87 117 167 212 267 335 375
#     4  10  22  41  59  94 130 162 210 267 310 369
#     4  12  22  35  63  90 136 179 207 242 308 372
#     4  10  21  40  60  93 130 166 211 260 302 373
#     4  10  23  40  60  93 125 163 215 263 306 377
#     4  11  23  39  62  92 136 161 211 257 307 362
#     4  10  22  36  59  92 134 172 212 247 301 374
#     4  11  22  36  60  88 132 177 215 244 303 371
#
# _framework density 22.077029
#
# number of rings (size 3 to 8) (size 9 to 14) (size 15 to 20)
#    0.000    1.500    3.750    1.125    1.750    4.000 
#    0.000    6.875    0.000    0.000    0.000    0.000 
#    0.000    0.000    0.000    0.000    0.000    0.000 
#
# Total GULP energy -89092.933831 kJ/mol
# GULP energy per Si atom -5568.308364 kJ/mol
# Density = 2.202678 g / cm^3
# Si number density = 22.077029 Si / 1000 Ang^3
#
#
#
# Elastic Constant Matrix: (Units=GPa)
#
#
# Indices 1 2 3 4 5 6 
#
# 1 65.4607 40.2562 30.4296 -13.1689 -36.8747 -9.3965
# 2 40.2562 136.3045 39.4674 -20.2009 -9.0946 -31.9010
# 3 30.4296 39.4674 148.4167 -51.4295 -18.3056 -6.1322
# 4 -13.1689 -20.2009 -51.4295 49.6613 7.0536 -3.9437
# 5 -36.8747 -9.0946 -18.3056 7.0536 33.7769 -4.3297
# 6 -9.3965 -31.9010 -6.1322 -3.9437 -4.3297 25.2060
#
#
#
# Elastic Compliance Matrix: (Units=1/GPa)
#
#
# Indices 1 2 3 4 5 6 
#
# 1 0.065891 -0.006684 0.001369 0.008201 0.073044 0.030267
# 2 -0.006684 0.013332 -0.000197 0.005032 -0.002992 0.014607
# 3 0.001369 -0.000197 0.011647 0.011965 0.006025 0.006002
# 4 0.008201 0.005032 0.011965 0.036682 0.011707 0.020087
# 5 0.073044 -0.002992 0.006025 0.011707 0.115331 0.046551
# 6 0.030267 0.014607 0.006002 0.020087 0.046551 0.082043
#
#
# Mechanical properties :
#
#
# Convention : Reuss Voigt Hill
#
# Bulk Modulus (GPa) = 12.52386 63.38761 37.95574
# Shear Modulus (GPa) = 13.79065 37.73074 25.76070
#
# Velocity S-wave (km/s) = 2.50203 4.13855 3.41963
# Velocity P-wave (km/s) = 3.74593 7.18409 5.72901
#
# Compressibility (1/GPa) = 0.07984757
#
# Stress axis : x y z
#
# Youngs Moduli (GPa) = 15.17652 75.00518 85.86170
#
# Poissons Ratio (x) = 0.50133 -0.11757
# Poissons Ratio (y) = 0.10144 0.01690
# Poissons Ratio (z) = -0.02078 0.01476
#
# Static dielectric constant tensor:
#      x y z
#    x 1.804190 -0.006150 0.024370 
#    y -0.006150 1.836210 0.011080 
#    z 0.024370 0.011080 2.012460 
# 
# From -- ./inp_files/283361.got.cif
#   From: 2010.05.17/outbox.cif.g08.bks.cpg/sg2_142_cif.got.tgz:283361.got - 2010.06.03 11:33:40.
