data_PCOD9009003
_publ_section_title
;
Structure prediction by ZEFSAII (Michael W. Deem and Ramdas Pophale) SiO2 
 PCOD9009003
Probable space group: P -1
;
_chemical_formula_sum "Si O2"
_cell_formula_units_Z 15
_cell_length_a 8.453661
_cell_length_b 14.453364
_cell_length_c 8.380022
_cell_angle_alpha 138.476209
_cell_angle_beta 77.726391
_cell_angle_gamma 111.686142
_cell_volume 627.313481
_symmetry_space_group_name_H-M "P -1"
_symmetry_group_IT_number 2
_symmetry_cell_setting 'triclinic'
loop_
_space_group_symop_operation_xyz
x,y,z
-x,-y,-z
loop_
_atom_site_type_symbol
_atom_site_label
_atom_site_fract_x
_atom_site_fract_y
_atom_site_fract_z
Si Si1 0.571580 0.192643 0.584376
Si Si2 0.662539 0.642280 0.620168
Si Si3 0.263754 0.300973 0.693227
Si Si4 0.875484 0.474124 0.843613
Si Si5 0.035732 0.785762 0.805054
Si Si6 0.034771 0.953575 0.684035
Si Si7 0.415358 0.106807 0.837864
Si Si8 0.000000 0.500000 0.500000
O O1 0.423740 0.253946 0.642874
O O2 0.755204 0.306327 0.655934
O O3 0.549384 0.176061 0.759454
O O4 0.545328 0.038145 0.301500
O O5 0.500000 0.500000 0.500000
O O6 0.706742 0.650620 0.435364
O O7 0.844662 0.652643 0.680869
O O8 0.616752 0.782576 0.881832
O O9 0.086771 0.165200 0.559616
O O10 0.245954 0.427298 0.974383
O O11 0.982385 0.519041 0.720050
O O12 0.000000 0.500000 0.000000
O O13 0.140627 0.678188 0.683058
O O14 0.040704 0.867091 0.739016
O O15 0.043451 0.916103 0.092614
O O16 0.229713 0.034305 0.698585
#
# Coordination Sequence:
#
# PCOD9009003 Si02
#       8
#     2   2   2   2   2   2   2   1
#     4  11  25  44  65 105 140 176 231 291 352 413
#     4  10  21  39  66  96 134 184 224 279 355 414
#     4  11  24  41  69 103 136 177 229 297 341 416
#     4  12  27  49  71 102 146 183 233 296 354 423
#     4   9  20  39  64  99 131 176 234 285 336 420
#     4   9  19  43  69  92 139 185 229 282 353 416
#     4  10  22  42  69  92 141 193 221 284 352 422
#     4  12  26  42  74 106 130 186 238 286 356 418
#
# _framework density 23.911491000000002
#
# number of rings (size 3 to 8) (size 9 to 14) (size 15 to 20)
#    0.000    1.600    0.000    5.200    5.600    1.067 
#    7.200    0.000    0.000    0.000    0.000    0.000 
#    0.000    0.000    0.000    0.000    0.000    0.000 
#
# Total GULP energy -83686.788817 kJ/mol
# GULP energy per Si atom -5579.119254 kJ/mol
# Density = 2.385707 g / cm^3
# Si number density = 23.911491 Si / 1000 Ang^3
#
#
#
# Elastic Constant Matrix: (Units=GPa)
#
#
# Indices 1 2 3 4 5 6 
#
# 1 50.0680 10.8685 9.1874 -1.8757 -0.4656 7.7743
# 2 10.8685 116.4260 38.9710 -11.6262 21.4061 20.5003
# 3 9.1874 38.9710 107.4052 -4.5060 -18.5476 14.2832
# 4 -1.8757 -11.6262 -4.5060 37.2459 9.8313 2.2746
# 5 -0.4656 21.4061 -18.5476 9.8313 26.4860 1.7357
# 6 7.7743 20.5003 14.2832 2.2746 1.7357 31.2013
#
#
#
# Elastic Compliance Matrix: (Units=1/GPa)
#
#
# Indices 1 2 3 4 5 6 
#
# 1 0.021031 -0.001030 -0.000691 0.000725 0.000734 -0.004341
# 2 -0.001030 0.019672 -0.010251 0.012491 -0.027249 -0.007370
# 3 -0.000691 -0.010251 0.016959 -0.007129 0.022901 -0.001610
# 4 0.000725 0.012491 -0.007129 0.037888 -0.028727 -0.006288
# 5 0.000734 -0.027249 0.022901 -0.028727 0.086194 0.004537
# 6 -0.004341 -0.007370 -0.001610 -0.006288 0.004537 0.038917
#
#
# Mechanical properties :
#
#
# Convention : Reuss Voigt Hill
#
# Bulk Modulus (GPa) = 29.65788 43.55032 36.60410
# Shear Modulus (GPa) = 19.54306 33.31145 26.42726
#
# Velocity S-wave (km/s) = 2.86196 3.73649 3.32808
# Velocity P-wave (km/s) = 4.83231 6.07189 5.48722
#
# Compressibility (1/GPa) = 0.03371786
#
# Stress axis : x y z
#
# Youngs Moduli (GPa) = 47.54822 50.83410 58.96650
#
# Poissons Ratio (x) = 0.05237 0.04073
# Poissons Ratio (y) = 0.04899 0.60447
# Poissons Ratio (z) = 0.03285 0.52110
#
# Static dielectric constant tensor:
#      x y z
#    x 1.669660 0.144740 0.099630 
#    y 0.144740 1.864650 -0.087460 
#    z 0.099630 -0.087460 1.913270 
# 
# From -- ./inp_files/209302.got.cif
#   From: 2010.05.17/outbox.cif.g08.bks.cpg/sg2_105_cif.got.tgz:209302.got - 2010.06.03 11:33:40.
