data_PCOD9009333
_publ_section_title
;
Structure prediction by ZEFSAII (Michael W. Deem and Ramdas Pophale) SiO2 
 PCOD9009333
Probable space group: P -1
;
_chemical_formula_sum "Si O2"
_cell_formula_units_Z 12
_cell_length_a 12.440963
_cell_length_b 8.401675
_cell_length_c 10.306490
_cell_angle_alpha 55.428863
_cell_angle_beta 50.320793
_cell_angle_gamma 36.770995
_cell_volume 492.644594
_symmetry_space_group_name_H-M "P -1"
_symmetry_group_IT_number 2
_symmetry_cell_setting 'triclinic'
loop_
_space_group_symop_operation_xyz
x,y,z
-x,-y,-z
loop_
_atom_site_type_symbol
_atom_site_label
_atom_site_fract_x
_atom_site_fract_y
_atom_site_fract_z
Si Si1 0.614613 0.712187 0.476573
Si Si2 0.302888 0.142499 0.902298
Si Si3 0.457444 0.502541 0.809934
Si Si4 0.005370 0.710032 0.455329
Si Si5 0.797632 0.183754 0.913250
Si Si6 0.328328 0.062176 0.206174
O O1 0.697343 0.692973 0.281678
O O2 0.472726 0.665821 0.623041
O O3 0.804792 0.472594 0.518731
O O4 0.500000 0.000000 0.500000
O O5 0.540470 0.898231 0.846254
O O6 0.237626 0.221192 0.066486
O O7 0.194888 0.056047 0.973635
O O8 0.621708 0.375453 0.854747
O O9 0.519965 0.249807 0.805893
O O10 0.262373 0.685391 0.959114
O O11 0.031289 0.854384 0.263324
O O12 0.000000 0.500000 0.500000
O O13 0.821028 0.894439 0.604327
#
# Coordination Sequence:
#
# PCOD9009333 Si02
#       6
#     2   2   2   2   2   2
#     4  11  21  38  65  93 123 164 204 247 309 366
#     4  10  21  39  68  89 123 164 207 246 306 374
#     4   9  19  35  65  89 117 162 206 244 295 373
#     4  11  25  40  64  92 126 159 208 259 302 359
#     4   9  19  37  63  88 117 166 205 238 304 375
#     4  10  23  40  63  94 121 161 208 254 302 357
#
# _framework density 24.358329000000001
#
# number of rings (size 3 to 8) (size 9 to 14) (size 15 to 20)
#    0.000    2.000    1.667    1.000   11.667    7.333 
#    0.000    0.833    0.000    0.000    0.000    0.000 
#    0.000    0.000    0.000    0.000    0.000    0.000 
#
# Total GULP energy -66986.125706 kJ/mol
# GULP energy per Si atom -5582.177142 kJ/mol
# Density = 2.430289 g / cm^3
# Si number density = 24.358329 Si / 1000 Ang^3
#
#
#
# Elastic Constant Matrix: (Units=GPa)
#
#
# Indices 1 2 3 4 5 6 
#
# 1 53.8001 17.2375 46.3290 5.0736 -0.4516 12.7904
# 2 17.2375 42.3281 41.2411 3.7904 -7.6957 15.4929
# 3 46.3290 41.2411 256.3859 4.2267 -18.4975 12.2635
# 4 5.0736 3.7904 4.2267 42.3471 -7.9467 -2.6697
# 5 -0.4516 -7.6957 -18.4975 -7.9467 36.9088 -3.3595
# 6 12.7904 15.4929 12.2635 -2.6697 -3.3595 25.3129
#
#
#
# Elastic Compliance Matrix: (Units=1/GPa)
#
#
# Indices 1 2 3 4 5 6 
#
# 1 0.025689 -0.003492 -0.003836 -0.003768 -0.004050 -0.009920
# 2 -0.003492 0.036711 -0.004102 -0.003029 0.003210 -0.018610
# 3 -0.003836 -0.004102 0.005285 0.000842 0.002134 0.002261
# 4 -0.003768 -0.003029 0.000842 0.025797 0.005923 0.006856
# 5 -0.004050 0.003210 0.002134 0.005923 0.030395 0.003707
# 6 -0.009920 -0.018610 0.002261 0.006856 0.003707 0.056028
#
#
# Mechanical properties :
#
#
# Convention : Reuss Voigt Hill
#
# Bulk Modulus (GPa) = 22.30958 62.45881 42.38420
# Shear Modulus (GPa) = 22.96656 37.42753 30.19705
#
# Velocity S-wave (km/s) = 3.07394 3.92412 3.52476
# Velocity P-wave (km/s) = 4.66665 6.79919 5.83123
#
# Compressibility (1/GPa) = 0.04482379
#
# Stress axis : x y z
#
# Youngs Moduli (GPa) = 38.92711 27.24004 189.20288
#
# Poissons Ratio (x) = 0.09513 0.72576
# Poissons Ratio (y) = 0.13595 0.77618
# Poissons Ratio (z) = 0.14932 0.11175
#
# Static dielectric constant tensor:
#      x y z
#    x 1.989030 0.003140 0.014930 
#    y 0.003140 2.002230 -0.039290 
#    z 0.014930 -0.039290 1.984170 
# 
# From -- ./inp_files/237145.got.cif
#   From: 2010.05.17/outbox.cif.g08.bks.cpg/sg2_119_cif.got.tgz:237145.got - 2010.06.03 11:33:40.
