data_PCOD9009710
_publ_section_title
;
Structure prediction by ZEFSAII (Michael W. Deem and Ramdas Pophale) SiO2 
 PCOD9009710
Probable space group: P -1
;
_chemical_formula_sum "Si O2"
_cell_formula_units_Z 16
_cell_length_a 11.318911
_cell_length_b 8.155407
_cell_length_c 18.590313
_cell_angle_alpha 65.854551
_cell_angle_beta 139.475225
_cell_angle_gamma 140.660768
_cell_volume 636.758227
_symmetry_space_group_name_H-M "P -1"
_symmetry_group_IT_number 2
_symmetry_cell_setting 'triclinic'
loop_
_space_group_symop_operation_xyz
x,y,z
-x,-y,-z
loop_
_atom_site_type_symbol
_atom_site_label
_atom_site_fract_x
_atom_site_fract_y
_atom_site_fract_z
Si Si1 0.471527 0.366575 0.084146
Si Si2 0.660689 0.132720 0.865482
Si Si3 0.747381 0.318601 0.726546
Si Si4 0.241617 0.780630 0.513191
Si Si5 0.977158 0.074875 0.695568
Si Si6 0.454064 0.449500 0.626067
Si Si7 0.019383 0.366953 0.366424
Si Si8 0.527942 0.386493 0.832882
O O1 0.324895 0.058533 0.062899
O O2 0.336258 0.375976 0.086783
O O3 0.500000 0.500000 0.000000
O O4 0.809977 0.619770 0.220552
O O5 0.685468 0.323529 0.895407
O O6 0.319820 0.884740 0.727084
O O7 0.851302 0.312205 0.850162
O O8 0.554887 0.338617 0.660048
O O9 0.950811 0.556362 0.716749
O O10 0.548393 0.015491 0.651129
O O11 0.219673 0.662192 0.449316
O O12 0.000000 0.500000 0.500000
O O13 0.158866 0.921474 0.433671
O O14 0.721431 0.789123 0.672113
O O15 0.211503 0.108327 0.771952
O O16 0.168917 0.300696 0.478691
O O17 0.451806 0.427915 0.715226
#
# Coordination Sequence:
#
# PCOD9009710 Si02
#       8
#     2   2   2   2   2   2   2   2
#     4  10  23  45  68  86 112 152 202 260 312 354
#     4  11  23  40  61  90 122 158 199 247 292 358
#     4  11  24  35  55  88 128 161 202 233 284 355
#     4  12  21  35  52  83 121 162 199 242 279 346
#     4  10  21  40  56  84 124 151 200 248 289 350
#     4  11  23  35  58  88 124 165 195 231 291 357
#     4  12  22  33  58  88 123 165 198 226 287 346
#     4   9  23  39  63  86 125 157 195 245 302 347
#
# _framework density 25.127279000000001
#
# number of rings (size 3 to 8) (size 9 to 14) (size 15 to 20)
#    0.750    0.500    3.750    2.250    3.500    1.500 
#    0.000    0.625    0.000    1.500    0.000    0.000 
#    0.000    0.000    0.000    0.000    0.000    0.000 
#
# Total GULP energy -89413.549980 kJ/mol
# GULP energy per Si atom -5588.346874 kJ/mol
# Density = 2.507009 g / cm^3
# Si number density = 25.127279 Si / 1000 Ang^3
#
#
#
# Elastic Constant Matrix: (Units=GPa)
#
#
# Indices 1 2 3 4 5 6 
#
# 1 102.7607 27.8776 38.1259 -24.9887 -20.4311 -7.9607
# 2 27.8776 96.1050 32.1540 -26.8748 -18.7470 -16.0902
# 3 38.1259 32.1540 100.7275 -19.4649 -17.8083 -0.0337
# 4 -24.9887 -26.8748 -19.4649 39.3801 3.6346 5.5531
# 5 -20.4311 -18.7470 -17.8083 3.6346 37.9554 -3.0360
# 6 -7.9607 -16.0902 -0.0337 5.5531 -3.0360 38.5862
#
#
#
# Elastic Compliance Matrix: (Units=1/GPa)
#
#
# Indices 1 2 3 4 5 6 
#
# 1 0.013671 0.000422 -0.003024 0.006588 0.005717 0.002495
# 2 0.000422 0.015687 -0.002398 0.008348 0.006525 0.005938
# 3 -0.003024 -0.002398 0.012877 0.002802 0.002817 -0.001794
# 4 0.006588 0.008348 0.002802 0.036135 0.005530 0.000078
# 5 0.005717 0.006525 0.002817 0.005530 0.033901 0.005774
# 6 0.002495 0.005938 -0.001794 0.000078 0.005774 0.029349
#
#
# Mechanical properties :
#
#
# Convention : Reuss Voigt Hill
#
# Bulk Modulus (GPa) = 31.02430 55.10092 43.06261
# Shear Modulus (GPa) = 30.79454 36.61340 33.70397
#
# Velocity S-wave (km/s) = 3.50457 3.82136 3.66639
# Velocity P-wave (km/s) = 5.36187 6.43791 5.92438
#
# Compressibility (1/GPa) = 0.03223280
#
# Stress axis : x y z
#
# Youngs Moduli (GPa) = 73.14670 63.74746 77.65727
#
# Poissons Ratio (x) = -0.02687 0.23487
# Poissons Ratio (y) = -0.03084 0.18624
# Poissons Ratio (z) = 0.22123 0.15288
#
# Static dielectric constant tensor:
#      x y z
#    x 2.045570 -0.022700 -0.010350 
#    y -0.022700 1.965950 -0.004580 
#    z -0.010350 -0.004580 2.049440 
# 
# From -- ./inp_files/565254.got.cif
#   From: 2010.05.17/outbox.cif.g08.bks.cpg/sg2_283_cif.got.tgz:565254.got - 2010.06.03 11:33:40.
