data_PCOD9009830
_publ_section_title
;
Structure prediction by ZEFSAII (Michael W. Deem and Ramdas Pophale) SiO2 
 PCOD9009830
Probable space group: P -1
;
_chemical_formula_sum "Si O2"
_cell_formula_units_Z 16
_cell_length_a 16.487473
_cell_length_b 13.403779
_cell_length_c 14.932891
_cell_angle_alpha 56.695036
_cell_angle_beta 154.601568
_cell_angle_gamma 140.340352
_cell_volume 763.436357
_symmetry_space_group_name_H-M "P -1"
_symmetry_group_IT_number 2
_symmetry_cell_setting 'triclinic'
loop_
_space_group_symop_operation_xyz
x,y,z
-x,-y,-z
loop_
_atom_site_type_symbol
_atom_site_label
_atom_site_fract_x
_atom_site_fract_y
_atom_site_fract_z
Si Si1 0.568418 0.131139 0.875813
Si Si2 0.586128 0.189976 0.393913
Si Si3 0.337924 0.166857 0.780084
Si Si4 0.336759 0.072057 0.014529
Si Si5 0.260423 0.146641 0.408693
Si Si6 0.182739 0.948964 0.265843
Si Si7 0.879739 0.581297 0.081206
Si Si8 0.874330 0.468740 0.793688
O O1 0.454905 0.107549 0.872635
O O2 0.402523 0.141940 0.635879
O O3 0.534305 0.986832 0.868585
O O4 0.915571 0.326370 0.132613
O O5 0.599007 0.050682 0.480164
O O6 0.917313 0.382946 0.656826
O O7 0.351932 0.104880 0.280851
O O8 0.499676 0.186714 0.211115
O O9 0.357758 0.173392 0.903636
O O10 0.549641 0.375381 0.854605
O O11 0.000000 0.000000 0.500000
O O12 0.994796 0.892779 0.789156
O O13 0.534923 0.333665 0.536129
O O14 0.112220 0.989539 0.263590
O O15 0.930807 0.746233 0.068579
O O16 0.048115 0.611289 0.147734
O O17 0.000000 0.500000 0.000000
#
# Coordination Sequence:
#
# PCOD9009830 Si02
#       8
#     2   2   2   2   2   2   2   2
#     4  10  21  40  60  84 121 163 199 250 304 343
#     4   9  18  35  63  88 119 158 192 243 313 346
#     4  11  23  42  62  85 122 165 206 248 294 355
#     4  12  24  36  63  90 119 162 207 244 293 361
#     4  11  19  37  61  91 121 155 200 246 303 362
#     4   9  17  36  63  86 121 154 190 248 305 354
#     4   9  18  37  64  86 119 164 197 244 308 353
#     4   9  18  31  60  89 119 159 196 239 303 362
#
# _framework density 20.957868999999999
#
# number of rings (size 3 to 8) (size 9 to 14) (size 15 to 20)
#    0.750    1.250    3.750    0.375    1.750    1.500 
#    0.000    1.875    5.500    0.000    0.000    0.000 
#    0.000    0.000    0.000    0.000    0.000    0.000 
#
# Total GULP energy -89085.807241 kJ/mol
# GULP energy per Si atom -5567.862953 kJ/mol
# Density = 2.091017 g / cm^3
# Si number density = 20.957869 Si / 1000 Ang^3
#
#
#
# Elastic Constant Matrix: (Units=GPa)
#
#
# Indices 1 2 3 4 5 6 
#
# 1 123.9681 4.9916 30.7110 4.2960 -9.5954 1.7802
# 2 4.9916 16.9604 15.3868 16.6663 -0.4417 -4.2822
# 3 30.7110 15.3868 77.3241 19.6807 -1.1949 6.1266
# 4 4.2960 16.6663 19.6807 27.9274 5.7907 -2.6692
# 5 -9.5954 -0.4417 -1.1949 5.7907 38.8924 5.7011
# 6 1.7802 -4.2822 6.1266 -2.6692 5.7011 22.7638
#
#
#
# Elastic Compliance Matrix: (Units=1/GPa)
#
#
# Indices 1 2 3 4 5 6 
#
# 1 0.009138 -0.000113 -0.003798 0.000909 0.002018 -0.000112
# 2 -0.000113 0.162498 -0.010801 -0.089916 0.011949 0.019948
# 3 -0.003798 -0.010801 0.019240 -0.007714 0.001895 -0.008292
# 4 0.000909 -0.089916 -0.007714 0.098071 -0.015713 0.000525
# 5 0.002018 0.011949 0.001895 -0.015713 0.029879 -0.007745
# 6 -0.000112 0.019948 -0.008292 0.000525 -0.007745 0.051924
#
#
# Mechanical properties :
#
#
# Convention : Reuss Voigt Hill
#
# Bulk Modulus (GPa) = 6.19380 35.60348 20.89864
# Shear Modulus (GPa) = 11.01342 29.06092 20.03717
#
# Velocity S-wave (km/s) = 2.29487 3.72779 3.09539
# Velocity P-wave (km/s) = 3.15970 5.96268 4.77165
#
# Compressibility (1/GPa) = 0.16145180
#
# Stress axis : x y z
#
# Youngs Moduli (GPa) = 109.42826 6.15393 51.97423
#
# Poissons Ratio (x) = 0.00069 0.19742
# Poissons Ratio (y) = 0.01234 0.56138
# Poissons Ratio (z) = 0.41566 0.06647
#
# Static dielectric constant tensor:
#      x y z
#    x 1.782860 0.038150 0.030790 
#    y 0.038150 1.827210 0.033540 
#    z 0.030790 0.033540 1.846870 
# 
# From -- ./inp_files/444220.got.cif
#   From: 2010.05.17/outbox.cif.g08.bks.cpg/sg2_223_cif.got.tgz:444220.got - 2010.06.03 11:33:40.
