data_PCOD9009026
_publ_section_title
;
Structure prediction by ZEFSAII (Michael W. Deem and Ramdas Pophale) SiO2 
 PCOD9009026
Probable space group: P -1
;
_chemical_formula_sum "Si O2"
_cell_formula_units_Z 13
_cell_length_a 7.692625
_cell_length_b 12.290707
_cell_length_c 16.031854
_cell_angle_alpha 24.455605
_cell_angle_beta 66.909322
_cell_angle_gamma 57.033530
_cell_volume 502.728702
_symmetry_space_group_name_H-M "P -1"
_symmetry_group_IT_number 2
_symmetry_cell_setting 'triclinic'
loop_
_space_group_symop_operation_xyz
x,y,z
-x,-y,-z
loop_
_atom_site_type_symbol
_atom_site_label
_atom_site_fract_x
_atom_site_fract_y
_atom_site_fract_z
Si Si1 0.989048 0.121520 0.548283
Si Si2 0.010165 0.731388 0.273027
Si Si3 0.476273 0.766509 0.728025
Si Si4 0.190472 0.972796 0.204973
Si Si5 0.500000 0.000000 0.000000
Si Si6 0.365319 0.695228 0.122757
Si Si7 0.090347 0.355934 0.204836
O O1 0.223835 0.924558 0.686991
O O2 0.817676 0.239234 0.573471
O O3 0.931915 0.905306 0.654748
O O4 0.025165 0.336010 0.327785
O O5 0.213632 0.582945 0.275399
O O6 0.000000 0.500000 0.500000
O O7 0.046818 0.962811 0.162060
O O8 0.796681 0.945350 0.111268
O O9 0.537199 0.478406 0.859156
O O10 0.665385 0.693625 0.809716
O O11 0.500000 0.000000 0.500000
O O12 0.406713 0.909051 0.163486
O O13 0.076185 0.310962 0.026467
O O14 0.465943 0.308807 0.840446
#
# Coordination Sequence:
#
# PCOD9009026 Si02
#       7
#     2   2   2   2   1   2   2
#     4  10  23  39  64  98 133 172 217 266 328 411
#     4  10  23  39  65  91 121 176 223 271 323 392
#     4  10  21  39  66  97 133 172 215 269 334 402
#     4  11  22  42  64  91 129 170 219 273 329 394
#     4  10  24  42  68  94 126 178 222 286 338 384
#     4  10  21  44  63  91 133 169 217 280 334 386
#     4  10  21  41  63  94 136 174 209 269 336 388
#
# _framework density 25.858878000000001
#
# number of rings (size 3 to 8) (size 9 to 14) (size 15 to 20)
#    0.000    1.846    1.538    1.385    4.308    0.615 
#    2.769    8.462    0.000    0.000    0.000    0.000 
#    0.000    0.000    0.000    0.000    0.000    0.000 
#
# Total GULP energy -72467.098910 kJ/mol
# GULP energy per Si atom -5574.392224 kJ/mol
# Density = 2.580002 g / cm^3
# Si number density = 25.858878 Si / 1000 Ang^3
#
#
#
# Elastic Constant Matrix: (Units=GPa)
#
#
# Indices 1 2 3 4 5 6 
#
# 1 101.9603 29.6214 4.8222 -0.4105 -13.4063 -8.5006
# 2 29.6214 82.8607 27.4089 23.8907 -17.7231 -14.2059
# 3 4.8222 27.4089 103.9397 29.0402 -5.4649 -23.2521
# 4 -0.4105 23.8907 29.0402 57.5585 -1.3173 -24.5005
# 5 -13.4063 -17.7231 -5.4649 -1.3173 27.6909 -2.7762
# 6 -8.5006 -14.2059 -23.2521 -24.5005 -2.7762 41.2278
#
#
#
# Elastic Compliance Matrix: (Units=1/GPa)
#
#
# Indices 1 2 3 4 5 6 
#
# 1 0.011686 -0.003814 0.000621 0.002899 0.003820 0.003425
# 2 -0.003814 0.017955 -0.002203 -0.005528 0.009096 0.001485
# 3 0.000621 -0.002203 0.012159 -0.003326 0.001569 0.004356
# 4 0.002899 -0.005528 -0.003326 0.026772 -0.000243 0.012710
# 5 0.003820 0.009096 0.001569 -0.000243 0.044853 0.007683
# 6 0.003425 0.001485 0.004356 0.012710 0.007683 0.036001
#
#
# Mechanical properties :
#
#
# Convention : Reuss Voigt Hill
#
# Bulk Modulus (GPa) = 32.25019 45.82951 39.03985
# Shear Modulus (GPa) = 29.31635 40.42265 34.86950
#
# Velocity S-wave (km/s) = 3.37071 3.95802 3.67611
# Velocity P-wave (km/s) = 5.25810 6.21686 5.75747
#
# Compressibility (1/GPa) = 0.03100757
#
# Stress axis : x y z
#
# Youngs Moduli (GPa) = 85.57190 55.69568 82.24230
#
# Poissons Ratio (x) = 0.21245 -0.05107
# Poissons Ratio (y) = 0.32641 0.18115
# Poissons Ratio (z) = -0.05313 0.12268
#
# Static dielectric constant tensor:
#      x y z
#    x 2.153010 0.035330 0.037710 
#    y 0.035330 2.041540 -0.009050 
#    z 0.037710 -0.009050 1.984650 
# 
# From -- ./inp_files/416213.got.cif
#   From: 2010.05.17/outbox.cif.g08.bks.cpg/sg2_209_cif.got.tgz:416213.got - 2010.06.03 11:33:40.
