data_PCOD9009083
_publ_section_title
;
Structure prediction by ZEFSAII (Michael W. Deem and Ramdas Pophale) SiO2 
 PCOD9009083
Probable space group: P -1
;
_chemical_formula_sum "Si O2"
_cell_formula_units_Z 12
_cell_length_a 9.491984
_cell_length_b 9.938798
_cell_length_c 13.595053
_cell_angle_alpha 136.461679
_cell_angle_beta 41.390483
_cell_angle_gamma 110.139466
_cell_volume 525.092158
_symmetry_space_group_name_H-M "P -1"
_symmetry_group_IT_number 2
_symmetry_cell_setting 'triclinic'
loop_
_space_group_symop_operation_xyz
x,y,z
-x,-y,-z
loop_
_atom_site_type_symbol
_atom_site_label
_atom_site_fract_x
_atom_site_fract_y
_atom_site_fract_z
Si Si1 0.673169 0.890054 0.662497
Si Si2 0.637857 0.153463 0.635004
Si Si3 0.313455 0.477159 0.659552
Si Si4 0.136637 0.956667 0.007029
Si Si5 0.241710 0.283602 0.770067
Si Si6 0.983292 0.285966 0.433543
O O1 0.794971 0.657575 0.417873
O O2 0.399443 0.940189 0.846796
O O3 0.801259 0.855694 0.681019
O O4 0.679400 0.071756 0.682138
O O5 0.366359 0.248621 0.791550
O O6 0.752219 0.313433 0.630666
O O7 0.760877 0.933141 0.387306
O O8 0.500000 0.500000 0.500000
O O9 0.159285 0.722743 0.904191
O O10 0.412257 0.331059 0.627172
O O11 0.002675 0.145538 0.253145
O O12 0.000000 0.000000 0.000000
O O13 0.000000 0.500000 0.000000
O O14 0.000000 0.500000 0.500000
#
# Coordination Sequence:
#
# PCOD9009083 Si02
#       6
#     2   2   2   2   2   2
#     4  10  23  45  65  98 137 175 219 279 346 395
#     4  10  24  42  68  95 137 179 224 276 338 400
#     4   9  20  37  67  93 129 165 224 272 324 385
#     4  11  24  39  70  99 132 174 230 273 330 403
#     4  10  21  39  67 101 131 169 229 282 330 392
#     4  12  26  44  67  96 140 179 220 276 344 400
#
# _framework density 22.853133
#
# number of rings (size 3 to 8) (size 9 to 14) (size 15 to 20)
#    0.000    1.667    0.000    3.000   16.333    0.000 
#    3.000    0.833    0.000    0.000    0.000    0.000 
#    0.000    0.000    0.000    0.000    0.000    0.000 
#
# Total GULP energy -67038.482464 kJ/mol
# GULP energy per Si atom -5586.540205 kJ/mol
# Density = 2.280112 g / cm^3
# Si number density = 22.853133 Si / 1000 Ang^3
#
#
#
# Elastic Constant Matrix: (Units=GPa)
#
#
# Indices 1 2 3 4 5 6 
#
# 1 121.4144 30.8791 8.8964 -10.7728 -7.1101 -29.2454
# 2 30.8791 175.9521 13.5587 0.3205 6.5630 -5.7495
# 3 8.8964 13.5587 60.0292 6.9134 -3.8885 -0.2363
# 4 -10.7728 0.3205 6.9134 27.5202 2.6734 -0.2088
# 5 -7.1101 6.5630 -3.8885 2.6734 35.3228 -5.5214
# 6 -29.2454 -5.7495 -0.2363 -0.2088 -5.5214 36.2608
#
#
#
# Elastic Compliance Matrix: (Units=1/GPa)
#
#
# Indices 1 2 3 4 5 6 
#
# 1 0.011813 -0.001774 -0.001620 0.004767 0.003704 0.009827
# 2 -0.001774 0.006128 -0.001201 -0.000303 -0.001719 -0.000731
# 3 -0.001620 -0.001201 0.017916 -0.005334 0.002102 -0.001091
# 4 0.004767 -0.000303 -0.005334 0.039769 -0.002005 0.003685
# 5 0.003704 -0.001719 0.002102 -0.002005 0.030919 0.007425
# 6 0.009827 -0.000731 -0.001091 0.003685 0.007425 0.036533
#
#
# Mechanical properties :
#
#
# Convention : Reuss Voigt Hill
#
# Bulk Modulus (GPa) = 37.49921 51.56270 44.53096
# Shear Modulus (GPa) = 31.02553 40.09151 35.55852
#
# Velocity S-wave (km/s) = 3.68857 4.19299 3.94884
# Velocity P-wave (km/s) = 5.88091 6.78625 6.34974
#
# Compressibility (1/GPa) = 0.02666723
#
# Stress axis : x y z
#
# Youngs Moduli (GPa) = 84.65110 163.18472 55.81606
#
# Poissons Ratio (x) = 0.28950 0.09044
# Poissons Ratio (y) = 0.15018 0.06701
# Poissons Ratio (z) = 0.13717 0.19592
#
# Static dielectric constant tensor:
#      x y z
#    x 1.876070 0.003110 -0.055160 
#    y 0.003110 1.923640 -0.059050 
#    z -0.055160 -0.059050 1.971680 
# 
# From -- ./inp_files/152443.got.cif
#   From: 2010.05.17/outbox.cif.g08.bks.cpg/sg2_77_cif.got.tgz:152443.got - 2010.06.03 11:33:40.
