data_PCOD9009617
_publ_section_title
;
Structure prediction by ZEFSAII (Michael W. Deem and Ramdas Pophale) SiO2 
 PCOD9009617
Probable space group: P -1
;
_chemical_formula_sum "Si O2"
_cell_formula_units_Z 16
_cell_length_a 9.278851
_cell_length_b 11.618763
_cell_length_c 18.968931
_cell_angle_alpha 26.236266
_cell_angle_beta 121.824247
_cell_angle_gamma 132.103640
_cell_volume 653.408630
_symmetry_space_group_name_H-M "P -1"
_symmetry_group_IT_number 2
_symmetry_cell_setting 'triclinic'
loop_
_space_group_symop_operation_xyz
x,y,z
-x,-y,-z
loop_
_atom_site_type_symbol
_atom_site_label
_atom_site_fract_x
_atom_site_fract_y
_atom_site_fract_z
Si Si1 0.991075 0.636518 0.664350
Si Si2 0.015082 0.862284 0.153904
Si Si3 0.795694 0.392091 0.463169
Si Si4 0.289156 0.540215 0.886603
Si Si5 0.106317 0.034973 0.352551
Si Si6 0.585565 0.424981 0.950758
Si Si7 0.428216 0.865764 0.131099
Si Si8 0.345993 0.369284 0.596254
O O1 0.943396 0.399698 0.715888
O O2 0.156580 0.637518 0.755942
O O3 0.070852 0.955772 0.469930
O O4 0.779631 0.453241 0.748310
O O5 0.831248 0.660305 0.270462
O O6 0.165125 0.167439 0.067574
O O7 0.000000 0.000000 0.000000
O O8 0.768739 0.113601 0.562983
O O9 0.643219 0.362497 0.499688
O O10 0.000000 0.500000 0.500000
O O11 0.478638 0.597116 0.859294
O O12 0.342946 0.665529 0.910539
O O13 0.882122 0.853887 0.363698
O O14 0.235211 0.373154 0.167966
O O15 0.421390 0.123702 0.033575
O O16 0.589462 0.816904 0.236805
O O17 0.500000 0.000000 0.000000
O O18 0.500000 0.500000 0.500000
#
# Coordination Sequence:
#
# PCOD9009617 Si02
#       8
#     2   2   2   2   2   2   2   2
#     4  10  21  42  69  99 133 180 231 276 334 408
#     4   9  17  32  64  96 124 162 218 279 325 380
#     4   9  19  34  63  95 125 170 223 273 332 388
#     4  10  21  39  71 100 136 171 224 297 343 391
#     4  10  22  43  69 100 137 173 225 291 345 399
#     4  11  25  43  67 105 139 173 225 286 357 398
#     4  12  28  44  68  99 136 189 236 270 339 429
#     4  11  23  42  67  99 140 183 230 277 335 423
#
# _framework density 24.486975000000001
#
# number of rings (size 3 to 8) (size 9 to 14) (size 15 to 20)
#    0.000    1.750    2.500    1.500    5.250    4.000 
#    0.000    1.875    0.000    0.000    0.000    0.000 
#    0.000    0.000    0.000    0.000    0.000    0.000 
#
# Total GULP energy -89422.458594 kJ/mol
# GULP energy per Si atom -5588.903662 kJ/mol
# Density = 2.443124 g / cm^3
# Si number density = 24.486975 Si / 1000 Ang^3
#
#
#
# Elastic Constant Matrix: (Units=GPa)
#
#
# Indices 1 2 3 4 5 6 
#
# 1 114.7436 41.5069 58.8104 8.1840 -29.5923 2.3412
# 2 41.5069 100.9277 62.0432 15.9938 -15.0306 1.8326
# 3 58.8104 62.0432 143.8144 25.3967 -31.8148 9.9912
# 4 8.1840 15.9938 25.3967 39.3955 7.3474 1.1070
# 5 -29.5923 -15.0306 -31.8148 7.3474 40.6985 7.1293
# 6 2.3412 1.8326 9.9912 1.1070 7.1293 38.2850
#
#
#
# Elastic Compliance Matrix: (Units=1/GPa)
#
#
# Indices 1 2 3 4 5 6 
#
# 1 0.012727 -0.002588 -0.002151 -0.001497 0.007128 -0.001377
# 2 -0.002588 0.014219 -0.004777 -0.002156 -0.000117 0.000809
# 3 -0.002151 -0.004777 0.013869 -0.008256 0.009855 -0.004856
# 4 -0.001497 -0.002156 -0.008256 0.034633 -0.015328 0.004202
# 5 0.007128 -0.000117 0.009855 -0.015328 0.042000 -0.010380
# 6 -0.001377 0.000809 -0.004856 0.004202 -0.010380 0.029244
#
#
# Mechanical properties :
#
#
# Convention : Reuss Voigt Hill
#
# Bulk Modulus (GPa) = 45.90783 76.02297 60.96540
# Shear Modulus (GPa) = 28.90430 36.81746 32.86088
#
# Velocity S-wave (km/s) = 3.43941 3.88177 3.66727
# Velocity P-wave (km/s) = 5.87889 7.15574 6.54851
#
# Compressibility (1/GPa) = 0.02178278
#
# Stress axis : x y z
#
# Youngs Moduli (GPa) = 78.57338 70.33081 72.10137
#
# Poissons Ratio (x) = 0.18201 0.15509
# Poissons Ratio (y) = 0.20334 0.34444
# Poissons Ratio (z) = 0.16901 0.33598
#
# Static dielectric constant tensor:
#      x y z
#    x 1.997330 -0.034680 0.015170 
#    y -0.034680 1.947520 -0.042140 
#    z 0.015170 -0.042140 1.966380 
# 
# From -- ./inp_files/559559.got.cif
#   From: 2010.05.17/outbox.cif.g08.bks.cpg/sg2_280_cif.got.tgz:559559.got - 2010.06.03 11:33:40.
