data_PCOD9009746
_publ_section_title
;
Structure prediction by ZEFSAII (Michael W. Deem and Ramdas Pophale) SiO2 
 PCOD9009746
Probable space group: P -1
;
_chemical_formula_sum "Si O2"
_cell_formula_units_Z 14
_cell_length_a 11.928416
_cell_length_b 14.747810
_cell_length_c 20.352143
_cell_angle_alpha 158.414340
_cell_angle_beta 148.503231
_cell_angle_gamma 44.295299
_cell_volume 630.330246
_symmetry_space_group_name_H-M "P -1"
_symmetry_group_IT_number 2
_symmetry_cell_setting 'triclinic'
loop_
_space_group_symop_operation_xyz
x,y,z
-x,-y,-z
loop_
_atom_site_type_symbol
_atom_site_label
_atom_site_fract_x
_atom_site_fract_y
_atom_site_fract_z
Si Si1 0.589729 0.788769 0.438880
Si Si2 0.676950 0.921492 0.343369
Si Si3 0.080726 0.496442 0.612504
Si Si4 0.839090 0.653038 0.122291
Si Si5 0.189584 0.517785 0.410359
Si Si6 0.574753 0.902958 0.768758
Si Si7 0.232006 0.743320 0.072958
O O1 0.780533 0.697615 0.440099
O O2 0.500000 0.000000 0.500000
O O3 0.711063 0.949204 0.673050
O O4 0.356741 0.512694 0.139696
O O5 0.735657 0.776440 0.212366
O O6 0.486636 0.749631 0.185594
O O7 0.551142 0.089421 0.357082
O O8 0.923977 0.114561 0.627771
O O9 0.000000 0.500000 0.500000
O O10 0.862791 0.412845 0.496558
O O11 0.255521 0.798629 0.923727
O O12 0.887635 0.430516 0.039620
O O13 0.373819 0.768697 0.632119
O O14 0.284958 0.284336 0.296923
O O15 0.942213 0.396180 0.166670
#
# Coordination Sequence:
#
# PCOD9009746 Si02
#       7
#     2   2   2   2   2   2   2
#     4  10  23  42  62  97 137 168 213 263 325 380
#     4  11  21  36  66  89 121 165 217 256 318 382
#     4  12  25  44  70  96 130 174 215 267 325 387
#     4  10  21  40  58  93 127 162 211 266 313 384
#     4  11  24  42  68  95 128 164 219 272 318 386
#     4  11  23  42  66  96 124 167 217 267 324 384
#     4  11  21  38  65  91 123 169 206 264 319 375
#
# _framework density 22.210578999999999
#
# number of rings (size 3 to 8) (size 9 to 14) (size 15 to 20)
#    0.000    1.143    4.286    1.714    2.000    2.286 
#    0.000    2.857    0.000    0.000    0.000    0.000 
#    0.000    0.000    0.000    0.000    0.000    0.000 
#
# Total GULP energy -78178.854414 kJ/mol
# GULP energy per Si atom -5584.203887 kJ/mol
# Density = 2.216003 g / cm^3
# Si number density = 22.210579 Si / 1000 Ang^3
#
#
#
# Elastic Constant Matrix: (Units=GPa)
#
#
# Indices 1 2 3 4 5 6 
#
# 1 108.7844 28.2167 18.2283 6.0986 14.2079 -10.6575
# 2 28.2167 49.8351 9.3943 6.7723 10.6008 -5.7783
# 3 18.2283 9.3943 44.6039 8.4923 16.7189 -19.7221
# 4 6.0986 6.7723 8.4923 28.0515 -5.4862 -3.6081
# 5 14.2079 10.6008 16.7189 -5.4862 30.1389 -5.3983
# 6 -10.6575 -5.7783 -19.7221 -3.6081 -5.3983 26.2810
#
#
#
# Elastic Compliance Matrix: (Units=1/GPa)
#
#
# Indices 1 2 3 4 5 6 
#
# 1 0.011379 -0.005293 -0.001804 -0.000931 -0.002407 0.001475
# 2 -0.005293 0.025747 0.002617 -0.007247 -0.008855 0.002665
# 3 -0.001804 0.002617 0.046892 -0.015507 -0.023891 0.027997
# 4 -0.000931 -0.007247 -0.015507 0.045633 0.019291 -0.003380
# 5 -0.002407 -0.008855 -0.023891 0.019291 0.052878 -0.007341
# 6 0.001475 0.002665 0.027997 -0.003380 -0.007341 0.058272
#
#
# Mechanical properties :
#
#
# Convention : Reuss Voigt Hill
#
# Bulk Modulus (GPa) = 13.32288 34.98911 24.15599
# Shear Modulus (GPa) = 18.19633 26.71988 22.45810
#
# Velocity S-wave (km/s) = 2.86538 3.47223 3.18330
# Velocity P-wave (km/s) = 4.11809 5.64471 4.94072
#
# Compressibility (1/GPa) = 0.07505886
#
# Stress axis : x y z
#
# Youngs Moduli (GPa) = 87.88334 38.83942 21.32548
#
# Poissons Ratio (x) = 0.20558 0.03847
# Poissons Ratio (y) = 0.46518 -0.05582
# Poissons Ratio (z) = 0.15853 -0.10166
#
# Static dielectric constant tensor:
#      x y z
#    x 1.824040 -0.010910 -0.005780 
#    y -0.010910 1.877840 0.024250 
#    z -0.005780 0.024250 1.828370 
# 
# From -- ./inp_files/261104.got.cif
#   From: 2010.05.17/outbox.cif.g08.bks.cpg/sg2_131_cif.got.tgz:261104.got - 2010.06.03 11:33:40.
