data_PCOD9009066
_publ_section_title
;
Structure prediction by ZEFSAII (Michael W. Deem and Ramdas Pophale) SiO2 
 PCOD9009066
Probable space group: P -1
;
_chemical_formula_sum "Si O2"
_cell_formula_units_Z 16
_cell_length_a 19.416671
_cell_length_b 9.050380
_cell_length_c 11.044118
_cell_angle_alpha 106.448676
_cell_angle_beta 138.295874
_cell_angle_gamma 40.909533
_cell_volume 646.035635
_symmetry_space_group_name_H-M "P -1"
_symmetry_group_IT_number 2
_symmetry_cell_setting 'triclinic'
loop_
_space_group_symop_operation_xyz
x,y,z
-x,-y,-z
loop_
_atom_site_type_symbol
_atom_site_label
_atom_site_fract_x
_atom_site_fract_y
_atom_site_fract_z
Si Si1 0.752652 0.996742 0.034119
Si Si2 0.064760 0.243262 0.540374
Si Si3 0.365235 0.302555 0.828602
Si Si4 0.704502 0.833338 0.733937
Si Si5 0.614349 0.489503 0.892715
Si Si6 0.823754 0.445951 0.610353
Si Si7 0.954827 0.957499 0.750422
Si Si8 0.673991 0.166057 0.603581
O O1 0.758008 0.983746 0.182718
O O2 0.967256 0.793197 0.235272
O O3 0.611795 0.308489 0.868588
O O4 0.745085 0.838965 0.924518
O O5 0.099558 0.105233 0.432400
O O6 0.000000 0.500000 0.500000
O O7 0.863715 0.427747 0.372070
O O8 0.404113 0.410649 0.977046
O O9 0.349381 0.317870 0.664320
O O10 0.500000 0.000000 0.000000
O O11 0.832946 0.555608 0.757432
O O12 0.500000 0.000000 0.500000
O O13 0.705204 0.992936 0.700116
O O14 0.815405 0.287679 0.035866
O O15 0.430978 0.775547 0.637331
O O16 0.826629 0.271689 0.626791
O O17 0.875391 0.995100 0.784171
O O18 0.500000 0.500000 0.500000
#
# Coordination Sequence:
#
# PCOD9009066 Si02
#       8
#     2   2   2   2   2   2   2   2
#     4  10  22  44  69  94 134 181 229 277 340 408
#     4  10  23  41  68 102 135 176 229 281 341 411
#     4  10  21  39  66  99 138 176 222 287 344 400
#     4  12  26  44  65  98 139 179 226 284 336 407
#     4  10  22  44  69 101 134 182 226 283 344 402
#     4  10  22  43  67  97 134 180 229 279 344 407
#     4  10  24  45  71 102 136 179 229 285 348 404
#     4  12  25  45  69 101 141 177 234 280 337 416
#
# _framework density 24.766435999999999
#
# number of rings (size 3 to 8) (size 9 to 14) (size 15 to 20)
#    0.000    1.500    1.250    2.625    5.250    6.500 
#    2.250    1.250    0.000    0.000    0.000    0.000 
#    0.000    0.000    0.000    0.000    0.000    0.000 
#
# Total GULP energy -89404.052985 kJ/mol
# GULP energy per Si atom -5587.753312 kJ/mol
# Density = 2.471007 g / cm^3
# Si number density = 24.766436 Si / 1000 Ang^3
#
#
#
# Elastic Constant Matrix: (Units=GPa)
#
#
# Indices 1 2 3 4 5 6 
#
# 1 106.3589 33.5616 22.7111 -9.5878 17.7673 -14.7413
# 2 33.5616 139.9315 6.8619 17.9173 -6.2451 7.1935
# 3 22.7111 6.8619 96.6469 6.5458 -2.2871 -2.1922
# 4 -9.5878 17.9173 6.5458 36.0755 -2.7731 5.9555
# 5 17.7673 -6.2451 -2.2871 -2.7731 31.6724 -5.2882
# 6 -14.7413 7.1935 -2.1922 5.9555 -5.2882 30.3099
#
#
#
# Elastic Compliance Matrix: (Units=1/GPa)
#
#
# Indices 1 2 3 4 5 6 
#
# 1 0.013999 -0.004456 -0.003379 0.005086 -0.007647 0.005288
# 2 -0.004456 0.009128 0.000769 -0.005152 0.003460 -0.002662
# 3 -0.003379 0.000769 0.011363 -0.003153 0.002603 0.000070
# 4 0.005086 -0.005152 -0.003153 0.032602 -0.001785 -0.003249
# 5 -0.007647 0.003460 0.002603 -0.001785 0.036986 0.002452
# 6 0.005288 -0.002662 0.000070 -0.003249 0.002452 0.037267
#
#
# Mechanical properties :
#
#
# Convention : Reuss Voigt Hill
#
# Bulk Modulus (GPa) = 49.11741 52.13405 50.62573
# Shear Modulus (GPa) = 30.81438 38.26508 34.53973
#
# Velocity S-wave (km/s) = 3.53115 3.93496 3.73851
# Velocity P-wave (km/s) = 6.04158 6.46074 6.25467
#
# Compressibility (1/GPa) = 0.02035938
#
# Stress axis : x y z
#
# Youngs Moduli (GPa) = 71.43603 109.54890 88.00493
#
# Poissons Ratio (x) = 0.48816 0.29733
# Poissons Ratio (y) = 0.31833 -0.06772
# Poissons Ratio (z) = 0.24136 -0.08429
#
# Static dielectric constant tensor:
#      x y z
#    x 2.034650 -0.060450 -0.056390 
#    y -0.060450 1.846340 0.048270 
#    z -0.056390 0.048270 1.984620 
# 
# From -- ./inp_files/405574.got.cif
#   From: 2010.05.17/outbox.cif.g08.bks.cpg/sg2_203_cif.got.tgz:405574.got - 2010.06.03 11:33:40.
