data_PCOD9009998
_publ_section_title
;
Structure prediction by ZEFSAII (Michael W. Deem and Ramdas Pophale) SiO2 
 PCOD9009998
Probable space group: P -1
;
_chemical_formula_sum "Si O2"
_cell_formula_units_Z 15
_cell_length_a 13.230253
_cell_length_b 13.132012
_cell_length_c 6.904726
_cell_angle_alpha 78.320942
_cell_angle_beta 109.915312
_cell_angle_gamma 147.127332
_cell_volume 603.904096
_symmetry_space_group_name_H-M "P -1"
_symmetry_group_IT_number 2
_symmetry_cell_setting 'triclinic'
loop_
_space_group_symop_operation_xyz
x,y,z
-x,-y,-z
loop_
_atom_site_type_symbol
_atom_site_label
_atom_site_fract_x
_atom_site_fract_y
_atom_site_fract_z
Si Si1 0.596215 0.233106 0.591690
Si Si2 0.891710 0.520255 0.384080
Si Si3 0.297494 0.292373 0.374964
Si Si4 0.987352 0.790771 0.887204
Si Si5 0.614068 0.358000 0.945314
Si Si6 0.000000 0.000000 0.500000
Si Si7 0.252380 0.183942 0.966561
Si Si8 0.753761 0.124884 0.753162
O O1 0.767861 0.443393 0.525767
O O2 0.682603 0.186649 0.695954
O O3 0.422106 0.080496 0.381514
O O4 0.542701 0.235991 0.761771
O O5 0.730844 0.379897 0.163682
O O6 0.000000 0.500000 0.500000
O O7 0.061210 0.730828 0.329995
O O8 0.500000 0.500000 0.500000
O O9 0.210138 0.122276 0.487404
O O10 0.307671 0.289893 0.154022
O O11 0.095081 0.196805 0.340919
O O12 0.154617 0.838203 0.994854
O O13 0.784504 0.574476 0.899564
O O14 0.099376 0.969581 0.014060
O O15 0.445396 0.283984 0.971695
O O16 0.142318 0.150927 0.733089
#
# Coordination Sequence:
#
# PCOD9009998 Si02
#       8
#     2   2   2   2   2   1   2   2
#     4  10  21  40  61  89 127 164 203 254 312 367
#     4   9  20  38  58  85 121 160 201 250 303 360
#     4  11  25  44  67  94 127 165 209 263 319 376
#     4  10  22  40  63  92 121 159 207 257 310 370
#     4  11  24  39  63  93 124 164 208 253 307 374
#     4  10  22  42  68  92 124 166 202 258 320 368
#     4  11  25  44  64  94 130 164 210 261 316 380
#     4   9  20  39  63  89 124 163 205 259 311 368
#
# _framework density 24.838380999999998
#
# number of rings (size 3 to 8) (size 9 to 14) (size 15 to 20)
#    0.000    1.867    0.000    3.200    0.000   14.400 
#    0.000   17.333    0.000    0.000    0.000    0.000 
#    0.000    0.000    0.000    0.000    0.000    0.000 
#
# Total GULP energy -83505.163679 kJ/mol
# GULP energy per Si atom -5567.010912 kJ/mol
# Density = 2.478185 g / cm^3
# Si number density = 24.838381 Si / 1000 Ang^3
#
#
#
# Elastic Constant Matrix: (Units=GPa)
#
#
# Indices 1 2 3 4 5 6 
#
# 1 101.1343 47.0280 84.2200 12.7955 15.0255 23.4041
# 2 47.0280 129.3231 67.5186 20.2234 -3.5163 24.5147
# 3 84.2200 67.5186 179.6402 10.3785 6.9463 21.9730
# 4 12.7955 20.2234 10.3785 38.7773 6.6348 6.7498
# 5 15.0255 -3.5163 6.9463 6.6348 49.0294 0.1014
# 6 23.4041 24.5147 21.9730 6.7498 0.1014 34.4943
#
#
#
# Elastic Compliance Matrix: (Units=1/GPa)
#
#
# Indices 1 2 3 4 5 6 
#
# 1 0.019234 -0.001828 -0.007223 -0.001447 -0.004792 -0.006852
# 2 -0.001828 0.011364 -0.002737 -0.004249 0.002347 -0.004267
# 3 -0.007223 -0.002737 0.009860 0.001027 0.000481 0.000363
# 4 -0.001447 -0.004249 0.001027 0.029299 -0.003967 -0.002374
# 5 -0.004792 0.002347 0.000481 -0.003967 0.022497 0.001987
# 6 -0.006852 -0.004267 0.000363 -0.002374 0.001987 0.036899
#
#
# Mechanical properties :
#
#
# Convention : Reuss Voigt Hill
#
# Bulk Modulus (GPa) = 59.24208 89.73674 74.48941
# Shear Modulus (GPa) = 31.57423 38.54892 35.06157
#
# Velocity S-wave (km/s) = 3.56924 3.94380 3.76119
# Velocity P-wave (km/s) = 6.39443 7.54618 6.99405
#
# Compressibility (1/GPa) = 0.01687989
#
# Stress axis : x y z
#
# Youngs Moduli (GPa) = 51.99163 87.99889 101.42456
#
# Poissons Ratio (x) = 0.16089 0.73260
# Poissons Ratio (y) = 0.09505 0.27763
# Poissons Ratio (z) = 0.37554 0.24088
#
# Static dielectric constant tensor:
#      x y z
#    x 2.080750 -0.029990 0.080660 
#    y -0.029990 2.147980 -0.212070 
#    z 0.080660 -0.212070 2.097600 
# 
# From -- ./inp_files/98176.got.cif
#   From: 2010.05.17/outbox.cif.g08.bks.cpg/sg2_50_cif.got.tgz:98176.got - 2010.06.03 11:33:40.
