data_PCOD9009053
_publ_section_title
;
Structure prediction by ZEFSAII (Michael W. Deem and Ramdas Pophale) SiO2 
 PCOD9009053
Probable space group: P -1
;
_chemical_formula_sum "Si O2"
_cell_formula_units_Z 14
_cell_length_a 7.905185
_cell_length_b 13.589918
_cell_length_c 12.746299
_cell_angle_alpha 51.126606
_cell_angle_beta 123.045936
_cell_angle_gamma 83.190259
_cell_volume 632.768059
_symmetry_space_group_name_H-M "P -1"
_symmetry_group_IT_number 2
_symmetry_cell_setting 'triclinic'
loop_
_space_group_symop_operation_xyz
x,y,z
-x,-y,-z
loop_
_atom_site_type_symbol
_atom_site_label
_atom_site_fract_x
_atom_site_fract_y
_atom_site_fract_z
Si Si1 0.659753 0.911655 0.884991
Si Si2 0.654603 0.340003 0.077403
Si Si3 0.313942 0.844067 0.163844
Si Si4 0.966405 0.908453 0.443097
Si Si5 0.197401 0.529183 0.422273
Si Si6 0.141479 0.574724 0.608202
Si Si7 0.990314 0.127542 0.153906
O O1 0.758672 0.930309 0.795429
O O2 0.581028 0.060202 0.840246
O O3 0.375603 0.954008 0.749346
O O4 0.946697 0.712570 0.154081
O O5 0.863522 0.286632 0.086903
O O6 0.852974 0.173017 0.334002
O O7 0.500000 0.500000 0.000000
O O8 0.393826 0.403584 0.878106
O O9 0.496128 0.645963 0.406270
O O10 0.250042 0.825363 0.036914
O O11 0.000000 0.000000 0.000000
O O12 0.046961 0.742177 0.522864
O O13 0.064307 0.976472 0.353382
O O14 0.224684 0.572217 0.519394
O O15 0.092237 0.431140 0.471574
#
# Coordination Sequence:
#
# PCOD9009053 Si02
#       7
#     2   2   2   2   2   2   2
#     4  11  25  41  67 104 133 170 216 267 332 397
#     4  10  22  42  63  93 128 174 227 269 318 385
#     4  10  22  40  62  99 136 166 213 266 328 398
#     4  11  23  42  69  91 136 175 220 273 318 386
#     4  11  21  39  68  95 138 169 213 272 331 394
#     4  10  21  39  66  99 129 177 219 267 331 387
#     4  11  23  42  64  96 130 171 218 265 334 382
#
# _framework density 22.12501
#
# number of rings (size 3 to 8) (size 9 to 14) (size 15 to 20)
#    0.000    1.429    2.857    2.143    2.000    4.000 
#   10.286    0.000    0.000    6.857    0.000    0.000 
#    0.000    0.000    0.000    0.000    0.000    0.000 
#
# Total GULP energy -77945.184755 kJ/mol
# GULP energy per Si atom -5567.513197 kJ/mol
# Density = 2.207465 g / cm^3
# Si number density = 22.125010 Si / 1000 Ang^3
#
#
#
# Elastic Constant Matrix: (Units=GPa)
#
#
# Indices 1 2 3 4 5 6 
#
# 1 71.1531 37.7623 47.7250 2.8459 -5.3220 -14.7960
# 2 37.7623 112.6985 47.7051 -1.2726 -2.0380 -22.3112
# 3 47.7250 47.7051 169.3651 -12.2799 2.9022 -19.1945
# 4 2.8459 -1.2726 -12.2799 42.5400 -2.3664 2.1367
# 5 -5.3220 -2.0380 2.9022 -2.3664 31.5305 2.4839
# 6 -14.7960 -22.3112 -19.1945 2.1367 2.4839 28.6465
#
#
#
# Elastic Compliance Matrix: (Units=1/GPa)
#
#
# Indices 1 2 3 4 5 6 
#
# 1 0.020398 -0.004105 -0.004351 -0.002795 0.003024 0.004369
# 2 -0.004105 0.012155 -0.001554 -0.000144 -0.000274 0.006340
# 3 -0.004351 -0.001554 0.007975 0.002369 -0.001536 0.001842
# 4 -0.002795 -0.000144 0.002369 0.024542 0.001293 -0.001911
# 5 0.003024 -0.000274 -0.001536 0.001293 0.032652 -0.002609
# 6 0.004369 0.006340 0.001842 -0.001911 -0.002609 0.043706
#
#
# Mechanical properties :
#
#
# Convention : Reuss Voigt Hill
#
# Bulk Modulus (GPa) = 48.76185 68.84462 58.80323
# Shear Modulus (GPa) = 29.71180 35.21170 32.46175
#
# Velocity S-wave (km/s) = 3.66854 3.99367 3.83456
# Velocity P-wave (km/s) = 6.32703 7.24221 6.80004
#
# Compressibility (1/GPa) = 0.02050784
#
# Stress axis : x y z
#
# Youngs Moduli (GPa) = 49.02557 82.26984 125.39047
#
# Poissons Ratio (x) = 0.33771 0.54555
# Poissons Ratio (y) = 0.20124 0.19489
# Poissons Ratio (z) = 0.21330 0.12787
#
# Static dielectric constant tensor:
#      x y z
#    x 1.923610 0.022080 0.065400 
#    y 0.022080 1.895820 -0.054600 
#    z 0.065400 -0.054600 1.873310 
# 
# From -- ./inp_files/398607.got.cif
#   From: 2010.05.17/outbox.cif.g08.bks.cpg/sg2_200_cif.got.tgz:398607.got - 2010.06.03 11:33:40.
