data_PCOD9009890
_publ_section_title
;
Structure prediction by ZEFSAII (Michael W. Deem and Ramdas Pophale) SiO2 
 PCOD9009890
Probable space group: P -1
;
_chemical_formula_sum "Si O2"
_cell_formula_units_Z 16
_cell_length_a 5.937816
_cell_length_b 19.436731
_cell_length_c 8.328980
_cell_angle_alpha 52.322849
_cell_angle_beta 116.279391
_cell_angle_gamma 104.115290
_cell_volume 681.690387
_symmetry_space_group_name_H-M "P -1"
_symmetry_group_IT_number 2
_symmetry_cell_setting 'triclinic'
loop_
_space_group_symop_operation_xyz
x,y,z
-x,-y,-z
loop_
_atom_site_type_symbol
_atom_site_label
_atom_site_fract_x
_atom_site_fract_y
_atom_site_fract_z
Si Si1 0.444840 0.891657 0.056184
Si Si2 0.673899 0.729180 0.485519
Si Si3 0.517680 0.601449 0.404535
Si Si4 0.930626 0.881602 0.761198
Si Si5 0.055109 0.400792 0.710175
Si Si6 0.634919 0.718460 0.860966
Si Si7 0.159365 0.816774 0.592963
Si Si8 0.523902 0.040623 0.675781
O O1 0.498969 0.789169 0.228955
O O2 0.541133 0.924393 0.213464
O O3 0.146709 0.910421 0.907912
O O4 0.580614 0.940238 0.883021
O O5 0.640028 0.629882 0.569910
O O6 0.605557 0.742612 0.630168
O O7 0.945646 0.768593 0.498728
O O8 0.500000 0.500000 0.500000
O O9 0.735272 0.634982 0.303748
O O10 0.222955 0.631991 0.289690
O O11 0.066833 0.858745 0.668817
O O12 0.807588 0.790461 0.894321
O O13 0.705118 0.947856 0.539210
O O14 0.000000 0.500000 0.500000
O O15 0.226319 0.375083 0.953780
O O16 0.361077 0.739849 0.811487
O O17 0.269684 0.895412 0.414006
#
# Coordination Sequence:
#
# PCOD9009890 Si02
#       8
#     2   2   2   2   2   2   2   2
#     4  11  21  39  63  88 131 178 222 280 344 399
#     4  11  23  40  65  96 127 177 229 273 347 410
#     4  10  24  45  70 101 134 168 226 283 339 419
#     4  10  21  40  60  91 128 175 228 278 340 397
#     4  10  23  44  69  97 134 171 218 278 343 411
#     4  10  22  40  64  93 134 170 222 285 330 413
#     4  10  21  40  60  91 134 169 224 283 334 403
#     4  10  22  42  56  91 135 171 226 287 332 401
#
# _framework density 23.471069
#
# number of rings (size 3 to 8) (size 9 to 14) (size 15 to 20)
#    0.000    1.750    3.750    1.125    7.000    2.000 
#    2.250    5.000    0.000    0.000    0.000    0.000 
#    0.000    0.000    0.000    0.000    0.000    0.000 
#
# Total GULP energy -89145.356061 kJ/mol
# GULP energy per Si atom -5571.584754 kJ/mol
# Density = 2.341765 g / cm^3
# Si number density = 23.471069 Si / 1000 Ang^3
#
#
#
# Elastic Constant Matrix: (Units=GPa)
#
#
# Indices 1 2 3 4 5 6 
#
# 1 129.0424 16.8221 30.6191 3.0597 15.1512 4.0959
# 2 16.8221 100.7243 22.8098 1.8678 9.2523 20.1081
# 3 30.6191 22.8098 122.6886 -12.1354 7.2075 5.7321
# 4 3.0597 1.8678 -12.1354 31.9760 5.7817 4.4305
# 5 15.1512 9.2523 7.2075 5.7817 24.8402 1.2078
# 6 4.0959 20.1081 5.7321 4.4305 1.2078 22.0919
#
#
#
# Elastic Compliance Matrix: (Units=1/GPa)
#
#
# Indices 1 2 3 4 5 6 
#
# 1 0.008819 -0.000576 -0.001890 -0.000691 -0.004443 -0.000239
# 2 -0.000576 0.012922 -0.001413 0.001003 -0.003736 -0.011285
# 3 -0.001890 -0.001413 0.009523 0.004472 -0.002046 -0.001620
# 4 -0.000691 0.001003 0.004472 0.035832 -0.009170 -0.008630
# 5 -0.004443 -0.003736 -0.002046 -0.009170 0.046892 0.004031
# 6 -0.000239 -0.011285 -0.001620 -0.008630 0.004031 0.057512
#
#
# Mechanical properties :
#
#
# Convention : Reuss Voigt Hill
#
# Bulk Modulus (GPa) = 42.54183 54.77305 48.65744
# Shear Modulus (GPa) = 26.72484 34.59523 30.66004
#
# Velocity S-wave (km/s) = 3.37802 3.84337 3.61819
# Velocity P-wave (km/s) = 5.77748 6.56372 6.18311
#
# Compressibility (1/GPa) = 0.02350628
#
# Stress axis : x y z
#
# Youngs Moduli (GPa) = 113.39651 77.38921 105.00651
#
# Poissons Ratio (x) = 0.04459 0.19845
# Poissons Ratio (y) = 0.06534 0.14833
# Poissons Ratio (z) = 0.21430 0.10932
#
# Static dielectric constant tensor:
#      x y z
#    x 1.945380 0.165610 -0.029100 
#    y 0.165610 0.531910 0.010580 
#    z -0.029100 0.010580 1.974270 
# 
# From -- ./inp_files/50979.got.cif
#   From: 2010.05.17/outbox.cif.g08.bks.cpg/sg2_26_cif.got.tgz:50979.got - 2010.06.03 11:33:40.
