data_PCOD9009259
_publ_section_title
;
Structure prediction by ZEFSAII (Michael W. Deem and Ramdas Pophale) SiO2 
 PCOD9009259
Probable space group: P -1
;
_chemical_formula_sum "Si O2"
_cell_formula_units_Z 16
_cell_length_a 6.118527
_cell_length_b 21.970929
_cell_length_c 9.776113
_cell_angle_alpha 55.415097
_cell_angle_beta 133.889699
_cell_angle_gamma 104.910580
_cell_volume 758.918978
_symmetry_space_group_name_H-M "P -1"
_symmetry_group_IT_number 2
_symmetry_cell_setting 'triclinic'
loop_
_space_group_symop_operation_xyz
x,y,z
-x,-y,-z
loop_
_atom_site_type_symbol
_atom_site_label
_atom_site_fract_x
_atom_site_fract_y
_atom_site_fract_z
Si Si1 0.146957 0.544336 0.317488
Si Si2 0.854114 0.586598 0.873443
Si Si3 0.165754 0.837534 0.417703
Si Si4 0.527124 0.936905 0.977060
Si Si5 0.136914 0.594606 0.553758
Si Si6 0.773299 0.180682 0.840672
Si Si7 0.791432 0.708233 0.459486
Si Si8 0.523745 0.917795 0.689221
O O1 0.500000 0.500000 0.500000
O O2 0.116917 0.586386 0.393805
O O3 0.943862 0.480763 0.321387
O O4 0.030706 0.598626 0.071902
O O5 0.490068 0.597161 0.735346
O O6 0.895912 0.643870 0.700556
O O7 0.000000 0.500000 0.000000
O O8 0.326523 0.812379 0.372553
O O9 0.341270 0.870027 0.573823
O O10 0.990709 0.772832 0.474194
O O11 0.896459 0.907951 0.161906
O O12 0.404652 0.942737 0.760468
O O13 0.375521 0.876969 0.064454
O O14 0.500000 0.000000 0.000000
O O15 0.891194 0.667028 0.411874
O O16 0.578786 0.259298 0.722047
O O17 0.141001 0.143107 0.066263
O O18 0.500000 0.000000 0.500000
#
# Coordination Sequence:
#
# PCOD9009259 Si02
#       8
#     2   2   2   2   2   2   2   2
#     4  11  23  41  67 101 129 165 223 293 336 400
#     4  12  23  43  71  95 128 171 228 284 339 401
#     4  10  23  43  63  93 135 177 219 271 337 408
#     4  10  21  39  67  98 132 170 216 273 329 392
#     4  11  23  42  68  95 133 170 225 283 343 404
#     4  10  23  44  63  91 140 174 221 271 337 407
#     4  11  24  44  66  91 136 185 218 278 351 400
#     4  11  23  41  72 104 132 174 228 277 327 398
#
# _framework density 21.082619999999999
#
# number of rings (size 3 to 8) (size 9 to 14) (size 15 to 20)
#    0.000    1.250    2.500    2.625    0.000    6.000 
#    0.000   23.750    0.000    0.000    0.000    0.000 
#    0.000    0.000    0.000    0.000    0.000    0.000 
#
# Total GULP energy -89210.378351 kJ/mol
# GULP energy per Si atom -5575.648647 kJ/mol
# Density = 2.103463 g / cm^3
# Si number density = 21.082620 Si / 1000 Ang^3
#
#
#
# Elastic Constant Matrix: (Units=GPa)
#
#
# Indices 1 2 3 4 5 6 
#
# 1 110.5255 47.3227 43.9385 9.7391 -13.3408 -22.7121
# 2 47.3227 100.1510 50.6961 5.4979 -0.8211 -17.5554
# 3 43.9385 50.6961 101.3477 14.8682 -15.7381 -5.2534
# 4 9.7391 5.4979 14.8682 38.0804 -0.3636 -2.6536
# 5 -13.3408 -0.8211 -15.7381 -0.3636 35.9481 -11.1379
# 6 -22.7121 -17.5554 -5.2534 -2.6536 -11.1379 39.0842
#
#
#
# Elastic Compliance Matrix: (Units=1/GPa)
#
#
# Indices 1 2 3 4 5 6 
#
# 1 0.014316 -0.003914 -0.002606 -0.001461 0.006539 0.007975
# 2 -0.003914 0.015640 -0.006663 0.001531 -0.003038 0.003093
# 3 -0.002606 -0.006663 0.015774 -0.004560 0.005380 -0.001163
# 4 -0.001461 0.001531 -0.004560 0.028213 -0.002045 0.000559
# 5 0.006539 -0.003038 0.005380 -0.002045 0.036684 0.013473
# 6 0.007975 0.003093 -0.001163 0.000559 0.013473 0.035331
#
#
# Mechanical properties :
#
#
# Convention : Reuss Voigt Hill
#
# Bulk Modulus (GPa) = 51.63862 66.21540 58.92701
# Shear Modulus (GPa) = 27.96772 33.96034 30.96403
#
# Velocity S-wave (km/s) = 3.64617 4.01786 3.83652
# Velocity P-wave (km/s) = 6.50175 7.28011 6.90191
#
# Compressibility (1/GPa) = 0.01936535
#
# Stress axis : x y z
#
# Youngs Moduli (GPa) = 69.85120 63.93781 63.39647
#
# Poissons Ratio (x) = 0.25024 0.16520
# Poissons Ratio (y) = 0.27338 0.42240
# Poissons Ratio (z) = 0.18202 0.42600
#
# Static dielectric constant tensor:
#      x y z
#    x 1.810450 -0.075750 0.000410 
#    y -0.075750 1.805650 0.016050 
#    z 0.000410 0.016050 1.786880 
# 
# From -- ./inp_files/141309.got.cif
#   From: 2010.05.17/outbox.cif.g08.bks.cpg/sg2_71_cif.got.tgz:141309.got - 2010.06.03 11:33:40.
