data_PCOD9009671
_publ_section_title
;
Structure prediction by ZEFSAII (Michael W. Deem and Ramdas Pophale) SiO2 
 PCOD9009671
Probable space group: P -1
;
_chemical_formula_sum "Si O2"
_cell_formula_units_Z 12
_cell_length_a 14.241135
_cell_length_b 20.070932
_cell_length_c 11.429708
_cell_angle_alpha 148.016077
_cell_angle_beta 29.153677
_cell_angle_gamma 160.714639
_cell_volume 519.813029
_symmetry_space_group_name_H-M "P -1"
_symmetry_group_IT_number 2
_symmetry_cell_setting 'triclinic'
loop_
_space_group_symop_operation_xyz
x,y,z
-x,-y,-z
loop_
_atom_site_type_symbol
_atom_site_label
_atom_site_fract_x
_atom_site_fract_y
_atom_site_fract_z
Si Si1 0.487355 0.520588 0.851272
Si Si2 0.643883 0.301054 0.048458
Si Si3 0.858997 0.805716 0.429281
Si Si4 0.839903 0.881369 0.874604
Si Si5 0.433631 0.002521 0.210410
Si Si6 0.479993 0.288677 0.685978
O O1 0.192491 0.326994 0.808789
O O2 0.754834 0.694505 0.725824
O O3 0.565941 0.438518 0.720989
O O4 0.421089 0.601040 0.132844
O O5 0.454902 0.305836 0.337331
O O6 0.499880 0.247718 0.995445
O O7 0.535038 0.105149 0.908655
O O8 0.000000 0.500000 0.000000
O O9 0.070919 0.855186 0.372285
O O10 0.000000 0.000000 0.500000
O O11 0.101689 0.077206 0.796165
O O12 0.000000 0.000000 0.000000
O O13 0.589078 0.207085 0.402343
O O14 0.500000 0.000000 0.000000
#
# Coordination Sequence:
#
# PCOD9009671 Si02
#       6
#     2   2   2   2   2   2
#     4  10  21  39  72  97 134 195 243 284 372 438
#     4  12  26  42  72 114 145 188 250 308 374 436
#     4  12  22  44  72  99 148 196 239 309 371 433
#     4  10  22  44  72  99 144 200 237 296 377 438
#     4  12  24  42  72 105 143 186 249 299 364 444
#     4  10  21  42  69  99 141 194 234 301 369 428
#
# _framework density 23.085222999999999
#
# number of rings (size 3 to 8) (size 9 to 14) (size 15 to 20)
#    0.000    1.000    5.000    1.000    2.333    1.333 
#    0.000    4.167    7.333    0.000    0.000    1.167 
#    0.000    0.000    0.000    0.000    0.000    0.000 
#
# Total GULP energy -66816.956900 kJ/mol
# GULP energy per Si atom -5568.079742 kJ/mol
# Density = 2.303268 g / cm^3
# Si number density = 23.085223 Si / 1000 Ang^3
#
#
#
# Elastic Constant Matrix: (Units=GPa)
#
#
# Indices 1 2 3 4 5 6 
#
# 1 136.6507 43.9164 42.2719 13.8385 0.1585 -1.7616
# 2 43.9164 104.6101 37.3158 16.3176 -3.2279 -6.6720
# 3 42.2719 37.3158 141.5320 36.1239 5.0773 10.9059
# 4 13.8385 16.3176 36.1239 55.9427 11.3525 -2.0453
# 5 0.1585 -3.2279 5.0773 11.3525 30.6575 14.7997
# 6 -1.7616 -6.6720 10.9059 -2.0453 14.7997 55.8287
#
#
#
# Elastic Compliance Matrix: (Units=1/GPa)
#
#
# Indices 1 2 3 4 5 6 
#
# 1 0.008879 -0.003042 -0.001853 -0.000061 -0.000195 0.000328
# 2 -0.003042 0.011932 -0.001938 -0.001771 0.001669 0.001201
# 3 -0.001853 -0.001938 0.009748 -0.005717 0.001684 -0.002850
# 4 -0.000061 -0.001771 -0.005717 0.024393 -0.010481 0.004575
# 5 -0.000195 0.001669 0.001684 -0.010481 0.042026 -0.011661
# 6 0.000328 0.001201 -0.002850 0.004575 -0.011661 0.021881
#
#
# Mechanical properties :
#
#
# Convention : Reuss Voigt Hill
#
# Bulk Modulus (GPa) = 59.19040 69.97790 64.58415
# Shear Modulus (GPa) = 36.19064 45.77169 40.98116
#
# Velocity S-wave (km/s) = 3.96371 4.45761 4.21790
# Velocity P-wave (km/s) = 6.82961 7.54138 7.19430
#
# Compressibility (1/GPa) = 0.01689463
#
# Stress axis : x y z
#
# Youngs Moduli (GPa) = 112.62014 83.80738 102.58354
#
# Poissons Ratio (x) = 0.25497 0.19004
# Poissons Ratio (y) = 0.34263 0.19877
# Poissons Ratio (z) = 0.20863 0.16239
#
# Static dielectric constant tensor:
#      x y z
#    x 1.872260 -0.049270 0.134960 
#    y -0.049270 1.916340 0.059730 
#    z 0.134960 0.059730 1.906370 
# 
# From -- ./inp_files/457717.got.cif
#   From: 2010.05.17/outbox.cif.g08.bks.cpg/sg2_229_cif.got.tgz:457717.got - 2010.06.03 11:33:40.
