data_PCOD9009529
_publ_section_title
;
Structure prediction by ZEFSAII (Michael W. Deem and Ramdas Pophale) SiO2 
 PCOD9009529
Probable space group: P -1
;
_chemical_formula_sum "Si O2"
_cell_formula_units_Z 14
_cell_length_a 23.092739
_cell_length_b 9.867773
_cell_length_c 13.278384
_cell_angle_alpha 30.564939
_cell_angle_beta 25.645423
_cell_angle_gamma 31.319431
_cell_volume 622.649192
_symmetry_space_group_name_H-M "P -1"
_symmetry_group_IT_number 2
_symmetry_cell_setting 'triclinic'
loop_
_space_group_symop_operation_xyz
x,y,z
-x,-y,-z
loop_
_atom_site_type_symbol
_atom_site_label
_atom_site_fract_x
_atom_site_fract_y
_atom_site_fract_z
Si Si1 0.874902 0.747336 0.644132
Si Si2 0.631173 0.746863 0.575351
Si Si3 0.357257 0.941829 0.448568
Si Si4 0.389442 0.365990 0.885931
Si Si5 0.363213 0.713917 0.904846
Si Si6 0.953125 0.857508 0.259231
Si Si7 0.107171 0.734843 0.440774
O O1 0.908578 0.965354 0.375234
O O2 0.915272 0.428701 0.737848
O O3 0.986780 0.662661 0.612982
O O4 0.710206 0.810135 0.880313
O O5 0.507961 0.647815 0.785819
O O6 0.786006 0.501369 0.502664
O O7 0.585967 0.893017 0.662564
O O8 0.649395 0.995899 0.319174
O O9 0.348588 0.657977 0.697371
O O10 0.453601 0.827078 0.273736
O O11 0.199374 0.147046 0.535140
O O12 0.380778 0.473167 0.946101
O O13 0.222806 0.775652 0.154712
O O14 0.000000 0.000000 0.000000
O O15 0.000000 0.000000 0.500000
#
# Coordination Sequence:
#
# PCOD9009529 Si02
#       7
#     2   2   2   2   2   2   2
#     4  11  24  39  63  94 131 168 214 264 328 385
#     4  10  23  45  70  91 131 180 216 270 331 382
#     4  10  21  39  69  97 127 171 213 270 326 383
#     4  10  22  41  66 101 128 162 224 267 321 392
#     4  10  23  46  69  94 130 173 225 270 324 393
#     4  11  21  39  65  93 129 171 206 268 328 380
#     4  12  27  43  64  98 134 175 221 271 327 397
#
# _framework density 22.484572
#
# number of rings (size 3 to 8) (size 9 to 14) (size 15 to 20)
#    0.000    1.429    2.857    2.143    4.000    2.286 
#    0.000    0.000    0.000    0.000    0.000    0.000 
#    0.000    0.000    0.000    0.000    0.000    0.000 
#
# Total GULP energy -78036.327533 kJ/mol
# GULP energy per Si atom -5574.023395 kJ/mol
# Density = 2.243340 g / cm^3
# Si number density = 22.484572 Si / 1000 Ang^3
#
#
#
# Elastic Constant Matrix: (Units=GPa)
#
#
# Indices 1 2 3 4 5 6 
#
# 1 141.3421 54.9632 50.3852 13.8965 -20.5989 -18.6994
# 2 54.9632 101.8224 47.2405 16.9217 4.0283 -2.1082
# 3 50.3852 47.2405 120.6220 17.1837 -4.4854 -2.0250
# 4 13.8965 16.9217 17.1837 32.3280 -5.7295 7.7565
# 5 -20.5989 4.0283 -4.4854 -5.7295 41.7691 -1.8893
# 6 -18.6994 -2.1082 -2.0250 7.7565 -1.8893 30.0823
#
#
#
# Elastic Compliance Matrix: (Units=1/GPa)
#
#
# Indices 1 2 3 4 5 6 
#
# 1 0.012096 -0.005180 -0.002370 -0.002010 0.006292 0.007910
# 2 -0.005180 0.015056 -0.003319 -0.004407 -0.005039 -0.001569
# 3 -0.002370 -0.003319 0.011011 -0.003071 -0.000096 -0.000179
# 4 -0.002010 -0.004407 -0.003071 0.039228 0.003959 -0.011631
# 5 0.006292 -0.005039 -0.000096 0.003959 0.028258 0.004306
# 6 0.007910 -0.001569 -0.000179 -0.011631 0.004306 0.041306
#
#
# Mechanical properties :
#
#
# Convention : Reuss Voigt Hill
#
# Bulk Modulus (GPa) = 60.88649 74.32936 67.60793
# Shear Modulus (GPa) = 28.70773 34.91573 31.81173
#
# Velocity S-wave (km/s) = 3.57707 3.94493 3.76550
# Velocity P-wave (km/s) = 6.64821 7.34028 7.00280
#
# Compressibility (1/GPa) = 0.01642401
#
# Stress axis : x y z
#
# Youngs Moduli (GPa) = 82.67434 66.41739 90.81712
#
# Poissons Ratio (x) = 0.34407 0.21528
# Poissons Ratio (y) = 0.42829 0.30139
# Poissons Ratio (z) = 0.19598 0.22042
#
# Static dielectric constant tensor:
#      x y z
#    x 1.908460 0.060610 0.027220 
#    y 0.060610 1.895520 -0.044030 
#    z 0.027220 -0.044030 1.944780 
# 
# From -- ./inp_files/469107.got.cif
#   From: 2010.05.17/outbox.cif.g08.bks.cpg/sg2_235_cif.got.tgz:469107.got - 2010.06.03 11:33:40.
