data_PCOD9009441
_publ_section_title
;
Structure prediction by ZEFSAII (Michael W. Deem and Ramdas Pophale) SiO2 
 PCOD9009441
Probable space group: P -1
;
_chemical_formula_sum "Si O2"
_cell_formula_units_Z 14
_cell_length_a 5.365002
_cell_length_b 8.582839
_cell_length_c 17.521690
_cell_angle_alpha 98.433037
_cell_angle_beta 136.110394
_cell_angle_gamma 77.478099
_cell_volume 545.985285
_symmetry_space_group_name_H-M "P -1"
_symmetry_group_IT_number 2
_symmetry_cell_setting 'triclinic'
loop_
_space_group_symop_operation_xyz
x,y,z
-x,-y,-z
loop_
_atom_site_type_symbol
_atom_site_label
_atom_site_fract_x
_atom_site_fract_y
_atom_site_fract_z
Si Si1 0.516259 0.935946 0.171679
Si Si2 0.723479 0.896389 0.475254
Si Si3 0.472225 0.699543 0.276690
Si Si4 0.048202 0.468364 0.098346
Si Si5 0.226846 0.775854 0.771192
Si Si6 0.746143 0.169543 0.045223
Si Si7 0.857153 0.583110 0.583995
O O1 0.558436 0.782667 0.222901
O O2 0.788343 0.056941 0.262746
O O3 0.515426 0.883196 0.079809
O O4 0.121343 0.045504 0.107664
O O5 0.465145 0.835322 0.348714
O O6 0.880586 0.725209 0.538508
O O7 0.500000 0.000000 0.500000
O O8 0.000000 0.000000 0.500000
O O9 0.117622 0.618627 0.174471
O O10 0.807252 0.560438 0.360310
O O11 0.426206 0.347975 0.186630
O O12 0.763407 0.354637 0.047309
O O13 0.000000 0.500000 0.000000
O O14 0.324215 0.822083 0.880692
O O15 0.894775 0.680988 0.678505
O O16 0.500000 0.500000 0.500000
#
# Coordination Sequence:
#
# PCOD9009441 Si02
#       7
#     2   2   2   2   2   2   2
#     4  10  21  42  66 102 142 184 235 291 369 445
#     4  12  28  51  80 111 149 203 262 322 384 458
#     4  11  24  46  74 101 148 189 240 312 378 446
#     4  10  21  42  63 101 139 181 234 295 363 448
#     4  10  23  40  68  96 140 189 238 297 367 441
#     4  10  21  39  68  98 142 187 233 289 357 448
#     4  11  26  49  73 108 148 194 257 319 381 444
#
# _framework density 25.641715999999999
#
# number of rings (size 3 to 8) (size 9 to 14) (size 15 to 20)
#    0.000    1.429    1.429    2.571    4.000    0.571 
#    2.571    0.000    0.000    0.000    0.000    0.000 
#    0.000    0.000    0.000    0.000    0.000    0.000 
#
# Total GULP energy -78241.960468 kJ/mol
# GULP energy per Si atom -5588.711462 kJ/mol
# Density = 2.558335 g / cm^3
# Si number density = 25.641716 Si / 1000 Ang^3
#
#
#
# Elastic Constant Matrix: (Units=GPa)
#
#
# Indices 1 2 3 4 5 6 
#
# 1 70.3513 72.6230 29.6239 22.5880 -7.8489 -1.5763
# 2 72.6230 197.7098 89.1913 24.9527 12.6479 24.8683
# 3 29.6239 89.1913 132.6689 48.2961 -7.6686 3.9545
# 4 22.5880 24.9527 48.2961 74.2386 -4.9384 1.1845
# 5 -7.8489 12.6479 -7.6686 -4.9384 38.7001 1.4236
# 6 -1.5763 24.8683 3.9545 1.1845 1.4236 57.4695
#
#
#
# Elastic Compliance Matrix: (Units=1/GPa)
#
#
# Indices 1 2 3 4 5 6 
#
# 1 0.030514 -0.014585 0.006285 -0.007847 0.010956 0.006606
# 2 -0.014585 0.015256 -0.009038 0.004697 -0.008906 -0.006256
# 3 0.006285 -0.009038 0.015636 -0.008689 0.006106 0.003035
# 4 -0.007847 0.004697 -0.008689 0.019814 -0.002246 -0.002003
# 5 0.010956 -0.008906 0.006106 -0.002246 0.031786 0.002993
# 6 0.006606 -0.006256 0.003035 -0.002003 0.002993 0.020047
#
#
# Mechanical properties :
#
#
# Convention : Reuss Voigt Hill
#
# Bulk Modulus (GPa) = 37.41189 87.06741 62.23965
# Shear Modulus (GPa) = 28.30635 48.03442 38.17038
#
# Velocity S-wave (km/s) = 3.32613 4.33285 3.86243
# Velocity P-wave (km/s) = 5.41967 7.68509 6.64956
#
# Compressibility (1/GPa) = 0.02672947
#
# Stress axis : x y z
#
# Youngs Moduli (GPa) = 32.77202 65.54631 63.95598
#
# Poissons Ratio (x) = 0.95600 -0.40195
# Poissons Ratio (y) = 0.47798 0.57804
# Poissons Ratio (z) = -0.20597 0.59241
#
# Static dielectric constant tensor:
#      x y z
#    x 2.078800 0.055840 -0.019050 
#    y 0.055840 2.049140 -0.019010 
#    z -0.019050 -0.019010 2.096800 
# 
# From -- ./inp_files/548201.got.cif
#   From: 2010.05.17/outbox.cif.g08.bks.cpg/sg2_275_cif.got.tgz:548201.got - 2010.06.03 11:33:40.
