data_PCOD9009745
_publ_section_title
;
Structure prediction by ZEFSAII (Michael W. Deem and Ramdas Pophale) SiO2 
 PCOD9009745
Probable space group: P -1
;
_chemical_formula_sum "Si O2"
_cell_formula_units_Z 16
_cell_length_a 5.278212
_cell_length_b 9.181219
_cell_length_c 15.636718
_cell_angle_alpha 95.086576
_cell_angle_beta 101.381247
_cell_angle_gamma 75.010543
_cell_volume 717.017633
_symmetry_space_group_name_H-M "P -1"
_symmetry_group_IT_number 2
_symmetry_cell_setting 'triclinic'
loop_
_space_group_symop_operation_xyz
x,y,z
-x,-y,-z
loop_
_atom_site_type_symbol
_atom_site_label
_atom_site_fract_x
_atom_site_fract_y
_atom_site_fract_z
Si Si1 0.750452 0.914906 0.069170
Si Si2 0.341407 0.230267 0.772299
Si Si3 0.599407 0.194846 0.166374
Si Si4 0.082111 0.342599 0.046792
Si Si5 0.164733 0.877677 0.319443
Si Si6 0.899852 0.416898 0.231647
Si Si7 0.655114 0.825394 0.683521
Si Si8 0.299471 0.898590 0.506155
O O1 0.657750 0.813669 0.130309
O O2 0.816375 0.056582 0.131050
O O3 0.963305 0.798256 0.019452
O O4 0.500000 0.000000 0.000000
O O5 0.630740 0.194810 0.745922
O O6 0.208488 0.406882 0.760774
O O7 0.129990 0.146269 0.711590
O O8 0.396686 0.286459 0.087030
O O9 0.692760 0.319009 0.233909
O O10 0.443175 0.123669 0.223936
O O11 0.953506 0.371197 0.132892
O O12 0.000000 0.500000 0.000000
O O13 0.284268 0.804908 0.414086
O O14 0.180559 0.052822 0.328496
O O15 0.156425 0.340838 0.300178
O O16 0.422939 0.827491 0.599690
O O17 0.500000 0.000000 0.500000
O O18 0.000000 0.000000 0.500000
#
# Coordination Sequence:
#
# PCOD9009745 Si02
#       8
#     2   2   2   2   2   2   2   2
#     4  10  21  42  61  93 128 173 224 278 325 385
#     4  12  25  44  67  95 140 175 221 273 337 395
#     4  10  22  40  63  91 132 171 224 270 335 396
#     4  10  21  40  58  91 130 171 226 273 335 389
#     4  11  24  44  70 100 130 174 223 277 330 395
#     4  11  25  40  63  94 134 183 217 274 341 403
#     4  10  22  41  69  96 130 171 221 274 331 402
#     4  10  22  40  70 104 133 167 221 277 331 393
#
# _framework density 22.314654999999998
#
# number of rings (size 3 to 8) (size 9 to 14) (size 15 to 20)
#    0.000    1.500    2.500    2.250    7.000    1.000 
#    4.500    1.250    0.000    0.000    0.000    0.000 
#    0.000    0.000    0.000    0.000    0.000    0.000 
#
# Total GULP energy -89284.114128 kJ/mol
# GULP energy per Si atom -5580.257133 kJ/mol
# Density = 2.226387 g / cm^3
# Si number density = 22.314655 Si / 1000 Ang^3
#
#
#
# Elastic Constant Matrix: (Units=GPa)
#
#
# Indices 1 2 3 4 5 6 
#
# 1 65.9439 13.4295 7.9272 -10.6877 7.6257 -3.4169
# 2 13.4295 125.3472 29.4145 -27.2968 4.5911 -14.2073
# 3 7.9272 29.4145 108.8999 -29.1623 11.0759 -7.2629
# 4 -10.6877 -27.2968 -29.1623 28.3321 -5.8903 5.6315
# 5 7.6257 4.5911 11.0759 -5.8903 32.9512 1.6937
# 6 -3.4169 -14.2073 -7.2629 5.6315 1.6937 26.3043
#
#
#
# Elastic Compliance Matrix: (Units=1/GPa)
#
#
# Indices 1 2 3 4 5 6 
#
# 1 0.016509 -0.000471 0.000866 0.005813 -0.003062 0.001082
# 2 -0.000471 0.010433 -0.000134 0.009049 0.000134 0.003590
# 3 0.000866 -0.000134 0.012876 0.012777 -0.002277 0.001006
# 4 0.005813 0.009049 0.012777 0.061069 0.004230 -0.004176
# 5 -0.003062 0.000134 -0.002277 0.004230 0.032764 -0.003970
# 6 0.001082 0.003590 0.001006 -0.004176 -0.003970 0.041524
#
#
# Mechanical properties :
#
#
# Convention : Reuss Voigt Hill
#
# Bulk Modulus (GPa) = 24.79048 44.63705 34.71377
# Shear Modulus (GPa) = 26.58170 34.14550 30.36360
#
# Velocity S-wave (km/s) = 3.45515 3.91600 3.69277
# Velocity P-wave (km/s) = 5.20106 6.36346 5.81140
#
# Compressibility (1/GPa) = 0.04033806
#
# Stress axis : x y z
#
# Youngs Moduli (GPa) = 60.57452 95.85334 77.66142
#
# Poissons Ratio (x) = 0.04517 -0.06724
# Poissons Ratio (y) = 0.02854 0.01044
# Poissons Ratio (z) = -0.05245 0.01288
#
# Static dielectric constant tensor:
#      x y z
#    x 1.951340 0.054550 0.004480 
#    y 0.054550 1.840660 0.021400 
#    z 0.004480 0.021400 1.910360 
# 
# From -- ./inp_files/52527.got.cif
#   From: 2010.05.17/outbox.cif.g08.bks.cpg/sg2_27_cif.got.tgz:52527.got - 2010.06.03 11:33:40.
