data_PCOD9009193
_publ_section_title
;
Structure prediction by ZEFSAII (Michael W. Deem and Ramdas Pophale) SiO2 
 PCOD9009193
Probable space group: P -1
;
_chemical_formula_sum "Si O2"
_cell_formula_units_Z 15
_cell_length_a 12.430477
_cell_length_b 8.868789
_cell_length_c 8.706522
_cell_angle_alpha 110.403351
_cell_angle_beta 50.665844
_cell_angle_gamma 81.448560
_cell_volume 598.552749
_symmetry_space_group_name_H-M "P -1"
_symmetry_group_IT_number 2
_symmetry_cell_setting 'triclinic'
loop_
_space_group_symop_operation_xyz
x,y,z
-x,-y,-z
loop_
_atom_site_type_symbol
_atom_site_label
_atom_site_fract_x
_atom_site_fract_y
_atom_site_fract_z
Si Si1 0.313623 0.451103 0.334738
Si Si2 0.257817 0.014440 0.568125
Si Si3 0.010311 0.685463 0.540903
Si Si4 0.647643 0.186793 0.916164
Si Si5 0.500000 0.000000 0.500000
Si Si6 0.676274 0.881999 0.990454
Si Si7 0.191834 0.422810 0.769386
Si Si8 0.080751 0.761472 0.177611
O O1 0.184150 0.636799 0.427854
O O2 0.318425 0.278353 0.178284
O O3 0.240239 0.459551 0.571872
O O4 0.498167 0.397956 0.137977
O O5 0.288416 0.196344 0.622954
O O6 0.063390 0.111478 0.766143
O O7 0.321010 0.906511 0.312569
O O8 0.369508 0.910100 0.573813
O O9 0.991177 0.736879 0.397770
O O10 0.000000 0.500000 0.500000
O O11 0.861478 0.827528 0.828511
O O12 0.814564 0.158757 0.818395
O O13 0.597776 0.073341 0.036754
O O14 0.588727 0.890093 0.225894
O O15 0.207863 0.557962 0.922489
O O16 0.000000 0.500000 0.000000
#
# Coordination Sequence:
#
# PCOD9009193 Si02
#       8
#     2   2   2   2   1   2   2   2
#     4  11  22  40  67  97 137 172 231 275 329 399
#     4  11  22  42  66  97 131 174 228 276 330 405
#     4  10  22  40  66  97 130 177 221 272 330 402
#     4  12  23  45  69  99 138 180 216 279 349 402
#     4  12  26  36  70 102 126 166 238 294 316 378
#     4  11  22  41  66 102 128 179 226 276 335 400
#     4  10  21  39  67  95 127 177 227 272 320 401
#     4  11  25  42  71  98 137 178 222 273 345 408
#
# _framework density 25.060447
#
# number of rings (size 3 to 8) (size 9 to 14) (size 15 to 20)
#    0.000    1.067    4.000    4.000    7.467    1.067 
#    0.000    2.000    0.000    0.000    0.000    0.000 
#    0.000    0.000    0.000    0.000    0.000    0.000 
#
# Total GULP energy -83595.322974 kJ/mol
# GULP energy per Si atom -5573.021532 kJ/mol
# Density = 2.500341 g / cm^3
# Si number density = 25.060447 Si / 1000 Ang^3
#
#
#
# Elastic Constant Matrix: (Units=GPa)
#
#
# Indices 1 2 3 4 5 6 
#
# 1 147.5264 -2.8183 31.3708 0.6494 -10.2184 9.0058
# 2 -2.8183 39.6169 13.3990 -1.5167 5.9397 4.2849
# 3 31.3708 13.3990 169.2481 3.8942 1.4181 2.5822
# 4 0.6494 -1.5167 3.8942 24.0704 -7.6498 -6.2348
# 5 -10.2184 5.9397 1.4181 -7.6498 50.4982 14.3181
# 6 9.0058 4.2849 2.5822 -6.2348 14.3181 16.8469
#
#
#
# Elastic Compliance Matrix: (Units=1/GPa)
#
#
# Indices 1 2 3 4 5 6 
#
# 1 0.007816 0.001309 -0.001450 -0.000734 0.003492 -0.007528
# 2 0.001309 0.026943 -0.002273 0.000068 -0.001047 -0.006289
# 3 -0.001450 -0.002273 0.006384 -0.001202 -0.000484 0.000341
# 4 -0.000734 0.000068 -0.001202 0.046620 0.002489 0.015698
# 5 0.003492 -0.001047 -0.000484 0.002489 0.027923 -0.024337
# 6 -0.007528 -0.006289 0.000341 0.015698 -0.024337 0.091423
#
#
# Mechanical properties :
#
#
# Convention : Reuss Voigt Hill
#
# Bulk Modulus (GPa) = 27.53562 48.92162 38.22862
# Shear Modulus (GPa) = 22.31718 39.24577 30.78147
#
# Velocity S-wave (km/s) = 2.98742 3.96162 3.50850
# Velocity P-wave (km/s) = 4.78655 6.36316 5.63031
#
# Compressibility (1/GPa) = 0.03631660
#
# Stress axis : x y z
#
# Youngs Moduli (GPa) = 127.93543 37.11503 156.64975
#
# Poissons Ratio (x) = -0.04859 0.22713
# Poissons Ratio (y) = -0.16748 0.35599
# Poissons Ratio (z) = 0.18550 0.08434
#
# Static dielectric constant tensor:
#      x y z
#    x 2.072370 0.285630 -0.140810 
#    y 0.285630 1.870850 0.049170 
#    z -0.140810 0.049170 1.969130 
# 
# From -- ./inp_files/254783.got.cif
#   From: 2010.05.17/outbox.cif.g08.bks.cpg/sg2_128_cif.got.tgz:254783.got - 2010.06.03 11:33:40.
