data_PCOD9009399
_publ_section_title
;
Structure prediction by ZEFSAII (Michael W. Deem and Ramdas Pophale) SiO2 
 PCOD9009399
Probable space group: P -1
;
_chemical_formula_sum "Si O2"
_cell_formula_units_Z 16
_cell_length_a 13.602411
_cell_length_b 9.439011
_cell_length_c 8.605390
_cell_angle_alpha 126.803052
_cell_angle_beta 78.223820
_cell_angle_gamma 119.812294
_cell_volume 760.573898
_symmetry_space_group_name_H-M "P -1"
_symmetry_group_IT_number 2
_symmetry_cell_setting 'triclinic'
loop_
_space_group_symop_operation_xyz
x,y,z
-x,-y,-z
loop_
_atom_site_type_symbol
_atom_site_label
_atom_site_fract_x
_atom_site_fract_y
_atom_site_fract_z
Si Si1 0.762849 0.316510 0.549013
Si Si2 0.033216 0.303691 0.215379
Si Si3 0.860064 0.884942 0.153092
Si Si4 0.924264 0.499875 0.171010
Si Si5 0.280170 0.887022 0.114672
Si Si6 0.879023 0.104041 0.580738
Si Si7 0.565022 0.168379 0.721195
Si Si8 0.656344 0.928582 0.115490
O O1 0.863272 0.531526 0.609134
O O2 0.824303 0.223607 0.580208
O O3 0.669276 0.336921 0.699077
O O4 0.703317 0.149440 0.326760
O O5 0.953397 0.387827 0.226355
O O6 0.094418 0.261343 0.020900
O O7 0.955525 0.103525 0.202891
O O8 0.852839 0.914209 0.357600
O O9 0.742134 0.847280 0.088150
O O10 0.986781 0.737015 0.345655
O O11 0.793882 0.349085 0.067726
O O12 0.000000 0.500000 0.000000
O O13 0.188302 0.939260 0.263629
O O14 0.375981 0.907455 0.219176
O O15 0.334178 0.027570 0.041137
O O16 0.500000 0.000000 0.500000
O O17 0.470556 0.204625 0.863179
#
# Coordination Sequence:
#
# PCOD9009399 Si02
#       8
#     2   2   2   2   2   2   2   2
#     4   8  17  31  52  73  99 131 171 210 247 295
#     4  10  19  33  52  75 108 139 170 204 248 311
#     4  10  20  32  51  77 107 140 171 199 250 309
#     4   9  17  30  50  75 105 131 166 211 249 293
#     4  10  17  29  49  77 103 128 164 213 262 290
#     4   8  17  30  48  74 103 135 165 205 245 304
#     4   9  18  33  50  76 100 125 172 221 255 295
#     4  10  18  30  53  77 101 133 172 212 252 296
#
# _framework density 21.036746000000001
#
# number of rings (size 3 to 8) (size 9 to 14) (size 15 to 20)
#    0.000    2.750    1.250    1.875    1.750    1.500 
#    0.000    3.125    0.000    0.000    0.000    5.250 
#    0.000    0.000    0.000    0.000    0.000    0.000 
#
# Total GULP energy -89246.326345 kJ/mol
# GULP energy per Si atom -5577.895397 kJ/mol
# Density = 2.098887 g / cm^3
# Si number density = 21.036746 Si / 1000 Ang^3
#
#
#
# Elastic Constant Matrix: (Units=GPa)
#
#
# Indices 1 2 3 4 5 6 
#
# 1 103.7666 33.5124 35.0206 -4.4420 4.1110 19.1300
# 2 33.5124 42.6732 14.7971 -15.0569 -1.9140 16.0076
# 3 35.0206 14.7971 86.3623 -20.8074 1.0440 8.7711
# 4 -4.4420 -15.0569 -20.8074 25.8567 9.5265 -1.4079
# 5 4.1110 -1.9140 1.0440 9.5265 34.5578 -5.8599
# 6 19.1300 16.0076 8.7711 -1.4079 -5.8599 21.5746
#
#
#
# Elastic Compliance Matrix: (Units=1/GPa)
#
#
# Indices 1 2 3 4 5 6 
#
# 1 0.016055 -0.012893 -0.006439 -0.010033 -0.000129 -0.002741
# 2 -0.012893 0.058259 0.009238 0.042058 -0.013287 -0.036414
# 3 -0.006439 0.009238 0.018771 0.021360 -0.006740 -0.009213
# 4 -0.010033 0.042058 0.021360 0.086631 -0.026522 -0.032543
# 5 -0.000129 -0.013287 -0.006740 -0.026522 0.039408 0.021686
# 6 -0.002741 -0.036414 -0.009213 -0.032543 0.021686 0.083312
#
#
# Mechanical properties :
#
#
# Convention : Reuss Voigt Hill
#
# Bulk Modulus (GPa) = 13.71784 44.38468 29.05126
# Shear Modulus (GPa) = 14.41241 26.36261 20.38751
#
# Velocity S-wave (km/s) = 2.62029 3.54385 3.11648
# Velocity P-wave (km/s) = 3.96101 6.15546 5.17587
#
# Compressibility (1/GPa) = 0.07289777
#
# Stress axis : x y z
#
# Youngs Moduli (GPa) = 62.28569 17.16459 53.27430
#
# Poissons Ratio (x) = 0.22131 0.34302
# Poissons Ratio (y) = 0.80307 -0.49216
# Poissons Ratio (z) = 0.40104 -0.15857
#
# Static dielectric constant tensor:
#      x y z
#    x 1.768240 0.026190 -0.004640 
#    y 0.026190 1.771920 -0.003730 
#    z -0.004640 -0.003730 1.841480 
# 
# From -- ./inp_files/200349.got.cif
#   From: 2010.05.17/outbox.cif.g08.bks.cpg/sg2_101_cif.got.tgz:200349.got - 2010.06.03 11:33:40.
