data_PCOD9009087
_publ_section_title
;
Structure prediction by ZEFSAII (Michael W. Deem and Ramdas Pophale) SiO2 
 PCOD9009087
Probable space group: P -1
;
_chemical_formula_sum "Si O2"
_cell_formula_units_Z 16
_cell_length_a 9.034731
_cell_length_b 16.672712
_cell_length_c 9.128479
_cell_angle_alpha 85.376029
_cell_angle_beta 30.129987
_cell_angle_gamma 94.860826
_cell_volume 654.375771
_symmetry_space_group_name_H-M "P -1"
_symmetry_group_IT_number 2
_symmetry_cell_setting 'triclinic'
loop_
_space_group_symop_operation_xyz
x,y,z
-x,-y,-z
loop_
_atom_site_type_symbol
_atom_site_label
_atom_site_fract_x
_atom_site_fract_y
_atom_site_fract_z
Si Si1 0.969412 0.279627 0.287757
Si Si2 0.561317 0.740043 0.690558
Si Si3 0.941265 0.544685 0.751286
Si Si4 0.745462 0.571499 0.601391
Si Si5 0.039836 0.784735 0.020211
Si Si6 0.560940 0.788391 0.014651
Si Si7 0.960288 0.029960 0.367815
Si Si8 0.259205 0.971295 0.876271
O O1 0.987090 0.236345 0.123986
O O2 0.917193 0.369483 0.293285
O O3 0.310368 0.290426 0.056442
O O4 0.737980 0.228128 0.621557
O O5 0.674140 0.659087 0.632469
O O6 0.206641 0.720995 0.952825
O O7 0.562948 0.791597 0.834614
O O8 0.752687 0.781359 0.373631
O O9 0.957117 0.577347 0.564107
O O10 0.091312 0.470253 0.653148
O O11 0.580240 0.501161 0.092235
O O12 0.258659 0.881110 0.832172
O O13 0.807428 0.874589 0.849770
O O14 0.620710 0.023439 0.592894
O O15 0.000000 0.000000 0.500000
O O16 0.100922 0.967288 0.167947
O O17 0.000000 0.000000 0.000000
#
# Coordination Sequence:
#
# PCOD9009087 Si02
#       8
#     2   2   2   2   2   2   2   2
#     4  12  25  45  67 105 138 185 233 294 349 424
#     4  12  25  46  69 105 140 188 232 292 368 429
#     4  10  21  39  67 101 136 177 234 291 343 418
#     4  10  21  39  68 101 134 180 231 290 348 425
#     4  12  27  46  69  99 148 185 230 296 366 433
#     4  12  25  43  73 102 136 180 244 295 351 426
#     4  12  26  46  72 107 143 184 243 314 368 425
#     4  12  26  48  73 101 142 200 246 291 369 448
#
# _framework density 24.450782
#
# number of rings (size 3 to 8) (size 9 to 14) (size 15 to 20)
#    0.000    0.500    1.250    7.500    3.500    2.000 
#    0.000    3.750    0.000    0.000    0.000    0.000 
#    0.000    0.000    0.000    0.000    0.000    0.000 
#
# Total GULP energy -89254.092352 kJ/mol
# GULP energy per Si atom -5578.380772 kJ/mol
# Density = 2.439513 g / cm^3
# Si number density = 24.450782 Si / 1000 Ang^3
#
#
#
# Elastic Constant Matrix: (Units=GPa)
#
#
# Indices 1 2 3 4 5 6 
#
# 1 85.0275 31.3209 54.0090 2.5792 25.3337 13.1440
# 2 31.3209 103.2346 24.2546 8.6754 14.4570 10.5190
# 3 54.0090 24.2546 160.0599 11.3151 14.8614 19.9124
# 4 2.5792 8.6754 11.3151 39.2605 5.8416 -5.8655
# 5 25.3337 14.4570 14.8614 5.8416 43.0090 17.9973
# 6 13.1440 10.5190 19.9124 -5.8655 17.9973 34.5208
#
#
#
# Elastic Compliance Matrix: (Units=1/GPa)
#
#
# Indices 1 2 3 4 5 6 
#
# 1 0.018922 -0.003628 -0.005472 0.002918 -0.009475 0.002492
# 2 -0.003628 0.011283 0.000016 -0.002555 -0.000343 -0.002321
# 3 -0.005472 0.000016 0.008681 -0.003282 0.002715 -0.004902
# 4 0.002918 -0.002555 -0.003282 0.029666 -0.008336 0.010947
# 5 -0.009475 -0.000343 0.002715 -0.008336 0.036882 -0.018499
# 6 0.002492 -0.002321 -0.004902 0.010947 -0.018499 0.043059
#
#
# Mechanical properties :
#
#
# Convention : Reuss Voigt Hill
#
# Bulk Modulus (GPa) = 48.26537 63.05455 55.65996
# Shear Modulus (GPa) = 28.80744 39.27390 34.04067
#
# Velocity S-wave (km/s) = 3.43619 4.01214 3.73528
# Velocity P-wave (km/s) = 5.96036 6.87804 6.43557
#
# Compressibility (1/GPa) = 0.02071879
#
# Stress axis : x y z
#
# Youngs Moduli (GPa) = 52.84858 88.63007 115.18825
#
# Poissons Ratio (x) = 0.32151 0.63028
# Poissons Ratio (y) = 0.19171 -0.00179
# Poissons Ratio (z) = 0.28917 -0.00138
#
# Static dielectric constant tensor:
#      x y z
#    x 2.027060 -0.002970 0.065020 
#    y -0.002970 2.032500 -0.021680 
#    z 0.065020 -0.021680 2.006850 
# 
# From -- ./inp_files/217584.got.cif
#   From: 2010.05.17/outbox.cif.g08.bks.cpg/sg2_109_cif.got.tgz:217584.got - 2010.06.03 11:33:40.
