data_PCOD9009752
_publ_section_title
;
Structure prediction by ZEFSAII (Michael W. Deem and Ramdas Pophale) SiO2 
 PCOD9009752
Probable space group: P -1
;
_chemical_formula_sum "Si O2"
_cell_formula_units_Z 16
_cell_length_a 12.039377
_cell_length_b 26.007934
_cell_length_c 5.126249
_cell_angle_alpha 103.190646
_cell_angle_beta 86.843743
_cell_angle_gamma 154.635128
_cell_volume 623.965640
_symmetry_space_group_name_H-M "P -1"
_symmetry_group_IT_number 2
_symmetry_cell_setting 'triclinic'
loop_
_space_group_symop_operation_xyz
x,y,z
-x,-y,-z
loop_
_atom_site_type_symbol
_atom_site_label
_atom_site_fract_x
_atom_site_fract_y
_atom_site_fract_z
Si Si1 0.422830 0.208536 0.814802
Si Si2 0.657229 0.127917 0.342466
Si Si3 0.296010 0.973144 0.722309
Si Si4 0.908159 0.642793 0.075982
Si Si5 0.433254 0.630700 0.748449
Si Si6 0.944187 0.545288 0.888708
Si Si7 0.387603 0.405203 0.214990
Si Si8 0.988150 0.943521 0.747964
O O1 0.269879 0.085732 0.717785
O O2 0.370764 0.233601 0.059347
O O3 0.282629 0.169513 0.527674
O O4 0.751825 0.343894 0.953737
O O5 0.410624 0.023776 0.470396
O O6 0.898638 0.268244 0.594420
O O7 0.769076 0.116367 0.313494
O O8 0.538748 0.091699 0.036520
O O9 0.061423 0.914088 0.739902
O O10 0.600035 0.495814 0.049924
O O11 0.989087 0.625832 0.892934
O O12 0.891826 0.690829 0.979018
O O13 0.232024 0.554523 0.442992
O O14 0.594518 0.644880 0.720556
O O15 0.239137 0.539409 0.924304
O O16 0.500000 0.500000 0.500000
O O17 0.000000 0.000000 0.000000
#
# Coordination Sequence:
#
# PCOD9009752 Si02
#       8
#     2   2   2   2   2   2   2   2
#     4  11  27  46  68  99 132 186 228 281 334 398
#     4  10  23  43  72 101 127 177 219 282 335 397
#     4  10  24  46  67  99 136 165 234 277 332 397
#     4  10  22  37  64  95 129 173 210 268 335 397
#     4  11  25  44  70  99 133 176 224 283 333 401
#     4  11  24  43  71  99 134 172 228 278 334 398
#     4  10  21  40  58  97 135 163 214 261 336 402
#     4  11  28  46  68  99 140 187 230 282 342 408
#
# _framework density 25.642439
#
# number of rings (size 3 to 8) (size 9 to 14) (size 15 to 20)
#    0.000    1.500    1.250    1.500   12.250    1.000 
#    2.250    0.000    0.000    0.000    0.000    0.000 
#    0.000    0.000    0.000    0.000    0.000    0.000 
#
# Total GULP energy -89459.210330 kJ/mol
# GULP energy per Si atom -5591.200646 kJ/mol
# Density = 2.558408 g / cm^3
# Si number density = 25.642439 Si / 1000 Ang^3
#
#
#
# Elastic Constant Matrix: (Units=GPa)
#
#
# Indices 1 2 3 4 5 6 
#
# 1 167.7183 25.0081 32.5251 4.1603 -8.7610 17.6835
# 2 25.0081 41.1393 -2.2457 -12.0872 -0.8608 -9.7192
# 3 32.5251 -2.2457 168.2033 -0.4672 2.9584 -1.1378
# 4 4.1603 -12.0872 -0.4672 25.6939 -1.3395 -15.0923
# 5 -8.7610 -0.8608 2.9584 -1.3395 36.1894 3.5795
# 6 17.6835 -9.7192 -1.1378 -15.0923 3.5795 32.0671
#
#
#
# Elastic Compliance Matrix: (Units=1/GPa)
#
#
# Indices 1 2 3 4 5 6 
#
# 1 0.016322 -0.029893 -0.004012 -0.038075 0.005796 -0.036770
# 2 -0.029893 0.097893 0.008256 0.108463 -0.011337 0.098762
# 3 -0.004012 0.008256 0.006963 0.010505 -0.001957 0.010124
# 4 -0.038075 0.108463 0.010505 0.177403 -0.014716 0.139380
# 5 0.005796 -0.011337 -0.001957 -0.014716 0.030061 -0.016984
# 6 -0.036770 0.098762 0.010124 0.139380 -0.016984 0.149249
#
#
# Mechanical properties :
#
#
# Convention : Reuss Voigt Hill
#
# Bulk Modulus (GPa) = 14.31016 54.18174 34.24595
# Shear Modulus (GPa) = 9.05005 40.24163 24.64584
#
# Velocity S-wave (km/s) = 1.88069 3.96578 3.10358
# Velocity P-wave (km/s) = 3.21072 6.49196 5.12124
#
# Compressibility (1/GPa) = 0.06988044
#
# Stress axis : x y z
#
# Youngs Moduli (GPa) = 61.26775 10.21521 143.61174
#
# Poissons Ratio (x) = 0.30537 0.57612
# Poissons Ratio (y) = 1.83150 -1.18568
# Poissons Ratio (z) = 0.24578 -0.08434
#
# Static dielectric constant tensor:
#      x y z
#    x 2.089300 0.015230 -0.021810 
#    y 0.015230 2.246090 -0.092930 
#    z -0.021810 -0.092930 1.961810 
# 
# From -- ./inp_files/85431.got.cif
#   From: 2010.05.17/outbox.cif.g08.bks.cpg/sg2_43_cif.got.tgz:85431.got - 2010.06.03 11:33:40.
