data_PCOD9009361
_publ_section_title
;
Structure prediction by ZEFSAII (Michael W. Deem and Ramdas Pophale) SiO2 
 PCOD9009361
Probable space group: P -1
;
_chemical_formula_sum "Si O2"
_cell_formula_units_Z 16
_cell_length_a 18.420419
_cell_length_b 12.480046
_cell_length_c 9.529786
_cell_angle_alpha 48.821243
_cell_angle_beta 26.387087
_cell_angle_gamma 48.555274
_cell_volume 715.612570
_symmetry_space_group_name_H-M "P -1"
_symmetry_group_IT_number 2
_symmetry_cell_setting 'triclinic'
loop_
_space_group_symop_operation_xyz
x,y,z
-x,-y,-z
loop_
_atom_site_type_symbol
_atom_site_label
_atom_site_fract_x
_atom_site_fract_y
_atom_site_fract_z
Si Si1 0.607561 0.014670 0.440437
Si Si2 0.867545 0.753375 0.144132
Si Si3 0.851534 0.818220 0.667482
Si Si4 0.634526 0.126708 0.853670
Si Si5 0.499851 0.569833 0.286861
Si Si6 0.618059 0.691493 0.399479
Si Si7 0.902764 0.167587 0.545799
Si Si8 0.137734 0.376922 0.439526
O O1 0.792963 0.923209 0.169405
O O2 0.500000 0.000000 0.500000
O O3 0.554800 0.185816 0.416213
O O4 0.530375 0.929136 0.769486
O O5 0.718234 0.707838 0.354053
O O6 0.908048 0.659056 0.293494
O O7 0.020324 0.743915 0.782355
O O8 0.851504 0.762745 0.558730
O O9 0.033367 0.788711 0.452961
O O10 0.764113 0.988130 0.687445
O O11 0.736404 0.734015 0.034529
O O12 0.598698 0.263164 0.695764
O O13 0.714319 0.173065 0.820779
O O14 0.500000 0.500000 0.500000
O O15 0.417096 0.466747 0.420950
O O16 0.685826 0.575116 0.911548
O O17 0.000000 0.000000 0.500000
O O18 0.000000 0.500000 0.500000
#
# Coordination Sequence:
#
# PCOD9009361 Si02
#       8
#     2   2   2   2   2   2   2   2
#     4   9  17  37  63  94 122 153 202 266 308 357
#     4  10  21  40  64  92 129 164 204 256 313 370
#     4   9  20  43  66  92 124 169 205 248 319 377
#     4  10  21  39  68  94 118 164 218 252 297 375
#     4  12  25  42  63  91 127 164 215 259 298 377
#     4   9  20  39  68  93 119 164 213 251 314 366
#     4   9  19  39  67  95 121 156 212 258 298 370
#     4  12  27  44  58  90 135 167 200 259 324 365
#
# _framework density 22.358467000000001
#
# number of rings (size 3 to 8) (size 9 to 14) (size 15 to 20)
#    0.000    2.000    2.500    2.250    1.750    3.000 
#    9.000    5.000    0.000    0.000    0.000    0.000 
#    0.000    0.000    0.000    0.000    0.000    0.000 
#
# Total GULP energy -89436.021969 kJ/mol
# GULP energy per Si atom -5589.751373 kJ/mol
# Density = 2.230758 g / cm^3
# Si number density = 22.358467 Si / 1000 Ang^3
#
#
#
# Elastic Constant Matrix: (Units=GPa)
#
#
# Indices 1 2 3 4 5 6 
#
# 1 96.4002 34.8423 38.1175 -17.7857 12.6647 -5.4898
# 2 34.8423 85.9011 29.8084 -22.5904 3.2484 -5.6615
# 3 38.1175 29.8084 66.6958 -17.0970 3.1329 -4.6159
# 4 -17.7857 -22.5904 -17.0970 25.2579 -9.2398 2.1799
# 5 12.6647 3.2484 3.1329 -9.2398 34.6585 -7.4049
# 6 -5.4898 -5.6615 -4.6159 2.1799 -7.4049 37.0082
#
#
#
# Elastic Compliance Matrix: (Units=1/GPa)
#
#
# Indices 1 2 3 4 5 6 
#
# 1 0.014955 -0.003195 -0.006466 0.001796 -0.004103 -0.000004
# 2 -0.003195 0.017104 -0.002695 0.012342 0.003478 0.001775
# 3 -0.006466 -0.002695 0.022189 0.009160 0.003379 0.001533
# 4 0.001796 0.012342 0.009160 0.063280 0.014769 0.002525
# 5 -0.004103 0.003478 0.003379 0.014769 0.035044 0.006487
# 6 -0.000004 0.001775 0.001533 0.002525 0.006487 0.028633
#
#
# Mechanical properties :
#
#
# Convention : Reuss Voigt Hill
#
# Bulk Modulus (GPa) = 33.85750 50.50372 42.18061
# Shear Modulus (GPa) = 23.17374 29.13351 26.15362
#
# Velocity S-wave (km/s) = 3.22291 3.61365 3.42386
# Velocity P-wave (km/s) = 5.38753 6.32839 5.87682
#
# Compressibility (1/GPa) = 0.02953555
#
# Stress axis : x y z
#
# Youngs Moduli (GPa) = 66.86660 58.46711 45.06769
#
# Poissons Ratio (x) = 0.18680 0.29142
# Poissons Ratio (y) = 0.21363 0.12145
# Poissons Ratio (z) = 0.43238 0.15756
#
# Static dielectric constant tensor:
#      x y z
#    x 1.841240 0.014880 -0.020120 
#    y 0.014880 1.855750 0.019750 
#    z -0.020120 0.019750 1.854080 
# 
# From -- ./inp_files/312457.got.cif
#   From: 2010.05.17/outbox.cif.g08.bks.cpg/sg2_157_cif.got.tgz:312457.got - 2010.06.03 11:33:40.
