data_PCOD9009550
_publ_section_title
;
Structure prediction by ZEFSAII (Michael W. Deem and Ramdas Pophale) SiO2 
 PCOD9009550
Probable space group: P -1
;
_chemical_formula_sum "Si O2"
_cell_formula_units_Z 16
_cell_length_a 9.108968
_cell_length_b 8.709494
_cell_length_c 11.930442
_cell_angle_alpha 53.040771
_cell_angle_beta 80.813020
_cell_angle_gamma 77.820407
_cell_volume 738.634044
_symmetry_space_group_name_H-M "P -1"
_symmetry_group_IT_number 2
_symmetry_cell_setting 'triclinic'
loop_
_space_group_symop_operation_xyz
x,y,z
-x,-y,-z
loop_
_atom_site_type_symbol
_atom_site_label
_atom_site_fract_x
_atom_site_fract_y
_atom_site_fract_z
Si Si1 0.562307 0.020120 0.247826
Si Si2 0.164908 0.730841 0.850890
Si Si3 0.136845 0.621077 0.413700
Si Si4 0.917583 0.994534 0.894288
Si Si5 0.764827 0.387943 0.344673
Si Si6 0.447011 0.374605 0.456946
Si Si7 0.337497 0.197726 0.890632
Si Si8 0.619018 0.633777 0.964094
O O1 0.706476 0.132875 0.196429
O O2 0.411923 0.178152 0.194067
O O3 0.564356 0.845134 0.410745
O O4 0.574459 0.913099 0.172713
O O5 0.013070 0.825207 0.885519
O O6 0.150370 0.716599 0.725006
O O7 0.225699 0.512287 0.982772
O O8 0.182488 0.679505 0.508497
O O9 0.282571 0.487675 0.400866
O O10 0.000000 0.500000 0.500000
O O11 0.092571 0.807478 0.260126
O O12 0.756592 0.941786 0.969584
O O13 0.000000 0.000000 0.000000
O O14 0.588152 0.367690 0.360482
O O15 0.769124 0.619300 0.232598
O O16 0.500000 0.500000 0.500000
O O17 0.422984 0.291853 0.937536
O O18 0.500000 0.500000 0.000000
#
# Coordination Sequence:
#
# PCOD9009550 Si02
#       8
#     2   2   2   2   2   2   2   2
#     4  11  19  39  68  95 132 171 222 275 338 400
#     4  10  23  44  63  93 144 171 220 288 334 399
#     4  11  23  43  70 101 136 180 226 277 337 406
#     4  12  25  41  69 101 130 179 235 273 336 415
#     4  10  23  44  68  96 141 176 221 286 340 389
#     4  10  21  39  69  99 132 169 231 278 328 405
#     4  11  21  38  70  94 131 177 225 276 334 393
#     4   9  22  37  59  95 130 172 213 270 344 384
#
# _framework density 21.661605999999999
#
# number of rings (size 3 to 8) (size 9 to 14) (size 15 to 20)
#    0.000    1.500    3.750    1.875    3.500    5.000 
#    2.250    0.000    2.750    0.000    0.000    0.000 
#    0.000    0.000    0.000    0.000    0.000    0.000 
#
# Total GULP energy -89363.882579 kJ/mol
# GULP energy per Si atom -5585.242661 kJ/mol
# Density = 2.161230 g / cm^3
# Si number density = 21.661606 Si / 1000 Ang^3
#
#
#
# Elastic Constant Matrix: (Units=GPa)
#
#
# Indices 1 2 3 4 5 6 
#
# 1 68.4118 22.0764 31.4584 1.4391 2.3808 -0.2726
# 2 22.0764 95.1313 43.9842 -2.9886 10.5401 -6.1541
# 3 31.4584 43.9842 124.0443 -20.1129 18.7151 -8.7119
# 4 1.4391 -2.9886 -20.1129 39.1906 -2.0940 1.0902
# 5 2.3808 10.5401 18.7151 -2.0940 36.9013 -0.9096
# 6 -0.2726 -6.1541 -8.7119 1.0902 -0.9096 39.2151
#
#
#
# Elastic Compliance Matrix: (Units=1/GPa)
#
#
# Indices 1 2 3 4 5 6 
#
# 1 0.017388 -0.002354 -0.004367 -0.002944 0.001571 -0.001100
# 2 -0.002354 0.013075 -0.003875 -0.001026 -0.001647 0.001165
# 3 -0.004367 -0.003875 0.012301 0.005888 -0.004471 0.001827
# 4 -0.002944 -0.001026 0.005888 0.028512 -0.000878 0.000314
# 5 0.001571 -0.001647 -0.004471 -0.000878 0.029673 -0.000528
# 6 -0.001100 0.001165 0.001827 0.000314 -0.000528 0.026060
#
#
# Mechanical properties :
#
#
# Convention : Reuss Voigt Hill
#
# Bulk Modulus (GPa) = 46.35642 53.62505 49.99073
# Shear Modulus (GPa) = 32.17661 35.73263 33.95462
#
# Velocity S-wave (km/s) = 3.85830 4.06591 3.96346
# Velocity P-wave (km/s) = 6.42615 6.84483 6.63879
#
# Compressibility (1/GPa) = 0.02157198
#
# Stress axis : x y z
#
# Youngs Moduli (GPa) = 57.51156 76.47924 81.29592
#
# Poissons Ratio (x) = 0.18002 0.35500
# Poissons Ratio (y) = 0.13537 0.31506
# Poissons Ratio (z) = 0.25114 0.29639
#
# Static dielectric constant tensor:
#      x y z
#    x 1.839690 0.014900 0.038290 
#    y 0.014900 1.823750 -0.016090 
#    z 0.038290 -0.016090 1.808870 
# 
# From -- ./inp_files/416309.got.cif
#   From: 2010.05.17/outbox.cif.g08.bks.cpg/sg2_209_cif.got.tgz:416309.got - 2010.06.03 11:33:40.
