data_PCOD9009424
_publ_section_title
;
Structure prediction by ZEFSAII (Michael W. Deem and Ramdas Pophale) SiO2 
 PCOD9009424
Probable space group: P -1
;
_chemical_formula_sum "Si O2"
_cell_formula_units_Z 16
_cell_length_a 19.414528
_cell_length_b 12.793630
_cell_length_c 8.809676
_cell_angle_alpha 130.258984
_cell_angle_beta 62.356860
_cell_angle_gamma 149.452574
_cell_volume 824.172184
_symmetry_space_group_name_H-M "P -1"
_symmetry_group_IT_number 2
_symmetry_cell_setting 'triclinic'
loop_
_space_group_symop_operation_xyz
x,y,z
-x,-y,-z
loop_
_atom_site_type_symbol
_atom_site_label
_atom_site_fract_x
_atom_site_fract_y
_atom_site_fract_z
Si Si1 0.883547 0.520035 0.061382
Si Si2 0.158349 0.579589 0.346939
Si Si3 0.612709 0.266710 0.214706
Si Si4 0.824657 0.150996 0.951011
Si Si5 0.840622 0.136948 0.275619
Si Si6 0.620333 0.278306 0.581193
Si Si7 0.499408 0.369866 0.271372
Si Si8 0.378377 0.418763 0.985305
O O1 0.771206 0.460774 0.187798
O O2 0.052269 0.777695 0.150656
O O3 0.851208 0.467271 0.865372
O O4 0.851112 0.327714 0.995174
O O5 0.219972 0.823768 0.530760
O O6 0.243042 0.593707 0.369296
O O7 0.001148 0.352104 0.357930
O O8 0.609625 0.259767 0.393208
O O9 0.563009 0.338818 0.271586
O O10 0.500000 0.000000 0.000000
O O11 0.663151 0.883132 0.841784
O O12 0.841049 0.190875 0.152452
O O13 0.759181 0.875245 0.126436
O O14 0.500000 0.000000 0.500000
O O15 0.616106 0.426779 0.790469
O O16 0.500000 0.500000 0.500000
O O17 0.588862 0.512477 0.160554
O O18 0.500000 0.500000 0.000000
#
# Coordination Sequence:
#
# PCOD9009424 Si02
#       8
#     2   2   2   2   2   2   2   2
#     4  10  21  39  68  98 127 167 214 270 319 383
#     4  10  22  41  67  97 126 168 217 263 324 381
#     4  12  24  43  66  95 127 168 220 267 319 385
#     4  10  21  40  65  94 134 165 213 262 324 377
#     4  10  22  41  67  95 129 169 215 266 318 390
#     4  12  26  42  66  95 130 170 217 268 321 383
#     4  12  26  42  64  97 132 172 211 265 324 388
#     4  12  24  42  67  94 130 171 214 265 326 378
#
# _framework density 19.413419000000001
#
# number of rings (size 3 to 8) (size 9 to 14) (size 15 to 20)
#    0.000    1.000    2.500    4.500    1.750    1.500 
#    0.000    0.625    0.000    0.000    0.000    0.000 
#    0.000    0.000    0.000    0.000    0.000    0.000 
#
# Total GULP energy -89314.715497 kJ/mol
# GULP energy per Si atom -5582.169719 kJ/mol
# Density = 1.936923 g / cm^3
# Si number density = 19.413419 Si / 1000 Ang^3
#
#
#
# Elastic Constant Matrix: (Units=GPa)
#
#
# Indices 1 2 3 4 5 6 
#
# 1 184.5213 43.2967 74.9666 -10.2859 1.3186 5.8377
# 2 43.2967 57.3846 41.9720 -9.3013 2.3298 -3.2774
# 3 74.9666 41.9720 116.9212 -16.5045 -14.7105 -6.9112
# 4 -10.2859 -9.3013 -16.5045 34.8429 -4.7522 5.1890
# 5 1.3186 2.3298 -14.7105 -4.7522 40.3555 -5.1548
# 6 5.8377 -3.2774 -6.9112 5.1890 -5.1548 39.8746
#
#
#
# Elastic Compliance Matrix: (Units=1/GPa)
#
#
# Indices 1 2 3 4 5 6 
#
# 1 0.008018 -0.002803 -0.004619 -0.000503 -0.002152 -0.002418
# 2 -0.002803 0.025566 -0.007586 0.001806 -0.003878 0.000460
# 3 -0.004619 -0.007586 0.016024 0.004738 0.007393 0.003169
# 4 -0.000503 0.001806 0.004738 0.032351 0.005129 -0.002504
# 5 -0.002152 -0.003878 0.007393 0.005129 0.028928 0.004350
# 6 -0.002418 0.000460 0.003169 -0.002504 0.004350 0.026908
#
#
# Mechanical properties :
#
#
# Convention : Reuss Voigt Hill
#
# Bulk Modulus (GPa) = 51.04319 75.47750 63.26034
# Shear Modulus (GPa) = 28.67928 36.25406 32.46667
#
# Velocity S-wave (km/s) = 3.84772 4.32612 4.09391
# Velocity P-wave (km/s) = 6.78895 7.99482 7.41643
#
# Compressibility (1/GPa) = 0.01959125
#
# Stress axis : x y z
#
# Youngs Moduli (GPa) = 124.72588 39.11380 62.40672
#
# Poissons Ratio (x) = 0.10964 0.28826
# Poissons Ratio (y) = 0.34961 0.47343
# Poissons Ratio (z) = 0.57612 0.29673
#
# Static dielectric constant tensor:
#      x y z
#    x 1.658430 0.022550 -0.000880 
#    y 0.022550 1.750550 0.021550 
#    z -0.000880 0.021550 1.689180 
# 
# From -- ./inp_files/333742.got.cif
#   From: 2010.05.17/outbox.cif.g08.bks.cpg/sg2_167_cif.got.tgz:333742.got - 2010.06.03 11:33:40.
