data_PCOD9009308
_publ_section_title
;
Structure prediction by ZEFSAII (Michael W. Deem and Ramdas Pophale) SiO2 
 PCOD9009308
Probable space group: P -1
;
_chemical_formula_sum "Si O2"
_cell_formula_units_Z 15
_cell_length_a 13.916945
_cell_length_b 11.409347
_cell_length_c 7.266048
_cell_angle_alpha 133.403456
_cell_angle_beta 50.647652
_cell_angle_gamma 135.186637
_cell_volume 566.037693
_symmetry_space_group_name_H-M "P -1"
_symmetry_group_IT_number 2
_symmetry_cell_setting 'triclinic'
loop_
_space_group_symop_operation_xyz
x,y,z
-x,-y,-z
loop_
_atom_site_type_symbol
_atom_site_label
_atom_site_fract_x
_atom_site_fract_y
_atom_site_fract_z
Si Si1 0.367243 0.069607 0.412818
Si Si2 0.188054 0.373970 0.383408
Si Si3 0.914378 0.580413 0.799012
Si Si4 0.446941 0.107659 0.931377
Si Si5 0.144165 0.983135 0.051204
Si Si6 0.000000 0.500000 0.000000
Si Si7 0.891814 0.163504 0.694151
Si Si8 0.505321 0.495467 0.770670
O O1 0.392647 0.051872 0.145975
O O2 0.405191 0.281079 0.614887
O O3 0.198382 0.930477 0.475646
O O4 0.454613 0.986230 0.321842
O O5 0.331705 0.459157 0.418370
O O6 0.206325 0.461611 0.253951
O O7 0.046928 0.343144 0.639015
O O8 0.144585 0.163182 0.171901
O O9 0.000000 0.500000 0.500000
O O10 0.895384 0.503828 0.943647
O O11 0.015618 0.800019 0.930838
O O12 0.512410 0.331663 0.090903
O O13 0.307275 0.026874 0.884258
O O14 0.117340 0.982820 0.305539
O O15 0.863024 0.296343 0.007779
O O16 0.500000 0.500000 0.000000
#
# Coordination Sequence:
#
# PCOD9009308 Si02
#       8
#     2   2   2   2   2   1   2   2
#     4  10  22  42  73  97 136 179 230 283 342 409
#     4  11  23  42  65  94 131 181 220 278 349 393
#     4  11  22  38  64  95 132 173 220 274 338 402
#     4   9  21  43  67  99 129 184 228 279 347 403
#     4   9  21  39  64  96 137 170 224 284 334 411
#     4  10  22  42  60 100 140 164 224 282 330 416
#     4  10  21  39  68 102 132 176 227 281 342 408
#     4  11  26  44  63  98 139 182 230 281 339 415
#
# _framework density 26.5
#
# number of rings (size 3 to 8) (size 9 to 14) (size 15 to 20)
#    0.000    1.867    1.333    1.200    1.867    6.933 
#    0.000    5.333    0.000    0.000    0.000    0.000 
#    0.000    0.000    0.000    0.000    0.000    0.000 
#
# Total GULP energy -83561.653284 kJ/mol
# GULP energy per Si atom -5570.776886 kJ/mol
# Density = 2.643969 g / cm^3
# Si number density = 26.500000 Si / 1000 Ang^3
#
#
#
# Elastic Constant Matrix: (Units=GPa)
#
#
# Indices 1 2 3 4 5 6 
#
# 1 84.4734 30.7216 -1.0011 -16.4715 0.0391 -31.4323
# 2 30.7216 79.8782 12.5074 14.2731 -18.3467 12.6015
# 3 -1.0011 12.5074 41.7759 -12.8746 -2.6306 7.7621
# 4 -16.4715 14.2731 -12.8746 41.5320 -1.0655 9.4114
# 5 0.0391 -18.3467 -2.6306 -1.0655 37.2446 8.5121
# 6 -31.4323 12.6015 7.7621 9.4114 8.5121 43.9047
#
#
#
# Elastic Compliance Matrix: (Units=1/GPa)
#
#
# Indices 1 2 3 4 5 6 
#
# 1 0.042591 -0.033252 0.009055 0.021810 -0.023937 0.038400
# 2 -0.033252 0.043290 -0.012936 -0.023609 0.027595 -0.034233
# 3 0.009055 -0.012936 0.033073 0.017908 -0.003819 0.001250
# 4 0.021810 -0.023609 0.017908 0.043308 -0.011951 0.012258
# 5 -0.023937 0.027595 -0.003819 -0.011951 0.046922 -0.030917
# 6 0.038400 -0.034233 0.001250 0.012258 -0.030917 0.063239
#
#
# Mechanical properties :
#
#
# Convention : Reuss Voigt Hill
#
# Bulk Modulus (GPa) = 22.37606 32.28702 27.33154
# Shear Modulus (GPa) = 13.82800 35.46291 24.64546
#
# Velocity S-wave (km/s) = 2.28680 3.66214 3.05293
# Velocity P-wave (km/s) = 3.92870 5.48561 4.77109
#
# Compressibility (1/GPa) = 0.04469063
#
# Stress axis : x y z
#
# Youngs Moduli (GPa) = 23.47922 23.09977 30.23587
#
# Poissons Ratio (x) = 0.76810 -0.27379
# Poissons Ratio (y) = 0.78072 0.39112
# Poissons Ratio (z) = -0.21261 0.29881
#
# Static dielectric constant tensor:
#      x y z
#    x 2.270190 0.172890 -0.129180 
#    y 0.172890 2.194660 -0.085350 
#    z -0.129180 -0.085350 2.186920 
# 
# From -- ./inp_files/263370.got.cif
#   From: 2010.05.17/outbox.cif.g08.bks.cpg/sg2_132_cif.got.tgz:263370.got - 2010.06.03 11:33:40.
