data_PCOD9009211
_publ_section_title
;
Structure prediction by ZEFSAII (Michael W. Deem and Ramdas Pophale) SiO2 
 PCOD9009211
Probable space group: P -1
;
_chemical_formula_sum "Si O2"
_cell_formula_units_Z 16
_cell_length_a 7.866586
_cell_length_b 24.005895
_cell_length_c 8.914274
_cell_angle_alpha 48.598361
_cell_angle_beta 34.008790
_cell_angle_gamma 60.483157
_cell_volume 700.046299
_symmetry_space_group_name_H-M "P -1"
_symmetry_group_IT_number 2
_symmetry_cell_setting 'triclinic'
loop_
_space_group_symop_operation_xyz
x,y,z
-x,-y,-z
loop_
_atom_site_type_symbol
_atom_site_label
_atom_site_fract_x
_atom_site_fract_y
_atom_site_fract_z
Si Si1 0.398099 0.793105 0.676965
Si Si2 0.794299 0.814488 0.653603
Si Si3 0.189759 0.012813 0.617340
Si Si4 0.258229 0.715685 0.371911
Si Si5 0.515623 0.951784 0.220942
Si Si6 0.798656 0.558713 0.476050
Si Si7 0.868497 0.703102 0.374525
Si Si8 0.871587 0.439111 0.079573
O O1 0.603867 0.815455 0.634889
O O2 0.443593 0.863311 0.409817
O O3 0.537678 0.723171 0.627809
O O4 0.056749 0.771740 0.024287
O O5 0.829405 0.898731 0.537999
O O6 0.104233 0.781874 0.445380
O O7 0.595582 0.752731 0.012235
O O8 0.500000 0.000000 0.500000
O O9 0.258511 0.975270 0.477446
O O10 0.865603 0.972406 0.988752
O O11 0.063531 0.694725 0.398444
O O12 0.228191 0.641745 0.626409
O O13 0.500000 0.000000 0.000000
O O14 0.438482 0.532576 0.801749
O O15 0.000000 0.500000 0.500000
O O16 0.858596 0.633153 0.398473
O O17 0.895360 0.568756 0.212877
O O18 0.000000 0.500000 0.000000
#
# Coordination Sequence:
#
# PCOD9009211 Si02
#       8
#     2   2   2   2   2   2   2   2
#     4  10  21  40  67  90 132 174 223 266 333 399
#     4  10  21  39  67  96 124 174 227 275 322 395
#     4  12  24  42  71  93 129 176 237 277 326 399
#     4  10  22  42  65  96 134 170 219 272 336 384
#     4  12  26  44  62  98 135 177 221 283 348 389
#     4  12  26  46  72 103 138 176 227 261 322 405
#     4  10  22  42  67  95 126 180 219 267 322 400
#     4  12  26  46  71 103 140 175 215 277 332 384
#
# _framework density 22.855632
#
# number of rings (size 3 to 8) (size 9 to 14) (size 15 to 20)
#    0.000    1.000    1.250    5.250    3.500    3.000 
#   13.500    0.000    0.000    0.000    0.000    0.000 
#    0.000    0.000    0.000    0.000    0.000    0.000 
#
# Total GULP energy -89588.067234 kJ/mol
# GULP energy per Si atom -5599.254202 kJ/mol
# Density = 2.280361 g / cm^3
# Si number density = 22.855632 Si / 1000 Ang^3
#
#
#
# Elastic Constant Matrix: (Units=GPa)
#
#
# Indices 1 2 3 4 5 6 
#
# 1 38.9149 18.0629 -2.2927 0.3867 -5.7341 -5.6019
# 2 18.0629 112.8648 2.3869 12.1648 4.5009 18.0195
# 3 -2.2927 2.3869 66.9288 17.8476 2.8900 3.0310
# 4 0.3867 12.1648 17.8476 44.8511 -6.8558 5.5876
# 5 -5.7341 4.5009 2.8900 -6.8558 32.9237 1.2797
# 6 -5.6019 18.0195 3.0310 5.5876 1.2797 26.3675
#
#
#
# Elastic Compliance Matrix: (Units=1/GPa)
#
#
# Indices 1 2 3 4 5 6 
#
# 1 0.031552 -0.007192 0.000258 0.001159 0.006268 0.011039
# 2 -0.007192 0.011852 0.000609 -0.002761 -0.003153 -0.008960
# 3 0.000258 0.000609 0.017044 -0.007337 -0.003038 -0.000618
# 4 0.001159 -0.002761 -0.007337 0.027429 0.007059 -0.003179
# 5 0.006268 -0.003153 -0.003038 0.007059 0.033605 0.000709
# 6 0.011039 -0.008960 -0.000618 -0.003179 0.000709 0.047104
#
#
# Mechanical properties :
#
#
# Convention : Reuss Voigt Hill
#
# Bulk Modulus (GPa) = 20.92190 28.33585 24.62887
# Shear Modulus (GPa) = 25.35880 34.19855 29.77868
#
# Velocity S-wave (km/s) = 3.33456 3.87238 3.61349
# Velocity P-wave (km/s) = 4.89893 5.69372 5.31121
#
# Compressibility (1/GPa) = 0.04779681
#
# Stress axis : x y z
#
# Youngs Moduli (GPa) = 31.69386 84.37326 58.67122
#
# Poissons Ratio (x) = 0.60684 -0.01512
# Poissons Ratio (y) = 0.22795 -0.03573
# Poissons Ratio (z) = -0.00817 -0.05138
#
# Static dielectric constant tensor:
#      x y z
#    x 1.879520 0.000170 -0.003620 
#    y 0.000170 1.781610 -0.006870 
#    z -0.003620 -0.006870 1.793940 
# 
# From -- ./inp_files/223933.got.cif
#   From: 2010.05.17/outbox.cif.g08.bks.cpg/sg2_112_cif.got.tgz:223933.got - 2010.06.03 11:33:40.
