data_PCOD9009739
_publ_section_title
;
Structure prediction by ZEFSAII (Michael W. Deem and Ramdas Pophale) SiO2 
 PCOD9009739
Probable space group: P -1
;
_chemical_formula_sum "Si O2"
_cell_formula_units_Z 16
_cell_length_a 8.913738
_cell_length_b 9.896077
_cell_length_c 12.654948
_cell_angle_alpha 71.496171
_cell_angle_beta 98.945685
_cell_angle_gamma 141.017393
_cell_volume 658.117563
_symmetry_space_group_name_H-M "P -1"
_symmetry_group_IT_number 2
_symmetry_cell_setting 'triclinic'
loop_
_space_group_symop_operation_xyz
x,y,z
-x,-y,-z
loop_
_atom_site_type_symbol
_atom_site_label
_atom_site_fract_x
_atom_site_fract_y
_atom_site_fract_z
Si Si1 0.175784 0.270421 0.293996
Si Si2 0.876051 0.545282 0.381998
Si Si3 0.078452 0.246890 0.851459
Si Si4 0.704018 0.012477 0.194820
Si Si5 0.282305 0.048838 0.290604
Si Si6 0.743650 0.363471 0.132764
Si Si7 0.457454 0.303341 0.928175
Si Si8 0.764691 0.426255 0.626001
O O1 0.345558 0.467969 0.175584
O O2 0.205417 0.394671 0.366670
O O3 0.902891 0.076105 0.269529
O O4 0.248227 0.158950 0.333800
O O5 0.780417 0.594125 0.278023
O O6 0.717297 0.402339 0.501755
O O7 0.129000 0.806668 0.380090
O O8 0.985670 0.481035 0.360033
O O9 0.045551 0.371885 0.878425
O O10 0.242453 0.260658 0.932439
O O11 0.847887 0.017267 0.822605
O O12 0.664538 0.907376 0.104789
O O13 0.446389 0.809143 0.275924
O O14 0.799009 0.243027 0.137752
O O15 0.553001 0.211857 0.246651
O O16 0.599064 0.335863 0.030719
#
# Coordination Sequence:
#
# PCOD9009739 Si02
#       8
#     2   2   2   2   2   2   2   2
#     4  11  23  40  61  89 124 162 197 247 302 357
#     4   9  20  43  62  91 123 153 197 260 293 355
#     4  10  21  40  58  89 122 153 202 249 289 356
#     4  11  22  42  61  91 122 158 202 250 297 361
#     4  10  22  40  60  89 122 158 200 246 295 357
#     4  12  23  39  65  88 119 168 202 243 302 352
#     4  11  24  39  61  89 126 157 202 253 293 354
#     4  10  21  41  65  89 124 154 200 250 305 353
#
# _framework density 24.311765999999999
#
# number of rings (size 3 to 8) (size 9 to 14) (size 15 to 20)
#    0.750    0.750    3.750    1.500    0.000    2.500 
#    2.250    7.500    0.000    0.000    0.000    0.000 
#    0.000    0.000    0.000    0.000    0.000    0.000 
#
# Total GULP energy -89358.202416 kJ/mol
# GULP energy per Si atom -5584.887651 kJ/mol
# Density = 2.425643 g / cm^3
# Si number density = 24.311766 Si / 1000 Ang^3
#
#
#
# Elastic Constant Matrix: (Units=GPa)
#
#
# Indices 1 2 3 4 5 6 
#
# 1 57.5234 36.7234 -5.5181 0.5285 6.0418 -17.8059
# 2 36.7234 87.0328 -3.1272 2.9145 -20.7824 -24.5772
# 3 -5.5181 -3.1272 42.9866 -7.6769 13.0741 -5.8972
# 4 0.5285 2.9145 -7.6769 14.8676 1.3593 4.4455
# 5 6.0418 -20.7824 13.0741 1.3593 25.3204 4.7002
# 6 -17.8059 -24.5772 -5.8972 4.4455 4.7002 53.4065
#
#
#
# Elastic Compliance Matrix: (Units=1/GPa)
#
#
# Indices 1 2 3 4 5 6 
#
# 1 0.043895 -0.027411 0.021824 0.017212 -0.046481 0.007088
# 2 -0.027411 0.034415 -0.017758 -0.019750 0.044560 0.002460
# 3 0.021824 -0.017758 0.044302 0.028027 -0.045210 0.005642
# 4 0.017212 -0.019750 0.028027 0.089831 -0.038811 -0.004317
# 5 -0.046481 0.044560 -0.045210 -0.038811 0.113844 -0.006771
# 6 0.007088 0.002460 0.005642 -0.004317 -0.006771 0.023798
#
#
# Mechanical properties :
#
#
# Convention : Reuss Voigt Hill
#
# Bulk Modulus (GPa) = 13.17140 27.07767 20.12453
# Shear Modulus (GPa) = 11.84603 29.34988 20.59795
#
# Velocity S-wave (km/s) = 2.20978 3.47829 2.91390
# Velocity P-wave (km/s) = 3.45547 5.22429 4.42908
#
# Compressibility (1/GPa) = 0.07592209
#
# Stress axis : x y z
#
# Youngs Moduli (GPa) = 22.78143 29.05746 22.57215
#
# Poissons Ratio (x) = 0.79651 -0.49261
# Poissons Ratio (y) = 0.62447 0.40083
# Poissons Ratio (z) = -0.49718 0.51599
#
# Static dielectric constant tensor:
#      x y z
#    x 1.905710 0.009900 -0.017530 
#    y 0.009900 1.998150 0.018130 
#    z -0.017530 0.018130 1.938510 
# 
# From -- ./inp_files/492538.got.cif
#   From: 2010.05.17/outbox.cif.g08.bks.cpg/sg2_247_cif.got.tgz:492538.got - 2010.06.03 11:33:40.
