data_PCOD9009586
_publ_section_title
;
Structure prediction by ZEFSAII (Michael W. Deem and Ramdas Pophale) SiO2 
 PCOD9009586
Probable space group: P -1
;
_chemical_formula_sum "Si O2"
_cell_formula_units_Z 15
_cell_length_a 5.424277
_cell_length_b 16.940378
_cell_length_c 8.576239
_cell_angle_alpha 123.312907
_cell_angle_beta 87.069803
_cell_angle_gamma 113.438788
_cell_volume 589.664425
_symmetry_space_group_name_H-M "P -1"
_symmetry_group_IT_number 2
_symmetry_cell_setting 'triclinic'
loop_
_space_group_symop_operation_xyz
x,y,z
-x,-y,-z
loop_
_atom_site_type_symbol
_atom_site_label
_atom_site_fract_x
_atom_site_fract_y
_atom_site_fract_z
Si Si1 0.500000 0.500000 0.000000
Si Si2 0.415031 0.241956 0.624208
Si Si3 0.535213 0.328401 0.210779
Si Si4 0.962740 0.818873 0.157953
Si Si5 0.123200 0.642417 0.043439
Si Si6 0.821909 0.057457 0.009278
Si Si7 0.774587 0.240303 0.352733
Si Si8 0.319364 0.400290 0.580095
O O1 0.834541 0.571201 0.050997
O O2 0.473144 0.492489 0.796702
O O3 0.589911 0.200128 0.469249
O O4 0.297101 0.298659 0.571491
O O5 0.191074 0.165962 0.669059
O O6 0.628655 0.341920 0.829425
O O7 0.280005 0.264926 0.035320
O O8 0.589678 0.243495 0.218425
O O9 0.476222 0.398417 0.415056
O O10 0.803882 0.387005 0.158347
O O11 0.137085 0.758375 0.144633
O O12 0.129089 0.916855 0.148051
O O13 0.915160 0.168291 0.215530
O O14 0.500000 0.000000 0.000000
O O15 0.000000 0.000000 0.000000
O O16 0.999780 0.360431 0.504624
#
# Coordination Sequence:
#
# PCOD9009586 Si02
#       8
#     1   2   2   2   2   2   2   2
#     4  12  24  40  62 104 136 166 248 278 330 390
#     4  10  22  39  72  91 128 196 217 262 358 423
#     4  10  21  39  70  93 126 196 221 264 354 420
#     4  11  21  44  69  98 137 179 223 274 363 409
#     4  11  22  41  65  98 134 180 222 289 327 420
#     4  12  27  44  74 110 136 175 237 302 340 423
#     4  11  21  44  69  98 137 179 223 274 363 409
#     4  11  22  41  65  98 134 180 222 289 327 420
#
# _framework density 25.438198
#
# number of rings (size 3 to 8) (size 9 to 14) (size 15 to 20)
#    0.000    1.067    5.333    0.800    3.733    1.067 
#    0.000    4.000    0.000    0.000    0.000    0.000 
#    0.000    0.000    0.000    0.000    0.000    0.000 
#
# Total GULP energy -83797.484437 kJ/mol
# GULP energy per Si atom -5586.498962 kJ/mol
# Density = 2.538030 g / cm^3
# Si number density = 25.438198 Si / 1000 Ang^3
#
#
#
# Elastic Constant Matrix: (Units=GPa)
#
#
# Indices 1 2 3 4 5 6 
#
# 1 85.3978 38.5399 20.5979 -15.3626 -10.2558 11.7714
# 2 38.5399 100.6248 11.1407 -31.0362 -28.9360 14.3510
# 3 20.5979 11.1407 105.8188 -39.3276 -19.9071 4.7736
# 4 -15.3626 -31.0362 -39.3276 51.5574 19.1706 -17.6937
# 5 -10.2558 -28.9360 -19.9071 19.1706 55.7699 -10.8797
# 6 11.7714 14.3510 4.7736 -17.6937 -10.8797 52.6710
#
#
#
# Elastic Compliance Matrix: (Units=1/GPa)
#
#
# Indices 1 2 3 4 5 6 
#
# 1 0.015006 -0.006009 -0.003107 -0.001831 -0.001290 -0.002316
# 2 -0.006009 0.016114 0.003857 0.009012 0.005692 0.000806
# 3 -0.003107 0.003857 0.014762 0.012637 0.002972 0.003165
# 4 -0.001831 0.009012 0.012637 0.037919 -0.002420 0.009047
# 5 -0.001290 0.005692 0.002972 -0.002420 0.023009 0.002408
# 6 -0.002316 0.000806 0.003165 0.009047 0.002408 0.022534
#
#
# Mechanical properties :
#
#
# Convention : Reuss Voigt Hill
#
# Bulk Modulus (GPa) = 28.27781 48.04426 38.16103
# Shear Modulus (GPa) = 32.97091 46.77052 39.87071
#
# Velocity S-wave (km/s) = 3.60407 4.29253 3.96328
# Velocity P-wave (km/s) = 5.33474 6.59511 5.99812
#
# Compressibility (1/GPa) = 0.03536342
#
# Stress axis : x y z
#
# Youngs Moduli (GPa) = 66.63981 62.05955 67.74247
#
# Poissons Ratio (x) = 0.37290 0.21048
# Poissons Ratio (y) = 0.40042 -0.26126
# Poissons Ratio (z) = 0.20705 -0.23935
#
# Static dielectric constant tensor:
#      x y z
#    x 1.648960 0.405040 0.557880 
#    y 0.405040 1.536690 -0.654940 
#    z 0.557880 -0.654940 1.049870 
# 
# From -- ./inp_files/54513.got.cif
#   From: 2010.05.17/outbox.cif.g08.bks.cpg/sg2_28_cif.got.tgz:54513.got - 2010.06.03 11:33:40.
