data_PCOD9009683
_publ_section_title
;
Structure prediction by ZEFSAII (Michael W. Deem and Ramdas Pophale) SiO2 
 PCOD9009683
Probable space group: P -1
;
_chemical_formula_sum "Si O2"
_cell_formula_units_Z 16
_cell_length_a 15.061025
_cell_length_b 7.415733
_cell_length_c 6.962546
_cell_angle_alpha 118.414831
_cell_angle_beta 70.578355
_cell_angle_gamma 83.485089
_cell_volume 609.449662
_symmetry_space_group_name_H-M "P -1"
_symmetry_group_IT_number 2
_symmetry_cell_setting 'triclinic'
loop_
_space_group_symop_operation_xyz
x,y,z
-x,-y,-z
loop_
_atom_site_type_symbol
_atom_site_label
_atom_site_fract_x
_atom_site_fract_y
_atom_site_fract_z
Si Si1 0.917151 0.794714 0.063747
Si Si2 0.838300 0.137048 0.558299
Si Si3 0.278840 0.372506 0.447492
Si Si4 0.810337 0.168722 0.038354
Si Si5 0.087681 0.531166 0.573350
Si Si6 0.540527 0.560649 0.802689
Si Si7 0.703330 0.894276 0.356108
Si Si8 0.406514 0.840668 0.735640
O O1 0.920483 0.911524 0.321876
O O2 0.890012 0.982613 0.011991
O O3 0.812981 0.740644 0.124300
O O4 0.024112 0.627986 0.858032
O O5 0.834468 0.180013 0.805748
O O6 0.867684 0.317544 0.511625
O O7 0.738932 0.093755 0.516414
O O8 0.182547 0.315335 0.420113
O O9 0.352906 0.401733 0.249767
O O10 0.333812 0.209585 0.490580
O O11 0.777745 0.402055 0.286578
O O12 0.705943 0.124238 0.100802
O O13 0.000000 0.500000 0.500000
O O14 0.469678 0.772777 0.849071
O O15 0.555105 0.362845 0.541816
O O16 0.500000 0.500000 0.000000
O O17 0.617579 0.956555 0.289659
#
# Coordination Sequence:
#
# PCOD9009683 Si02
#       8
#     2   2   2   2   2   2   2   2
#     4   9  22  44  59  95 134 181 231 278 330 409
#     4  10  22  41  68  93 133 185 228 275 350 397
#     4  11  24  45  63 106 142 174 235 294 332 412
#     4  10  21  39  73  94 129 184 226 279 341 406
#     4  12  26  42  64  98 141 184 240 286 339 404
#     4  10  22  41  75 101 133 178 229 279 348 411
#     4   9  22  42  67  94 148 176 220 283 343 403
#     4   9  20  41  68 102 130 178 225 274 347 418
#
# _framework density 26.253191999999999
#
# number of rings (size 3 to 8) (size 9 to 14) (size 15 to 20)
#    0.750    1.250    1.250    1.125    7.000    1.500 
#    0.000    0.625    0.000    0.000    0.000    0.000 
#    0.000    0.000    0.000    0.000    0.000    0.000 
#
# Total GULP energy -89366.772012 kJ/mol
# GULP energy per Si atom -5585.423251 kJ/mol
# Density = 2.619344 g / cm^3
# Si number density = 26.253192 Si / 1000 Ang^3
#
#
#
# Elastic Constant Matrix: (Units=GPa)
#
#
# Indices 1 2 3 4 5 6 
#
# 1 75.8372 36.1503 50.8347 -6.6199 -13.4957 -28.7807
# 2 36.1503 97.6128 58.1406 -28.3299 -13.4840 -16.6957
# 3 50.8347 58.1406 181.5534 -36.8029 -0.2516 -13.2189
# 4 -6.6199 -28.3299 -36.8029 45.6921 -0.3323 -1.5013
# 5 -13.4957 -13.4840 -0.2516 -0.3323 37.0322 7.4508
# 6 -28.7807 -16.6957 -13.2189 -1.5013 7.4508 36.3935
#
#
#
# Elastic Compliance Matrix: (Units=1/GPa)
#
#
# Indices 1 2 3 4 5 6 
#
# 1 0.024585 -0.003505 -0.005114 -0.002206 0.004623 0.014939
# 2 -0.003505 0.016405 -0.002432 0.007845 0.004074 0.003361
# 3 -0.005114 -0.002432 0.008541 0.004568 -0.002372 -0.001384
# 4 -0.002206 0.007845 0.004568 0.030267 0.001457 0.004464
# 5 0.004623 0.004074 -0.002372 0.001457 0.030473 -0.001515
# 6 0.014939 0.003361 -0.001384 0.004464 -0.001515 0.040825
#
#
# Mechanical properties :
#
#
# Convention : Reuss Voigt Hill
#
# Bulk Modulus (GPa) = 36.45812 71.69495 54.07653
# Shear Modulus (GPa) = 27.42117 37.81542 32.61830
#
# Velocity S-wave (km/s) = 3.23536 3.79939 3.52867
# Velocity P-wave (km/s) = 5.27959 6.82756 6.10285
#
# Compressibility (1/GPa) = 0.02742873
#
# Stress axis : x y z
#
# Youngs Moduli (GPa) = 40.67557 60.95531 117.08772
#
# Poissons Ratio (x) = 0.21366 0.59883
# Poissons Ratio (y) = 0.14257 0.28471
# Poissons Ratio (z) = 0.20803 0.14822
#
# Static dielectric constant tensor:
#      x y z
#    x 2.406600 -0.009220 0.131870 
#    y -0.009220 2.232030 0.084260 
#    z 0.131870 0.084260 2.180500 
# 
# From -- ./inp_files/292505.got.cif
#   From: 2010.05.17/outbox.cif.g08.bks.cpg/sg2_147_cif.got.tgz:292505.got - 2010.06.03 11:33:40.
