data_PCOD9009518
_publ_section_title
;
Structure prediction by ZEFSAII (Michael W. Deem and Ramdas Pophale) SiO2 
 PCOD9009518
Probable space group: P -1
;
_chemical_formula_sum "Si O2"
_cell_formula_units_Z 12
_cell_length_a 10.197871
_cell_length_b 15.942319
_cell_length_c 13.409808
_cell_angle_alpha 37.739209
_cell_angle_beta 45.482908
_cell_angle_gamma 26.448109
_cell_volume 594.129815
_symmetry_space_group_name_H-M "P -1"
_symmetry_group_IT_number 2
_symmetry_cell_setting 'triclinic'
loop_
_space_group_symop_operation_xyz
x,y,z
-x,-y,-z
loop_
_atom_site_type_symbol
_atom_site_label
_atom_site_fract_x
_atom_site_fract_y
_atom_site_fract_z
Si Si1 0.567415 0.691442 0.803247
Si Si2 0.211664 0.715951 0.836632
Si Si3 0.738077 0.336887 0.770276
Si Si4 0.058580 0.519123 0.563978
Si Si5 0.428902 0.975107 0.167870
Si Si6 0.356251 0.910851 0.923175
O O1 0.287332 0.796230 0.794199
O O2 0.467498 0.822443 0.834394
O O3 0.772437 0.660336 0.651129
O O4 0.748013 0.449809 0.967650
O O5 0.468989 0.560926 0.762761
O O6 0.892704 0.903242 0.782400
O O7 0.849279 0.376119 0.591028
O O8 0.643445 0.238305 0.884664
O O9 0.016216 0.156108 0.866766
O O10 0.325067 0.276590 0.695150
O O11 0.000000 0.500000 0.500000
O O12 0.450619 0.088237 0.127047
O O13 0.500000 0.000000 0.000000
#
# Coordination Sequence:
#
# PCOD9009518 Si02
#       6
#     2   2   2   2   2   2
#     4  10  21  39  69  95 128 174 217 259 318 396
#     4  10  21  40  66  95 128 174 217 256 326 392
#     4  10  22  41  68  90 130 168 219 257 319 382
#     4  12  22  44  67  98 130 173 215 266 323 387
#     4  12  25  42  69  97 130 172 218 267 324 385
#     4  10  23  42  68  95 126 177 218 260 322 389
#
# _framework density 20.197604999999999
#
# number of rings (size 3 to 8) (size 9 to 14) (size 15 to 20)
#    0.000    1.333    5.000    0.000    7.000    4.000 
#    0.000    0.833    0.000    0.000    0.000    0.000 
#    0.000    0.000    0.000    0.000    0.000    0.000 
#
# Total GULP energy -67097.116535 kJ/mol
# GULP energy per Si atom -5591.426378 kJ/mol
# Density = 2.015163 g / cm^3
# Si number density = 20.197605 Si / 1000 Ang^3
#
#
#
# Elastic Constant Matrix: (Units=GPa)
#
#
# Indices 1 2 3 4 5 6 
#
# 1 143.8894 68.3569 37.0474 -1.2339 -5.8306 -12.1155
# 2 68.3569 113.3902 40.9146 19.5890 6.1797 -10.7704
# 3 37.0474 40.9146 109.1646 15.3629 -14.0597 -8.4756
# 4 -1.2339 19.5890 15.3629 37.6597 -10.4418 1.4249
# 5 -5.8306 6.1797 -14.0597 -10.4418 22.5450 -5.0541
# 6 -12.1155 -10.7704 -8.4756 1.4249 -5.0541 25.1891
#
#
#
# Elastic Compliance Matrix: (Units=1/GPa)
#
#
# Indices 1 2 3 4 5 6 
#
# 1 0.011771 -0.008396 -0.000433 0.007364 0.009240 0.003363
# 2 -0.008396 0.018450 -0.004342 -0.012457 -0.015719 -0.000060
# 3 -0.000433 -0.004342 0.012548 -0.000351 0.009664 0.004116
# 4 0.007364 -0.012457 -0.000351 0.039981 0.023752 0.000602
# 5 0.009240 -0.015719 0.009664 0.023752 0.071202 0.013917
# 6 0.003363 -0.000060 0.004116 0.000602 0.013917 0.045435
#
#
# Mechanical properties :
#
#
# Convention : Reuss Voigt Hill
#
# Bulk Modulus (GPa) = 60.87281 73.23133 67.05207
# Shear Modulus (GPa) = 21.62578 31.75377 26.68977
#
# Velocity S-wave (km/s) = 3.27572 3.96934 3.63910
# Velocity P-wave (km/s) = 6.67167 7.57256 7.13635
#
# Compressibility (1/GPa) = 0.01642770
#
# Stress axis : x y z
#
# Youngs Moduli (GPa) = 84.95652 54.19926 79.69155
#
# Poissons Ratio (x) = 0.45506 0.03451
# Poissons Ratio (y) = 0.71330 0.34601
# Poissons Ratio (z) = 0.03679 0.23532
#
# Static dielectric constant tensor:
#      x y z
#    x 1.712690 0.003040 -0.017140 
#    y 0.003040 1.715150 0.004570 
#    z -0.017140 0.004570 1.727190 
# 
# From -- ./inp_files/145946.got.cif
#   From: 2010.05.17/outbox.cif.g08.bks.cpg/sg2_73_cif.got.tgz:145946.got - 2010.06.03 11:33:40.
