data_PCOD9009738
_publ_section_title
;
Structure prediction by ZEFSAII (Michael W. Deem and Ramdas Pophale) SiO2 
 PCOD9009738
Probable space group: P -1
;
_chemical_formula_sum "Si O2"
_cell_formula_units_Z 14
_cell_length_a 11.257258
_cell_length_b 16.724002
_cell_length_c 9.367496
_cell_angle_alpha 39.943490
_cell_angle_beta 78.620270
_cell_angle_gamma 47.094722
_cell_volume 600.062773
_symmetry_space_group_name_H-M "P -1"
_symmetry_group_IT_number 2
_symmetry_cell_setting 'triclinic'
loop_
_space_group_symop_operation_xyz
x,y,z
-x,-y,-z
loop_
_atom_site_type_symbol
_atom_site_label
_atom_site_fract_x
_atom_site_fract_y
_atom_site_fract_z
Si Si1 0.048781 0.294673 0.881998
Si Si2 0.489144 0.702422 0.146732
Si Si3 0.628373 0.314552 0.513460
Si Si4 0.261071 0.198615 0.706558
Si Si5 0.771122 0.335123 0.059588
Si Si6 0.453064 0.077980 0.242350
Si Si7 0.960734 0.957239 0.353381
O O1 0.123411 0.216623 0.806420
O O2 0.871282 0.559837 0.570128
O O3 0.263216 0.153283 0.116922
O O4 0.931190 0.280529 0.999770
O O5 0.582196 0.493635 0.342499
O O6 0.467845 0.695555 0.330254
O O7 0.615969 0.717669 0.047887
O O8 0.233334 0.940195 0.828081
O O9 0.889669 0.085985 0.726427
O O10 0.483556 0.417645 0.262712
O O11 0.322809 0.129123 0.622982
O O12 0.500000 0.000000 0.000000
O O13 0.853909 0.279684 0.277173
O O14 0.823443 0.151662 0.240476
O O15 0.500000 0.000000 0.500000
#
# Coordination Sequence:
#
# PCOD9009738 Si02
#       7
#     2   2   2   2   2   2   2
#     4  10  22  40  62  89 124 159 204 250 304 365
#     4  10  23  39  58  88 122 154 207 241 299 369
#     4  10  22  38  61  88 117 160 200 250 300 351
#     4   9  22  39  58  87 117 160 204 245 302 356
#     4  10  22  36  63  90 118 153 205 247 295 365
#     4  11  24  40  62  92 126 163 203 252 309 371
#     4  10  21  40  58  89 121 159 195 248 306 349
#
# _framework density 23.330891000000001
#
# number of rings (size 3 to 8) (size 9 to 14) (size 15 to 20)
#    0.000    2.000    0.000    1.714    8.000    4.000 
#    0.000    0.000    0.000    0.000    0.000    0.000 
#    0.000    0.000    0.000    0.000    0.000    0.000 
#
# Total GULP energy -78208.197583 kJ/mol
# GULP energy per Si atom -5586.299827 kJ/mol
# Density = 2.327779 g / cm^3
# Si number density = 23.330891 Si / 1000 Ang^3
#
#
#
# Elastic Constant Matrix: (Units=GPa)
#
#
# Indices 1 2 3 4 5 6 
#
# 1 42.9331 6.5060 0.2754 -6.5942 3.3152 -6.3671
# 2 6.5060 114.1547 28.3212 16.5460 -5.2214 -4.2174
# 3 0.2754 28.3212 50.2436 15.7230 12.8926 16.2335
# 4 -6.5942 16.5460 15.7230 35.4119 -4.9252 0.6084
# 5 3.3152 -5.2214 12.8926 -4.9252 36.1530 0.6762
# 6 -6.3671 -4.2174 16.2335 0.6084 0.6762 24.1548
#
#
#
# Elastic Compliance Matrix: (Units=1/GPa)
#
#
# Indices 1 2 3 4 5 6 
#
# 1 0.026088 -0.000872 -0.005305 0.007476 0.000203 0.010096
# 2 -0.000872 0.012255 -0.011307 -0.000239 0.005675 0.009356
# 3 -0.005305 -0.011307 0.049301 -0.019875 -0.020773 -0.035424
# 4 0.007476 -0.000239 -0.019875 0.039934 0.011547 0.013957
# 5 0.000203 0.005675 -0.020773 0.011547 0.037186 0.013673
# 6 0.010096 0.009356 -0.035424 0.013957 0.013673 0.068767
#
#
# Mechanical properties :
#
#
# Convention : Reuss Voigt Hill
#
# Bulk Modulus (GPa) = 18.98400 30.83741 24.91071
# Shear Modulus (GPa) = 17.47900 30.62586 24.05243
#
# Velocity S-wave (km/s) = 2.74008 3.62702 3.21429
# Velocity P-wave (km/s) = 4.26207 5.54855 4.94731
#
# Compressibility (1/GPa) = 0.05267593
#
# Stress axis : x y z
#
# Youngs Moduli (GPa) = 38.33192 81.60001 20.28354
#
# Poissons Ratio (x) = 0.07115 0.10760
# Poissons Ratio (y) = 0.03342 0.22935
# Poissons Ratio (z) = 0.20335 0.92266
#
# Static dielectric constant tensor:
#      x y z
#    x 1.892170 0.004490 -0.023360 
#    y 0.004490 1.885950 0.009830 
#    z -0.023360 0.009830 1.935600 
# 
# From -- ./inp_files/69519.got.cif
#   From: 2010.05.17/outbox.cif.g08.bks.cpg/sg2_35_cif.got.tgz:69519.got - 2010.06.03 11:33:40.
