data_PCOD9009588
_publ_section_title
;
Structure prediction by ZEFSAII (Michael W. Deem and Ramdas Pophale) SiO2 
 PCOD9009588
Probable space group: P -1
;
_chemical_formula_sum "Si O2"
_cell_formula_units_Z 16
_cell_length_a 22.115353
_cell_length_b 12.286671
_cell_length_c 14.888949
_cell_angle_alpha 150.674146
_cell_angle_beta 151.478693
_cell_angle_gamma 37.195793
_cell_volume 938.028816
_symmetry_space_group_name_H-M "P -1"
_symmetry_group_IT_number 2
_symmetry_cell_setting 'triclinic'
loop_
_space_group_symop_operation_xyz
x,y,z
-x,-y,-z
loop_
_atom_site_type_symbol
_atom_site_label
_atom_site_fract_x
_atom_site_fract_y
_atom_site_fract_z
Si Si1 0.813157 0.891001 0.742845
Si Si2 0.161715 0.156368 0.050185
Si Si3 0.132121 0.662655 0.439453
Si Si4 0.032006 0.731969 0.803578
Si Si5 0.161903 0.240351 0.581279
Si Si6 0.930437 0.952576 0.503329
Si Si7 0.366471 0.322411 0.765925
Si Si8 0.333801 0.746592 0.911579
O O1 0.816216 0.916704 0.870591
O O2 0.684006 0.824171 0.486071
O O3 0.928824 0.705168 0.727065
O O4 0.862944 0.108983 0.922353
O O5 0.140586 0.426962 0.227497
O O6 0.040443 0.068895 0.781828
O O7 0.279433 0.006283 0.045719
O O8 0.138711 0.863832 0.522387
O O9 0.247599 0.655796 0.656124
O O10 0.003551 0.748707 0.391771
O O11 0.106448 0.496906 0.707856
O O12 0.944845 0.834559 0.679963
O O13 0.292369 0.245419 0.700534
O O14 0.158521 0.122295 0.587693
O O15 0.324958 0.581733 0.867781
O O16 0.518054 0.282750 0.942628
#
# Coordination Sequence:
#
# PCOD9009588 Si02
#       8
#     2   2   2   2   2   2   2   2
#     4  10  17  29  49  80 109 135 165 215 268 324
#     4  11  19  33  57  80 106 140 175 219 266 316
#     4  10  21  38  55  80 109 140 178 222 262 314
#     4   9  18  27  48  80 112 133 162 211 283 324
#     4  10  18  32  52  77 108 139 169 219 268 319
#     4  10  21  35  58  83 107 137 177 218 273 319
#     4  10  21  36  52  78 112 141 179 220 259 316
#     4  10  22  38  54  76 109 146 181 219 258 309
#
# _framework density 17.057044999999999
#
# number of rings (size 3 to 8) (size 9 to 14) (size 15 to 20)
#    0.000    2.000    2.500    1.875    7.000    0.500 
#    2.250    0.625    0.000    0.750    0.000    0.000 
#    0.000    0.000    0.000    0.000    0.000    0.000 
#
# Total GULP energy -89068.749502 kJ/mol
# GULP energy per Si atom -5566.796844 kJ/mol
# Density = 1.701822 g / cm^3
# Si number density = 17.057045 Si / 1000 Ang^3
#
#
#
# Elastic Constant Matrix: (Units=GPa)
#
#
# Indices 1 2 3 4 5 6 
#
# 1 84.3533 33.9829 11.6510 3.2887 9.7666 13.9962
# 2 33.9829 68.1975 20.1118 5.7680 12.0515 1.6400
# 3 11.6510 20.1118 42.8651 6.0114 14.4251 -8.9219
# 4 3.2887 5.7680 6.0114 22.4662 -2.4044 -2.4662
# 5 9.7666 12.0515 14.4251 -2.4044 19.0726 4.6863
# 6 13.9962 1.6400 -8.9219 -2.4662 4.6863 22.4853
#
#
#
# Elastic Compliance Matrix: (Units=1/GPa)
#
#
# Indices 1 2 3 4 5 6 
#
# 1 0.017275 -0.007310 -0.004544 -0.000576 0.002220 -0.012549
# 2 -0.007310 0.021173 -0.004498 -0.003684 -0.007271 0.002332
# 3 -0.004544 -0.004498 0.047706 -0.011993 -0.039553 0.029014
# 4 -0.000576 -0.003684 -0.011993 0.050476 0.018668 -0.002486
# 5 0.002220 -0.007271 -0.039553 0.018668 0.096669 -0.034646
# 6 -0.012549 0.002332 0.029014 -0.002486 -0.034646 0.070575
#
#
# Mechanical properties :
#
#
# Convention : Reuss Voigt Hill
#
# Bulk Modulus (GPa) = 18.70934 36.32306 27.51620
# Shear Modulus (GPa) = 14.10857 21.44949 17.77903
#
# Velocity S-wave (km/s) = 2.87912 3.54999 3.23201
# Velocity P-wave (km/s) = 4.69521 6.17613 5.48587
#
# Compressibility (1/GPa) = 0.05344924
#
# Stress axis : x y z
#
# Youngs Moduli (GPa) = 57.88728 47.23051 20.96172
#
# Poissons Ratio (x) = 0.34525 0.09525
# Poissons Ratio (y) = 0.42315 0.09429
# Poissons Ratio (z) = 0.26304 0.21246
#
# Static dielectric constant tensor:
#      x y z
#    x 1.624790 -0.001640 -0.023490 
#    y -0.001640 1.585880 0.038480 
#    z -0.023490 0.038480 1.595260 
# 
# From -- ./inp_files/432993.got.cif
#   From: 2010.05.17/outbox.cif.g08.bks.cpg/sg2_217_cif.got.tgz:432993.got - 2010.06.03 11:33:40.
