data_PCOD9009936
_publ_section_title
;
Structure prediction by ZEFSAII (Michael W. Deem and Ramdas Pophale) SiO2 
 PCOD9009936
Probable space group: P -1
;
_chemical_formula_sum "Si O2"
_cell_formula_units_Z 14
_cell_length_a 10.579405
_cell_length_b 19.617279
_cell_length_c 12.180049
_cell_angle_alpha 41.187715
_cell_angle_beta 35.066484
_cell_angle_gamma 29.758232
_cell_volume 712.977386
_symmetry_space_group_name_H-M "P -1"
_symmetry_group_IT_number 2
_symmetry_cell_setting 'triclinic'
loop_
_space_group_symop_operation_xyz
x,y,z
-x,-y,-z
loop_
_atom_site_type_symbol
_atom_site_label
_atom_site_fract_x
_atom_site_fract_y
_atom_site_fract_z
Si Si1 0.023942 0.300737 0.938656
Si Si2 0.199091 0.157692 0.218011
Si Si3 0.175470 0.010572 0.950885
Si Si4 0.252316 0.559659 0.694130
Si Si5 0.581246 0.852207 0.365006
Si Si6 0.252708 0.426651 0.064002
Si Si7 0.321876 0.776552 0.810362
O O1 0.904245 0.445629 0.894338
O O2 0.251497 0.238912 0.751650
O O3 0.759846 0.309913 0.073885
O O4 0.167495 0.196926 0.066065
O O5 0.908242 0.287164 0.330587
O O6 0.487467 0.127669 0.097530
O O7 0.290751 0.009746 0.347663
O O8 0.215140 0.120362 0.759852
O O9 0.986599 0.071550 0.123090
O O10 0.000000 0.000000 0.000000
O O11 0.500000 0.500000 0.500000
O O12 0.993311 0.573215 0.807277
O O13 0.363769 0.460467 0.841302
O O14 0.502734 0.787223 0.582999
O O15 0.503871 0.290678 0.118388
#
# Coordination Sequence:
#
# PCOD9009936 Si02
#       7
#     2   2   2   2   2   2   2
#     4  10  21  40  61  84 125 164 196 251 298 340
#     4   9  20  42  60  89 123 149 207 250 290 364
#     4   9  20  39  58  86 121 159 190 249 302 343
#     4  10  22  43  65  88 115 162 202 251 302 347
#     4   9  22  37  59  94 118 156 200 244 298 366
#     4  10  23  41  61  90 124 155 207 248 288 368
#     4  11  22  38  59  92 123 159 198 242 307 356
#
# _framework density 19.635966
#
# number of rings (size 3 to 8) (size 9 to 14) (size 15 to 20)
#    0.857    1.429    0.000    1.714    0.000    6.286 
#   10.286    0.000    0.000    0.000    0.000    0.000 
#    0.000    0.000    0.000    0.000    0.000    0.000 
#
# Total GULP energy -78062.738160 kJ/mol
# GULP energy per Si atom -5575.909869 kJ/mol
# Density = 1.959127 g / cm^3
# Si number density = 19.635966 Si / 1000 Ang^3
#
#
#
# Elastic Constant Matrix: (Units=GPa)
#
#
# Indices 1 2 3 4 5 6 
#
# 1 56.9899 13.7322 20.7747 5.9603 12.5564 -3.8104
# 2 13.7322 72.3753 60.3015 13.1541 18.9429 1.7168
# 3 20.7747 60.3015 135.2362 22.5765 22.8193 1.3185
# 4 5.9603 13.1541 22.5765 18.4744 4.6573 4.8312
# 5 12.5564 18.9429 22.8193 4.6573 15.5655 -2.1678
# 6 -3.8104 1.7168 1.3185 4.8312 -2.1678 36.6372
#
#
#
# Elastic Compliance Matrix: (Units=1/GPa)
#
#
# Indices 1 2 3 4 5 6 
#
# 1 0.021646 0.001378 -0.000477 -0.003485 -0.017166 0.001648
# 2 0.001378 0.026140 -0.007692 -0.004064 -0.020638 -0.001490
# 3 -0.000477 -0.007692 0.013725 -0.009419 -0.007470 0.000617
# 4 -0.003485 -0.004064 -0.009419 0.072502 -0.001447 -0.009479
# 5 -0.017166 -0.020638 -0.007470 -0.001447 0.115495 0.006475
# 6 0.001648 -0.001490 0.000617 -0.009479 0.006475 0.029147
#
#
# Mechanical properties :
#
#
# Convention : Reuss Voigt Hill
#
# Bulk Modulus (GPa) = 20.86482 50.46868 35.66675
# Shear Modulus (GPa) = 16.22263 25.45496 20.83879
#
# Velocity S-wave (km/s) = 2.87743 3.60438 3.26123
# Velocity P-wave (km/s) = 4.65708 6.56354 5.69071
#
# Compressibility (1/GPa) = 0.04792756
#
# Stress axis : x y z
#
# Youngs Moduli (GPa) = 46.19843 38.25577 72.86205
#
# Poissons Ratio (x) = -0.05271 0.03478
# Poissons Ratio (y) = -0.06366 0.56045
# Poissons Ratio (z) = 0.02205 0.29426
#
# Static dielectric constant tensor:
#      x y z
#    x 1.696260 0.003170 -0.014680 
#    y 0.003170 1.717810 -0.001820 
#    z -0.014680 -0.001820 1.650070 
# 
# From -- ./inp_files/71846.got.cif
#   From: 2010.05.17/outbox.cif.g08.bks.cpg/sg2_36_cif.got.tgz:71846.got - 2010.06.03 11:33:40.
