data_PCOD9009473
_publ_section_title
;
Structure prediction by ZEFSAII (Michael W. Deem and Ramdas Pophale) SiO2 
 PCOD9009473
Probable space group: P -1
;
_chemical_formula_sum "Si O2"
_cell_formula_units_Z 12
_cell_length_a 16.550204
_cell_length_b 6.918779
_cell_length_c 8.233744
_cell_angle_alpha 95.981760
_cell_angle_beta 123.125524
_cell_angle_gamma 47.513095
_cell_volume 525.990329
_symmetry_space_group_name_H-M "P -1"
_symmetry_group_IT_number 2
_symmetry_cell_setting 'triclinic'
loop_
_space_group_symop_operation_xyz
x,y,z
-x,-y,-z
loop_
_atom_site_type_symbol
_atom_site_label
_atom_site_fract_x
_atom_site_fract_y
_atom_site_fract_z
Si Si1 0.944744 0.390400 0.842006
Si Si2 0.156149 0.537161 0.617348
Si Si3 0.618095 0.507104 0.306689
Si Si4 0.351442 0.335981 0.332234
Si Si5 0.825703 0.203377 0.075104
Si Si6 0.307127 0.943698 0.875072
O O1 0.927146 0.416822 0.628255
O O2 0.788240 0.578272 0.759828
O O3 0.064714 0.042094 0.960083
O O4 0.000000 0.500000 0.000000
O O5 0.282559 0.483054 0.674855
O O6 0.092808 0.774020 0.708061
O O7 0.211461 0.267024 0.749221
O O8 0.642568 0.492441 0.522280
O O9 0.653757 0.240503 0.257281
O O10 0.454012 0.795111 0.105141
O O11 0.500000 0.000000 0.500000
O O12 0.309310 0.478882 0.122027
O O13 0.764809 0.105857 0.090548
#
# Coordination Sequence:
#
# PCOD9009473 Si02
#       6
#     2   2   2   2   2   2
#     4  11  27  46  69 104 138 183 227 280 345 405
#     4  10  22  44  69  93 139 181 230 273 342 403
#     4   9  21  39  64 100 137 177 226 285 336 395
#     4  11  25  46  72  97 142 182 227 283 344 399
#     4  11  25  44  70 103 140 176 228 285 341 404
#     4  10  21  39  69 103 132 180 231 278 337 407
#
# _framework density 22.814108000000001
#
# number of rings (size 3 to 8) (size 9 to 14) (size 15 to 20)
#    0.000    1.667    0.000    2.500    7.000    8.000 
#    3.000    0.000    0.000    0.000    0.000    0.000 
#    0.000    0.000    0.000    0.000    0.000    0.000 
#
# Total GULP energy -67071.423688 kJ/mol
# GULP energy per Si atom -5589.285307 kJ/mol
# Density = 2.276218 g / cm^3
# Si number density = 22.814108 Si / 1000 Ang^3
#
#
#
# Elastic Constant Matrix: (Units=GPa)
#
#
# Indices 1 2 3 4 5 6 
#
# 1 21.1786 30.8702 25.2911 3.5417 8.5891 -5.4091
# 2 30.8702 103.6913 64.1726 -3.2401 2.9016 12.3206
# 3 25.2911 64.1726 133.3807 21.9320 13.6431 13.3121
# 4 3.5417 -3.2401 21.9320 45.9885 -0.7490 5.9633
# 5 8.5891 2.9016 13.6431 -0.7490 34.3058 -7.2719
# 6 -5.4091 12.3206 13.3121 5.9633 -7.2719 23.4313
#
#
#
# Elastic Compliance Matrix: (Units=1/GPa)
#
#
# Indices 1 2 3 4 5 6 
#
# 1 0.157256 -0.050797 -0.006535 -0.021482 -0.018885 0.066331
# 2 -0.050797 0.031592 -0.005725 0.012359 0.007074 -0.026036
# 3 -0.006535 -0.005725 0.013513 -0.005617 -0.004691 -0.006202
# 4 -0.021482 0.012359 -0.005617 0.028873 0.004161 -0.014324
# 5 -0.018885 0.007074 -0.004691 0.004161 0.036249 0.004777
# 6 0.066331 -0.026036 -0.006202 -0.014324 0.004777 0.080332
#
#
# Mechanical properties :
#
#
# Convention : Reuss Voigt Hill
#
# Bulk Modulus (GPa) = 13.11517 55.43538 34.27527
# Shear Modulus (GPa) = 10.01313 29.93960 19.97637
#
# Velocity S-wave (km/s) = 2.09727 3.62654 2.96229
# Velocity P-wave (km/s) = 3.40968 6.47203 5.17267
#
# Compressibility (1/GPa) = 0.07624757
#
# Stress axis : x y z
#
# Youngs Moduli (GPa) = 6.35905 31.65375 74.00179
#
# Poissons Ratio (x) = 1.60792 0.48358
# Poissons Ratio (y) = 0.32302 0.42365
# Poissons Ratio (z) = 0.04155 0.18122
#
# Static dielectric constant tensor:
#      x y z
#    x 1.849640 -0.052780 -0.017350 
#    y -0.052780 1.853080 -0.008910 
#    z -0.017350 -0.008910 1.895890 
# 
# From -- ./inp_files/34383.got.cif
#   From: 2010.05.17/outbox.cif.g08.bks.cpg/sg2_18_cif.got.tgz:34383.got - 2010.06.03 11:33:40.
