data_PCOD9009405
_publ_section_title
;
Structure prediction by ZEFSAII (Michael W. Deem and Ramdas Pophale) SiO2 
 PCOD9009405
Probable space group: P -1
;
_chemical_formula_sum "Si O2"
_cell_formula_units_Z 16
_cell_length_a 16.999052
_cell_length_b 8.548842
_cell_length_c 8.331363
_cell_angle_alpha 50.575406
_cell_angle_beta 66.697285
_cell_angle_gamma 97.040352
_cell_volume 730.060676
_symmetry_space_group_name_H-M "P -1"
_symmetry_group_IT_number 2
_symmetry_cell_setting 'triclinic'
loop_
_space_group_symop_operation_xyz
x,y,z
-x,-y,-z
loop_
_atom_site_type_symbol
_atom_site_label
_atom_site_fract_x
_atom_site_fract_y
_atom_site_fract_z
Si Si1 0.635964 0.847837 0.373885
Si Si2 0.333123 0.352328 0.814312
Si Si3 0.947444 0.583188 0.855300
Si Si4 0.782816 0.062005 0.390150
Si Si5 0.612807 0.200692 0.978790
Si Si6 0.559016 0.435776 0.116222
Si Si7 0.123103 0.036043 0.318782
Si Si8 0.629127 0.164549 0.620738
O O1 0.615872 0.647834 0.391948
O O2 0.532902 0.793997 0.573926
O O3 0.715845 0.883804 0.418788
O O4 0.665760 0.069590 0.093159
O O5 0.391893 0.362674 0.919344
O O6 0.341467 0.603530 0.658604
O O7 0.219455 0.135686 0.061865
O O8 0.911556 0.771290 0.801837
O O9 0.852089 0.318267 0.077471
O O10 0.034932 0.759345 0.544106
O O11 0.000000 0.500000 0.000000
O O12 0.705507 0.090016 0.546441
O O13 0.840302 0.976274 0.519052
O O14 0.646926 0.251579 0.734264
O O15 0.630554 0.391526 0.976145
O O16 0.489813 0.030086 0.177273
O O17 0.500000 0.500000 0.000000
#
# Coordination Sequence:
#
# PCOD9009405 Si02
#       8
#     2   2   2   2   2   2   2   2
#     4  12  24  39  57  90 127 169 215 258 304 369
#     4  12  24  39  60  90 127 169 211 263 312 369
#     4   9  20  40  70  98 121 157 205 259 324 382
#     4  11  21  41  65  94 127 169 209 257 317 375
#     4  11  24  38  57  86 126 172 218 260 306 362
#     4  12  24  38  58  86 124 171 214 259 310 365
#     4  10  21  39  68  97 123 157 209 261 318 383
#     4  11  22  39  60  87 126 172 215 261 310 364
#
# _framework density 21.915986
#
# number of rings (size 3 to 8) (size 9 to 14) (size 15 to 20)
#    0.000    1.000    3.750    3.750    3.500    0.000 
#    0.000    0.625    0.000    6.750    0.000    0.000 
#    0.000    0.000    0.000    0.000    0.000    0.000 
#
# Total GULP energy -89147.897120 kJ/mol
# GULP energy per Si atom -5571.743570 kJ/mol
# Density = 2.186610 g / cm^3
# Si number density = 21.915986 Si / 1000 Ang^3
#
#
#
# Elastic Constant Matrix: (Units=GPa)
#
#
# Indices 1 2 3 4 5 6 
#
# 1 90.0814 33.3263 20.3026 2.0800 18.0714 -9.3745
# 2 33.3263 85.9335 11.6945 14.6621 7.9920 11.4906
# 3 20.3026 11.6945 106.1723 -10.9530 -5.5111 7.7026
# 4 2.0800 14.6621 -10.9530 33.8200 -4.0328 9.2392
# 5 18.0714 7.9920 -5.5111 -4.0328 38.9844 -8.7712
# 6 -9.3745 11.4906 7.7026 9.2392 -8.7712 28.0918
#
#
#
# Elastic Compliance Matrix: (Units=1/GPa)
#
#
# Indices 1 2 3 4 5 6 
#
# 1 0.015971 -0.005895 -0.003480 -0.002312 -0.005162 0.007844
# 2 -0.005895 0.016208 -0.000797 -0.005201 -0.002948 -0.007588
# 3 -0.003480 -0.000797 0.011293 0.005920 0.002864 -0.004985
# 4 -0.002312 -0.005201 0.005920 0.037469 0.004322 -0.011242
# 5 -0.005162 -0.002948 0.002864 0.004322 0.031070 0.006978
# 6 0.007844 -0.007588 -0.004985 -0.011242 0.006978 0.048562
#
#
# Mechanical properties :
#
#
# Convention : Reuss Voigt Hill
#
# Bulk Modulus (GPa) = 43.23788 45.87046 44.55417
# Shear Modulus (GPa) = 26.50739 34.63682 30.57211
#
# Velocity S-wave (km/s) = 3.48156 3.97978 3.73898
# Velocity P-wave (km/s) = 5.99445 6.48797 6.24609
#
# Compressibility (1/GPa) = 0.02312787
#
# Stress axis : x y z
#
# Youngs Moduli (GPa) = 62.61183 61.69960 88.55013
#
# Poissons Ratio (x) = 0.36370 0.30819
# Poissons Ratio (y) = 0.36907 0.07058
# Poissons Ratio (z) = 0.21791 0.04918
#
# Static dielectric constant tensor:
#      x y z
#    x 1.877440 0.024150 -0.004280 
#    y 0.024150 1.936290 0.003070 
#    z -0.004280 0.003070 1.930580 
# 
# From -- ./inp_files/215602.got.cif
#   From: 2010.05.17/outbox.cif.g08.bks.cpg/sg2_108_cif.got.tgz:215602.got - 2010.06.03 11:33:40.
