data_PCOD9009791
_publ_section_title
;
Structure prediction by ZEFSAII (Michael W. Deem and Ramdas Pophale) SiO2 
 PCOD9009791
Probable space group: P -1
;
_chemical_formula_sum "Si O2"
_cell_formula_units_Z 14
_cell_length_a 9.696323
_cell_length_b 5.584733
_cell_length_c 16.088939
_cell_angle_alpha 103.223987
_cell_angle_beta 80.548697
_cell_angle_gamma 139.006043
_cell_volume 556.310852
_symmetry_space_group_name_H-M "P -1"
_symmetry_group_IT_number 2
_symmetry_cell_setting 'triclinic'
loop_
_space_group_symop_operation_xyz
x,y,z
-x,-y,-z
loop_
_atom_site_type_symbol
_atom_site_label
_atom_site_fract_x
_atom_site_fract_y
_atom_site_fract_z
Si Si1 0.366267 0.458253 0.618186
Si Si2 0.116435 0.487077 0.917934
Si Si3 0.518206 0.304435 0.918800
Si Si4 0.771544 0.284431 0.639696
Si Si5 0.215521 0.249282 0.440937
Si Si6 0.204060 0.683235 0.174859
Si Si7 0.637460 0.576978 0.194544
O O1 0.204596 0.260076 0.542508
O O2 0.531578 0.456414 0.580822
O O3 0.289926 0.319265 0.708801
O O4 0.519845 0.898156 0.632945
O O5 0.179350 0.288638 0.873622
O O6 0.987009 0.405359 0.844016
O O7 0.350429 0.893924 0.934898
O O8 0.000000 0.500000 0.000000
O O9 0.745386 0.482216 0.902368
O O10 0.443109 0.285797 0.832949
O O11 0.500000 0.500000 0.000000
O O12 0.835490 0.571754 0.590104
O O13 0.828940 0.445232 0.738721
O O14 0.862642 0.127400 0.606616
O O15 0.419866 0.129084 0.185617
#
# Coordination Sequence:
#
# PCOD9009791 Si02
#       7
#     2   2   2   2   2   2   2
#     4   8  17  28  54  83 120 157 201 256 300 368
#     4  11  24  41  59  89 121 159 203 254 318 375
#     4  11  23  39  62  89 117 158 206 257 313 375
#     4   9  17  31  52  88 118 159 206 246 306 368
#     4   9  16  29  53  90 119 160 205 252 305 369
#     4  10  22  38  61  85 124 161 200 259 310 373
#     4  10  21  40  59  90 119 158 207 254 306 374
#
# _framework density 25.165787000000002
#
# number of rings (size 3 to 8) (size 9 to 14) (size 15 to 20)
#    0.857    1.429    0.000    3.000    0.000    5.714 
#    0.000    0.000    0.000    1.714    0.000    0.000 
#    0.000    0.000    0.000    0.000    0.000    0.000 
#
# Total GULP energy -78105.388298 kJ/mol
# GULP energy per Si atom -5578.956307 kJ/mol
# Density = 2.510851 g / cm^3
# Si number density = 25.165787 Si / 1000 Ang^3
#
#
#
# Elastic Constant Matrix: (Units=GPa)
#
#
# Indices 1 2 3 4 5 6 
#
# 1 113.1114 16.0329 18.7460 -12.2015 -5.9797 -9.8409
# 2 16.0329 76.7792 18.0179 -20.6586 3.0991 1.7127
# 3 18.7460 18.0179 110.3620 -13.2468 7.1747 -5.0748
# 4 -12.2015 -20.6586 -13.2468 32.0489 -1.7459 4.3963
# 5 -5.9797 3.0991 7.1747 -1.7459 37.8400 -5.7183
# 6 -9.8409 1.7127 -5.0748 4.3963 -5.7183 27.4337
#
#
#
# Elastic Compliance Matrix: (Units=1/GPa)
#
#
# Indices 1 2 3 4 5 6 
#
# 1 0.009910 -0.001435 -0.001209 0.001989 0.002554 0.003634
# 2 -0.001435 0.016447 -0.001326 0.009934 -0.001419 -0.003675
# 3 -0.001209 -0.001326 0.009941 0.002602 -0.001740 0.000708
# 4 0.001989 0.009934 0.002602 0.040244 -0.000024 -0.005880
# 5 0.002554 -0.001419 -0.001740 -0.000024 0.028270 0.006579
# 6 0.003634 -0.003675 0.000708 -0.005880 0.006579 0.040429
#
#
# Mechanical properties :
#
#
# Convention : Reuss Voigt Hill
#
# Bulk Modulus (GPa) = 35.26201 45.09402 40.17801
# Shear Modulus (GPa) = 30.74379 35.96156 33.35268
#
# Velocity S-wave (km/s) = 3.49900 3.78429 3.64444
# Velocity P-wave (km/s) = 5.51057 6.08705 5.80597
#
# Compressibility (1/GPa) = 0.02835913
#
# Stress axis : x y z
#
# Youngs Moduli (GPa) = 100.90418 60.80014 100.59376
#
# Poissons Ratio (x) = 0.08723 0.12165
# Poissons Ratio (y) = 0.14476 0.13337
# Poissons Ratio (z) = 0.12203 0.08061
#
# Static dielectric constant tensor:
#      x y z
#    x 2.030600 0.014090 -0.075340 
#    y 0.014090 2.003710 0.038690 
#    z -0.075340 0.038690 2.063710 
# 
# From -- ./inp_files/552937.got.cif
#   From: 2010.05.17/outbox.cif.g08.bks.cpg/sg2_277_cif.got.tgz:552937.got - 2010.06.03 11:33:40.
