data_PCOD9009009
_publ_section_title
;
Structure prediction by ZEFSAII (Michael W. Deem and Ramdas Pophale) SiO2 
 PCOD9009009
Probable space group: P -1
;
_chemical_formula_sum "Si O2"
_cell_formula_units_Z 16
_cell_length_a 7.632146
_cell_length_b 8.509159
_cell_length_c 13.541596
_cell_angle_alpha 48.136548
_cell_angle_beta 69.862004
_cell_angle_gamma 80.680164
_cell_volume 612.008920
_symmetry_space_group_name_H-M "P -1"
_symmetry_group_IT_number 2
_symmetry_cell_setting 'triclinic'
loop_
_space_group_symop_operation_xyz
x,y,z
-x,-y,-z
loop_
_atom_site_type_symbol
_atom_site_label
_atom_site_fract_x
_atom_site_fract_y
_atom_site_fract_z
Si Si1 0.772840 0.642283 0.061995
Si Si2 0.253517 0.911502 0.477886
Si Si3 0.162776 0.886226 0.093402
Si Si4 0.666716 0.013623 0.195805
Si Si5 0.437135 0.656861 0.271293
Si Si6 0.683473 0.804057 0.465727
Si Si7 0.986140 0.530530 0.765510
Si Si8 0.668387 0.736704 0.821890
O O1 0.697876 0.660895 0.958520
O O2 0.867313 0.879692 0.965316
O O3 0.599240 0.594869 0.191189
O O4 0.921939 0.486177 0.136235
O O5 0.462184 0.838662 0.480444
O O6 0.103558 0.715170 0.607164
O O7 0.245774 0.081762 0.495901
O O8 0.226545 0.037033 0.328816
O O9 0.317133 0.809315 0.168491
O O10 0.003247 0.691738 0.198799
O O11 0.239579 0.911173 0.956248
O O12 0.543813 0.203362 0.174947
O O13 0.536204 0.801722 0.276724
O O14 0.778314 0.933331 0.300741
O O15 0.315301 0.448077 0.421750
O O16 0.769259 0.573102 0.803284
#
# Coordination Sequence:
#
# PCOD9009009 Si02
#       8
#     2   2   2   2   2   2   2   2
#     4  11  22  43  63  95 129 164 213 260 313 373
#     4  10  23  43  60  93 129 166 209 261 315 373
#     4  11  23  42  66  95 128 169 205 265 311 376
#     4  10  21  39  66  97 126 161 217 259 309 371
#     4  11  19  41  69  93 125 166 211 261 312 374
#     4  10  21  39  68  92 125 163 212 264 311 374
#     4  12  25  41  64  91 133 170 207 258 321 370
#     4  11  22  41  65  90 130 167 206 264 308 372
#
# _framework density 26.143409999999999
#
# number of rings (size 3 to 8) (size 9 to 14) (size 15 to 20)
#    0.000    1.250    3.750    3.000    0.000    2.500 
#    2.250    0.625    0.000    0.000    0.000    0.000 
#    0.000    0.000    0.000    0.000    0.000    0.000 
#
# Total GULP energy -89597.302559 kJ/mol
# GULP energy per Si atom -5599.831410 kJ/mol
# Density = 2.608391 g / cm^3
# Si number density = 26.143410 Si / 1000 Ang^3
#
#
#
# Elastic Constant Matrix: (Units=GPa)
#
#
# Indices 1 2 3 4 5 6 
#
# 1 36.4761 -2.7240 16.9786 4.1151 8.0496 0.9983
# 2 -2.7240 54.3689 44.6058 -3.2903 -3.9004 1.1192
# 3 16.9786 44.6058 182.0740 -10.7905 10.2571 14.9850
# 4 4.1151 -3.2903 -10.7905 43.9859 13.0461 3.0078
# 5 8.0496 -3.9004 10.2571 13.0461 44.4299 -6.3659
# 6 0.9983 1.1192 14.9850 3.0078 -6.3659 26.7600
#
#
#
# Elastic Compliance Matrix: (Units=1/GPa)
#
#
# Indices 1 2 3 4 5 6 
#
# 1 0.030587 0.004311 -0.003883 -0.002475 -0.003497 0.000299
# 2 0.004311 0.024512 -0.007069 -0.001788 0.004093 0.003947
# 3 -0.003883 -0.007069 0.008447 0.003368 -0.003649 -0.005536
# 4 -0.002475 -0.001788 0.003368 0.026921 -0.009391 -0.006979
# 5 -0.003497 0.004093 -0.003649 -0.009391 0.028510 0.009841
# 6 0.000299 0.003947 -0.005536 -0.006979 0.009841 0.043418
#
#
# Mechanical properties :
#
#
# Convention : Reuss Voigt Hill
#
# Bulk Modulus (GPa) = 19.89409 43.40442 31.64926
# Shear Modulus (GPa) = 25.98325 37.30574 31.64449
#
# Velocity S-wave (km/s) = 3.15600 3.78162 3.48288
# Velocity P-wave (km/s) = 4.57237 5.97545 5.32036
#
# Compressibility (1/GPa) = 0.05026618
#
# Stress axis : x y z
#
# Youngs Moduli (GPa) = 32.69337 40.79571 118.38725
#
# Poissons Ratio (x) = -0.17588 0.45967
# Poissons Ratio (y) = -0.14095 0.83683
# Poissons Ratio (z) = 0.12694 0.28837
#
# Static dielectric constant tensor:
#      x y z
#    x 2.126580 -0.039100 -0.040700 
#    y -0.039100 2.049060 0.023100 
#    z -0.040700 0.023100 2.012060 
# 
# From -- ./inp_files/227377.got.cif
#   From: 2010.05.17/outbox.cif.g08.bks.cpg/sg2_114_cif.got.tgz:227377.got - 2010.06.03 11:33:40.
