data_PCOD9009429
_publ_section_title
;
Structure prediction by ZEFSAII (Michael W. Deem and Ramdas Pophale) SiO2 
 PCOD9009429
Probable space group: P -1
;
_chemical_formula_sum "Si O2"
_cell_formula_units_Z 15
_cell_length_a 9.476151
_cell_length_b 8.679535
_cell_length_c 7.803996
_cell_angle_alpha 93.256601
_cell_angle_beta 103.601042
_cell_angle_gamma 61.215761
_cell_volume 545.581186
_symmetry_space_group_name_H-M "P -1"
_symmetry_group_IT_number 2
_symmetry_cell_setting 'triclinic'
loop_
_space_group_symop_operation_xyz
x,y,z
-x,-y,-z
loop_
_atom_site_type_symbol
_atom_site_label
_atom_site_fract_x
_atom_site_fract_y
_atom_site_fract_z
Si Si1 0.000000 0.000000 0.000000
Si Si2 0.697919 0.293869 0.161772
Si Si3 0.150776 0.249555 0.112348
Si Si4 0.252393 0.787517 0.226401
Si Si5 0.641195 0.659225 0.011648
Si Si6 0.158522 0.633308 0.471461
Si Si7 0.825550 0.729163 0.502175
Si Si8 0.500710 0.078864 0.715002
O O1 0.914039 0.033269 0.778917
O O2 0.941777 0.841581 0.009825
O O3 0.656743 0.488395 0.102436
O O4 0.789156 0.267972 0.364868
O O5 0.780276 0.189014 0.995959
O O6 0.529834 0.283157 0.137364
O O7 0.087953 0.306602 0.289802
O O8 0.345146 0.101538 0.191746
O O9 0.185980 0.389759 0.031866
O O10 0.248891 0.634548 0.321214
O O11 0.413336 0.803209 0.307739
O O12 0.603438 0.816274 0.141062
O O13 0.208543 0.436107 0.533394
O O14 0.960208 0.723529 0.409530
O O15 0.647004 0.902473 0.448447
#
# Coordination Sequence:
#
# PCOD9009429 Si02
#       8
#     1   2   2   2   2   2   2   2
#     4  10  24  44  62  92 132 164 232 260 316 404
#     4  10  21  42  65 103 132 163 227 269 316 411
#     4  11  23  41  69  91 129 182 213 274 332 385
#     4  10  23  42  68  93 130 183 209 275 332 381
#     4  10  21  39  68  98 129 170 215 274 333 377
#     4  11  24  42  67  95 137 173 215 276 336 380
#     4  11  24  41  61 102 130 166 227 273 319 406
#     4  10  22  42  61  97 133 165 227 267 318 402
#
# _framework density 27.493617
#
# number of rings (size 3 to 8) (size 9 to 14) (size 15 to 20)
#    0.000    1.600    1.333    2.400    3.733    0.533 
#    0.000    6.667    0.000    0.000    0.000    0.000 
#    0.000    0.000    0.000    0.000    0.000    0.000 
#
# Total GULP energy -83709.310654 kJ/mol
# GULP energy per Si atom -5580.620710 kJ/mol
# Density = 2.743104 g / cm^3
# Si number density = 27.493617 Si / 1000 Ang^3
#
#
#
# Elastic Constant Matrix: (Units=GPa)
#
#
# Indices 1 2 3 4 5 6 
#
# 1 176.4880 11.9628 46.1235 -7.6461 12.1597 33.7288
# 2 11.9628 43.3664 13.7955 21.5502 -2.2275 8.1705
# 3 46.1235 13.7955 89.5057 15.7851 13.1903 22.7025
# 4 -7.6461 21.5502 15.7851 33.2812 0.6179 3.4269
# 5 12.1597 -2.2275 13.1903 0.6179 47.3140 -8.7380
# 6 33.7288 8.1705 22.7025 3.4269 -8.7380 49.9237
#
#
#
# Elastic Compliance Matrix: (Units=1/GPa)
#
#
# Indices 1 2 3 4 5 6 
#
# 1 0.007961 -0.003540 -0.003286 0.006141 -0.002134 -0.004101
# 2 -0.003540 0.036533 0.000618 -0.024628 0.002456 -0.001748
# 3 -0.003286 0.000618 0.016301 -0.008232 -0.004585 -0.005532
# 4 0.006141 -0.024628 -0.008232 0.051340 -0.001131 -0.000097
# 5 -0.002134 0.002456 -0.004585 -0.001131 0.024475 0.007486
# 6 -0.004101 -0.001748 -0.005532 -0.000097 0.007486 0.026919
#
#
# Mechanical properties :
#
#
# Convention : Reuss Voigt Hill
#
# Bulk Modulus (GPa) = 20.66947 50.34707 35.50827
# Shear Modulus (GPa) = 26.03191 41.93565 33.98378
#
# Velocity S-wave (km/s) = 3.08041 3.90973 3.51958
# Velocity P-wave (km/s) = 4.49289 6.22361 5.42768
#
# Compressibility (1/GPa) = 0.04838054
#
# Stress axis : x y z
#
# Youngs Moduli (GPa) = 125.60494 27.37240 61.34696
#
# Poissons Ratio (x) = 0.09690 0.20156
# Poissons Ratio (y) = 0.44464 -0.03792
# Poissons Ratio (z) = 0.41268 -0.01692
#
# Static dielectric constant tensor:
#      x y z
#    x 2.183470 -0.112380 -0.038650 
#    y -0.112380 2.301730 -0.015800 
#    z -0.038650 -0.015800 2.262560 
# 
# From -- ./inp_files/154202.got.cif
#   From: 2010.05.17/outbox.cif.g08.bks.cpg/sg2_78_cif.got.tgz:154202.got - 2010.06.03 11:33:40.
