data_PCOD9009410
_publ_section_title
;
Structure prediction by ZEFSAII (Michael W. Deem and Ramdas Pophale) SiO2 
 PCOD9009410
Probable space group: P -1
;
_chemical_formula_sum "Si O2"
_cell_formula_units_Z 16
_cell_length_a 14.279607
_cell_length_b 8.814881
_cell_length_c 7.957824
_cell_angle_alpha 53.489410
_cell_angle_beta 83.232289
_cell_angle_gamma 108.628275
_cell_volume 697.798776
_symmetry_space_group_name_H-M "P -1"
_symmetry_group_IT_number 2
_symmetry_cell_setting 'triclinic'
loop_
_space_group_symop_operation_xyz
x,y,z
-x,-y,-z
loop_
_atom_site_type_symbol
_atom_site_label
_atom_site_fract_x
_atom_site_fract_y
_atom_site_fract_z
Si Si1 0.433592 0.740417 0.185357
Si Si2 0.118586 0.042781 0.400873
Si Si3 0.772930 0.529364 0.397603
Si Si4 0.715743 0.467913 0.962847
Si Si5 0.575161 0.591189 0.091803
Si Si6 0.915062 0.402209 0.233506
Si Si7 0.867660 0.408176 0.768721
Si Si8 0.215468 0.065824 0.034791
O O1 0.349192 0.652277 0.413575
O O2 0.366540 0.675247 0.069027
O O3 0.498549 0.604644 0.242992
O O4 0.500000 0.000000 0.000000
O O5 0.215796 0.278638 0.269001
O O6 0.138734 0.855720 0.593080
O O7 0.122179 0.032459 0.205505
O O8 0.000000 0.000000 0.500000
O O9 0.831931 0.480130 0.263002
O O10 0.836932 0.529252 0.552155
O O11 0.772610 0.752526 0.218393
O O12 0.810062 0.406393 0.960778
O O13 0.644499 0.463877 0.140883
O O14 0.676116 0.834898 0.937688
O O15 0.500000 0.500000 0.000000
O O16 0.004694 0.477919 0.314607
O O17 0.000000 0.500000 0.000000
O O18 0.814252 0.160238 0.889343
#
# Coordination Sequence:
#
# PCOD9009410 Si02
#       8
#     2   2   2   2   2   2   2   2
#     4  10  21  39  68  97 130 180 231 284 342 400
#     4  11  21  40  66  98 139 186 219 284 348 406
#     4  11  25  43  68 105 138 181 234 287 341 419
#     4   9  20  36  67  94 133 176 228 270 348 408
#     4   9  19  39  65  96 128 178 222 282 346 397
#     4  12  26  42  68 104 144 183 233 282 347 421
#     4  11  23  45  68 101 142 184 229 283 348 410
#     4  11  24  41  72  98 139 184 234 284 346 417
#
# _framework density 22.929247
#
# number of rings (size 3 to 8) (size 9 to 14) (size 15 to 20)
#    0.000    1.500    2.500    2.625    3.500    3.000 
#    0.000    0.000    0.000   12.750    0.000    0.000 
#    0.000    0.000    0.000    0.000    0.000    0.000 
#
# Total GULP energy -89133.928562 kJ/mol
# GULP energy per Si atom -5570.870535 kJ/mol
# Density = 2.287706 g / cm^3
# Si number density = 22.929247 Si / 1000 Ang^3
#
#
#
# Elastic Constant Matrix: (Units=GPa)
#
#
# Indices 1 2 3 4 5 6 
#
# 1 132.0785 35.7310 23.4725 3.3335 -24.6789 -16.8914
# 2 35.7310 132.4966 39.7329 -14.6839 -10.9037 -16.0402
# 3 23.4725 39.7329 111.9506 -3.7365 -1.2979 -4.7153
# 4 3.3335 -14.6839 -3.7365 47.8353 -13.7295 -14.9937
# 5 -24.6789 -10.9037 -1.2979 -13.7295 38.4410 4.1511
# 6 -16.8914 -16.0402 -4.7153 -14.9937 4.1511 36.8500
#
#
#
# Elastic Compliance Matrix: (Units=1/GPa)
#
#
# Indices 1 2 3 4 5 6 
#
# 1 0.009688 -0.001014 -0.001373 0.001892 0.006140 0.003902
# 2 -0.001014 0.010341 -0.002985 0.005819 0.003654 0.005611
# 3 -0.001373 -0.002985 0.010207 -0.000698 -0.001554 -0.000731
# 4 0.001892 0.005819 -0.000698 0.030500 0.012185 0.014348
# 5 0.006140 0.003654 -0.001554 0.012185 0.034725 0.005253
# 6 0.003902 0.005611 -0.000731 0.014348 0.005253 0.036521
#
#
# Mechanical properties :
#
#
# Convention : Reuss Voigt Hill
#
# Bulk Modulus (GPa) = 51.29777 63.82205 57.55991
# Shear Modulus (GPa) = 33.50733 43.13122 38.31928
#
# Velocity S-wave (km/s) = 3.82689 4.34182 4.09246
# Velocity P-wave (km/s) = 6.47669 7.28217 6.89121
#
# Compressibility (1/GPa) = 0.01949402
#
# Stress axis : x y z
#
# Youngs Moduli (GPa) = 103.22045 96.70657 97.96719
#
# Poissons Ratio (x) = 0.09802 0.13449
# Poissons Ratio (y) = 0.10462 0.29239
# Poissons Ratio (z) = 0.14171 0.28863
#
# Static dielectric constant tensor:
#      x y z
#    x 2.003460 0.018120 0.026460 
#    y 0.018120 1.899670 0.075670 
#    z 0.026460 0.075670 1.876800 
# 
# From -- ./inp_files/297444.got.cif
#   From: 2010.05.17/outbox.cif.g08.bks.cpg/sg2_149_cif.got.tgz:297444.got - 2010.06.03 11:33:40.
