data_PCOD9009393
_publ_section_title
;
Structure prediction by ZEFSAII (Michael W. Deem and Ramdas Pophale) SiO2 
 PCOD9009393
Probable space group: P -1
;
_chemical_formula_sum "Si O2"
_cell_formula_units_Z 14
_cell_length_a 19.722533
_cell_length_b 9.103604
_cell_length_c 9.247385
_cell_angle_alpha 132.758287
_cell_angle_beta 50.765853
_cell_angle_gamma 150.104456
_cell_volume 603.210169
_symmetry_space_group_name_H-M "P -1"
_symmetry_group_IT_number 2
_symmetry_cell_setting 'triclinic'
loop_
_space_group_symop_operation_xyz
x,y,z
-x,-y,-z
loop_
_atom_site_type_symbol
_atom_site_label
_atom_site_fract_x
_atom_site_fract_y
_atom_site_fract_z
Si Si1 0.619574 0.098408 0.573827
Si Si2 0.365443 0.166682 0.893571
Si Si3 0.759235 0.995831 0.495758
Si Si4 0.186709 0.684620 0.077403
Si Si5 0.111732 0.786633 0.824048
Si Si6 0.672461 0.408816 0.265853
Si Si7 0.142588 0.364757 0.554339
O O1 0.742556 0.464769 0.611854
O O2 0.593050 0.927940 0.345645
O O3 0.675166 0.030989 0.564887
O O4 0.478064 0.929635 0.713707
O O5 0.254825 0.107488 0.916080
O O6 0.500000 0.500000 0.000000
O O7 0.276814 0.932319 0.991849
O O8 0.670645 0.640071 0.392209
O O9 0.813406 0.161674 0.687842
O O10 0.875745 0.158747 0.328027
O O11 0.029558 0.372803 0.036304
O O12 0.262384 0.609805 0.961488
O O13 0.110724 0.546179 0.700055
O O14 0.777347 0.557424 0.356597
O O15 0.000000 0.000000 0.500000
#
# Coordination Sequence:
#
# PCOD9009393 Si02
#       7
#     2   2   2   2   2   2   2
#     4  10  23  46  64  96 143 174 219 285 336 397
#     4  10  21  39  68  96 129 181 219 271 338 391
#     4  10  24  44  70  94 138 182 216 280 350 386
#     4  12  23  41  71  99 133 176 229 275 329 407
#     4  10  23  46  64  96 143 174 219 285 336 397
#     4  12  23  41  71  99 133 176 229 275 329 407
#     4  10  21  39  68  96 129 181 219 271 338 391
#
# _framework density 23.209159
#
# number of rings (size 3 to 8) (size 9 to 14) (size 15 to 20)
#    0.000    1.714    2.857    3.429    0.000    3.429 
#    0.000    0.000    3.143    0.000    0.000    0.000 
#    0.000    0.000    0.000    0.000    0.000    0.000 
#
# Total GULP energy -78220.548237 kJ/mol
# GULP energy per Si atom -5587.182017 kJ/mol
# Density = 2.315633 g / cm^3
# Si number density = 23.209159 Si / 1000 Ang^3
#
#
#
# Elastic Constant Matrix: (Units=GPa)
#
#
# Indices 1 2 3 4 5 6 
#
# 1 34.1203 29.7967 15.1814 -16.8996 1.3206 3.1472
# 2 29.7967 153.6904 36.7053 -13.6713 -3.4683 35.8850
# 3 15.1814 36.7053 70.7001 -12.5599 -0.0348 10.8983
# 4 -16.8996 -13.6713 -12.5599 31.7157 8.5583 -6.1397
# 5 1.3206 -3.4683 -0.0348 8.5583 29.2221 -12.6557
# 6 3.1472 35.8850 10.8983 -6.1397 -12.6557 45.4628
#
#
#
# Elastic Compliance Matrix: (Units=1/GPa)
#
#
# Indices 1 2 3 4 5 6 
#
# 1 0.050012 -0.008042 -0.002776 0.025300 -0.008653 0.004559
# 2 -0.008042 0.010267 -0.002839 -0.002151 -0.001013 -0.007439
# 3 -0.002776 -0.002839 0.017262 0.004399 -0.002229 -0.001731
# 4 0.025300 -0.002151 0.004399 0.050280 -0.015531 0.001359
# 5 -0.008653 -0.001013 -0.002229 -0.015531 0.044308 0.012170
# 6 0.004559 -0.007439 -0.001731 0.001359 0.012170 0.031538
#
#
# Mechanical properties :
#
#
# Convention : Reuss Voigt Hill
#
# Bulk Modulus (GPa) = 19.91040 46.87528 33.39284
# Shear Modulus (GPa) = 20.18381 33.06861 26.62621
#
# Velocity S-wave (km/s) = 2.95218 3.77876 3.39075
# Velocity P-wave (km/s) = 4.49642 6.26733 5.45423
#
# Compressibility (1/GPa) = 0.05022501
#
# Stress axis : x y z
#
# Youngs Moduli (GPa) = 19.99521 97.40388 57.93197
#
# Poissons Ratio (x) = 0.78335 0.16083
# Poissons Ratio (y) = 0.16081 0.16447
# Poissons Ratio (z) = 0.05551 0.27653
#
# Static dielectric constant tensor:
#      x y z
#    x 1.905790 -0.007150 -0.028530 
#    y -0.007150 1.876660 0.012510 
#    z -0.028530 0.012510 1.943530 
# 
# From -- ./inp_files/343848.got.cif
#   From: 2010.05.17/outbox.cif.g08.bks.cpg/sg2_172_cif.got.tgz:343848.got - 2010.06.03 11:33:40.
