data_PCOD9009420
_publ_section_title
;
Structure prediction by ZEFSAII (Michael W. Deem and Ramdas Pophale) SiO2 
 PCOD9009420
Probable space group: P -1
;
_chemical_formula_sum "Si O2"
_cell_formula_units_Z 16
_cell_length_a 4.964338
_cell_length_b 9.916281
_cell_length_c 13.948626
_cell_angle_alpha 93.731684
_cell_angle_beta 91.286886
_cell_angle_gamma 59.007360
_cell_volume 587.330643
_symmetry_space_group_name_H-M "P -1"
_symmetry_group_IT_number 2
_symmetry_cell_setting 'triclinic'
loop_
_space_group_symop_operation_xyz
x,y,z
-x,-y,-z
loop_
_atom_site_type_symbol
_atom_site_label
_atom_site_fract_x
_atom_site_fract_y
_atom_site_fract_z
Si Si1 0.473268 0.389236 0.573015
Si Si2 0.460896 0.847298 0.989969
Si Si3 0.790050 0.894175 0.681192
Si Si4 0.305716 0.889462 0.560320
Si Si5 0.842959 0.301433 0.751865
Si Si6 0.965356 0.978419 0.154635
Si Si7 0.984153 0.575092 0.748862
Si Si8 0.340205 0.444715 0.917909
O O1 0.500000 0.500000 0.500000
O O2 0.441611 0.261586 0.505667
O O3 0.773944 0.287917 0.640202
O O4 0.216994 0.490977 0.655828
O O5 0.327421 0.861761 0.882241
O O6 0.723637 0.678261 0.028942
O O7 0.500000 0.000000 0.000000
O O8 0.170076 0.887367 0.059485
O O9 0.494488 0.966769 0.610428
O O10 0.813991 0.993443 0.771944
O O11 0.129083 0.835572 0.631979
O O12 0.772794 0.748308 0.715617
O O13 0.000000 0.000000 0.500000
O O14 0.554798 0.345574 0.823462
O O15 0.867405 0.455196 0.763787
O O16 0.110519 0.138145 0.792180
O O17 0.095884 0.590321 0.856937
O O18 0.500000 0.500000 0.000000
#
# Coordination Sequence:
#
# PCOD9009420 Si02
#       8
#     2   2   2   2   2   2   2   2
#     4  11  23  45  71  99 145 188 247 306 367 449
#     4  10  21  39  68  97 141 193 238 295 371 441
#     4  12  27  46  75 106 148 189 248 311 373 444
#     4  12  28  49  72 108 146 194 248 312 384 439
#     4  10  23  41  66  98 139 188 243 299 370 439
#     4  10  23  43  64 103 142 189 245 301 369 443
#     4  11  24  42  74 106 139 197 248 301 375 442
#     4  10  22  40  63 101 145 180 241 302 368 438
#
# _framework density 27.241895
#
# number of rings (size 3 to 8) (size 9 to 14) (size 15 to 20)
#    0.000    1.250    1.250    3.375    5.250    2.500 
#    6.750    0.000    0.000    0.000    0.000    0.000 
#    0.000    0.000    0.000    0.000    0.000    0.000 
#
# Total GULP energy -89377.485475 kJ/mol
# GULP energy per Si atom -5586.092842 kJ/mol
# Density = 2.717989 g / cm^3
# Si number density = 27.241895 Si / 1000 Ang^3
#
#
#
# Elastic Constant Matrix: (Units=GPa)
#
#
# Indices 1 2 3 4 5 6 
#
# 1 85.1410 11.6766 42.1087 -3.6481 0.7559 14.4185
# 2 11.6766 100.7082 40.8107 -28.2426 -1.2742 28.0081
# 3 42.1087 40.8107 181.9746 -11.4594 -0.6493 4.7433
# 4 -3.6481 -28.2426 -11.4594 68.9746 5.2255 -5.0382
# 5 0.7559 -1.2742 -0.6493 5.2255 58.3105 7.5959
# 6 14.4185 28.0081 4.7433 -5.0382 7.5959 36.9168
#
#
#
# Elastic Compliance Matrix: (Units=1/GPa)
#
#
# Indices 1 2 3 4 5 6 
#
# 1 0.014360 0.001667 -0.003504 0.000337 0.000629 -0.006506
# 2 0.001667 0.015783 -0.003296 0.005037 0.001372 -0.011796
# 3 -0.003504 -0.003296 0.006957 -0.000133 -0.000331 0.003025
# 4 0.000337 0.005037 -0.000133 0.016542 -0.001191 -0.001434
# 5 0.000629 0.001372 -0.000331 -0.001191 0.017938 -0.005097
# 6 -0.006506 -0.011796 0.003025 -0.001434 -0.005097 0.039043
#
#
# Mechanical properties :
#
#
# Convention : Reuss Voigt Hill
#
# Bulk Modulus (GPa) = 37.26534 61.89064 49.57799
# Shear Modulus (GPa) = 38.51095 51.05557 44.78326
#
# Velocity S-wave (km/s) = 3.76395 4.33385 4.05892
# Velocity P-wave (km/s) = 5.70955 6.91457 6.34075
#
# Compressibility (1/GPa) = 0.02683459
#
# Stress axis : x y z
#
# Youngs Moduli (GPa) = 69.63707 63.36052 143.74610
#
# Poissons Ratio (x) = -0.10561 0.50364
# Poissons Ratio (y) = -0.11607 0.47373
# Poissons Ratio (z) = 0.24398 0.20881
#
# Static dielectric constant tensor:
#      x y z
#    x 2.441010 -0.241210 0.038430 
#    y -0.241210 2.308930 -0.009390 
#    z 0.038430 -0.009390 2.188560 
# 
# From -- ./inp_files/480564.got.cif
#   From: 2010.05.17/outbox.cif.g08.bks.cpg/sg2_241_cif.got.tgz:480564.got - 2010.06.03 11:33:40.
