data_PCOD9009440
_publ_section_title
;
Structure prediction by ZEFSAII (Michael W. Deem and Ramdas Pophale) SiO2 
 PCOD9009440
Probable space group: P -1
;
_chemical_formula_sum "Si O2"
_cell_formula_units_Z 14
_cell_length_a 9.107034
_cell_length_b 9.232563
_cell_length_c 17.708036
_cell_angle_alpha 44.065254
_cell_angle_beta 132.085500
_cell_angle_gamma 97.010242
_cell_volume 551.357124
_symmetry_space_group_name_H-M "P -1"
_symmetry_group_IT_number 2
_symmetry_cell_setting 'triclinic'
loop_
_space_group_symop_operation_xyz
x,y,z
-x,-y,-z
loop_
_atom_site_type_symbol
_atom_site_label
_atom_site_fract_x
_atom_site_fract_y
_atom_site_fract_z
Si Si1 0.282486 0.792037 0.224645
Si Si2 0.671258 0.713532 0.121477
Si Si3 0.989445 0.128916 0.326665
Si Si4 0.922916 0.370648 0.966269
Si Si5 0.557855 0.498855 0.921024
Si Si6 0.800458 0.458557 0.421119
Si Si7 0.806618 0.591549 0.676351
O O1 0.527731 0.685422 0.293903
O O2 0.344795 0.502808 0.375396
O O3 0.000000 0.000000 0.000000
O O4 0.183393 0.027794 0.166779
O O5 0.466431 0.732120 0.992825
O O6 0.789354 0.489992 0.314380
O O7 0.901563 0.644760 0.176076
O O8 0.500000 0.000000 0.000000
O O9 0.756863 0.211924 0.274481
O O10 0.204541 0.143645 0.428621
O O11 0.789302 0.399412 0.097086
O O12 0.117599 0.844745 0.431346
O O13 0.675706 0.443116 0.899350
O O14 0.809849 0.538109 0.785704
O O15 0.000000 0.500000 0.000000
O O16 0.000000 0.500000 0.500000
#
# Coordination Sequence:
#
# PCOD9009440 Si02
#       7
#     2   2   2   2   2   2   2
#     4  10  23  43  70 100 136 181 236 284 354 417
#     4  11  21  40  69  96 135 185 231 288 351 421
#     4  10  23  41  66 102 138 185 236 292 352 415
#     4  11  20  36  69 101 133 178 235 288 339 411
#     4  10  21  39  68  98 140 185 234 281 352 428
#     4  12  27  45  70 102 145 184 238 300 351 424
#     4  10  21  40  65  99 134 177 232 285 344 419
#
# _framework density 25.391891999999999
#
# number of rings (size 3 to 8) (size 9 to 14) (size 15 to 20)
#    0.000    1.429    1.429    5.143    2.000    4.000 
#    0.000    4.286    0.000    0.000    0.000    0.000 
#    0.000    0.000    0.000    0.000    0.000    0.000 
#
# Total GULP energy -78041.608676 kJ/mol
# GULP energy per Si atom -5574.400620 kJ/mol
# Density = 2.533410 g / cm^3
# Si number density = 25.391892 Si / 1000 Ang^3
#
#
#
# Elastic Constant Matrix: (Units=GPa)
#
#
# Indices 1 2 3 4 5 6 
#
# 1 192.0368 25.6896 39.7509 -13.2475 43.5280 -14.6792
# 2 25.6896 158.4383 39.2530 -41.1991 18.2566 8.9489
# 3 39.7509 39.2530 91.9362 -31.8201 19.8474 -2.7071
# 4 -13.2475 -41.1991 -31.8201 41.8455 -8.8381 7.1438
# 5 43.5280 18.2566 19.8474 -8.8381 40.9660 -6.6607
# 6 -14.6792 8.9489 -2.7071 7.1438 -6.6607 51.4250
#
#
#
# Elastic Compliance Matrix: (Units=1/GPa)
#
#
# Indices 1 2 3 4 5 6 
#
# 1 0.007151 -0.000282 -0.001876 -0.001050 -0.006581 0.001285
# 2 -0.000282 0.009154 -0.000386 0.008703 -0.002234 -0.003192
# 3 -0.001876 -0.000386 0.016406 0.011000 -0.003671 -0.001608
# 4 -0.001050 0.008703 0.011000 0.041649 -0.000254 -0.007054
# 5 -0.006581 -0.002234 -0.003671 -0.000254 0.034583 0.002832
# 6 0.001285 -0.003192 -0.001608 -0.007054 0.002832 0.021630
#
#
# Mechanical properties :
#
#
# Convention : Reuss Voigt Hill
#
# Bulk Modulus (GPa) = 36.20307 72.42202 54.31254
# Shear Modulus (GPa) = 34.51436 49.36181 41.93808
#
# Velocity S-wave (km/s) = 3.69082 4.41386 4.06844
# Velocity P-wave (km/s) = 5.69663 7.38647 6.59589
#
# Compressibility (1/GPa) = 0.02762197
#
# Stress axis : x y z
#
# Youngs Moduli (GPa) = 139.84217 109.24650 60.95466
#
# Poissons Ratio (x) = 0.03079 0.11437
# Poissons Ratio (y) = 0.03941 0.02353
# Poissons Ratio (z) = 0.26239 0.04216
#
# Static dielectric constant tensor:
#      x y z
#    x 2.150970 -0.001890 -0.167990 
#    y -0.001890 2.132340 0.072200 
#    z -0.167990 0.072200 2.164400 
# 
# From -- ./inp_files/587789.got.cif
#   From: 2010.05.17/outbox.cif.g08.bks.cpg/sg2_294_cif.got.tgz:587789.got - 2010.06.03 11:33:40.
