data_PCOD9009505
_publ_section_title
;
Structure prediction by ZEFSAII (Michael W. Deem and Ramdas Pophale) SiO2 
 PCOD9009505
Probable space group: P -1
;
_chemical_formula_sum "Si O2"
_cell_formula_units_Z 16
_cell_length_a 8.810395
_cell_length_b 18.546515
_cell_length_c 11.217920
_cell_angle_alpha 147.935728
_cell_angle_beta 107.151919
_cell_angle_gamma 94.091683
_cell_volume 719.561284
_symmetry_space_group_name_H-M "P -1"
_symmetry_group_IT_number 2
_symmetry_cell_setting 'triclinic'
loop_
_space_group_symop_operation_xyz
x,y,z
-x,-y,-z
loop_
_atom_site_type_symbol
_atom_site_label
_atom_site_fract_x
_atom_site_fract_y
_atom_site_fract_z
Si Si1 0.262673 0.909226 0.298728
Si Si2 0.511110 0.347082 0.331315
Si Si3 0.022875 0.361680 0.759367
Si Si4 0.576424 0.407742 0.954425
Si Si5 0.878769 0.644232 0.966635
Si Si6 0.166969 0.989969 0.883448
Si Si7 0.631853 0.766797 0.097079
Si Si8 0.764340 0.956712 0.748441
O O1 0.500000 0.000000 0.500000
O O2 0.250183 0.047413 0.554745
O O3 0.199862 0.900431 0.135141
O O4 0.098127 0.731033 0.081568
O O5 0.500000 0.500000 0.500000
O O6 0.710889 0.449750 0.604282
O O7 0.508752 0.265811 0.092053
O O8 0.323132 0.182179 0.130420
O O9 0.843760 0.162752 0.397434
O O10 0.182272 0.462683 0.830068
O O11 0.117268 0.343367 0.873067
O O12 0.000000 0.500000 0.000000
O O13 0.510298 0.371834 0.026205
O O14 0.453729 0.221491 0.596725
O O15 0.500000 0.500000 0.000000
O O16 0.795975 0.748781 0.059787
O O17 0.940634 0.936496 0.745089
O O18 0.225883 0.003284 0.054221
#
# Coordination Sequence:
#
# PCOD9009505 Si02
#       8
#     2   2   2   2   2   2   2   2
#     4  11  24  42  64  98 138 177 222 278 340 408
#     4  10  22  39  67 102 129 167 222 287 333 392
#     4  12  26  41  65  98 138 181 222 273 340 411
#     4  11  20  40  64  95 129 172 225 274 331 399
#     4  11  22  42  66  93 130 176 231 273 329 403
#     4  11  22  42  69 103 136 174 230 288 337 400
#     4  10  21  39  69  92 129 174 224 278 329 398
#     4  10  22  39  70 100 133 176 228 285 341 398
#
# _framework density 22.235771
#
# number of rings (size 3 to 8) (size 9 to 14) (size 15 to 20)
#    0.000    1.250    2.500    4.125    5.250    1.000 
#    2.250    1.875    0.000    0.000    0.000    0.000 
#    0.000    0.000    0.000    0.000    0.000    0.000 
#
# Total GULP energy -89280.912614 kJ/mol
# GULP energy per Si atom -5580.057038 kJ/mol
# Density = 2.218516 g / cm^3
# Si number density = 22.235771 Si / 1000 Ang^3
#
#
#
# Elastic Constant Matrix: (Units=GPa)
#
#
# Indices 1 2 3 4 5 6 
#
# 1 51.4296 14.1041 26.4968 8.5289 5.2214 9.2398
# 2 14.1041 121.3191 56.7823 -20.4684 5.1586 24.1026
# 3 26.4968 56.7823 110.5094 2.3122 11.7407 15.8872
# 4 8.5289 -20.4684 2.3122 45.5412 4.7483 2.8470
# 5 5.2214 5.1586 11.7407 4.7483 27.6025 10.1239
# 6 9.2398 24.1026 15.8872 2.8470 10.1239 25.5433
#
#
#
# Elastic Compliance Matrix: (Units=1/GPa)
#
#
# Indices 1 2 3 4 5 6 
#
# 1 0.023476 -0.000192 -0.004746 -0.003943 0.000113 -0.004965
# 2 -0.000192 0.014679 -0.006262 0.007378 0.003060 -0.011922
# 3 -0.004746 -0.006262 0.013728 -0.002290 -0.003669 0.000797
# 4 -0.003943 0.007378 -0.002290 0.026726 -0.001938 -0.006322
# 5 0.000113 0.003060 -0.003669 -0.001938 0.044098 -0.017908
# 6 -0.004965 -0.011922 0.000797 -0.006322 -0.017908 0.059501
#
#
# Mechanical properties :
#
#
# Convention : Reuss Voigt Hill
#
# Bulk Modulus (GPa) = 33.91737 53.11383 43.51560
# Shear Modulus (GPa) = 23.31708 32.12906 27.72307
#
# Velocity S-wave (km/s) = 3.24177 3.80534 3.53481
# Velocity P-wave (km/s) = 5.41283 6.57617 6.02265
#
# Compressibility (1/GPa) = 0.02948342
#
# Stress axis : x y z
#
# Youngs Moduli (GPa) = 42.59621 68.12448 72.84524
#
# Poissons Ratio (x) = 0.01305 0.34574
# Poissons Ratio (y) = 0.00816 0.45616
# Poissons Ratio (z) = 0.20217 0.42659
#
# Static dielectric constant tensor:
#      x y z
#    x 2.028940 -0.195740 -0.078390 
#    y -0.195740 2.019430 0.094130 
#    z -0.078390 0.094130 1.905360 
# 
# From -- ./inp_files/405111.got.cif
#   From: 2010.05.17/outbox.cif.g08.bks.cpg/sg2_203_cif.got.tgz:405111.got - 2010.06.03 11:33:40.
