data_PCOD9009435
_publ_section_title
;
Structure prediction by ZEFSAII (Michael W. Deem and Ramdas Pophale) SiO2 
 PCOD9009435
Probable space group: P -1
;
_chemical_formula_sum "Si O2"
_cell_formula_units_Z 13
_cell_length_a 13.257784
_cell_length_b 7.424330
_cell_length_c 10.423683
_cell_angle_alpha 64.352150
_cell_angle_beta 34.809168
_cell_angle_gamma 61.113854
_cell_volume 511.471467
_symmetry_space_group_name_H-M "P -1"
_symmetry_group_IT_number 2
_symmetry_cell_setting 'triclinic'
loop_
_space_group_symop_operation_xyz
x,y,z
-x,-y,-z
loop_
_atom_site_type_symbol
_atom_site_label
_atom_site_fract_x
_atom_site_fract_y
_atom_site_fract_z
Si Si1 0.120578 0.647773 0.041297
Si Si2 0.377832 0.810126 0.562195
Si Si3 0.175703 0.360136 0.289641
Si Si4 0.000000 0.000000 0.500000
Si Si5 0.253484 0.262293 0.688607
Si Si6 0.873242 0.977928 0.897607
Si Si7 0.492433 0.048893 0.144173
O O1 0.088817 0.862224 0.087336
O O2 0.922524 0.604661 0.240310
O O3 0.000000 0.500000 0.500000
O O4 0.234735 0.483017 0.071853
O O5 0.556988 0.685778 0.492311
O O6 0.314437 0.038634 0.623065
O O7 0.223328 0.691057 0.792180
O O8 0.438329 0.870964 0.340612
O O9 0.105564 0.178427 0.355741
O O10 0.336940 0.262163 0.249269
O O11 0.971621 0.061063 0.356771
O O12 0.314699 0.920772 0.015033
O O13 0.170024 0.212924 0.926399
O O14 0.500000 0.000000 0.000000
#
# Coordination Sequence:
#
# PCOD9009435 Si02
#       7
#     2   2   2   1   2   2   2
#     4  11  22  40  66 101 132 178 230 283 342 409
#     4   9  19  37  64  96 129 179 232 275 336 412
#     4  12  26  44  69 105 138 181 231 281 351 412
#     4  12  24  44  66 100 144 178 228 286 342 418
#     4   9  19  36  64  98 132 174 232 278 337 410
#     4  10  21  39  68  98 132 184 229 276 343 409
#     4  11  23  42  68  98 140 182 228 283 344 411
#
# _framework density 25.416861000000001
#
# number of rings (size 3 to 8) (size 9 to 14) (size 15 to 20)
#    0.000    1.538    3.077    3.692    2.154    0.615 
#    2.769    1.538    0.000    0.000    0.000    0.000 
#    0.000    0.000    0.000    0.000    0.000    0.000 
#
# Total GULP energy -72440.305224 kJ/mol
# GULP energy per Si atom -5572.331171 kJ/mol
# Density = 2.535901 g / cm^3
# Si number density = 25.416861 Si / 1000 Ang^3
#
#
#
# Elastic Constant Matrix: (Units=GPa)
#
#
# Indices 1 2 3 4 5 6 
#
# 1 86.5491 16.6253 40.6765 11.8510 -12.5244 -26.5814
# 2 16.6253 54.3903 22.6153 1.0947 -11.9296 -20.0150
# 3 40.6765 22.6153 88.5426 -5.2162 10.0432 -7.4390
# 4 11.8510 1.0947 -5.2162 45.0002 -18.7042 2.1701
# 5 -12.5244 -11.9296 10.0432 -18.7042 61.2186 3.9039
# 6 -26.5814 -20.0150 -7.4390 2.1701 3.9039 34.4003
#
#
#
# Elastic Compliance Matrix: (Units=1/GPa)
#
#
# Indices 1 2 3 4 5 6 
#
# 1 0.023053 0.005612 -0.011363 -0.006551 0.004491 0.018525
# 2 0.005612 0.028769 -0.009217 -0.001359 0.006677 0.018410
# 3 -0.011363 -0.009217 0.018893 0.003582 -0.005510 -0.009658
# 4 -0.006551 -0.001359 0.003582 0.027549 0.006708 -0.007577
# 5 0.004491 0.006677 -0.005510 0.006708 0.021296 0.003324
# 6 0.018525 0.018410 -0.009658 -0.007577 0.003324 0.052107
#
#
# Mechanical properties :
#
#
# Convention : Reuss Voigt Hill
#
# Bulk Modulus (GPa) = 24.52242 43.25735 33.88988
# Shear Modulus (GPa) = 23.23461 38.09482 30.66472
#
# Velocity S-wave (km/s) = 3.02676 3.87564 3.47720
# Velocity P-wave (km/s) = 4.67804 6.08962 5.42990
#
# Compressibility (1/GPa) = 0.04077901
#
# Stress axis : x y z
#
# Youngs Moduli (GPa) = 43.37863 34.75949 52.93013
#
# Poissons Ratio (x) = -0.19507 0.60144
# Poissons Ratio (y) = -0.24344 0.48785
# Poissons Ratio (z) = 0.49290 0.32038
#
# Static dielectric constant tensor:
#      x y z
#    x 2.022570 -0.030990 0.014500 
#    y -0.030990 2.026800 0.081240 
#    z 0.014500 0.081240 2.032550 
# 
# From -- ./inp_files/448696.got.cif
#   From: 2010.05.17/outbox.cif.g08.bks.cpg/sg2_225_cif.got.tgz:448696.got - 2010.06.03 11:33:40.
