data_PCOD9009844
_publ_section_title
;
Structure prediction by ZEFSAII (Michael W. Deem and Ramdas Pophale) SiO2 
 PCOD9009844
Probable space group: P -1
;
_chemical_formula_sum "Si O2"
_cell_formula_units_Z 14
_cell_length_a 11.905834
_cell_length_b 11.234150
_cell_length_c 6.985570
_cell_angle_alpha 79.864705
_cell_angle_beta 73.004105
_cell_angle_gamma 41.791636
_cell_volume 594.175562
_symmetry_space_group_name_H-M "P -1"
_symmetry_group_IT_number 2
_symmetry_cell_setting 'triclinic'
loop_
_space_group_symop_operation_xyz
x,y,z
-x,-y,-z
loop_
_atom_site_type_symbol
_atom_site_label
_atom_site_fract_x
_atom_site_fract_y
_atom_site_fract_z
Si Si1 0.121585 0.846356 0.140680
Si Si2 0.304323 0.600888 0.786361
Si Si3 0.342484 0.108427 0.848239
Si Si4 0.299545 0.073241 0.297388
Si Si5 0.035131 0.288869 0.651914
Si Si6 0.157069 0.466438 0.995157
Si Si7 0.319756 0.786945 0.405936
O O1 0.185336 0.879407 0.272312
O O2 0.024891 0.803664 0.286936
O O3 0.284829 0.673487 0.985028
O O4 0.000000 0.000000 0.000000
O O5 0.265959 0.734775 0.614280
O O6 0.493124 0.403303 0.704367
O O7 0.172665 0.586469 0.857452
O O8 0.201013 0.185102 0.738042
O O9 0.541556 0.956924 0.725052
O O10 0.304995 0.057725 0.069416
O O11 0.316920 0.264146 0.901948
O O12 0.113454 0.259559 0.414816
O O13 0.331145 0.918284 0.419588
O O14 0.877420 0.480116 0.778444
O O15 0.000000 0.500000 0.000000
#
# Coordination Sequence:
#
# PCOD9009844 Si02
#       7
#     2   2   2   2   2   2   2
#     4  11  23  39  61  93 129 164 207 262 316 375
#     4  10  22  42  63  93 125 169 212 257 313 375
#     4  10  21  40  60  87 124 161 205 260 307 373
#     4  11  22  37  63  90 119 162 209 254 315 368
#     4  10  22  37  59  88 121 159 204 256 309 369
#     4   9  19  39  64  86 125 161 202 259 311 365
#     4  11  23  40  66  92 127 168 212 256 315 383
#
# _framework density 23.562059000000001
#
# number of rings (size 3 to 8) (size 9 to 14) (size 15 to 20)
#    0.000    1.714    1.429    2.571    0.000    6.286 
#    0.000    4.286    0.000    0.000    0.000    0.000 
#    0.000    0.000    0.000    0.000    0.000    0.000 
#
# Total GULP energy -78219.098564 kJ/mol
# GULP energy per Si atom -5587.078469 kJ/mol
# Density = 2.350843 g / cm^3
# Si number density = 23.562059 Si / 1000 Ang^3
#
#
#
# Elastic Constant Matrix: (Units=GPa)
#
#
# Indices 1 2 3 4 5 6 
#
# 1 91.1745 9.1710 41.1021 -10.1380 -13.0346 9.2701
# 2 9.1710 33.3069 22.9367 -5.3634 -14.6954 12.9519
# 3 41.1021 22.9367 111.1949 9.5921 -33.0039 -0.6515
# 4 -10.1380 -5.3634 9.5921 46.3883 -0.4495 -9.0855
# 5 -13.0346 -14.6954 -33.0039 -0.4495 40.3779 -10.9323
# 6 9.2701 12.9519 -0.6515 -9.0855 -10.9323 32.4737
#
#
#
# Elastic Compliance Matrix: (Units=1/GPa)
#
#
# Indices 1 2 3 4 5 6 
#
# 1 0.014381 0.002425 -0.006442 0.003882 -0.000893 -0.004416
# 2 0.002425 0.044785 -0.008959 0.004564 0.005593 -0.015574
# 3 -0.006442 -0.008959 0.016749 -0.004219 0.010497 0.008102
# 4 0.003882 0.004564 -0.004219 0.024631 0.000870 0.004171
# 5 -0.000893 0.005593 0.010497 0.000870 0.038170 0.011328
# 6 -0.004416 -0.015574 0.008102 0.004171 0.011328 0.043409
#
#
# Mechanical properties :
#
#
# Convention : Reuss Voigt Hill
#
# Bulk Modulus (GPa) = 20.01482 42.45509 31.23496
# Shear Modulus (GPa) = 22.24872 34.67908 28.46390
#
# Velocity S-wave (km/s) = 3.07622 3.84059 3.47946
# Velocity P-wave (km/s) = 4.59678 6.14202 5.42470
#
# Compressibility (1/GPa) = 0.04996297
#
# Stress axis : x y z
#
# Youngs Moduli (GPa) = 69.53606 22.32902 59.70373
#
# Poissons Ratio (x) = -0.05414 0.38459
# Poissons Ratio (y) = -0.16860 0.53489
# Poissons Ratio (z) = 0.44793 0.20005
#
# Static dielectric constant tensor:
#      x y z
#    x 1.821960 -0.028170 -0.031870 
#    y -0.028170 1.970720 0.051650 
#    z -0.031870 0.051650 1.928580 
# 
# From -- ./inp_files/69677.got.cif
#   From: 2010.05.17/outbox.cif.g08.bks.cpg/sg2_35_cif.got.tgz:69677.got - 2010.06.03 11:33:40.
