data_PCOD9009480
_publ_section_title
;
Structure prediction by ZEFSAII (Michael W. Deem and Ramdas Pophale) SiO2 
 PCOD9009480
Probable space group: P -1
;
_chemical_formula_sum "Si O2"
_cell_formula_units_Z 14
_cell_length_a 19.329538
_cell_length_b 11.248945
_cell_length_c 14.156517
_cell_angle_alpha 145.438701
_cell_angle_beta 32.181019
_cell_angle_gamma 157.968664
_cell_volume 603.162609
_symmetry_space_group_name_H-M "P -1"
_symmetry_group_IT_number 2
_symmetry_cell_setting 'triclinic'
loop_
_space_group_symop_operation_xyz
x,y,z
-x,-y,-z
loop_
_atom_site_type_symbol
_atom_site_label
_atom_site_fract_x
_atom_site_fract_y
_atom_site_fract_z
Si Si1 0.697911 0.048653 0.212704
Si Si2 0.773848 0.265982 0.073601
Si Si3 0.252564 0.498061 0.440156
Si Si4 0.711478 0.685908 0.415782
Si Si5 0.334886 0.193043 0.245242
Si Si6 0.068689 0.357293 0.359040
Si Si7 0.207053 0.234208 0.971823
O O1 0.656345 0.996435 0.115508
O O2 0.796530 0.391218 0.351079
O O3 0.489312 0.787245 0.337123
O O4 0.813365 0.992975 0.084631
O O5 0.725543 0.452554 0.255763
O O6 0.000000 0.500000 0.000000
O O7 0.723644 0.103107 0.924090
O O8 0.219395 0.220727 0.330288
O O9 0.161229 0.463037 0.425148
O O10 0.500000 0.500000 0.500000
O O11 0.733400 0.828911 0.585290
O O12 0.878128 0.971882 0.337935
O O13 0.579107 0.516488 0.166826
O O14 0.000000 0.500000 0.500000
O O15 0.215402 0.444520 0.168282
O O16 0.000000 0.000000 0.000000
#
# Coordination Sequence:
#
# PCOD9009480 Si02
#       7
#     2   2   2   2   2   2   2
#     4  10  21  39  69 103 138 185 234 303 353 428
#     4  12  26  44  73 105 149 191 248 302 373 444
#     4  10  21  41  72 100 137 182 242 293 360 428
#     4  12  29  49  72 108 155 189 244 314 376 435
#     4  11  25  46  77 106 141 195 244 305 373 435
#     4  12  27  45  71 102 143 193 243 298 368 443
#     4  11  23  44  70 105 146 190 251 299 364 443
#
# _framework density 23.210986999999999
#
# number of rings (size 3 to 8) (size 9 to 14) (size 15 to 20)
#    0.000    0.857    1.429    5.143    6.000    4.000 
#    2.571    0.000    0.000    0.000    0.000    0.000 
#    0.000    0.000    0.000    0.000    0.000    0.000 
#
# Total GULP energy -78307.643260 kJ/mol
# GULP energy per Si atom -5593.403090 kJ/mol
# Density = 2.315816 g / cm^3
# Si number density = 23.210987 Si / 1000 Ang^3
#
#
#
# Elastic Constant Matrix: (Units=GPa)
#
#
# Indices 1 2 3 4 5 6 
#
# 1 137.6410 18.2867 57.6784 6.6198 -25.0417 16.9200
# 2 18.2867 50.0963 26.7853 -5.2415 -10.8460 5.0814
# 3 57.6784 26.7853 148.4018 3.2262 -7.7317 1.5459
# 4 6.6198 -5.2415 3.2262 33.5047 1.5724 4.2271
# 5 -25.0417 -10.8460 -7.7317 1.5724 52.3373 -0.6084
# 6 16.9200 5.0814 1.5459 4.2271 -0.6084 38.1826
#
#
#
# Elastic Compliance Matrix: (Units=1/GPa)
#
#
# Indices 1 2 3 4 5 6 
#
# 1 0.010168 -0.000650 -0.003542 -0.001456 0.004204 -0.004048
# 2 -0.000650 0.023932 -0.003928 0.004468 0.003897 -0.003171
# 3 -0.003542 -0.003928 0.008765 -0.000934 -0.001165 0.001822
# 4 -0.001456 0.004468 -0.000934 0.031394 -0.000892 -0.003401
# 5 0.004204 0.003897 -0.001165 -0.000892 0.021759 -0.001889
# 6 -0.004048 -0.003171 0.001822 -0.003401 -0.001889 0.028678
#
#
# Mechanical properties :
#
#
# Convention : Reuss Voigt Hill
#
# Bulk Modulus (GPa) = 37.55785 60.18221 48.87003
# Shear Modulus (GPa) = 33.37557 40.36417 36.86987
#
# Velocity S-wave (km/s) = 3.79611 4.17467 3.98988
# Velocity P-wave (km/s) = 5.95232 7.01582 6.50584
#
# Compressibility (1/GPa) = 0.02662559
#
# Stress axis : x y z
#
# Youngs Moduli (GPa) = 98.34445 41.78561 114.09377
#
# Poissons Ratio (x) = 0.02714 0.40412
# Poissons Ratio (y) = 0.06388 0.44817
# Poissons Ratio (z) = 0.34833 0.16414
#
# Static dielectric constant tensor:
#      x y z
#    x 1.716880 -0.169090 0.132600 
#    y -0.169090 1.664930 0.159060 
#    z 0.132600 0.159060 1.801140 
# 
# From -- ./inp_files/541175.got.cif
#   From: 2010.05.17/outbox.cif.g08.bks.cpg/sg2_271_cif.got.tgz:541175.got - 2010.06.03 11:33:40.
