data_PCOD9009564
_publ_section_title
;
Structure prediction by ZEFSAII (Michael W. Deem and Ramdas Pophale) SiO2 
 PCOD9009564
Probable space group: P -1
;
_chemical_formula_sum "Si O2"
_cell_formula_units_Z 16
_cell_length_a 15.078112
_cell_length_b 5.588671
_cell_length_c 10.327403
_cell_angle_alpha 89.231396
_cell_angle_beta 68.258765
_cell_angle_gamma 122.537252
_cell_volume 655.867225
_symmetry_space_group_name_H-M "P -1"
_symmetry_group_IT_number 2
_symmetry_cell_setting 'triclinic'
loop_
_space_group_symop_operation_xyz
x,y,z
-x,-y,-z
loop_
_atom_site_type_symbol
_atom_site_label
_atom_site_fract_x
_atom_site_fract_y
_atom_site_fract_z
Si Si1 0.092217 0.899770 0.386573
Si Si2 0.375655 0.855910 0.756251
Si Si3 0.871297 0.288104 0.010035
Si Si4 0.775512 0.760920 0.214042
Si Si5 0.816324 0.452753 0.772892
Si Si6 0.146175 0.293992 0.579261
Si Si7 0.628372 0.166788 0.697456
Si Si8 0.612880 0.814159 0.483273
O O1 0.142400 0.215308 0.285109
O O2 0.103939 0.990860 0.529812
O O3 0.151518 0.734894 0.329291
O O4 0.959297 0.687932 0.408871
O O5 0.256439 0.812275 0.864263
O O6 0.338929 0.527022 0.783465
O O7 0.498320 0.086614 0.757070
O O8 0.392463 0.949805 0.597365
O O9 0.848263 0.973709 0.054786
O O10 0.867704 0.432536 0.879391
O O11 0.000000 0.500000 0.000000
O O12 0.849865 0.694912 0.267453
O O13 0.726025 0.850964 0.359121
O O14 0.676728 0.248701 0.816983
O O15 0.270564 0.548300 0.444053
O O16 0.619051 0.897245 0.628926
O O17 0.500000 0.500000 0.500000
#
# Coordination Sequence:
#
# PCOD9009564 Si02
#       8
#     2   2   2   2   2   2   2   2
#     4  10  24  43  69 105 141 179 234 278 357 415
#     4  11  24  41  63 101 131 176 230 279 349 407
#     4  11  28  46  69  93 129 186 240 292 338 406
#     4  11  22  39  66  97 131 176 224 285 341 415
#     4  11  26  47  70 101 140 190 236 289 340 411
#     4  10  21  39  70 102 141 179 217 291 349 429
#     4  11  22  41  69 102 141 177 220 286 356 425
#     4  11  20  36  66 101 141 173 218 276 352 423
#
# _framework density 24.39518
#
# number of rings (size 3 to 8) (size 9 to 14) (size 15 to 20)
#    0.000    1.250    2.500    2.625    3.500    7.500 
#    0.000    0.625    0.000    0.000    0.000    0.000 
#    0.000    0.000    0.000    0.000    0.000    0.000 
#
# Total GULP energy -89079.604551 kJ/mol
# GULP energy per Si atom -5567.475284 kJ/mol
# Density = 2.433966 g / cm^3
# Si number density = 24.395180 Si / 1000 Ang^3
#
#
#
# Elastic Constant Matrix: (Units=GPa)
#
#
# Indices 1 2 3 4 5 6 
#
# 1 120.3956 46.7400 27.9579 -9.3358 10.2296 48.1576
# 2 46.7400 103.4902 26.3060 -33.5641 15.5973 20.4330
# 3 27.9579 26.3060 31.4890 -15.7064 15.5519 8.9884
# 4 -9.3358 -33.5641 -15.7064 28.3632 -5.5356 -0.3708
# 5 10.2296 15.5973 15.5519 -5.5356 52.7144 0.6571
# 6 48.1576 20.4330 8.9884 -0.3708 0.6571 51.0547
#
#
#
# Elastic Compliance Matrix: (Units=1/GPa)
#
#
# Indices 1 2 3 4 5 6 
#
# 1 0.017075 -0.004426 -0.011264 -0.005849 0.000859 -0.012406
# 2 -0.004426 0.019605 0.000738 0.021547 -0.002852 -0.003608
# 3 -0.011264 0.000738 0.062307 0.029058 -0.013360 -0.000257
# 4 -0.005849 0.021547 0.029058 0.073654 -0.005984 -0.007610
# 5 0.000859 -0.002852 -0.013360 -0.005984 0.022931 0.002344
# 6 -0.012406 -0.003608 -0.000257 -0.007610 0.002344 0.032692
#
#
# Mechanical properties :
#
#
# Convention : Reuss Voigt Hill
#
# Bulk Modulus (GPa) = 14.47542 50.82030 32.64786
# Shear Modulus (GPa) = 17.78123 36.71786 27.24955
#
# Velocity S-wave (km/s) = 2.70271 3.88381 3.34579
# Velocity P-wave (km/s) = 3.96057 6.40229 5.32332
#
# Compressibility (1/GPa) = 0.06908262
#
# Stress axis : x y z
#
# Youngs Moduli (GPa) = 58.56361 51.00856 16.04964
#
# Poissons Ratio (x) = 0.22575 0.18078
# Poissons Ratio (y) = 0.25919 -0.01184
# Poissons Ratio (z) = 0.65966 -0.03763
#
# Static dielectric constant tensor:
#      x y z
#    x 2.146220 -0.094510 0.030340 
#    y -0.094510 2.038790 -0.018400 
#    z 0.030340 -0.018400 2.043150 
# 
# From -- ./inp_files/69176.got.cif
#   From: 2010.05.17/outbox.cif.g08.bks.cpg/sg2_35_cif.got.tgz:69176.got - 2010.06.03 11:33:40.
