data_PCOD9009883
_publ_section_title
;
Structure prediction by ZEFSAII (Michael W. Deem and Ramdas Pophale) SiO2 
 PCOD9009883
Probable space group: P -1
;
_chemical_formula_sum "Si O2"
_cell_formula_units_Z 12
_cell_length_a 14.347127
_cell_length_b 14.490882
_cell_length_c 11.521435
_cell_angle_alpha 151.562746
_cell_angle_beta 147.752349
_cell_angle_gamma 30.877641
_cell_volume 543.250329
_symmetry_space_group_name_H-M "P -1"
_symmetry_group_IT_number 2
_symmetry_cell_setting 'triclinic'
loop_
_space_group_symop_operation_xyz
x,y,z
-x,-y,-z
loop_
_atom_site_type_symbol
_atom_site_label
_atom_site_fract_x
_atom_site_fract_y
_atom_site_fract_z
Si Si1 0.263075 0.447829 0.273562
Si Si2 0.687683 0.335915 0.668916
Si Si3 0.864927 0.297168 0.052346
Si Si4 0.865415 0.837732 0.313106
Si Si5 0.737149 0.711115 0.511156
Si Si6 0.687502 0.976417 0.518661
O O1 0.466319 0.368215 0.465141
O O2 0.287473 0.530874 0.263619
O O3 0.084003 0.656001 0.370510
O O4 0.203773 0.256800 0.973144
O O5 0.833852 0.080189 0.523876
O O6 0.734900 0.398910 0.913559
O O7 0.796183 0.460824 0.269818
O O8 0.083499 0.260047 0.213051
O O9 0.833237 0.086420 0.810152
O O10 0.735515 0.865883 0.321831
O O11 0.712364 0.818508 0.476307
O O12 0.534096 0.834882 0.499967
#
# Coordination Sequence:
#
# PCOD9009883 Si02
#       6
#     2   2   2   2   2   2
#     4  10  21  40  62  86 122 158 197 250 294 360
#     4  10  21  40  60  91 118 157 201 244 302 356
#     4  10  21  40  60  91 118 157 201 244 302 356
#     4  10  21  40  60  91 118 157 201 244 302 356
#     4  10  21  40  62  86 122 158 197 250 294 360
#     4  10  21  40  60  91 118 157 201 244 302 356
#
# _framework density 22.089265000000001
#
# number of rings (size 3 to 8) (size 9 to 14) (size 15 to 20)
#    0.000    2.000    0.000    3.000    0.000    0.000 
#   54.000    0.000    0.000    0.000    0.000    0.000 
#    0.000    0.000    0.000    0.000    0.000    0.000 
#
# Total GULP energy -67085.121886 kJ/mol
# GULP energy per Si atom -5590.426824 kJ/mol
# Density = 2.203899 g / cm^3
# Si number density = 22.089265 Si / 1000 Ang^3
#
#
#
# Elastic Constant Matrix: (Units=GPa)
#
#
# Indices 1 2 3 4 5 6 
#
# 1 47.4823 17.7410 14.1860 -6.9513 -9.7896 -6.7674
# 2 17.7410 59.7862 46.5377 -0.5600 -8.8456 -29.1396
# 3 14.1860 46.5377 110.4173 1.1361 2.9044 -26.5934
# 4 -6.9513 -0.5600 1.1361 35.7676 3.4153 8.8364
# 5 -9.7896 -8.8456 2.9044 3.4153 12.1532 2.6620
# 6 -6.7674 -29.1396 -26.5934 8.8364 2.6620 41.5689
#
#
#
# Elastic Compliance Matrix: (Units=1/GPa)
#
#
# Indices 1 2 3 4 5 6 
#
# 1 0.027773 -0.004285 -0.002908 0.004189 0.019311 -0.002470
# 2 -0.004285 0.041977 -0.012918 -0.007429 0.027838 0.020261
# 3 -0.002908 -0.012918 0.015659 -0.000135 -0.015784 0.001529
# 4 0.004189 -0.007429 -0.000135 0.032179 -0.008656 -0.010898
# 5 0.019311 0.027838 -0.015784 -0.008656 0.122873 0.006532
# 6 -0.002470 0.020261 0.001529 -0.010898 0.006532 0.040733
#
#
# Mechanical properties :
#
#
# Convention : Reuss Voigt Hill
#
# Bulk Modulus (GPa) = 22.12994 41.62388 31.87691
# Shear Modulus (GPa) = 14.85969 27.17933 21.01951
#
# Velocity S-wave (km/s) = 2.59648 3.51156 3.08810
# Velocity P-wave (km/s) = 4.36224 5.94355 5.21320
#
# Compressibility (1/GPa) = 0.04518766
#
# Stress axis : x y z
#
# Youngs Moduli (GPa) = 36.00598 23.82244 63.85953
#
# Poissons Ratio (x) = 0.10209 0.18570
# Poissons Ratio (y) = 0.15430 0.82492
# Poissons Ratio (z) = 0.10471 0.30773
#
# Static dielectric constant tensor:
#      x y z
#    x 1.807430 0.017940 0.029710 
#    y 0.017940 1.815920 -0.001030 
#    z 0.029710 -0.001030 1.771060 
# 
# From -- ./inp_files/172477.got.cif
#   From: 2010.05.17/outbox.cif.g08.bks.cpg/sg2_87_cif.got.tgz:172477.got - 2010.06.03 11:33:40.
