data_PCOD9009442
_publ_section_title
;
Structure prediction by ZEFSAII (Michael W. Deem and Ramdas Pophale) SiO2 
 PCOD9009442
Probable space group: P -1
;
_chemical_formula_sum "Si O2"
_cell_formula_units_Z 16
_cell_length_a 13.511600
_cell_length_b 14.572150
_cell_length_c 11.566090
_cell_angle_alpha 113.235298
_cell_angle_beta 137.383134
_cell_angle_gamma 33.985235
_cell_volume 708.259480
_symmetry_space_group_name_H-M "P -1"
_symmetry_group_IT_number 2
_symmetry_cell_setting 'triclinic'
loop_
_space_group_symop_operation_xyz
x,y,z
-x,-y,-z
loop_
_atom_site_type_symbol
_atom_site_label
_atom_site_fract_x
_atom_site_fract_y
_atom_site_fract_z
Si Si1 0.711099 0.417476 0.414399
Si Si2 0.800995 0.030493 0.400896
Si Si3 0.648015 0.519537 0.162295
Si Si4 0.578675 0.058559 0.655461
Si Si5 0.284244 0.313887 0.730776
Si Si6 0.140774 0.640161 0.970806
Si Si7 0.151563 0.418177 0.934550
Si Si8 0.469104 0.282087 0.465921
O O1 0.754894 0.451327 0.349663
O O2 0.462357 0.482679 0.205493
O O3 0.563778 0.582665 0.457821
O O4 0.011995 0.179818 0.571464
O O5 0.727032 0.100557 0.507250
O O6 0.474889 0.213783 0.160972
O O7 0.000000 0.000000 0.500000
O O8 0.503721 0.713082 0.114835
O O9 0.500000 0.500000 0.000000
O O10 0.876050 0.388776 0.189976
O O11 0.438369 0.138331 0.702142
O O12 0.498543 0.193370 0.561693
O O13 0.500000 0.000000 0.500000
O O14 0.921033 0.861367 0.885152
O O15 0.197116 0.354832 0.808539
O O16 0.000000 0.500000 0.500000
O O17 0.070353 0.583744 0.953258
O O18 0.852074 0.545242 0.781075
#
# Coordination Sequence:
#
# PCOD9009442 Si02
#       8
#     2   2   2   2   2   2   2   2
#     4  11  23  46  69 102 142 185 241 298 346 425
#     4  12  28  49  74  97 144 202 242 290 361 410
#     4   9  18  36  62  93 133 173 213 287 351 406
#     4  12  22  40  70 110 143 185 227 297 379 426
#     4  11  20  39  69  97 142 174 224 292 359 426
#     4  10  21  39  68  98 145 182 226 293 364 423
#     4  11  23  48  69 103 140 188 238 292 347 431
#     4  12  26  46  75 106 142 181 248 299 349 432
#
# _framework density 22.590591
#
# number of rings (size 3 to 8) (size 9 to 14) (size 15 to 20)
#    0.000    1.000    5.000    1.875    0.000    3.500 
#    2.250    0.000    0.000    0.000    0.000    0.000 
#    0.000    0.000    0.000    0.000    0.000    0.000 
#
# Total GULP energy -89092.180785 kJ/mol
# GULP energy per Si atom -5568.261299 kJ/mol
# Density = 2.253917 g / cm^3
# Si number density = 22.590591 Si / 1000 Ang^3
#
#
#
# Elastic Constant Matrix: (Units=GPa)
#
#
# Indices 1 2 3 4 5 6 
#
# 1 66.3319 18.9364 5.6568 11.3499 2.2779 -10.8198
# 2 18.9364 116.0917 22.5247 1.8316 -2.7961 -5.0439
# 3 5.6568 22.5247 82.7417 -10.7427 2.1475 -6.8458
# 4 11.3499 1.8316 -10.7427 37.2184 5.0373 5.1178
# 5 2.2779 -2.7961 2.1475 5.0373 20.8768 5.1758
# 6 -10.8198 -5.0439 -6.8458 5.1178 5.1758 27.3518
#
#
#
# Elastic Compliance Matrix: (Units=1/GPa)
#
#
# Indices 1 2 3 4 5 6 
#
# 1 0.018410 -0.002476 -0.000655 -0.006458 -0.002797 0.008399
# 2 -0.002476 0.009576 -0.002593 -0.000723 0.002021 -0.000110
# 3 -0.000655 -0.002593 0.013702 0.004393 -0.003367 0.002507
# 4 -0.006458 -0.000723 0.004393 0.031827 -0.005932 -0.006421
# 5 -0.002797 0.002021 -0.003367 -0.005932 0.052849 -0.010467
# 6 0.008399 -0.000110 0.002507 -0.006421 -0.010467 0.043673
#
#
# Mechanical properties :
#
#
# Convention : Reuss Voigt Hill
#
# Bulk Modulus (GPa) = 33.07084 39.93348 36.50216
# Shear Modulus (GPa) = 26.10081 31.62590 28.86335
#
# Velocity S-wave (km/s) = 3.40278 3.74566 3.57833
# Velocity P-wave (km/s) = 5.48722 6.03507 5.76765
#
# Compressibility (1/GPa) = 0.03023812
#
# Stress axis : x y z
#
# Youngs Moduli (GPa) = 54.31933 104.42518 72.98356
#
# Poissons Ratio (x) = 0.25859 0.04783
# Poissons Ratio (y) = 0.13451 0.18925
# Poissons Ratio (z) = 0.03560 0.27078
#
# Static dielectric constant tensor:
#      x y z
#    x 1.935290 0.003290 0.013210 
#    y 0.003290 2.045880 0.005150 
#    z 0.013210 0.005150 1.888840 
# 
# From -- ./inp_files/455835.got.cif
#   From: 2010.05.17/outbox.cif.g08.bks.cpg/sg2_228_cif.got.tgz:455835.got - 2010.06.03 11:33:40.
