data_PCOD9009908
_publ_section_title
;
Structure prediction by ZEFSAII (Michael W. Deem and Ramdas Pophale) SiO2 
 PCOD9009908
Probable space group: P -1
;
_chemical_formula_sum "Si O2"
_cell_formula_units_Z 12
_cell_length_a 5.197326
_cell_length_b 19.630567
_cell_length_c 6.099541
_cell_angle_alpha 66.751624
_cell_angle_beta 72.050909
_cell_angle_gamma 64.629078
_cell_volume 509.339399
_symmetry_space_group_name_H-M "P -1"
_symmetry_group_IT_number 2
_symmetry_cell_setting 'triclinic'
loop_
_space_group_symop_operation_xyz
x,y,z
-x,-y,-z
loop_
_atom_site_type_symbol
_atom_site_label
_atom_site_fract_x
_atom_site_fract_y
_atom_site_fract_z
Si Si1 0.483305 0.261791 0.108748
Si Si2 0.336742 0.141188 0.582322
Si Si3 0.937957 0.720540 0.189882
Si Si4 0.727277 0.457486 0.675808
Si Si5 0.056691 0.960136 0.285364
Si Si6 0.258680 0.430612 0.134680
O O1 0.469664 0.180950 0.310212
O O2 0.285568 0.341258 0.189041
O O3 0.341632 0.271521 0.893095
O O4 0.808892 0.260662 0.031388
O O5 0.142674 0.215934 0.678263
O O6 0.600740 0.087929 0.730305
O O7 0.144066 0.093536 0.600895
O O8 0.072592 0.629347 0.340903
O O9 0.500000 0.500000 0.500000
O O10 0.793021 0.532597 0.658209
O O11 0.555928 0.433263 0.951570
O O12 0.000000 0.000000 0.500000
O O13 0.000000 0.000000 0.000000
O O14 0.000000 0.500000 0.000000
#
# Coordination Sequence:
#
# PCOD9009908 Si02
#       6
#     2   2   2   2   2   2
#     4  11  25  44  72 102 153 194 256 310 381 440
#     4  12  28  48  83 110 154 194 247 315 382 472
#     4  11  25  44  69 108 145 200 250 315 377 446
#     4  10  23  38  63  92 140 191 259 311 368 431
#     4  12  30  55  87 122 155 201 249 312 396 484
#     4  10  21  40  60  93 136 196 248 313 361 429
#
# _framework density 23.559929
#
# number of rings (size 3 to 8) (size 9 to 14) (size 15 to 20)
#    0.000    1.000    1.667    3.000    9.333    4.667 
#    0.000    0.000    0.000    0.000    0.000    0.000 
#    0.000    0.000    0.000    0.000    0.000    0.000 
#
# Total GULP energy -66949.625914 kJ/mol
# GULP energy per Si atom -5579.135493 kJ/mol
# Density = 2.350631 g / cm^3
# Si number density = 23.559929 Si / 1000 Ang^3
#
#
#
# Elastic Constant Matrix: (Units=GPa)
#
#
# Indices 1 2 3 4 5 6 
#
# 1 88.3102 58.0477 8.8255 -3.6689 10.5772 26.7894
# 2 58.0477 140.6051 58.4927 1.9367 2.8786 26.5003
# 3 8.8255 58.4927 74.8800 -0.0940 8.5177 19.4025
# 4 -3.6689 1.9367 -0.0940 36.3126 0.3301 -2.2147
# 5 10.5772 2.8786 8.5177 0.3301 56.8439 -1.2451
# 6 26.7894 26.5003 19.4025 -2.2147 -1.2451 51.7740
#
#
#
# Elastic Compliance Matrix: (Units=1/GPa)
#
#
# Indices 1 2 3 4 5 6 
#
# 1 0.020456 -0.010245 0.008331 0.002160 -0.004734 -0.008484
# 2 -0.010245 0.016021 -0.012063 -0.001849 0.002949 0.001613
# 3 0.008331 -0.012063 0.024222 0.001147 -0.004735 -0.007278
# 4 0.002160 -0.001849 0.001147 0.027899 -0.000630 0.000577
# 5 -0.004734 0.002949 -0.004735 -0.000630 0.019106 0.003147
# 6 -0.008484 0.001613 -0.007278 0.000577 0.003147 0.025707
#
#
# Mechanical properties :
#
#
# Convention : Reuss Voigt Hill
#
# Bulk Modulus (GPa) = 30.53837 61.61413 46.07625
# Shear Modulus (GPa) = 29.02281 40.88140 34.95211
#
# Velocity S-wave (km/s) = 3.51361 4.17010 3.85585
# Velocity P-wave (km/s) = 5.42685 7.02817 6.27877
#
# Compressibility (1/GPa) = 0.03274569
#
# Stress axis : x y z
#
# Youngs Moduli (GPa) = 48.88647 62.41860 41.28509
#
# Poissons Ratio (x) = 0.63945 -0.34396
# Poissons Ratio (y) = 0.50082 0.49802
# Poissons Ratio (z) = -0.40729 0.75296
#
# Static dielectric constant tensor:
#      x y z
#    x 1.852880 -0.027990 -0.087490 
#    y -0.027990 1.871010 0.032520 
#    z -0.087490 0.032520 1.995570 
# 
# From -- ./inp_files/6493.got.cif
#   From: 2010.05.17/outbox.cif.g08.bks.cpg/sg2_4_cif.got.tgz:6493.got - 2010.06.03 11:33:40.
