data_PCOD9009392
_publ_section_title
;
Structure prediction by ZEFSAII (Michael W. Deem and Ramdas Pophale) SiO2 
 PCOD9009392
Probable space group: P -1
;
_chemical_formula_sum "Si O2"
_cell_formula_units_Z 16
_cell_length_a 17.059115
_cell_length_b 9.223491
_cell_length_c 9.384050
_cell_angle_alpha 61.447863
_cell_angle_beta 144.576082
_cell_angle_gamma 117.612848
_cell_volume 743.758714
_symmetry_space_group_name_H-M "P -1"
_symmetry_group_IT_number 2
_symmetry_cell_setting 'triclinic'
loop_
_space_group_symop_operation_xyz
x,y,z
-x,-y,-z
loop_
_atom_site_type_symbol
_atom_site_label
_atom_site_fract_x
_atom_site_fract_y
_atom_site_fract_z
Si Si1 0.384292 0.993014 0.044947
Si Si2 0.052090 0.334416 0.603991
Si Si3 0.642611 0.669759 0.012502
Si Si4 0.636488 0.867294 0.370126
Si Si5 0.081379 0.853384 0.741159
Si Si6 0.637875 0.526818 0.394972
Si Si7 0.108903 0.656313 0.139173
Si Si8 0.094569 0.884140 0.270483
O O1 0.507155 0.884425 0.270788
O O2 0.394333 0.144965 0.100917
O O3 0.390097 0.077645 0.857553
O O4 0.235851 0.888928 0.897296
O O5 0.213225 0.329778 0.851939
O O6 0.000000 0.500000 0.500000
O O7 0.003529 0.306358 0.383433
O O8 0.971437 0.184845 0.647083
O O9 0.660198 0.594695 0.232838
O O10 0.519078 0.559587 0.799758
O O11 0.663862 0.678625 0.474618
O O12 0.761235 0.000530 0.546494
O O13 0.086545 0.813108 0.933348
O O14 0.000000 0.000000 0.500000
O O15 0.742792 0.398091 0.638621
O O16 0.102130 0.723424 0.257701
O O17 0.000000 0.500000 0.000000
O O18 0.000000 0.000000 0.000000
#
# Coordination Sequence:
#
# PCOD9009392 Si02
#       8
#     2   2   2   2   2   2   2   2
#     4  10  21  39  68  96 126 175 228 272 322 401
#     4  12  25  40  68 101 132 171 227 277 327 396
#     4  10  21  40  68  97 137 181 222 272 333 408
#     4  10  22  41  68  97 130 173 225 274 329 395
#     4  12  24  44  70  98 131 179 230 274 330 404
#     4  10  22  42  66 100 139 177 221 273 344 399
#     4  12  26  44  68  99 139 179 218 279 344 395
#     4  12  25  43  66  98 135 173 219 274 334 394
#
# _framework density 21.512354999999999
#
# number of rings (size 3 to 8) (size 9 to 14) (size 15 to 20)
#    0.000    1.000    2.500    4.500    3.500    2.000 
#    2.250    1.875    0.000    0.000    0.000    0.000 
#    0.000    0.000    0.000    0.000    0.000    0.000 
#
# Total GULP energy -89440.652646 kJ/mol
# GULP energy per Si atom -5590.040790 kJ/mol
# Density = 2.146339 g / cm^3
# Si number density = 21.512355 Si / 1000 Ang^3
#
#
#
# Elastic Constant Matrix: (Units=GPa)
#
#
# Indices 1 2 3 4 5 6 
#
# 1 95.6110 36.5882 48.6817 11.0663 31.9804 -8.9702
# 2 36.5882 110.3703 42.3986 14.6076 18.7453 -24.0653
# 3 48.6817 42.3986 73.8914 5.2198 20.6373 2.2990
# 4 11.0663 14.6076 5.2198 40.6591 8.7449 3.2695
# 5 31.9804 18.7453 20.6373 8.7449 38.4681 4.7360
# 6 -8.9702 -24.0653 2.2990 3.2695 4.7360 36.1937
#
#
#
# Elastic Compliance Matrix: (Units=1/GPa)
#
#
# Indices 1 2 3 4 5 6 
#
# 1 0.021029 0.002032 -0.011539 -0.002974 -0.012743 0.009232
# 2 0.002032 0.016407 -0.009372 -0.005206 -0.005091 0.013144
# 3 -0.011539 -0.009372 0.026458 0.003913 0.000453 -0.011185
# 4 -0.002974 -0.005206 0.003913 0.027866 -0.002609 -0.006623
# 5 -0.012743 -0.005091 0.000453 -0.002609 0.040859 -0.011683
# 6 0.009232 0.013144 -0.011185 -0.006623 -0.011683 0.041494
#
#
# Mechanical properties :
#
#
# Convention : Reuss Voigt Hill
#
# Bulk Modulus (GPa) = 38.26052 59.46774 48.86413
# Shear Modulus (GPa) = 22.66710 33.21112 27.93911
#
# Velocity S-wave (km/s) = 3.24956 3.93341 3.60772
# Velocity P-wave (km/s) = 5.64832 6.95215 6.33388
#
# Compressibility (1/GPa) = 0.02613660
#
# Stress axis : x y z
#
# Youngs Moduli (GPa) = 47.55268 60.95013 37.79535
#
# Poissons Ratio (x) = -0.12386 0.43611
# Poissons Ratio (y) = -0.09664 0.35423
# Poissons Ratio (z) = 0.54870 0.57124
#
# Static dielectric constant tensor:
#      x y z
#    x 1.518160 -0.150150 -0.053680 
#    y -0.150150 1.710020 -0.022380 
#    z -0.053680 -0.022380 1.755940 
# 
# From -- ./inp_files/298061.got.cif
#   From: 2010.05.17/outbox.cif.g08.bks.cpg/sg2_150_cif.got.tgz:298061.got - 2010.06.03 11:33:40.
