data_PCOD9009773
_publ_section_title
;
Structure prediction by ZEFSAII (Michael W. Deem and Ramdas Pophale) SiO2 
 PCOD9009773
Probable space group: P -1
;
_chemical_formula_sum "Si O2"
_cell_formula_units_Z 16
_cell_length_a 24.641000
_cell_length_b 18.200749
_cell_length_c 6.886497
_cell_angle_alpha 54.121648
_cell_angle_beta 137.742534
_cell_angle_gamma 158.034925
_cell_volume 712.355783
_symmetry_space_group_name_H-M "P -1"
_symmetry_group_IT_number 2
_symmetry_cell_setting 'triclinic'
loop_
_space_group_symop_operation_xyz
x,y,z
-x,-y,-z
loop_
_atom_site_type_symbol
_atom_site_label
_atom_site_fract_x
_atom_site_fract_y
_atom_site_fract_z
Si Si1 0.847128 0.137799 0.046654
Si Si2 0.901263 0.302528 0.544307
Si Si3 0.120319 0.183569 0.217486
Si Si4 0.682653 0.853481 0.738129
Si Si5 0.590835 0.903704 0.100565
Si Si6 0.615210 0.524126 0.228073
Si Si7 0.735605 0.713475 0.906836
Si Si8 0.858014 0.589536 0.250881
O O1 0.025204 0.306105 0.401112
O O2 0.670827 0.976072 0.980432
O O3 0.863769 0.231217 0.777482
O O4 0.819680 0.022229 0.014130
O O5 0.000000 0.500000 0.500000
O O6 0.047001 0.381178 0.701100
O O7 0.705003 0.101545 0.206969
O O8 0.176534 0.251359 0.482596
O O9 0.303849 0.331243 0.355115
O O10 0.106073 0.270527 0.952063
O O11 0.965420 0.945602 0.163225
O O12 0.677714 0.911356 0.449882
O O13 0.481586 0.651208 0.630830
O O14 0.716127 0.789640 0.838379
O O15 0.363422 0.662598 0.903723
O O16 0.500000 0.500000 0.000000
O O17 0.632033 0.530387 0.034355
#
# Coordination Sequence:
#
# PCOD9009773 Si02
#       8
#     2   2   2   2   2   2   2   2
#     4  10  23  41  67  96 127 172 213 260 324 387
#     4  10  24  47  71  99 136 164 201 262 325 394
#     4  11  22  39  56  84 127 163 218 274 314 371
#     4  10  21  40  59  85 129 167 220 268 315 375
#     4  10  22  42  67  98 131 172 214 260 322 385
#     4  10  22  35  55  82 114 166 216 264 315 369
#     4  10  23  36  57  84 119 171 218 273 321 360
#     4  11  24  42  68  97 131 171 216 268 323 384
#
# _framework density 22.460685999999999
#
# number of rings (size 3 to 8) (size 9 to 14) (size 15 to 20)
#    0.000    1.750    1.250    2.625    1.750   14.500 
#    0.000    1.250    0.000    0.000    0.000    0.000 
#    0.000    0.000    0.000    0.000    0.000    0.000 
#
# Total GULP energy -89113.710121 kJ/mol
# GULP energy per Si atom -5569.606883 kJ/mol
# Density = 2.240956 g / cm^3
# Si number density = 22.460686 Si / 1000 Ang^3
#
#
#
# Elastic Constant Matrix: (Units=GPa)
#
#
# Indices 1 2 3 4 5 6 
#
# 1 88.5483 62.5592 40.2873 -12.2686 -15.3738 5.7764
# 2 62.5592 126.3006 44.0664 -1.8046 -6.7327 10.4767
# 3 40.2873 44.0664 95.5562 -2.7098 -25.0716 12.7796
# 4 -12.2686 -1.8046 -2.7098 32.7207 11.8598 -8.5089
# 5 -15.3738 -6.7327 -25.0716 11.8598 23.7169 -5.9279
# 6 5.7764 10.4767 12.7796 -8.5089 -5.9279 42.0625
#
#
#
# Elastic Compliance Matrix: (Units=1/GPa)
#
#
# Indices 1 2 3 4 5 6 
#
# 1 0.020626 -0.008849 -0.003485 0.005794 0.004849 0.002286
# 2 -0.008849 0.013451 -0.003727 -0.001361 -0.005698 -0.002081
# 3 -0.003485 -0.003727 0.019138 -0.008061 0.020146 -0.003199
# 4 0.005794 -0.001361 -0.008061 0.042837 -0.024782 0.007165
# 5 0.004849 -0.005698 0.020146 -0.024782 0.077514 0.000543
# 6 0.002286 -0.002081 -0.003199 0.007165 0.000543 0.026477
#
#
# Mechanical properties :
#
#
# Convention : Reuss Voigt Hill
#
# Bulk Modulus (GPa) = 47.40907 67.13676 57.27292
# Shear Modulus (GPa) = 20.90345 30.59950 25.75148
#
# Velocity S-wave (km/s) = 3.05400 3.69502 3.38969
# Velocity P-wave (km/s) = 5.79562 6.93973 6.39332
#
# Compressibility (1/GPa) = 0.02109301
#
# Stress axis : x y z
#
# Youngs Moduli (GPa) = 48.48262 74.34622 52.25213
#
# Poissons Ratio (x) = 0.65789 0.18207
# Poissons Ratio (y) = 0.42902 0.19475
# Poissons Ratio (z) = 0.16894 0.27710
#
# Static dielectric constant tensor:
#      x y z
#    x 1.908500 0.047370 -0.001050 
#    y 0.047370 1.974040 0.050840 
#    z -0.001050 0.050840 1.838100 
# 
# From -- ./inp_files/127588.got.cif
#   From: 2010.05.17/outbox.cif.g08.bks.cpg/sg2_64_cif.got.tgz:127588.got - 2010.06.03 11:33:40.
