data_PCOD9009063
_publ_section_title
;
Structure prediction by ZEFSAII (Michael W. Deem and Ramdas Pophale) SiO2 
 PCOD9009063
Probable space group: P -1
;
_chemical_formula_sum "Si O2"
_cell_formula_units_Z 16
_cell_length_a 11.417099
_cell_length_b 14.189379
_cell_length_c 8.324354
_cell_angle_alpha 126.645285
_cell_angle_beta 100.019443
_cell_angle_gamma 43.136006
_cell_volume 650.299562
_symmetry_space_group_name_H-M "P -1"
_symmetry_group_IT_number 2
_symmetry_cell_setting 'triclinic'
loop_
_space_group_symop_operation_xyz
x,y,z
-x,-y,-z
loop_
_atom_site_type_symbol
_atom_site_label
_atom_site_fract_x
_atom_site_fract_y
_atom_site_fract_z
Si Si1 0.803095 0.483856 0.255309
Si Si2 0.832428 0.672962 0.254365
Si Si3 0.512352 0.500164 0.193950
Si Si4 0.439284 0.791654 0.984289
Si Si5 0.143356 0.546574 0.417845
Si Si6 0.085521 0.839344 0.584084
Si Si7 0.827508 0.968576 0.142417
Si Si8 0.714354 0.013009 0.507532
O O1 0.737649 0.630458 0.259322
O O2 0.646410 0.505376 0.262853
O O3 0.823571 0.529266 0.476829
O O4 0.008619 0.260840 0.034865
O O5 0.714418 0.871452 0.352231
O O6 0.951772 0.642738 0.393970
O O7 0.000000 0.500000 0.000000
O O8 0.596669 0.319405 0.116357
O O9 0.292396 0.681254 0.384823
O O10 0.500000 0.500000 0.000000
O O11 0.665693 0.627267 0.821125
O O12 0.302098 0.942727 0.959678
O O13 0.396101 0.874456 0.235794
O O14 0.108783 0.714927 0.590480
O O15 0.920299 0.918830 0.505607
O O16 0.062925 0.989976 0.792718
O O17 0.692754 0.068791 0.373003
#
# Coordination Sequence:
#
# PCOD9009063 Si02
#       8
#     2   2   2   2   2   2   2   2
#     4  12  24  42  72  98 132 182 226 277 334 399
#     4  11  24  47  70  93 128 180 236 275 330 398
#     4  11  23  40  68 104 139 176 220 272 338 404
#     4  11  25  43  68 103 141 172 216 280 340 402
#     4  10  24  44  68  98 135 174 225 277 332 402
#     4  10  21  39  66  99 137 171 218 275 337 402
#     4  12  22  39  66 102 135 172 222 270 342 402
#     4  11  23  44  69  97 133 180 226 279 332 395
#
# _framework density 24.604044999999999
#
# number of rings (size 3 to 8) (size 9 to 14) (size 15 to 20)
#    0.000    1.000    1.250    6.000    3.500    3.500 
#    0.000    4.375    0.000    0.000    0.000    0.000 
#    0.000    0.000    0.000    0.000    0.000    0.000 
#
# Total GULP energy -89540.228753 kJ/mol
# GULP energy per Si atom -5596.264297 kJ/mol
# Density = 2.454805 g / cm^3
# Si number density = 24.604045 Si / 1000 Ang^3
#
#
#
# Elastic Constant Matrix: (Units=GPa)
#
#
# Indices 1 2 3 4 5 6 
#
# 1 61.9225 40.7331 20.8415 -2.8834 5.1577 20.7592
# 2 40.7331 127.2943 33.8071 -14.5696 -1.0868 13.3522
# 3 20.8415 33.8071 104.5509 1.5189 -12.9501 18.7506
# 4 -2.8834 -14.5696 1.5189 41.1054 7.7798 6.2264
# 5 5.1577 -1.0868 -12.9501 7.7798 30.3595 -0.0094
# 6 20.7592 13.3522 18.7506 6.2264 -0.0094 38.1878
#
#
#
# Elastic Compliance Matrix: (Units=1/GPa)
#
#
# Indices 1 2 3 4 5 6 
#
# 1 0.025107 -0.006176 -0.001798 0.002417 -0.005876 -0.011002
# 2 -0.006176 0.010865 -0.002428 0.003579 -0.000515 0.000167
# 3 -0.001798 -0.002428 0.012153 -0.001975 0.005908 -0.003818
# 4 0.002417 0.003579 -0.001975 0.028371 -0.008397 -0.006223
# 5 -0.005876 -0.000515 0.005908 -0.008397 0.038591 0.001852
# 6 -0.011002 0.000167 -0.003818 -0.006223 0.001852 0.034999
#
#
# Mechanical properties :
#
#
# Convention : Reuss Voigt Hill
#
# Bulk Modulus (GPa) = 36.60023 53.83676 45.21849
# Shear Modulus (GPa) = 27.77837 35.15628 31.46733
#
# Velocity S-wave (km/s) = 3.36373 3.78416 3.58012
# Velocity P-wave (km/s) = 5.47670 6.40483 5.95886
#
# Compressibility (1/GPa) = 0.02732223
#
# Stress axis : x y z
#
# Youngs Moduli (GPa) = 39.82887 92.04143 82.28295
#
# Poissons Ratio (x) = 0.56847 0.14792
# Poissons Ratio (y) = 0.24599 0.19975
# Poissons Ratio (z) = 0.07160 0.22344
#
# Static dielectric constant tensor:
#      x y z
#    x 1.921450 0.028140 -0.047460 
#    y 0.028140 1.936790 0.071350 
#    z -0.047460 0.071350 1.993260 
# 
# From -- ./inp_files/274397.got.cif
#   From: 2010.05.17/outbox.cif.g08.bks.cpg/sg2_138_cif.got.tgz:274397.got - 2010.06.03 11:33:40.
