data_PCOD9009239
_publ_section_title
;
Structure prediction by ZEFSAII (Michael W. Deem and Ramdas Pophale) SiO2 
 PCOD9009239
Probable space group: P -1
;
_chemical_formula_sum "Si O2"
_cell_formula_units_Z 16
_cell_length_a 23.778803
_cell_length_b 29.801314
_cell_length_c 10.727851
_cell_angle_alpha 30.286100
_cell_angle_beta 30.206957
_cell_angle_gamma 11.127590
_cell_volume 728.645097
_symmetry_space_group_name_H-M "P -1"
_symmetry_group_IT_number 2
_symmetry_cell_setting 'triclinic'
loop_
_space_group_symop_operation_xyz
x,y,z
-x,-y,-z
loop_
_atom_site_type_symbol
_atom_site_label
_atom_site_fract_x
_atom_site_fract_y
_atom_site_fract_z
Si Si1 0.097672 0.875700 0.236289
Si Si2 0.124703 0.414136 0.323789
Si Si3 0.252411 0.002688 0.264041
Si Si4 0.719532 0.954336 0.392283
Si Si5 0.819301 0.230934 0.083913
Si Si6 0.766619 0.362759 0.116285
Si Si7 0.822548 0.499631 0.509332
Si Si8 0.668145 0.864607 0.126848
O O1 0.452618 0.603984 0.210203
O O2 0.963374 0.875849 0.504882
O O3 0.000000 0.000000 0.000000
O O4 0.937658 0.050613 0.233943
O O5 0.000000 0.500000 0.500000
O O6 0.950591 0.477958 0.411592
O O7 0.009623 0.596841 0.078843
O O8 0.473630 0.145300 0.296641
O O9 0.047201 0.145414 0.191441
O O10 0.553154 0.730224 0.384927
O O11 0.337683 0.043370 0.001267
O O12 0.928411 0.885156 0.164958
O O13 0.917767 0.722787 0.544931
O O14 0.514658 0.083097 0.591487
O O15 0.500000 0.500000 0.000000
O O16 0.784511 0.268714 0.208452
O O17 0.768596 0.450947 0.814337
O O18 0.500000 0.000000 0.000000
#
# Coordination Sequence:
#
# PCOD9009239 Si02
#       8
#     2   2   2   2   2   2   2   2
#     4  12  24  44  76  98 142 195 235 297 361 414
#     4  10  21  39  67  97 132 181 230 282 345 421
#     4  12  26  45  70 105 143 186 239 291 356 427
#     4  10  24  42  70 100 134 183 232 285 358 419
#     4  11  24  45  74 107 137 188 242 290 359 422
#     4  11  25  46  71 106 143 186 242 299 350 429
#     4  11  22  45  70  96 146 181 226 294 359 420
#     4  11  24  42  65 104 140 178 229 294 342 419
#
# _framework density 21.958563999999999
#
# number of rings (size 3 to 8) (size 9 to 14) (size 15 to 20)
#    0.000    1.000    3.750    3.000    7.000    2.000 
#    4.500    0.000    0.000    0.000    0.000    0.000 
#    0.000    0.000    0.000    0.000    0.000    0.000 
#
# Total GULP energy -89077.773265 kJ/mol
# GULP energy per Si atom -5567.360829 kJ/mol
# Density = 2.190859 g / cm^3
# Si number density = 21.958564 Si / 1000 Ang^3
#
#
#
# Elastic Constant Matrix: (Units=GPa)
#
#
# Indices 1 2 3 4 5 6 
#
# 1 60.4394 24.2529 -30.8961 -7.7981 -18.1986 -36.7528
# 2 24.2529 130.5544 -9.9316 -10.3679 -22.3953 -44.5918
# 3 -30.8961 -9.9316 11.6266 4.3974 -27.0136 -18.3681
# 4 -7.7981 -10.3679 4.3974 32.0425 -6.3577 4.2093
# 5 -18.1986 -22.3953 -27.0136 -6.3577 12.7309 -15.3648
# 6 -36.7528 -44.5918 -18.3681 4.2093 -15.3648 35.5308
#
#
#
# Elastic Compliance Matrix: (Units=1/GPa)
#
#
# Indices 1 2 3 4 5 6 
#
# 1 0.010585 -0.005308 -0.005816 0.000008 -0.010454 -0.003241
# 2 -0.005308 0.008925 -0.005864 0.001961 -0.000833 0.002086
# 3 -0.005816 -0.005864 0.010790 -0.006022 -0.015247 -0.013677
# 4 0.000008 0.001961 -0.006022 0.033869 0.004139 -0.002866
# 5 -0.010454 -0.000833 -0.015247 0.004139 0.015556 -0.013504
# 6 -0.003241 0.002086 -0.013677 -0.002866 -0.013504 0.014840
#
#
# Mechanical properties :
#
#
# Convention : Reuss Voigt Hill
#
# Bulk Modulus (GPa) = -272.09074 18.83009 -126.63033
# Shear Modulus (GPa) = 39.27186 30.67386 34.97286
#
# Velocity S-wave (km/s) = 4.23360 3.74156 3.99516
# Velocity P-wave (km/s) = 10.01410 5.22108 6.04246
#
# Compressibility (1/GPa) = -0.00367524
#
# Stress axis : x y z
#
# Youngs Moduli (GPa) = 94.46933 112.04427 92.67493
#
# Poissons Ratio (x) = 0.59476 0.53898
# Poissons Ratio (y) = 0.50147 0.54344
# Poissons Ratio (z) = 0.54942 0.65702
#
# Static dielectric constant tensor:
#      x y z
#    x 1.826400 -0.013580 0.031270 
#    y -0.013580 1.954590 -0.117450 
#    z 0.031270 -0.117450 1.931260 
# 
# From -- ./inp_files/475776.got.cif
#   From: 2010.05.17/outbox.cif.g08.bks.cpg/sg2_238_cif.got.tgz:475776.got - 2010.06.03 11:33:40.
