data_PCOD9009391
_publ_section_title
;
Structure prediction by ZEFSAII (Michael W. Deem and Ramdas Pophale) SiO2 
 PCOD9009391
Probable space group: P -1
;
_chemical_formula_sum "Si O2"
_cell_formula_units_Z 14
_cell_length_a 11.581955
_cell_length_b 9.927347
_cell_length_c 11.387092
_cell_angle_alpha 39.918317
_cell_angle_beta 80.854807
_cell_angle_gamma 56.540071
_cell_volume 609.812453
_symmetry_space_group_name_H-M "P -1"
_symmetry_group_IT_number 2
_symmetry_cell_setting 'triclinic'
loop_
_space_group_symop_operation_xyz
x,y,z
-x,-y,-z
loop_
_atom_site_type_symbol
_atom_site_label
_atom_site_fract_x
_atom_site_fract_y
_atom_site_fract_z
Si Si1 0.454985 0.458469 0.409565
Si Si2 0.173624 0.501212 0.501328
Si Si3 0.276057 0.135319 0.528918
Si Si4 0.961105 0.878704 0.486712
Si Si5 0.860428 0.618950 0.034239
Si Si6 0.379064 0.171497 0.251213
Si Si7 0.364771 0.992163 0.998807
O O1 0.500000 0.500000 0.500000
O O2 0.294146 0.524735 0.412039
O O3 0.579179 0.126820 0.575008
O O4 0.437663 0.673655 0.178882
O O5 0.141655 0.392560 0.466411
O O6 0.049779 0.783726 0.411005
O O7 0.266083 0.226336 0.756347
O O8 0.294763 0.269502 0.325581
O O9 0.217390 0.977812 0.604461
O O10 0.451098 0.921235 0.703062
O O11 0.042469 0.587384 0.734794
O O12 0.000000 0.000000 0.500000
O O13 0.737790 0.626909 0.971130
O O14 0.000000 0.500000 0.000000
O O15 0.742352 0.912455 0.930206
O O16 0.500000 0.000000 0.000000
#
# Coordination Sequence:
#
# PCOD9009391 Si02
#       7
#     2   2   2   2   2   2   2
#     4  11  20  36  67  95 132 167 227 274 321 394
#     4  10  23  40  62  95 132 178 214 269 343 391
#     4  10  21  43  64  90 137 176 212 267 341 402
#     4  11  25  40  67  97 130 171 226 278 329 396
#     4  11  22  39  65  97 134 170 219 279 332 387
#     4  10  21  39  68  96 124 181 221 266 334 395
#     4  11  21  37  63  99 134 176 222 278 330 390
#
# _framework density 22.957877
#
# number of rings (size 3 to 8) (size 9 to 14) (size 15 to 20)
#    0.000    1.429    4.286    1.286    4.000    0.000 
#    0.000    5.714    0.000    8.571    0.000    0.000 
#    0.000    0.000    0.000    0.000    0.000    0.000 
#
# Total GULP energy -77965.431659 kJ/mol
# GULP energy per Si atom -5568.959404 kJ/mol
# Density = 2.290562 g / cm^3
# Si number density = 22.957877 Si / 1000 Ang^3
#
#
#
# Elastic Constant Matrix: (Units=GPa)
#
#
# Indices 1 2 3 4 5 6 
#
# 1 109.3173 38.9414 22.0544 -3.2928 6.9243 19.6020
# 2 38.9414 139.7367 -10.1016 8.5818 1.0711 -10.8395
# 3 22.0544 -10.1016 53.7474 2.2766 -1.6667 2.1822
# 4 -3.2928 8.5818 2.2766 25.0515 7.6270 0.3152
# 5 6.9243 1.0711 -1.6667 7.6270 34.5992 7.9190
# 6 19.6020 -10.8395 2.1822 0.3152 7.9190 39.0638
#
#
#
# Elastic Compliance Matrix: (Units=1/GPa)
#
#
# Indices 1 2 3 4 5 6 
#
# 1 0.014089 -0.005309 -0.006753 0.005092 -0.002333 -0.007734
# 2 -0.005309 0.009591 0.004004 -0.004669 0.000851 0.004967
# 3 -0.006753 0.004004 0.022326 -0.005182 0.002822 0.002722
# 4 0.005092 -0.004669 -0.005182 0.045987 -0.010866 -0.001730
# 5 -0.002333 0.000851 0.002822 -0.010866 0.033104 -0.005374
# 6 -0.007734 0.004967 0.002722 -0.001730 -0.005374 0.031810
#
#
# Mechanical properties :
#
#
# Convention : Reuss Voigt Hill
#
# Bulk Modulus (GPa) = 33.45839 44.95440 39.20640
# Shear Modulus (GPa) = 27.32429 36.53670 31.93049
#
# Velocity S-wave (km/s) = 3.45366 3.99365 3.73343
# Velocity P-wave (km/s) = 5.52351 6.39448 5.97489
#
# Compressibility (1/GPa) = 0.02988787
#
# Stress axis : x y z
#
# Youngs Moduli (GPa) = 70.97514 104.26610 44.79170
#
# Poissons Ratio (x) = 0.55359 0.30249
# Poissons Ratio (y) = 0.37683 -0.17933
# Poissons Ratio (z) = 0.47931 -0.41744
#
# Static dielectric constant tensor:
#      x y z
#    x 1.898770 0.054960 0.003980 
#    y 0.054960 2.027220 -0.105660 
#    z 0.003980 -0.105660 1.862070 
# 
# From -- ./inp_files/418910.got.cif
#   From: 2010.05.17/outbox.cif.g08.bks.cpg/sg2_210_cif.got.tgz:418910.got - 2010.06.03 11:33:40.
