data_PCOD9009955
_publ_section_title
;
Structure prediction by ZEFSAII (Michael W. Deem and Ramdas Pophale) SiO2 
 PCOD9009955
Probable space group: P -1
;
_chemical_formula_sum "Si O2"
_cell_formula_units_Z 14
_cell_length_a 17.051465
_cell_length_b 11.978346
_cell_length_c 9.746696
_cell_angle_alpha 141.874428
_cell_angle_beta 116.281490
_cell_angle_gamma 39.189890
_cell_volume 701.951681
_symmetry_space_group_name_H-M "P -1"
_symmetry_group_IT_number 2
_symmetry_cell_setting 'triclinic'
loop_
_space_group_symop_operation_xyz
x,y,z
-x,-y,-z
loop_
_atom_site_type_symbol
_atom_site_label
_atom_site_fract_x
_atom_site_fract_y
_atom_site_fract_z
Si Si1 0.775114 0.733144 0.762710
Si Si2 0.447112 0.468768 0.763463
Si Si3 0.045198 0.126901 0.707402
Si Si4 0.504282 0.646767 0.760816
Si Si5 0.289583 0.550778 0.467668
Si Si6 0.304084 0.998904 0.324636
Si Si7 0.071383 0.381273 0.742294
O O1 0.783536 0.518945 0.620993
O O2 0.735750 0.806649 0.643067
O O3 0.919450 0.599023 0.771513
O O4 0.645506 0.029566 0.025171
O O5 0.531455 0.496732 0.778497
O O6 0.379292 0.462033 0.583592
O O7 0.552051 0.192757 0.672455
O O8 0.333011 0.756986 0.042231
O O9 0.089182 0.188792 0.677569
O O10 0.175785 0.882208 0.668585
O O11 0.931722 0.424396 0.989115
O O12 0.000000 0.000000 0.500000
O O13 0.500000 0.500000 0.500000
O O14 0.615201 0.608497 0.748906
O O15 0.184996 0.190910 0.529710
#
# Coordination Sequence:
#
# PCOD9009955 Si02
#       7
#     2   2   2   2   2   2   2
#     4  11  22  37  59  91 127 160 201 252 299 370
#     4   9  20  39  63  86 120 156 210 250 296 366
#     4  11  23  42  62  92 121 154 207 256 303 361
#     4   9  18  35  60  85 114 160 202 248 305 347
#     4  11  21  38  60  91 123 155 205 257 305 357
#     4  10  21  40  61  87 118 170 200 240 310 358
#     4  11  23  42  66  87 127 161 201 254 305 362
#
# _framework density 19.944393000000002
#
# number of rings (size 3 to 8) (size 9 to 14) (size 15 to 20)
#    0.000    1.714    1.429    4.286    0.000    4.000 
#    5.143    1.429    0.000    0.000    0.000    0.000 
#    0.000    0.000    0.000    0.000    0.000    0.000 
#
# Total GULP energy -78129.781535 kJ/mol
# GULP energy per Si atom -5580.698681 kJ/mol
# Density = 1.989900 g / cm^3
# Si number density = 19.944393 Si / 1000 Ang^3
#
#
#
# Elastic Constant Matrix: (Units=GPa)
#
#
# Indices 1 2 3 4 5 6 
#
# 1 77.1679 22.1375 64.7268 1.3219 -7.3551 10.8868
# 2 22.1375 95.3537 22.0682 6.5727 9.6305 21.1618
# 3 64.7268 22.0682 125.3768 -0.9351 -26.7208 16.3432
# 4 1.3219 6.5727 -0.9351 28.2378 0.8793 3.4164
# 5 -7.3551 9.6305 -26.7208 0.8793 30.5218 -3.9360
# 6 10.8868 21.1618 16.3432 3.4164 -3.9360 30.9020
#
#
#
# Elastic Compliance Matrix: (Units=1/GPa)
#
#
# Indices 1 2 3 4 5 6 
#
# 1 0.024148 -0.001771 -0.013159 -0.000882 -0.005234 -0.000904
# 2 -0.001771 0.014286 -0.002150 -0.002002 -0.007894 -0.008806
# 3 -0.013159 -0.002150 0.018228 0.001556 0.013159 -0.002028
# 4 -0.000882 -0.002002 0.001556 0.036339 0.000332 -0.003116
# 5 -0.005234 -0.007894 0.013159 0.000332 0.046297 0.006150
# 6 -0.000904 -0.008806 -0.002028 -0.003116 0.006150 0.040910
#
#
# Mechanical properties :
#
#
# Convention : Reuss Voigt Hill
#
# Bulk Modulus (GPa) = 44.43886 57.30707 50.87296
# Shear Modulus (GPa) = 22.53587 30.53006 26.53296
#
# Velocity S-wave (km/s) = 3.36510 3.91674 3.65135
# Velocity P-wave (km/s) = 6.11786 7.01785 6.58325
#
# Compressibility (1/GPa) = 0.02250283
#
# Stress axis : x y z
#
# Youngs Moduli (GPa) = 41.41097 70.00080 54.85950
#
# Poissons Ratio (x) = 0.12395 0.72190
# Poissons Ratio (y) = 0.07333 0.11794
# Poissons Ratio (z) = 0.54493 0.15049
#
# Static dielectric constant tensor:
#      x y z
#    x 1.727550 -0.006010 0.011640 
#    y -0.006010 1.722620 -0.007130 
#    z 0.011640 -0.007130 1.695670 
# 
# From -- ./inp_files/285840.got.cif
#   From: 2010.05.17/outbox.cif.g08.bks.cpg/sg2_143_cif.got.tgz:285840.got - 2010.06.03 11:33:40.
