data_PCOD9009622
_publ_section_title
;
Structure prediction by ZEFSAII (Michael W. Deem and Ramdas Pophale) SiO2 
 PCOD9009622
Probable space group: P -1
;
_chemical_formula_sum "Si O2"
_cell_formula_units_Z 14
_cell_length_a 17.205676
_cell_length_b 11.376687
_cell_length_c 5.134808
_cell_angle_alpha 91.285756
_cell_angle_beta 73.562070
_cell_angle_gamma 142.055433
_cell_volume 557.390814
_symmetry_space_group_name_H-M "P -1"
_symmetry_group_IT_number 2
_symmetry_cell_setting 'triclinic'
loop_
_space_group_symop_operation_xyz
x,y,z
-x,-y,-z
loop_
_atom_site_type_symbol
_atom_site_label
_atom_site_fract_x
_atom_site_fract_y
_atom_site_fract_z
Si Si1 0.035285 0.349998 0.438858
Si Si2 0.695306 0.456058 0.637827
Si Si3 0.346680 0.329249 0.500672
Si Si4 0.396041 0.042901 0.070793
Si Si5 0.848140 0.285570 0.345980
Si Si6 0.347430 0.790382 0.760004
Si Si7 0.245289 0.079347 0.068589
O O1 0.169056 0.422907 0.317945
O O2 0.087145 0.529812 0.541154
O O3 0.958149 0.309212 0.250689
O O4 0.910016 0.139277 0.704346
O O5 0.689119 0.581196 0.548959
O O6 0.688466 0.368361 0.377383
O O7 0.558221 0.269642 0.938489
O O8 0.500000 0.500000 0.500000
O O9 0.325931 0.232653 0.247052
O O10 0.247643 0.163108 0.816312
O O11 0.332248 0.062686 0.930994
O O12 0.293280 0.934929 0.404713
O O13 0.374396 0.879951 0.020188
O O14 0.787169 0.284834 0.165887
O O15 0.500000 0.000000 0.500000
#
# Coordination Sequence:
#
# PCOD9009622 Si02
#       7
#     2   2   2   2   2   2   2
#     4   9  21  42  63 102 135 188 222 288 351 425
#     4  10  22  42  65 102 143 176 242 283 351 408
#     4  12  26  49  75 104 134 189 240 294 339 412
#     4  10  21  39  71 102 132 181 232 295 342 419
#     4   9  19  40  64  94 143 179 230 272 364 416
#     4   9  20  37  61 103 132 170 225 290 347 404
#     4  11  26  46  76 101 140 184 241 284 351 413
#
# _framework density 25.117024000000001
#
# number of rings (size 3 to 8) (size 9 to 14) (size 15 to 20)
#    0.000    2.000    1.429    0.429    4.000    6.286 
#   10.286    6.429    0.000    0.000    0.000    0.000 
#    0.000    0.000    0.000    0.000    0.000    0.000 
#
# Total GULP energy -78096.681608 kJ/mol
# GULP energy per Si atom -5578.334401 kJ/mol
# Density = 2.505986 g / cm^3
# Si number density = 25.117024 Si / 1000 Ang^3
#
#
#
# Elastic Constant Matrix: (Units=GPa)
#
#
# Indices 1 2 3 4 5 6 
#
# 1 176.3280 65.3979 34.2295 -15.9300 -15.9021 11.3244
# 2 65.3979 109.5197 52.2015 1.6323 -12.7016 -2.4325
# 3 34.2295 52.2015 96.3067 -22.9139 -2.3419 4.9146
# 4 -15.9300 1.6323 -22.9139 66.9746 6.9407 -7.6508
# 5 -15.9021 -12.7016 -2.3419 6.9407 25.9781 -8.2479
# 6 11.3244 -2.4325 4.9146 -7.6508 -8.2479 53.6293
#
#
#
# Elastic Compliance Matrix: (Units=1/GPa)
#
#
# Indices 1 2 3 4 5 6 
#
# 1 0.007715 -0.004607 0.000273 0.001718 0.001600 -0.001372
# 2 -0.004607 0.016967 -0.008698 -0.004870 0.006916 0.002908
# 3 0.000273 -0.008698 0.016451 0.006199 -0.004836 -0.001819
# 4 0.001718 -0.004870 0.006199 0.018213 -0.005443 0.000609
# 5 0.001600 0.006916 -0.004836 -0.005443 0.046006 0.006718
# 6 -0.001372 0.002908 -0.001819 0.000609 0.006718 0.020355
#
#
# Mechanical properties :
#
#
# Convention : Reuss Voigt Hill
#
# Bulk Modulus (GPa) = 66.36484 76.20135 71.28310
# Shear Modulus (GPa) = 31.88898 44.67143 38.28021
#
# Velocity S-wave (km/s) = 3.56703 4.22184 3.90817
# Velocity P-wave (km/s) = 6.59125 7.36000 6.98621
#
# Compressibility (1/GPa) = 0.01506822
#
# Stress axis : x y z
#
# Youngs Moduli (GPa) = 129.62319 58.93750 60.78603
#
# Poissons Ratio (x) = 0.27155 -0.01660
# Poissons Ratio (y) = 0.59723 0.52872
# Poissons Ratio (z) = -0.03541 0.51264
#
# Static dielectric constant tensor:
#      x y z
#    x 2.202990 0.077400 0.133930 
#    y 0.077400 2.069270 0.055080 
#    z 0.133930 0.055080 2.167150 
# 
# From -- ./inp_files/109116.got.cif
#   From: 2010.05.17/outbox.cif.g08.bks.cpg/sg2_55_cif.got.tgz:109116.got - 2010.06.03 11:33:40.
