data_PCOD9009516
_publ_section_title
;
Structure prediction by ZEFSAII (Michael W. Deem and Ramdas Pophale) SiO2 
 PCOD9009516
Probable space group: P -1
;
_chemical_formula_sum "Si O2"
_cell_formula_units_Z 16
_cell_length_a 13.411318
_cell_length_b 10.582873
_cell_length_c 8.158767
_cell_angle_alpha 127.726405
_cell_angle_beta 133.433513
_cell_angle_gamma 73.554845
_cell_volume 645.731104
_symmetry_space_group_name_H-M "P -1"
_symmetry_group_IT_number 2
_symmetry_cell_setting 'triclinic'
loop_
_space_group_symop_operation_xyz
x,y,z
-x,-y,-z
loop_
_atom_site_type_symbol
_atom_site_label
_atom_site_fract_x
_atom_site_fract_y
_atom_site_fract_z
Si Si1 0.294472 0.308795 0.616194
Si Si2 0.104181 0.358537 0.952714
Si Si3 0.173509 0.744982 0.317743
Si Si4 0.138160 0.987276 0.044838
Si Si5 0.241182 0.066938 0.880751
Si Si6 0.457525 0.744081 0.573836
Si Si7 0.002945 0.335840 0.461357
Si Si8 0.546106 0.446570 0.251794
O O1 0.267507 0.126431 0.366619
O O2 0.154782 0.304912 0.559088
O O3 0.318094 0.448158 0.610731
O O4 0.432585 0.353748 0.918949
O O5 0.213261 0.246135 0.947716
O O6 0.005600 0.342786 0.666194
O O7 0.996216 0.287138 0.922720
O O8 0.171052 0.551509 0.204887
O O9 0.310191 0.782253 0.384007
O O10 0.208816 0.913998 0.599211
O O11 0.133559 0.018868 0.871245
O O12 0.000000 0.000000 0.000000
O O13 0.127142 0.795032 0.870673
O O14 0.404017 0.106684 0.153363
O O15 0.486480 0.591538 0.383668
O O16 0.440504 0.683702 0.697162
O O17 0.000000 0.500000 0.500000
#
# Coordination Sequence:
#
# PCOD9009516 Si02
#       8
#     2   2   2   2   2   2   2   2
#     4  10  21  40  66  98 126 181 232 268 347 412
#     4  11  25  45  69 104 136 180 231 287 354 402
#     4  11  25  39  68 104 137 173 227 289 343 405
#     4  10  23  41  67  97 133 175 229 277 344 407
#     4  12  23  46  72 100 140 181 231 288 342 419
#     4  11  22  40  67 101 137 179 227 285 346 403
#     4  11  24  43  66  96 137 177 225 288 344 413
#     4  10  21  39  69  94 135 181 227 280 338 423
#
# _framework density 24.778113999999999
#
# number of rings (size 3 to 8) (size 9 to 14) (size 15 to 20)
#    0.000    1.250    2.500    3.750    1.750    3.000 
#    4.500    0.000    0.000    2.250    0.000    0.000 
#    0.000    0.000    0.000    0.000    0.000    0.000 
#
# Total GULP energy -89254.671293 kJ/mol
# GULP energy per Si atom -5578.416956 kJ/mol
# Density = 2.472172 g / cm^3
# Si number density = 24.778114 Si / 1000 Ang^3
#
#
#
# Elastic Constant Matrix: (Units=GPa)
#
#
# Indices 1 2 3 4 5 6 
#
# 1 70.5652 4.2037 8.2256 3.1886 1.7384 -1.1480
# 2 4.2037 63.0290 32.5100 22.4386 -13.3144 -2.8350
# 3 8.2256 32.5100 143.3893 40.5753 -0.2586 -15.5779
# 4 3.1886 22.4386 40.5753 44.5786 -1.8397 -7.3700
# 5 1.7384 -13.3144 -0.2586 -1.8397 39.8032 1.0002
# 6 -1.1480 -2.8350 -15.5779 -7.3700 1.0002 32.0544
#
#
#
# Elastic Compliance Matrix: (Units=1/GPa)
#
#
# Indices 1 2 3 4 5 6 
#
# 1 0.014318 -0.000798 -0.000600 -0.000087 -0.000904 0.000159
# 2 -0.000798 0.021669 -0.002641 -0.008416 0.006916 -0.001547
# 3 -0.000600 -0.002641 0.009986 -0.007277 -0.001203 0.002962
# 4 -0.000087 -0.008416 -0.007277 0.033826 -0.001384 0.003537
# 5 -0.000904 0.006916 -0.001203 -0.001384 0.027434 -0.001180
# 6 0.000159 -0.001547 0.002962 0.003537 -0.001180 0.033356
#
#
# Mechanical properties :
#
#
# Convention : Reuss Voigt Hill
#
# Bulk Modulus (GPa) = 26.38954 40.76245 33.57600
# Shear Modulus (GPa) = 30.99849 38.75684 34.87767
#
# Velocity S-wave (km/s) = 3.54085 3.95923 3.75587
# Velocity P-wave (km/s) = 5.23357 6.11452 5.69112
#
# Compressibility (1/GPa) = 0.03789380
#
# Stress axis : x y z
#
# Youngs Moduli (GPa) = 69.84417 46.14931 100.13955
#
# Poissons Ratio (x) = 0.03684 0.06009
# Poissons Ratio (y) = 0.05575 0.26447
# Poissons Ratio (z) = 0.04191 0.12188
#
# Static dielectric constant tensor:
#      x y z
#    x 2.066370 0.020660 -0.015590 
#    y 0.020660 2.161940 -0.061610 
#    z -0.015590 -0.061610 1.959140 
# 
# From -- ./inp_files/308625.got.cif
#   From: 2010.05.17/outbox.cif.g08.bks.cpg/sg2_155_cif.got.tgz:308625.got - 2010.06.03 11:33:40.
