data_PCOD9009911
_publ_section_title
;
Structure prediction by ZEFSAII (Michael W. Deem and Ramdas Pophale) SiO2 
 PCOD9009911
Probable space group: P -1
;
_chemical_formula_sum "Si O2"
_cell_formula_units_Z 16
_cell_length_a 27.654139
_cell_length_b 5.086017
_cell_length_c 5.460157
_cell_angle_alpha 92.809466
_cell_angle_beta 105.250387
_cell_angle_gamma 59.849979
_cell_volume 637.500751
_symmetry_space_group_name_H-M "P -1"
_symmetry_group_IT_number 2
_symmetry_cell_setting 'triclinic'
loop_
_space_group_symop_operation_xyz
x,y,z
-x,-y,-z
loop_
_atom_site_type_symbol
_atom_site_label
_atom_site_fract_x
_atom_site_fract_y
_atom_site_fract_z
Si Si1 0.918086 0.896789 0.830409
Si Si2 0.962363 0.438348 0.255861
Si Si3 0.661182 0.415682 0.871958
Si Si4 0.303072 0.457432 0.577758
Si Si5 0.750324 0.910264 0.271390
Si Si6 0.457623 0.867146 0.956326
Si Si7 0.879622 0.468272 0.495232
Si Si8 0.431796 0.755129 0.414187
O O1 0.894409 0.721140 0.622428
O O2 0.986991 0.774371 0.875430
O O3 0.886182 0.244022 0.714482
O O4 0.916597 0.759226 0.084635
O O5 0.928202 0.298272 0.341543
O O6 0.000000 0.500000 0.500000
O O7 0.679112 0.561113 0.682154
O O8 0.607432 0.390546 0.699371
O O9 0.654336 0.540046 0.148735
O O10 0.715127 0.071226 0.983799
O O11 0.284370 0.219453 0.628904
O O12 0.251203 0.810169 0.568226
O O13 0.815193 0.637428 0.310005
O O14 0.419792 0.920697 0.665692
O O15 0.500000 0.500000 0.000000
O O16 0.426182 0.953642 0.179326
O O17 0.500000 0.000000 0.000000
O O18 0.500000 0.500000 0.500000
#
# Coordination Sequence:
#
# PCOD9009911 Si02
#       8
#     2   2   2   2   2   2   2   2
#     4  10  22  38  62  94 129 167 207 264 321 392
#     4   9  21  39  61  93 130 167 210 257 326 386
#     4  10  24  46  70  98 136 178 223 282 339 402
#     4  10  24  45  68  95 132 176 224 280 340 395
#     4  10  25  43  66  97 131 175 232 279 336 396
#     4  10  21  40  60  94 131 166 208 262 315 390
#     4  11  22  40  63  92 124 168 215 268 321 387
#     4  10  21  43  66 101 131 173 218 271 334 403
#
# _framework density 25.098005000000001
#
# number of rings (size 3 to 8) (size 9 to 14) (size 15 to 20)
#    0.750    1.250    0.000    2.250    1.750    8.500 
#   13.500    0.000    0.000    0.000    0.000    0.000 
#    0.000    0.000    0.000    0.000    0.000    0.000 
#
# Total GULP energy -89438.261236 kJ/mol
# GULP energy per Si atom -5589.891327 kJ/mol
# Density = 2.504088 g / cm^3
# Si number density = 25.098005 Si / 1000 Ang^3
#
#
#
# Elastic Constant Matrix: (Units=GPa)
#
#
# Indices 1 2 3 4 5 6 
#
# 1 79.4730 17.8923 57.8463 -12.5627 4.4452 17.5209
# 2 17.8923 106.8361 38.7226 -13.1310 7.6828 20.7787
# 3 57.8463 38.7226 151.1184 -14.4205 -19.8907 7.0331
# 4 -12.5627 -13.1310 -14.4205 48.8838 -0.3173 2.0099
# 5 4.4452 7.6828 -19.8907 -0.3173 42.3827 -9.8938
# 6 17.5209 20.7787 7.0331 2.0099 -9.8938 41.2548
#
#
#
# Elastic Compliance Matrix: (Units=1/GPa)
#
#
# Indices 1 2 3 4 5 6 
#
# 1 0.023413 0.003646 -0.010315 0.004411 -0.010926 -0.012856
# 2 0.003646 0.013318 -0.005014 0.003371 -0.007299 -0.009316
# 3 -0.010315 -0.005014 0.012743 -0.000466 0.009616 0.007063
# 4 0.004411 0.003371 -0.000466 0.022555 -0.002326 -0.005148
# 5 -0.010926 -0.007299 0.009616 -0.002326 0.034051 0.014956
# 6 -0.012856 -0.009316 0.007063 -0.005148 0.014956 0.037026
#
#
# Mechanical properties :
#
#
# Convention : Reuss Voigt Hill
#
# Bulk Modulus (GPa) = 38.30231 62.92778 50.61505
# Shear Modulus (GPa) = 28.54307 41.36869 34.95588
#
# Velocity S-wave (km/s) = 3.37599 4.06431 3.73604
# Velocity P-wave (km/s) = 5.52184 6.86674 6.23068
#
# Compressibility (1/GPa) = 0.02610809
#
# Stress axis : x y z
#
# Youngs Moduli (GPa) = 42.71116 75.08717 78.47345
#
# Poissons Ratio (x) = -0.27377 0.80948
# Poissons Ratio (y) = -0.15573 0.39344
# Poissons Ratio (z) = 0.44058 0.37646
#
# Static dielectric constant tensor:
#      x y z
#    x 1.880340 0.033540 -0.012470 
#    y 0.033540 1.872440 -0.044100 
#    z -0.012470 -0.044100 1.993660 
# 
# From -- ./inp_files/125581.got.cif
#   From: 2010.05.17/outbox.cif.g08.bks.cpg/sg2_63_cif.got.tgz:125581.got - 2010.06.03 11:33:40.
