data_PCOD9009504
_publ_section_title
;
Structure prediction by ZEFSAII (Michael W. Deem and Ramdas Pophale) SiO2 
 PCOD9009504
Probable space group: P -1
;
_chemical_formula_sum "Si O2"
_cell_formula_units_Z 16
_cell_length_a 7.532688
_cell_length_b 11.770565
_cell_length_c 11.451997
_cell_angle_alpha 117.666796
_cell_angle_beta 80.541535
_cell_angle_gamma 127.959334
_cell_volume 698.263135
_symmetry_space_group_name_H-M "P -1"
_symmetry_group_IT_number 2
_symmetry_cell_setting 'triclinic'
loop_
_space_group_symop_operation_xyz
x,y,z
-x,-y,-z
loop_
_atom_site_type_symbol
_atom_site_label
_atom_site_fract_x
_atom_site_fract_y
_atom_site_fract_z
Si Si1 0.768646 0.703321 0.256000
Si Si2 0.517267 0.213176 0.555278
Si Si3 0.689060 0.162618 0.985941
Si Si4 0.826042 0.811852 0.786816
Si Si5 0.268152 0.473538 0.469783
Si Si6 0.134338 0.182639 0.942186
Si Si7 0.692644 0.123435 0.703935
Si Si8 0.669459 0.403006 0.248202
O O1 0.697264 0.797549 0.380213
O O2 0.711101 0.701021 0.124901
O O3 0.644798 0.525027 0.238306
O O4 0.038241 0.792333 0.279434
O O5 0.668506 0.383276 0.552978
O O6 0.640074 0.204586 0.649401
O O7 0.439278 0.063351 0.408830
O O8 0.619286 0.141494 0.847941
O O9 0.919907 0.183278 0.973883
O O10 0.738992 0.320455 0.115949
O O11 0.500000 0.000000 0.000000
O O12 0.871283 0.695881 0.665461
O O13 0.575415 0.748341 0.743050
O O14 0.786375 0.792345 0.921556
O O15 0.027310 0.998743 0.829474
O O16 0.500000 0.500000 0.500000
O O17 0.172734 0.490736 0.608221
#
# Coordination Sequence:
#
# PCOD9009504 Si02
#       8
#     2   2   2   2   2   2   2   2
#     4  11  24  41  66  97 129 173 213 277 325 383
#     4  11  22  44  67  94 134 179 211 275 332 379
#     4  11  22  41  64  87 133 172 208 273 325 385
#     4  10  21  41  62  93 125 162 225 260 315 400
#     4  10  21  39  69  92 123 175 219 263 323 394
#     4  10  24  39  64  97 125 167 217 272 318 390
#     4  10  26  40  64 101 135 167 226 266 325 398
#     4  11  23  40  66  93 125 173 218 256 337 385
#
# _framework density 22.913999
#
# number of rings (size 3 to 8) (size 9 to 14) (size 15 to 20)
#    0.000    1.500    3.750    1.125    7.000    5.500 
#    0.000    3.750    0.000    0.000    0.000    0.000 
#    0.000    0.000    0.000    0.000    0.000    0.000 
#
# Total GULP energy -89461.640377 kJ/mol
# GULP energy per Si atom -5591.352524 kJ/mol
# Density = 2.286185 g / cm^3
# Si number density = 22.913999 Si / 1000 Ang^3
#
#
#
# Elastic Constant Matrix: (Units=GPa)
#
#
# Indices 1 2 3 4 5 6 
#
# 1 53.9665 29.8264 27.9636 8.3253 -5.8445 -17.1273
# 2 29.8264 95.8866 69.0584 -8.7165 -10.3789 -32.1851
# 3 27.9636 69.0584 177.0782 11.5141 -32.5220 -21.7878
# 4 8.3253 -8.7165 11.5141 35.1363 -4.9441 -4.4216
# 5 -5.8445 -10.3789 -32.5220 -4.9441 28.2215 3.5359
# 6 -17.1273 -32.1851 -21.7878 -4.4216 3.5359 32.7150
#
#
#
# Elastic Compliance Matrix: (Units=1/GPa)
#
#
# Indices 1 2 3 4 5 6 
#
# 1 0.025013 -0.006082 -0.000289 -0.006488 0.000726 0.005964
# 2 -0.006082 0.024661 -0.007398 0.012116 -0.000833 0.017878
# 3 -0.000289 -0.007398 0.010133 -0.004172 0.008436 -0.002157
# 4 -0.006488 0.012116 -0.004172 0.036134 0.003349 0.010266
# 5 0.000726 -0.000833 0.008436 0.003349 0.045497 0.000715
# 6 0.005964 0.017878 -0.002157 0.010266 0.000715 0.051152
#
#
# Mechanical properties :
#
#
# Convention : Reuss Voigt Hill
#
# Bulk Modulus (GPa) = 30.98843 64.51423 47.75133
# Shear Modulus (GPa) = 21.65573 32.55341 27.10457
#
# Velocity S-wave (km/s) = 3.07756 3.77328 3.44304
# Velocity P-wave (km/s) = 5.11680 6.87019 6.05728
#
# Compressibility (1/GPa) = 0.03227011
#
# Stress axis : x y z
#
# Youngs Moduli (GPa) = 39.97847 40.54952 98.68356
#
# Poissons Ratio (x) = 0.24661 0.02853
# Poissons Ratio (y) = 0.24313 0.73008
# Poissons Ratio (z) = 0.01156 0.29999
#
# Static dielectric constant tensor:
#      x y z
#    x 1.888220 0.008290 0.029190 
#    y 0.008290 1.832770 -0.020600 
#    z 0.029190 -0.020600 1.912710 
# 
# From -- ./inp_files/389271.got.cif
#   From: 2010.05.17/outbox.cif.g08.bks.cpg/sg2_195_cif.got.tgz:389271.got - 2010.06.03 11:33:40.
