data_PCOD9009284
_publ_section_title
;
Structure prediction by ZEFSAII (Michael W. Deem and Ramdas Pophale) SiO2 
 PCOD9009284
Probable space group: P -1
;
_chemical_formula_sum "Si O2"
_cell_formula_units_Z 16
_cell_length_a 8.711582
_cell_length_b 5.452790
_cell_length_c 21.340732
_cell_angle_alpha 68.776160
_cell_angle_beta 46.234892
_cell_angle_gamma 85.112158
_cell_volume 661.578706
_symmetry_space_group_name_H-M "P -1"
_symmetry_group_IT_number 2
_symmetry_cell_setting 'triclinic'
loop_
_space_group_symop_operation_xyz
x,y,z
-x,-y,-z
loop_
_atom_site_type_symbol
_atom_site_label
_atom_site_fract_x
_atom_site_fract_y
_atom_site_fract_z
Si Si1 0.134096 0.815257 0.213164
Si Si2 0.719823 0.841015 0.400410
Si Si3 0.316103 0.283640 0.213307
Si Si4 0.200878 0.757569 0.930821
Si Si5 0.333811 0.679613 0.705958
Si Si6 0.999525 0.210117 0.889326
Si Si7 0.623616 0.458535 0.564230
Si Si8 0.200353 0.986011 0.399822
O O1 0.259680 0.574769 0.202875
O O2 0.907621 0.725472 0.325033
O O3 0.086656 0.856960 0.150127
O O4 0.251963 0.097787 0.186889
O O5 0.713199 0.757569 0.482535
O O6 0.476183 0.713500 0.452889
O O7 0.758381 0.145322 0.335733
O O8 0.573791 0.308886 0.145837
O O9 0.188342 0.106169 0.323459
O O10 0.153662 0.015099 0.884380
O O11 0.000000 0.500000 0.000000
O O12 0.188405 0.823110 0.002344
O O13 0.141879 0.522323 0.819050
O O14 0.417061 0.450298 0.666775
O O15 0.557339 0.848082 0.659370
O O16 0.779811 0.322279 0.572226
O O17 0.000000 0.000000 0.500000
#
# Coordination Sequence:
#
# PCOD9009284 Si02
#       8
#     2   2   2   2   2   2   2   2
#     4  12  28  48  76 112 160 195 249 319 388 453
#     4  10  22  40  66 105 144 193 248 308 373 441
#     4  12  30  49  75 116 158 201 253 319 387 454
#     4  11  28  51  84 107 149 197 259 313 383 474
#     4  11  22  41  75 103 143 196 262 310 367 458
#     4  11  26  49  80 113 141 203 253 315 385 456
#     4  10  21  39  67  99 139 200 261 303 358 450
#     4  11  26  43  68 105 156 209 251 313 378 451
#
# _framework density 24.184577999999998
#
# number of rings (size 3 to 8) (size 9 to 14) (size 15 to 20)
#    0.000    1.000    1.250    3.375   14.000    1.500 
#    0.000    0.000    0.000    0.000    0.000    0.000 
#    0.000    0.000    0.000    0.000    0.000    0.000 
#
# Total GULP energy -89513.292499 kJ/mol
# GULP energy per Si atom -5594.580781 kJ/mol
# Density = 2.412953 g / cm^3
# Si number density = 24.184578 Si / 1000 Ang^3
#
#
#
# Elastic Constant Matrix: (Units=GPa)
#
#
# Indices 1 2 3 4 5 6 
#
# 1 49.0802 24.2865 33.3829 9.4081 2.5625 -1.0548
# 2 24.2865 106.8340 33.3242 8.8070 1.3838 -33.5151
# 3 33.3829 33.3242 131.6885 9.7068 17.0622 -24.4711
# 4 9.4081 8.8070 9.7068 43.5826 -0.7306 -4.8852
# 5 2.5625 1.3838 17.0622 -0.7306 52.5898 -3.7397
# 6 -1.0548 -33.5151 -24.4711 -4.8852 -3.7397 55.2909
#
#
#
# Elastic Compliance Matrix: (Units=1/GPa)
#
#
# Indices 1 2 3 4 5 6 
#
# 1 0.028543 -0.006098 -0.006633 -0.004166 0.000407 -0.006428
# 2 -0.006098 0.013352 -0.000438 -0.000400 0.000636 0.007791
# 3 -0.006633 -0.000438 0.010531 -0.000419 -0.002800 0.004042
# 4 -0.004166 -0.000400 -0.000419 0.024221 0.000806 0.001687
# 5 0.000407 0.000636 -0.002800 0.000806 0.019939 0.000574
# 6 -0.006428 0.007791 0.004042 0.001687 0.000574 0.024663
#
#
# Mechanical properties :
#
#
# Convention : Reuss Voigt Hill
#
# Bulk Modulus (GPa) = 38.33170 52.17666 45.25418
# Shear Modulus (GPa) = 31.99336 43.39993 37.69665
#
# Velocity S-wave (km/s) = 3.64109 4.24078 3.95233
# Velocity P-wave (km/s) = 5.79317 6.75279 6.29130
#
# Compressibility (1/GPa) = 0.02608807
#
# Stress axis : x y z
#
# Youngs Moduli (GPa) = 35.03508 74.89443 94.95999
#
# Poissons Ratio (x) = 0.45672 0.62983
# Poissons Ratio (y) = 0.21365 0.04160
# Poissons Ratio (z) = 0.23237 0.03281
#
# Static dielectric constant tensor:
#      x y z
#    x 1.993820 0.075800 -0.029030 
#    y 0.075800 1.973180 -0.041480 
#    z -0.029030 -0.041480 1.898440 
# 
# From -- ./inp_files/585534.got.cif
#   From: 2010.05.17/outbox.cif.g08.bks.cpg/sg2_293_cif.got.tgz:585534.got - 2010.06.03 11:33:40.
