data_PCOD9009467
_publ_section_title
;
Structure prediction by ZEFSAII (Michael W. Deem and Ramdas Pophale) SiO2 
 PCOD9009467
Probable space group: P -1
;
_chemical_formula_sum "Si O2"
_cell_formula_units_Z 16
_cell_length_a 14.734950
_cell_length_b 8.889913
_cell_length_c 10.203053
_cell_angle_alpha 60.282083
_cell_angle_beta 116.375863
_cell_angle_gamma 69.383009
_cell_volume 704.440860
_symmetry_space_group_name_H-M "P -1"
_symmetry_group_IT_number 2
_symmetry_cell_setting 'triclinic'
loop_
_space_group_symop_operation_xyz
x,y,z
-x,-y,-z
loop_
_atom_site_type_symbol
_atom_site_label
_atom_site_fract_x
_atom_site_fract_y
_atom_site_fract_z
Si Si1 0.590100 0.718638 0.723699
Si Si2 0.764442 0.402513 0.713983
Si Si3 0.138374 0.467185 0.893219
Si Si4 0.609412 0.220079 0.248437
Si Si5 0.634902 0.840631 0.257235
Si Si6 0.068327 0.636126 0.481093
Si Si7 0.906980 0.860464 0.026017
Si Si8 0.923786 0.004958 0.576213
O O1 0.693873 0.513309 0.764452
O O2 0.466626 0.739108 0.682349
O O3 0.500000 0.000000 0.500000
O O4 0.700796 0.642408 0.945187
O O5 0.650839 0.649617 0.440230
O O6 0.926599 0.293145 0.849124
O O7 0.797263 0.160567 0.808088
O O8 0.062541 0.586267 0.649931
O O9 0.143490 0.257826 0.016993
O O10 0.033077 0.712855 0.814157
O O11 0.619960 0.030774 0.252998
O O12 0.768800 0.109071 0.404307
O O13 0.500000 0.500000 0.000000
O O14 0.792248 0.642375 0.367861
O O15 0.500000 0.000000 0.000000
O O16 0.928977 0.797630 0.223980
O O17 0.099789 0.803386 0.426729
O O18 0.000000 0.000000 0.500000
#
# Coordination Sequence:
#
# PCOD9009467 Si02
#       8
#     2   2   2   2   2   2   2   2
#     4  12  26  47  67  99 152 189 232 291 360 422
#     4  10  23  45  68  96 146 185 232 296 351 428
#     4  11  23  41  70 102 136 184 240 291 347 422
#     4  12  25  45  71 105 138 186 239 292 356 424
#     4  11  22  42  67  95 139 185 233 286 349 421
#     4  10  21  39  69 102 135 171 231 299 350 407
#     4  10  22  43  70 105 137 181 237 293 358 412
#     4  10  21  41  69 104 136 176 237 293 342 411
#
# _framework density 22.713049000000002
#
# number of rings (size 3 to 8) (size 9 to 14) (size 15 to 20)
#    0.000    1.250    1.250    5.625    0.000    3.500 
#    9.000    1.875    0.000    0.000    0.000    0.000 
#    0.000    0.000    0.000    0.000    0.000    0.000 
#
# Total GULP energy -89448.464823 kJ/mol
# GULP energy per Si atom -5590.529051 kJ/mol
# Density = 2.266135 g / cm^3
# Si number density = 22.713049 Si / 1000 Ang^3
#
#
#
# Elastic Constant Matrix: (Units=GPa)
#
#
# Indices 1 2 3 4 5 6 
#
# 1 125.3944 49.4223 43.8332 -8.5145 -1.6548 11.2031
# 2 49.4223 113.7582 50.6953 -31.4064 -8.8289 15.9153
# 3 43.8332 50.6953 124.7404 -17.2715 -6.9102 20.8552
# 4 -8.5145 -31.4064 -17.2715 45.6041 6.1223 -7.4380
# 5 -1.6548 -8.8289 -6.9102 6.1223 38.5057 -3.3631
# 6 11.2031 15.9153 20.8552 -7.4380 -3.3631 43.7261
#
#
#
# Elastic Compliance Matrix: (Units=1/GPa)
#
#
# Indices 1 2 3 4 5 6 
#
# 1 0.010191 -0.003876 -0.002181 -0.001585 -0.000632 -0.000479
# 2 -0.003876 0.014201 -0.003079 0.007508 0.001227 -0.001336
# 3 -0.002181 -0.003079 0.010741 0.000919 0.000699 -0.003233
# 4 -0.001585 0.007508 0.000919 0.027767 -0.002442 0.001771
# 5 -0.000632 0.001227 0.000699 -0.002442 0.026828 0.001030
# 6 -0.000479 -0.001336 -0.003233 0.001771 0.001030 0.025401
#
#
# Mechanical properties :
#
#
# Convention : Reuss Voigt Hill
#
# Bulk Modulus (GPa) = 59.29996 72.42164 65.86080
# Shear Modulus (GPa) = 35.96589 40.22999 38.09794
#
# Velocity S-wave (km/s) = 3.98363 4.21316 4.10000
# Velocity P-wave (km/s) = 6.87925 7.45804 7.17448
#
# Compressibility (1/GPa) = 0.01686342
#
# Stress axis : x y z
#
# Youngs Moduli (GPa) = 98.12192 70.41633 93.10368
#
# Poissons Ratio (x) = 0.27291 0.20302
# Poissons Ratio (y) = 0.38029 0.28664
# Poissons Ratio (z) = 0.21396 0.21679
#
# Static dielectric constant tensor:
#      x y z
#    x 1.874810 -0.024550 0.009010 
#    y -0.024550 1.873630 0.033660 
#    z 0.009010 0.033660 1.880160 
# 
# From -- ./inp_files/446975.got.cif
#   From: 2010.05.17/outbox.cif.g08.bks.cpg/sg2_224_cif.got.tgz:446975.got - 2010.06.03 11:33:40.
