data_PCOD9009326
_publ_section_title
;
Structure prediction by ZEFSAII (Michael W. Deem and Ramdas Pophale) SiO2 
 PCOD9009326
Probable space group: P -1
;
_chemical_formula_sum "Si O2"
_cell_formula_units_Z 16
_cell_length_a 9.274539
_cell_length_b 15.953630
_cell_length_c 12.854509
_cell_angle_alpha 49.838725
_cell_angle_beta 131.564034
_cell_angle_gamma 147.483159
_cell_volume 747.499014
_symmetry_space_group_name_H-M "P -1"
_symmetry_group_IT_number 2
_symmetry_cell_setting 'triclinic'
loop_
_space_group_symop_operation_xyz
x,y,z
-x,-y,-z
loop_
_atom_site_type_symbol
_atom_site_label
_atom_site_fract_x
_atom_site_fract_y
_atom_site_fract_z
Si Si1 0.468994 0.734956 0.131572
Si Si2 0.151185 0.759233 0.120661
Si Si3 0.903374 0.992536 0.843731
Si Si4 0.526015 0.508945 0.629307
Si Si5 0.983135 0.869528 0.634220
Si Si6 0.490188 0.062311 0.164567
Si Si7 0.717149 0.721185 0.838328
Si Si8 0.139458 0.449970 0.654044
O O1 0.328361 0.746851 0.147592
O O2 0.367764 0.567128 0.222127
O O3 0.407863 0.778528 0.961432
O O4 0.810340 0.867486 0.193712
O O5 0.080335 0.688309 0.258478
O O6 0.319317 0.940274 0.082339
O O7 0.861278 0.672406 0.994188
O O8 0.692230 0.001225 0.767367
O O9 0.728177 0.820930 0.848675
O O10 0.000000 0.000000 0.000000
O O11 0.500000 0.500000 0.500000
O O12 0.732840 0.694442 0.606594
O O13 0.246474 0.418756 0.635159
O O14 0.928537 0.845889 0.749600
O O15 0.262535 0.917827 0.709255
O O16 0.000000 0.000000 0.500000
O O17 0.417902 0.584728 0.749852
O O18 0.000000 0.500000 0.500000
#
# Coordination Sequence:
#
# PCOD9009326 Si02
#       8
#     2   2   2   2   2   2   2   2
#     4  11  22  41  69 101 140 177 235 295 354 416
#     4  12  22  42  74 102 140 191 240 294 356 431
#     4  10  21  39  68 108 142 176 231 303 351 417
#     4  11  27  46  69 103 143 190 233 300 359 422
#     4  11  27  47  70 105 145 189 242 289 358 445
#     4  11  23  40  72 104 140 186 234 290 363 415
#     4  11  23  45  70 104 138 190 241 293 359 427
#     4  11  27  46  67 102 145 191 238 292 364 435
#
# _framework density 21.404709
#
# number of rings (size 3 to 8) (size 9 to 14) (size 15 to 20)
#    0.000    1.000    3.750    3.000    8.750    2.500 
#    0.000    0.625    0.000    0.000    0.000    0.000 
#    0.000    0.000    0.000    0.000    0.000    0.000 
#
# Total GULP energy -89347.208941 kJ/mol
# GULP energy per Si atom -5584.200559 kJ/mol
# Density = 2.135599 g / cm^3
# Si number density = 21.404709 Si / 1000 Ang^3
#
#
#
# Elastic Constant Matrix: (Units=GPa)
#
#
# Indices 1 2 3 4 5 6 
#
# 1 190.1949 36.9160 50.0203 -6.8088 1.5710 -4.8593
# 2 36.9160 58.7872 30.2176 -17.1897 -2.8757 -10.7017
# 3 50.0203 30.2176 131.5957 -24.5211 8.3613 -2.0009
# 4 -6.8088 -17.1897 -24.5211 30.0994 -10.3145 -0.1099
# 5 1.5710 -2.8757 8.3613 -10.3145 37.6851 1.7995
# 6 -4.8593 -10.7017 -2.0009 -0.1099 1.7995 35.5533
#
#
#
# Elastic Compliance Matrix: (Units=1/GPa)
#
#
# Indices 1 2 3 4 5 6 
#
# 1 0.006446 -0.003917 -0.002007 -0.002705 -0.000845 -0.000377
# 2 -0.003917 0.026454 -0.002148 0.014669 0.006338 0.007031
# 3 -0.002007 -0.002148 0.010065 0.006323 -0.000568 -0.000306
# 4 -0.002705 0.014669 0.006323 0.050797 0.013547 0.003873
# 5 -0.000845 0.006338 -0.000568 0.013547 0.030877 0.000239
# 6 -0.000377 0.007031 -0.000306 0.003873 0.000239 0.030174
#
#
# Mechanical properties :
#
#
# Convention : Reuss Voigt Hill
#
# Bulk Modulus (GPa) = 37.28428 68.32062 52.80245
# Shear Modulus (GPa) = 27.79369 38.22917 33.01143
#
# Velocity S-wave (km/s) = 3.60736 4.23071 3.93141
# Velocity P-wave (km/s) = 5.89977 7.47349 6.73277
#
# Compressibility (1/GPa) = 0.02682096
#
# Stress axis : x y z
#
# Youngs Moduli (GPa) = 155.12504 37.80193 99.35730
#
# Poissons Ratio (x) = 0.14808 0.19940
# Poissons Ratio (y) = 0.60767 0.21340
# Poissons Ratio (z) = 0.31131 0.08119
#
# Static dielectric constant tensor:
#      x y z
#    x 1.905390 -0.097210 0.142640 
#    y -0.097210 2.206760 -0.328370 
#    z 0.142640 -0.328370 2.070620 
# 
# From -- ./inp_files/398665.got.cif
#   From: 2010.05.17/outbox.cif.g08.bks.cpg/sg2_200_cif.got.tgz:398665.got - 2010.06.03 11:33:40.
