data_PCOD9009036
_publ_section_title
;
Structure prediction by ZEFSAII (Michael W. Deem and Ramdas Pophale) SiO2 
 PCOD9009036
Probable space group: P -1
;
_chemical_formula_sum "Si O2"
_cell_formula_units_Z 14
_cell_length_a 18.796230
_cell_length_b 10.314388
_cell_length_c 13.973774
_cell_angle_alpha 146.515837
_cell_angle_beta 157.075885
_cell_angle_gamma 32.479814
_cell_volume 545.153365
_symmetry_space_group_name_H-M "P -1"
_symmetry_group_IT_number 2
_symmetry_cell_setting 'triclinic'
loop_
_space_group_symop_operation_xyz
x,y,z
-x,-y,-z
loop_
_atom_site_type_symbol
_atom_site_label
_atom_site_fract_x
_atom_site_fract_y
_atom_site_fract_z
Si Si1 0.276364 0.193340 0.333380
Si Si2 0.916028 0.515081 0.547031
Si Si3 0.265913 0.715041 0.103914
Si Si4 0.633877 0.564008 0.590421
Si Si5 0.769525 0.855574 0.076808
Si Si6 0.560251 0.634376 0.068800
Si Si7 0.878826 0.028255 0.509591
O O1 0.200844 0.416763 0.454769
O O2 0.260263 0.312493 0.281939
O O3 0.500000 0.000000 0.500000
O O4 0.177144 0.993521 0.119615
O O5 0.763577 0.660901 0.367316
O O6 0.984781 0.222337 0.422890
O O7 0.094650 0.608105 0.837986
O O8 0.407632 0.689353 0.355030
O O9 0.408865 0.532148 0.089832
O O10 0.713899 0.263259 0.496305
O O11 0.704256 0.633362 0.821385
O O12 0.973199 0.855262 0.285533
O O13 0.782814 0.901326 0.233261
O O14 0.603199 0.101234 0.983559
O O15 0.500000 0.500000 0.000000
#
# Coordination Sequence:
#
# PCOD9009036 Si02
#       7
#     2   2   2   2   2   2   2
#     4  10  21  39  66  98 127 173 234 280 327 399
#     4  12  25  42  67 100 145 179 217 290 352 407
#     4  11  24  42  67 102 140 179 228 282 351 406
#     4  11  22  44  70 101 132 183 234 281 336 405
#     4  11  22  41  71  98 131 176 237 290 327 396
#     4  12  21  42  69 100 128 180 238 281 331 402
#     4  11  24  42  67 103 140 174 230 284 340 410
#
# _framework density 25.680845999999999
#
# number of rings (size 3 to 8) (size 9 to 14) (size 15 to 20)
#    0.000    0.857    2.857    7.286    0.000    0.571 
#    0.000    0.714    0.000    0.000    0.000    0.000 
#    0.000    0.000    0.000    0.000    0.000    0.000 
#
# Total GULP energy -78408.692250 kJ/mol
# GULP energy per Si atom -5600.620875 kJ/mol
# Density = 2.562240 g / cm^3
# Si number density = 25.680846 Si / 1000 Ang^3
#
#
#
# Elastic Constant Matrix: (Units=GPa)
#
#
# Indices 1 2 3 4 5 6 
#
# 1 66.0463 21.5007 21.3869 8.4002 -0.1984 -5.2568
# 2 21.5007 130.5380 20.3391 -0.5083 7.1230 1.4503
# 3 21.3869 20.3391 144.8903 5.6095 -13.6223 -6.4818
# 4 8.4002 -0.5083 5.6095 33.3576 -2.3672 -5.3918
# 5 -0.1984 7.1230 -13.6223 -2.3672 34.0575 5.3731
# 6 -5.2568 1.4503 -6.4818 -5.3918 5.3731 24.1187
#
#
#
# Elastic Compliance Matrix: (Units=1/GPa)
#
#
# Indices 1 2 3 4 5 6 
#
# 1 0.017302 -0.002534 -0.002014 -0.003673 -0.000865 0.002754
# 2 -0.002534 0.008362 -0.001049 0.000680 -0.002020 -0.000735
# 3 -0.002014 -0.001049 0.007696 -0.000436 0.003113 0.000901
# 4 -0.003673 0.000680 -0.000436 0.032022 0.000943 0.005990
# 5 -0.000865 -0.002020 0.003113 0.000943 0.032063 -0.006162
# 6 0.002754 -0.000735 0.000901 0.005990 -0.006162 0.045060
#
#
# Mechanical properties :
#
#
# Convention : Reuss Voigt Hill
#
# Bulk Modulus (GPa) = 45.11249 51.99200 48.55225
# Shear Modulus (GPa) = 31.03909 36.85663 33.94786
#
# Velocity S-wave (km/s) = 3.48033 3.79249 3.63976
# Velocity P-wave (km/s) = 5.80991 6.28225 6.05069
#
# Compressibility (1/GPa) = 0.02216681
#
# Stress axis : x y z
#
# Youngs Moduli (GPa) = 57.79806 119.58283 129.93316
#
# Poissons Ratio (x) = 0.30298 0.26170
# Poissons Ratio (y) = 0.14644 0.13630
# Poissons Ratio (z) = 0.11641 0.12544
#
# Static dielectric constant tensor:
#      x y z
#    x 2.089340 0.005030 0.015860 
#    y 0.005030 1.986210 -0.016830 
#    z 0.015860 -0.016830 2.085650 
# 
# From -- ./inp_files/333511.got.cif
#   From: 2010.05.17/outbox.cif.g08.bks.cpg/sg2_167_cif.got.tgz:333511.got - 2010.06.03 11:33:40.
