data_PCOD9009637
_publ_section_title
;
Structure prediction by ZEFSAII (Michael W. Deem and Ramdas Pophale) SiO2 
 PCOD9009637
Probable space group: P -1
;
_chemical_formula_sum "Si O2"
_cell_formula_units_Z 12
_cell_length_a 9.401588
_cell_length_b 17.306954
_cell_length_c 4.888450
_cell_angle_alpha 109.886612
_cell_angle_beta 77.648195
_cell_angle_gamma 144.009994
_cell_volume 436.832565
_symmetry_space_group_name_H-M "P -1"
_symmetry_group_IT_number 2
_symmetry_cell_setting 'triclinic'
loop_
_space_group_symop_operation_xyz
x,y,z
-x,-y,-z
loop_
_atom_site_type_symbol
_atom_site_label
_atom_site_fract_x
_atom_site_fract_y
_atom_site_fract_z
Si Si1 0.223431 0.954584 0.980208
Si Si2 0.741823 0.181022 0.825205
Si Si3 0.431125 0.757175 0.685111
Si Si4 0.831847 0.606171 0.477642
Si Si5 0.750758 0.756855 0.619947
Si Si6 0.371199 0.587893 0.170995
O O1 0.149597 0.844409 0.068222
O O2 0.349515 0.080356 0.273538
O O3 0.014871 0.894990 0.798638
O O4 0.451699 0.033814 0.785877
O O5 0.888893 0.255532 0.574508
O O6 0.748807 0.271385 0.090947
O O7 0.570323 0.747809 0.783410
O O8 0.311052 0.654830 0.358827
O O9 0.661597 0.716687 0.288475
O O10 0.717600 0.496699 0.160951
O O11 0.759562 0.527622 0.685723
O O12 0.726816 0.650590 0.577227
#
# Coordination Sequence:
#
# PCOD9009637 Si02
#       6
#     2   2   2   2   2   2
#     4   9  18  43  68  98 132 172 232 263 352 382
#     4   9  21  38  71  95 136 176 217 283 329 403
#     4   8  20  41  64 102 129 177 217 285 325 396
#     4  12  23  44  66 103 134 181 221 270 340 399
#     4  10  21  39  71  94 134 175 223 284 319 401
#     4  10  25  41  72  97 138 173 230 269 334 398
#
# _framework density 27.470482000000001
#
# number of rings (size 3 to 8) (size 9 to 14) (size 15 to 20)
#    2.000    0.333    0.000    2.500    0.000    3.333 
#    0.000    4.167    0.000    0.000    0.000    0.000 
#    0.000    0.000    0.000    0.000    0.000    0.000 
#
# Total GULP energy -67031.348854 kJ/mol
# GULP energy per Si atom -5585.945738 kJ/mol
# Density = 2.740796 g / cm^3
# Si number density = 27.470482 Si / 1000 Ang^3
#
#
#
# Elastic Constant Matrix: (Units=GPa)
#
#
# Indices 1 2 3 4 5 6 
#
# 1 114.2805 35.3520 23.7197 -3.3252 -14.4758 -7.5846
# 2 35.3520 91.6386 42.3229 7.4119 -8.5951 -2.8004
# 3 23.7197 42.3229 76.8475 1.2751 -24.3049 -23.6681
# 4 -3.3252 7.4119 1.2751 51.2197 -7.6728 -10.9156
# 5 -14.4758 -8.5951 -24.3049 -7.6728 54.1533 11.4531
# 6 -7.5846 -2.8004 -23.6681 -10.9156 11.4531 40.2145
#
#
#
# Elastic Compliance Matrix: (Units=1/GPa)
#
#
# Indices 1 2 3 4 5 6 
#
# 1 0.010388 -0.003979 0.000144 0.001924 0.002127 0.001684
# 2 -0.003979 0.017510 -0.011155 -0.004286 -0.002514 -0.006543
# 3 0.000144 -0.011155 0.025594 0.005004 0.007608 0.013505
# 4 0.001924 -0.004286 0.005004 0.022397 0.003545 0.008079
# 5 0.002127 -0.002514 0.007608 0.003545 0.022723 -0.000806
# 6 0.001684 -0.006543 0.013505 0.008079 -0.000806 0.035100
#
#
# Mechanical properties :
#
#
# Convention : Reuss Voigt Hill
#
# Bulk Modulus (GPa) = 42.52836 53.95063 48.23949
# Shear Modulus (GPa) = 29.14967 41.20896 35.17931
#
# Velocity S-wave (km/s) = 3.26103 3.87734 3.58246
# Velocity P-wave (km/s) = 5.44923 6.30295 5.89157
#
# Compressibility (1/GPa) = 0.02351372
#
# Stress axis : x y z
#
# Youngs Moduli (GPa) = 96.26098 57.11055 39.07133
#
# Poissons Ratio (x) = 0.22723 -0.00562
# Poissons Ratio (y) = 0.38300 0.43582
# Poissons Ratio (z) = -0.01386 0.63704
#
# Static dielectric constant tensor:
#      x y z
#    x 2.166730 0.079190 0.059830 
#    y 0.079190 2.243540 0.011090 
#    z 0.059830 0.011090 2.223570 
# 
# From -- ./inp_files/195099.got.cif
#   From: 2010.05.17/outbox.cif.g08.bks.cpg/sg2_98_cif.got.tgz:195099.got - 2010.06.03 11:33:40.
