data_PCOD9009549
_publ_section_title
;
Structure prediction by ZEFSAII (Michael W. Deem and Ramdas Pophale) SiO2 
 PCOD9009549
Probable space group: P -1
;
_chemical_formula_sum "Si O2"
_cell_formula_units_Z 12
_cell_length_a 11.584015
_cell_length_b 15.275065
_cell_length_c 5.411864
_cell_angle_alpha 80.132028
_cell_angle_beta 103.183611
_cell_angle_gamma 149.471537
_cell_volume 473.004464
_symmetry_space_group_name_H-M "P -1"
_symmetry_group_IT_number 2
_symmetry_cell_setting 'triclinic'
loop_
_space_group_symop_operation_xyz
x,y,z
-x,-y,-z
loop_
_atom_site_type_symbol
_atom_site_label
_atom_site_fract_x
_atom_site_fract_y
_atom_site_fract_z
Si Si1 0.377454 0.664538 0.557507
Si Si2 0.233057 0.340895 0.893417
Si Si3 0.975776 0.734691 0.658243
Si Si4 0.248612 0.618801 0.012630
Si Si5 0.339971 0.826151 0.639614
Si Si6 0.897603 0.006609 0.629561
O O1 0.237308 0.553224 0.789066
O O2 0.307293 0.725533 0.477117
O O3 0.338931 0.616258 0.278698
O O4 0.642428 0.818295 0.679887
O O5 0.212883 0.376883 0.599296
O O6 0.082896 0.154696 0.855202
O O7 0.500000 0.500000 0.000000
O O8 0.112448 0.306708 0.089593
O O9 0.133232 0.921337 0.574573
O O10 0.123521 0.742349 0.671601
O O11 0.410032 0.806845 0.914628
O O12 0.000000 0.500000 0.000000
O O13 0.500000 0.000000 0.500000
O O14 0.000000 0.000000 0.500000
#
# Coordination Sequence:
#
# PCOD9009549 Si02
#       6
#     2   2   2   2   2   2
#     4  10  23  40  67  93 136 169 225 270 343 393
#     4  10  23  44  64  92 135 171 225 275 339 397
#     4  10  22  39  68  94 132 161 230 270 342 386
#     4  10  23  42  62  94 139 174 216 266 346 410
#     4  10  21  39  69  99 129 168 219 283 335 396
#     4  10  24  43  66  97 131 175 227 279 331 405
#
# _framework density 25.369736
#
# number of rings (size 3 to 8) (size 9 to 14) (size 15 to 20)
#    2.000    0.000    1.667    1.000    4.667    1.333 
#    3.000    0.000    0.000    0.000    0.000    0.000 
#    0.000    0.000    0.000    0.000    0.000    0.000 
#
# Total GULP energy -66943.030198 kJ/mol
# GULP energy per Si atom -5578.585850 kJ/mol
# Density = 2.531199 g / cm^3
# Si number density = 25.369736 Si / 1000 Ang^3
#
#
#
# Elastic Constant Matrix: (Units=GPa)
#
#
# Indices 1 2 3 4 5 6 
#
# 1 86.7440 15.1778 37.2964 14.1216 -20.8563 13.8289
# 2 15.1778 87.7484 58.3730 -0.5391 -4.3903 25.0250
# 3 37.2964 58.3730 187.4356 3.4689 -2.7181 6.7829
# 4 14.1216 -0.5391 3.4689 45.6147 -6.7900 2.1971
# 5 -20.8563 -4.3903 -2.7181 -6.7900 56.3824 -9.4240
# 6 13.8289 25.0250 6.7829 2.1971 -9.4240 44.7976
#
#
#
# Elastic Compliance Matrix: (Units=1/GPa)
#
#
# Indices 1 2 3 4 5 6 
#
# 1 0.014837 0.000472 -0.002850 -0.003556 0.004406 -0.003311
# 2 0.000472 0.017372 -0.005192 0.000872 -0.000145 -0.009138
# 3 -0.002850 -0.005192 0.007418 0.000035 -0.000677 0.002513
# 4 -0.003556 0.000872 0.000035 0.023268 0.001520 -0.000216
# 5 0.004406 -0.000145 -0.000677 0.001520 0.019999 0.002956
# 6 -0.003311 -0.009138 0.002513 -0.000216 0.002956 0.028701
#
#
# Mechanical properties :
#
#
# Convention : Reuss Voigt Hill
#
# Bulk Modulus (GPa) = 40.83556 64.84693 52.84124
# Shear Modulus (GPa) = 37.06537 46.09767 41.58152
#
# Velocity S-wave (km/s) = 3.82646 4.26729 4.05287
# Velocity P-wave (km/s) = 5.97106 7.06371 6.54024
#
# Compressibility (1/GPa) = 0.02448846
#
# Stress axis : x y z
#
# Youngs Moduli (GPa) = 67.39926 57.56271 134.81177
#
# Poissons Ratio (x) = -0.02720 0.38420
# Poissons Ratio (y) = -0.03184 0.69992
# Poissons Ratio (z) = 0.19208 0.29886
#
# Static dielectric constant tensor:
#      x y z
#    x 2.052630 -0.180720 0.059240 
#    y -0.180720 2.165670 0.000280 
#    z 0.059240 0.000280 2.059100 
# 
# From -- ./inp_files/79293.got.cif
#   From: 2010.05.17/outbox.cif.g08.bks.cpg/sg2_40_cif.got.tgz:79293.got - 2010.06.03 11:33:40.
