data_PCOD9009091
_publ_section_title
;
Structure prediction by ZEFSAII (Michael W. Deem and Ramdas Pophale) SiO2 
 PCOD9009091
Probable space group: P -1
;
_chemical_formula_sum "Si O2"
_cell_formula_units_Z 16
_cell_length_a 16.007439
_cell_length_b 16.142915
_cell_length_c 12.167755
_cell_angle_alpha 30.763933
_cell_angle_beta 56.153774
_cell_angle_gamma 35.006125
_cell_volume 798.735181
_symmetry_space_group_name_H-M "P -1"
_symmetry_group_IT_number 2
_symmetry_cell_setting 'triclinic'
loop_
_space_group_symop_operation_xyz
x,y,z
-x,-y,-z
loop_
_atom_site_type_symbol
_atom_site_label
_atom_site_fract_x
_atom_site_fract_y
_atom_site_fract_z
Si Si1 0.108098 0.019004 0.925412
Si Si2 0.801552 0.868451 0.649421
Si Si3 0.600104 0.706454 0.273575
Si Si4 0.517465 0.561799 0.691123
Si Si5 0.681845 0.398805 0.364750
Si Si6 0.939405 0.439422 0.388839
Si Si7 0.110427 0.123405 0.057914
Si Si8 0.086723 0.628674 0.871191
O O1 0.297888 0.733726 0.072860
O O2 0.024824 0.270607 0.630532
O O3 0.102495 0.068709 0.002154
O O4 0.000000 0.000000 0.000000
O O5 0.917683 0.742336 0.601887
O O6 0.908797 0.811292 0.735550
O O7 0.619497 0.185078 0.414691
O O8 0.798695 0.677910 0.887110
O O9 0.542289 0.669152 0.458577
O O10 0.581426 0.635808 0.254447
O O11 0.794451 0.503310 0.384252
O O12 0.500000 0.000000 0.000000
O O13 0.429683 0.523466 0.740222
O O14 0.831731 0.317687 0.301282
O O15 0.750559 0.160616 0.657175
O O16 0.863723 0.716965 0.140265
O O17 0.947291 0.308493 0.045531
#
# Coordination Sequence:
#
# PCOD9009091 Si02
#       8
#     2   2   2   2   2   2   2   2
#     4  12  26  47  64  91 132 183 225 268 326 390
#     4  10  22  42  65 100 134 173 216 264 335 396
#     4  12  24  39  66  99 134 173 208 278 335 389
#     4  12  25  39  65 100 133 166 224 276 321 395
#     4  12  22  38  64 105 134 164 216 274 339 382
#     4  11  24  46  68  91 136 181 219 263 330 393
#     4  11  23  41  69  98 129 170 222 270 320 399
#     4  10  21  39  67 101 139 168 206 271 342 394
#
# _framework density 20.031669000000001
#
# number of rings (size 3 to 8) (size 9 to 14) (size 15 to 20)
#    0.000    0.750    5.000    2.625    3.500    0.500 
#    0.000    0.000    0.000    3.000    0.000    0.000 
#    0.000    0.000    0.000    0.000    0.000    0.000 
#
# Total GULP energy -89459.714785 kJ/mol
# GULP energy per Si atom -5591.232174 kJ/mol
# Density = 1.998608 g / cm^3
# Si number density = 20.031669 Si / 1000 Ang^3
#
#
#
# Elastic Constant Matrix: (Units=GPa)
#
#
# Indices 1 2 3 4 5 6 
#
# 1 81.8409 35.4596 26.1075 -12.1553 -6.9789 -5.4427
# 2 35.4596 86.1598 23.5121 -15.7769 -6.4002 2.2249
# 3 26.1075 23.5121 95.3143 -12.7689 -6.6108 -8.8647
# 4 -12.1553 -15.7769 -12.7689 39.7761 0.5897 -3.7594
# 5 -6.9789 -6.4002 -6.6108 0.5897 29.7380 1.0800
# 6 -5.4427 2.2249 -8.8647 -3.7594 1.0800 30.0720
#
#
#
# Elastic Compliance Matrix: (Units=1/GPa)
#
#
# Indices 1 2 3 4 5 6 
#
# 1 0.016020 -0.005479 -0.002346 0.002207 0.001913 0.002821
# 2 -0.005479 0.015193 -0.001880 0.003509 0.001580 -0.002288
# 3 -0.002346 -0.001880 0.012434 0.002853 0.001619 0.003679
# 4 0.002207 0.003509 0.002853 0.028531 0.001178 0.004505
# 5 0.001913 0.001580 0.001619 0.001178 0.034767 -0.000395
# 6 0.002821 -0.002288 0.003679 0.004505 -0.000395 0.035595
#
#
# Mechanical properties :
#
#
# Convention : Reuss Voigt Hill
#
# Bulk Modulus (GPa) = 41.25925 48.16371 44.71148
# Shear Modulus (GPa) = 29.40654 31.79961 30.60307
#
# Velocity S-wave (km/s) = 3.83561 3.98863 3.91286
# Velocity P-wave (km/s) = 6.34489 6.73113 6.54086
#
# Compressibility (1/GPa) = 0.02423699
#
# Stress axis : x y z
#
# Youngs Moduli (GPa) = 62.42309 65.81785 80.42146
#
# Poissons Ratio (x) = 0.36065 0.18863
# Poissons Ratio (y) = 0.34205 0.15121
# Poissons Ratio (z) = 0.14642 0.12375
#
# Static dielectric constant tensor:
#      x y z
#    x 1.695100 0.000480 -0.010160 
#    y 0.000480 1.728470 -0.016030 
#    z -0.010160 -0.016030 1.714930 
# 
# From -- ./inp_files/345393.got.cif
#   From: 2010.05.17/outbox.cif.g08.bks.cpg/sg2_173_cif.got.tgz:345393.got - 2010.06.03 11:33:40.
