data_PCOD9009496
_publ_section_title
;
Structure prediction by ZEFSAII (Michael W. Deem and Ramdas Pophale) SiO2 
 PCOD9009496
Probable space group: P -1
;
_chemical_formula_sum "Si O2"
_cell_formula_units_Z 14
_cell_length_a 14.457245
_cell_length_b 7.381595
_cell_length_c 15.495352
_cell_angle_alpha 124.987930
_cell_angle_beta 142.935888
_cell_angle_gamma 44.093070
_cell_volume 693.497447
_symmetry_space_group_name_H-M "P -1"
_symmetry_group_IT_number 2
_symmetry_cell_setting 'triclinic'
loop_
_space_group_symop_operation_xyz
x,y,z
-x,-y,-z
loop_
_atom_site_type_symbol
_atom_site_label
_atom_site_fract_x
_atom_site_fract_y
_atom_site_fract_z
Si Si1 0.594208 0.459575 0.692791
Si Si2 0.286117 0.918333 0.475561
Si Si3 0.392844 0.343623 0.652073
Si Si4 0.987151 0.265491 0.469675
Si Si5 0.334156 0.258231 0.039435
Si Si6 0.735372 0.844783 0.218742
Si Si7 0.524193 0.250146 0.903407
O O1 0.451455 0.725695 0.609464
O O2 0.707062 0.246066 0.646399
O O3 0.476219 0.374509 0.635798
O O4 0.705126 0.522522 0.861066
O O5 0.324532 0.142795 0.538128
O O6 0.101224 0.035932 0.423908
O O7 0.539101 0.249528 0.812130
O O8 0.221254 0.614320 0.632184
O O9 0.093725 0.176367 0.615811
O O10 0.000000 0.500000 0.500000
O O11 0.550406 0.125077 0.141217
O O12 0.330007 0.022081 0.018458
O O13 0.231613 0.313622 0.888072
O O14 0.661618 0.737546 0.209108
O O15 0.500000 0.500000 0.000000
#
# Coordination Sequence:
#
# PCOD9009496 Si02
#       7
#     2   2   2   2   2   2   2
#     4  11  20  34  55  81 107 144 174 217 265 313
#     4  10  20  36  51  78 114 142 172 215 267 314
#     4  11  21  33  56  82 109 136 181 216 263 316
#     4  10  17  35  54  78 112 139 168 223 267 311
#     4   9  17  32  49  74 109 133 177 221 261 303
#     4   9  16  30  50  72 105 137 170 217 268 297
#     4  10  17  29  49  78 105 131 172 226 262 299
#
# _framework density 20.187529000000001
#
# number of rings (size 3 to 8) (size 9 to 14) (size 15 to 20)
#    0.857    1.143    5.714    1.286    0.000    0.571 
#    0.000    0.000    0.000    3.429    3.714    3.000 
#    0.000    0.000    0.000    0.000    0.000    0.000 
#
# Total GULP energy -78024.319712 kJ/mol
# GULP energy per Si atom -5573.165694 kJ/mol
# Density = 2.014158 g / cm^3
# Si number density = 20.187529 Si / 1000 Ang^3
#
#
#
# Elastic Constant Matrix: (Units=GPa)
#
#
# Indices 1 2 3 4 5 6 
#
# 1 63.5253 30.9020 29.6326 4.1021 -19.7484 -3.3002
# 2 30.9020 78.8137 27.9011 22.7762 -13.9286 -10.3240
# 3 29.6326 27.9011 76.1762 18.6908 -30.5528 -8.7848
# 4 4.1021 22.7762 18.6908 32.5463 -5.2229 -7.9428
# 5 -19.7484 -13.9286 -30.5528 -5.2229 27.6906 11.2310
# 6 -3.3002 -10.3240 -8.7848 -7.9428 11.2310 32.1694
#
#
#
# Elastic Compliance Matrix: (Units=1/GPa)
#
#
# Indices 1 2 3 4 5 6 
#
# 1 0.024720 -0.008504 -0.003494 0.005832 0.012207 -0.003969
# 2 -0.008504 0.020064 -0.000949 -0.011863 -0.000258 0.002469
# 3 -0.003494 -0.000949 0.028684 -0.012187 0.028766 -0.005882
# 4 0.005832 -0.011863 -0.012187 0.045699 -0.009972 0.008228
# 5 0.012207 -0.000258 0.028766 -0.009972 0.083744 -0.022674
# 6 -0.003969 0.002469 -0.005882 0.008228 -0.022674 0.039812
#
#
# Mechanical properties :
#
#
# Convention : Reuss Voigt Hill
#
# Bulk Modulus (GPa) = 21.01962 43.93183 32.47573
# Shear Modulus (GPa) = 17.57618 27.15322 22.36470
#
# Velocity S-wave (km/s) = 2.95387 3.67147 3.33205
# Velocity P-wave (km/s) = 4.69772 6.30730 5.56105
#
# Compressibility (1/GPa) = 0.04757460
#
# Stress axis : x y z
#
# Youngs Moduli (GPa) = 40.45248 49.83940 34.86277
#
# Poissons Ratio (x) = 0.42381 0.12182
# Poissons Ratio (y) = 0.34399 0.03309
# Poissons Ratio (z) = 0.14135 0.04731
#
# Static dielectric constant tensor:
#      x y z
#    x 1.735330 0.041830 -0.004880 
#    y 0.041830 1.760930 0.017580 
#    z -0.004880 0.017580 1.724290 
# 
# From -- ./inp_files/527746.got.cif
#   From: 2010.05.17/outbox.cif.g08.bks.cpg/sg2_264_cif.got.tgz:527746.got - 2010.06.03 11:33:40.
