data_PCOD9009865
_publ_section_title
;
Structure prediction by ZEFSAII (Michael W. Deem and Ramdas Pophale) SiO2 
 PCOD9009865
Probable space group: P -1
;
_chemical_formula_sum "Si O2"
_cell_formula_units_Z 13
_cell_length_a 14.109839
_cell_length_b 8.030028
_cell_length_c 13.428318
_cell_angle_alpha 115.617018
_cell_angle_beta 158.334033
_cell_angle_gamma 64.215344
_cell_volume 503.978877
_symmetry_space_group_name_H-M "P -1"
_symmetry_group_IT_number 2
_symmetry_cell_setting 'triclinic'
loop_
_space_group_symop_operation_xyz
x,y,z
-x,-y,-z
loop_
_atom_site_type_symbol
_atom_site_label
_atom_site_fract_x
_atom_site_fract_y
_atom_site_fract_z
Si Si1 0.694549 0.149146 0.334492
Si Si2 0.803079 0.665469 0.629230
Si Si3 0.500000 0.500000 0.000000
Si Si4 0.806551 0.753947 0.238132
Si Si5 0.699334 0.835527 0.764873
Si Si6 0.679488 0.240005 0.947158
Si Si7 0.207064 0.693161 0.332998
O O1 0.780994 0.144789 0.531323
O O2 0.895234 0.272308 0.507371
O O3 0.750806 0.949338 0.289495
O O4 0.397924 0.228556 0.049134
O O5 0.740897 0.842751 0.688303
O O6 0.575241 0.656329 0.325924
O O7 0.799645 0.489656 0.653573
O O8 0.067858 0.686735 0.836489
O O9 0.278605 0.403624 0.815904
O O10 0.632240 0.290373 0.029407
O O11 0.457318 0.719424 0.518962
O O12 0.677716 0.028287 0.853862
O O13 0.954795 0.723837 0.029369
#
# Coordination Sequence:
#
# PCOD9009865 Si02
#       7
#     2   2   1   2   2   2   2
#     4  10  21  40  60  89 125 173 208 263 328 385
#     4  12  25  47  70 100 136 181 223 276 340 401
#     4  12  26  44  66 102 130 176 228 278 330 392
#     4  10  22  38  61  86 127 168 219 261 317 390
#     4  12  25  44  70 103 135 177 225 279 334 400
#     4  12  27  45  70  97 141 179 223 278 339 405
#     4  12  23  41  70 101 134 169 227 281 332 398
#
# _framework density 25.794733999999998
#
# number of rings (size 3 to 8) (size 9 to 14) (size 15 to 20)
#    0.000    0.615    0.000    8.308    0.000    4.923 
#    0.000    0.000    0.000    0.000    0.000    0.000 
#    0.000    0.000    0.000    0.000    0.000    0.000 
#
# Total GULP energy -72650.739156 kJ/mol
# GULP energy per Si atom -5588.518397 kJ/mol
# Density = 2.573602 g / cm^3
# Si number density = 25.794734 Si / 1000 Ang^3
#
#
#
# Elastic Constant Matrix: (Units=GPa)
#
#
# Indices 1 2 3 4 5 6 
#
# 1 116.6077 -1.3538 69.1948 24.4114 41.7618 -22.3941
# 2 -1.3538 106.1414 -13.5622 -12.9745 26.6408 -5.8693
# 3 69.1948 -13.5622 275.9257 52.6322 32.0380 -2.5365
# 4 24.4114 -12.9745 52.6322 61.3458 9.6767 -1.7112
# 5 41.7618 26.6408 32.0380 9.6767 50.7087 4.9844
# 6 -22.3941 -5.8693 -2.5365 -1.7112 4.9844 49.4895
#
#
#
# Elastic Compliance Matrix: (Units=1/GPa)
#
#
# Indices 1 2 3 4 5 6 
#
# 1 0.018114 0.004558 -0.001967 -0.001625 -0.016769 0.010269
# 2 0.004558 0.013111 0.000431 0.002603 -0.011895 0.004928
# 3 -0.001967 0.000431 0.004851 -0.003145 -0.001013 -0.000597
# 4 -0.001625 0.002603 -0.003145 0.020519 -0.001990 0.000322
# 5 -0.016769 -0.011895 -0.001013 -0.001990 0.042113 -0.013361
# 6 0.010269 0.004928 -0.000597 0.000322 -0.013361 0.026764
#
#
# Mechanical properties :
#
#
# Convention : Reuss Voigt Hill
#
# Bulk Modulus (GPa) = 23.74178 67.47026 45.60602
# Shear Modulus (GPa) = 37.46258 61.93521 49.69890
#
# Velocity S-wave (km/s) = 3.81509 4.90540 4.39419
# Velocity P-wave (km/s) = 5.35076 7.63527 6.59272
#
# Compressibility (1/GPa) = 0.04211985
#
# Stress axis : x y z
#
# Youngs Moduli (GPa) = 55.20634 76.27188 206.16297
#
# Poissons Ratio (x) = -0.34764 0.40553
# Poissons Ratio (y) = -0.25162 -0.08894
# Poissons Ratio (z) = 0.10859 -0.03291
#
# Static dielectric constant tensor:
#      x y z
#    x 2.086830 -0.060450 -0.113690 
#    y -0.060450 2.113990 0.010800 
#    z -0.113690 0.010800 2.036310 
# 
# From -- ./inp_files/504832.got.cif
#   From: 2010.05.17/outbox.cif.g08.bks.cpg/sg2_253_cif.got.tgz:504832.got - 2010.06.03 11:33:40.
