data_PCOD9009931
_publ_section_title
;
Structure prediction by ZEFSAII (Michael W. Deem and Ramdas Pophale) SiO2 
 PCOD9009931
Probable space group: P -1
;
_chemical_formula_sum "Si O2"
_cell_formula_units_Z 16
_cell_length_a 13.183051
_cell_length_b 8.723952
_cell_length_c 12.210812
_cell_angle_alpha 83.943898
_cell_angle_beta 56.539256
_cell_angle_gamma 42.436932
_cell_volume 667.695798
_symmetry_space_group_name_H-M "P -1"
_symmetry_group_IT_number 2
_symmetry_cell_setting 'triclinic'
loop_
_space_group_symop_operation_xyz
x,y,z
-x,-y,-z
loop_
_atom_site_type_symbol
_atom_site_label
_atom_site_fract_x
_atom_site_fract_y
_atom_site_fract_z
Si Si1 0.520246 0.301674 0.960308
Si Si2 0.829190 0.065038 0.151267
Si Si3 0.365107 0.977622 0.879233
Si Si4 0.833670 0.586878 0.374833
Si Si5 0.167429 0.637499 0.420884
Si Si6 0.955268 0.307571 0.749251
Si Si7 0.443989 0.165417 0.675780
Si Si8 0.393561 0.702792 0.333782
O O1 0.659383 0.054181 0.979338
O O2 0.284352 0.477569 0.087056
O O3 0.500000 0.500000 0.000000
O O4 0.602365 0.228815 0.794813
O O5 0.799181 0.940753 0.107297
O O6 0.606651 0.383195 0.253622
O O7 0.896114 0.949260 0.242058
O O8 0.000000 0.000000 0.000000
O O9 0.599005 0.667617 0.732519
O O10 0.370700 0.151040 0.830024
O O11 0.915357 0.376784 0.427699
O O12 0.756498 0.604568 0.302267
O O13 0.983620 0.578511 0.278885
O O14 0.036526 0.744423 0.379985
O O15 0.385588 0.123616 0.461379
O O16 0.213348 0.760263 0.428632
O O17 0.572230 0.188404 0.615871
#
# Coordination Sequence:
#
# PCOD9009931 Si02
#       8
#     2   2   2   2   2   2   2   2
#     4  11  18  36  63  87 118 152 189 236 295 357
#     4  11  19  33  59  88 115 154 192 235 290 348
#     4   9  18  35  57  83 112 159 191 224 293 357
#     4  10  21  40  61  82 114 163 196 239 292 344
#     4   9  20  36  61  84 113 152 199 236 287 349
#     4  11  19  35  64  89 112 152 197 237 289 355
#     4  10  22  39  59  85 118 155 202 239 286 347
#     4  11  22  37  60  91 114 154 198 240 289 346
#
# _framework density 23.963007999999999
#
# number of rings (size 3 to 8) (size 9 to 14) (size 15 to 20)
#    0.000    1.750    6.250    0.375    1.750    1.000 
#    0.000    3.125    8.250    0.000    0.000    0.000 
#    0.000    0.000    0.000    0.000    0.000    0.000 
#
# Total GULP energy -89514.950353 kJ/mol
# GULP energy per Si atom -5594.684397 kJ/mol
# Density = 2.390847 g / cm^3
# Si number density = 23.963008 Si / 1000 Ang^3
#
#
#
# Elastic Constant Matrix: (Units=GPa)
#
#
# Indices 1 2 3 4 5 6 
#
# 1 167.9167 74.1365 52.8457 -33.1597 -21.9001 -24.6254
# 2 74.1365 87.8475 60.4475 -37.4269 3.5352 -27.9491
# 3 52.8457 60.4475 89.1609 -52.2011 -21.6171 -6.9198
# 4 -33.1597 -37.4269 -52.2011 45.0481 -1.9772 4.7972
# 5 -21.9001 3.5352 -21.6171 -1.9772 45.8156 -2.3052
# 6 -24.6254 -27.9491 -6.9198 4.7972 -2.3052 34.7061
#
#
#
# Elastic Compliance Matrix: (Units=1/GPa)
#
#
# Indices 1 2 3 4 5 6 
#
# 1 0.013384 -0.018081 0.017967 0.016673 0.016855 -0.002668
# 2 -0.018081 0.067445 -0.068240 -0.041637 -0.046304 0.030558
# 3 0.017967 -0.068240 0.131580 0.115331 0.079574 -0.026628
# 4 0.016673 -0.041637 0.115331 0.138026 0.070898 -0.013075
# 5 0.016855 -0.046304 0.079574 0.070898 0.073337 -0.014393
# 6 -0.002668 0.030558 -0.026628 -0.013075 -0.014393 0.047072
#
#
# Mechanical properties :
#
#
# Convention : Reuss Voigt Hill
#
# Bulk Modulus (GPa) = 13.21016 79.97606 46.59311
# Shear Modulus (GPa) = 7.90157 35.61364 21.75761
#
# Velocity S-wave (km/s) = 1.81785 3.85930 3.01652
# Velocity P-wave (km/s) = 3.15131 7.30111 5.62303
#
# Compressibility (1/GPa) = 0.07569929
#
# Stress axis : x y z
#
# Youngs Moduli (GPa) = 74.71880 14.82697 7.59995
#
# Poissons Ratio (x) = 0.26809 -0.13655
# Poissons Ratio (y) = 1.35101 0.51862
# Poissons Ratio (z) = -1.34248 1.01180
#
# Static dielectric constant tensor:
#      x y z
#    x 1.831440 -0.100530 0.136180 
#    y -0.100530 1.742900 0.270770 
#    z 0.136180 0.270770 1.673960 
# 
# From -- ./inp_files/419279.got.cif
#   From: 2010.05.17/outbox.cif.g08.bks.cpg/sg2_210_cif.got.tgz:419279.got - 2010.06.03 11:33:40.
