data_PCOD9009383
_publ_section_title
;
Structure prediction by ZEFSAII (Michael W. Deem and Ramdas Pophale) SiO2 
 PCOD9009383
Probable space group: P -1
;
_chemical_formula_sum "Si O2"
_cell_formula_units_Z 16
_cell_length_a 5.709333
_cell_length_b 14.843141
_cell_length_c 15.101453
_cell_angle_alpha 132.702869
_cell_angle_beta 105.595172
_cell_angle_gamma 103.404305
_cell_volume 734.612046
_symmetry_space_group_name_H-M "P -1"
_symmetry_group_IT_number 2
_symmetry_cell_setting 'triclinic'
loop_
_space_group_symop_operation_xyz
x,y,z
-x,-y,-z
loop_
_atom_site_type_symbol
_atom_site_label
_atom_site_fract_x
_atom_site_fract_y
_atom_site_fract_z
Si Si1 0.828311 0.974993 0.828062
Si Si2 0.267722 0.677166 0.342134
Si Si3 0.951041 0.958624 0.629015
Si Si4 0.852129 0.587708 0.571874
Si Si5 0.840160 0.231119 0.437255
Si Si6 0.159544 0.867302 0.904296
Si Si7 0.233775 0.487964 0.071727
Si Si8 0.877882 0.738463 0.222469
O O1 0.474984 0.848057 0.696228
O O2 0.960958 0.905681 0.854709
O O3 0.960335 0.007158 0.764322
O O4 0.875446 0.112003 0.981658
O O5 0.123704 0.656572 0.409266
O O6 0.213518 0.527192 0.196115
O O7 0.123463 0.732456 0.296350
O O8 0.616348 0.812985 0.478022
O O9 0.041443 0.096582 0.667775
O O10 0.159345 0.901087 0.604287
O O11 0.500000 0.500000 0.500000
O O12 0.000000 0.500000 0.500000
O O13 0.906862 0.686920 0.556170
O O14 0.047792 0.703525 0.748745
O O15 0.500000 0.000000 0.000000
O O16 0.565566 0.622863 0.163415
O O17 0.167135 0.332207 0.927525
O O18 0.000000 0.500000 0.000000
#
# Coordination Sequence:
#
# PCOD9009383 Si02
#       8
#     2   2   2   2   2   2   2   2
#     4  10  21  39  68  95 129 172 226 286 334 410
#     4  10  22  38  66  92 130 174 216 278 339 400
#     4  11  22  38  66  94 134 163 232 277 331 404
#     4  12  27  46  71 104 141 181 231 291 359 423
#     4  11  23  42  64  97 133 176 221 286 339 412
#     4  11  21  42  74  92 128 177 231 275 353 408
#     4   9  20  40  61  84 127 170 216 266 337 403
#     4  10  21  40  63  97 125 176 219 277 334 399
#
# _framework density 21.780204999999999
#
# number of rings (size 3 to 8) (size 9 to 14) (size 15 to 20)
#    0.000    1.500    2.500    1.875    3.500    6.000 
#    2.250    2.500    0.000    0.000    0.000    0.000 
#    0.000    0.000    0.000    0.000    0.000    0.000 
#
# Total GULP energy -89388.038322 kJ/mol
# GULP energy per Si atom -5586.752395 kJ/mol
# Density = 2.173063 g / cm^3
# Si number density = 21.780205 Si / 1000 Ang^3
#
#
#
# Elastic Constant Matrix: (Units=GPa)
#
#
# Indices 1 2 3 4 5 6 
#
# 1 103.0341 9.5908 56.3991 -3.5089 -3.1284 -8.8064
# 2 9.5908 30.8508 14.9639 -1.5235 3.5805 -7.8764
# 3 56.3991 14.9639 152.0104 -19.0835 -34.6035 8.1291
# 4 -3.5089 -1.5235 -19.0835 26.9248 0.6168 -4.7014
# 5 -3.1284 3.5805 -34.6035 0.6168 52.1392 -9.4058
# 6 -8.8064 -7.8764 8.1291 -4.7014 -9.4058 21.5792
#
#
#
# Elastic Compliance Matrix: (Units=1/GPa)
#
#
# Indices 1 2 3 4 5 6 
#
# 1 0.013421 0.000666 -0.006019 -0.001237 -0.001984 0.006853
# 2 0.000666 0.039351 -0.005635 0.001094 -0.003635 0.015411
# 3 -0.006019 -0.005635 0.012044 0.006478 0.007125 -0.004533
# 4 -0.001237 0.001094 0.006478 0.043110 0.005291 0.009152
# 5 -0.001984 -0.003635 0.007125 0.005291 0.025304 0.007362
# 6 0.006853 0.015411 -0.004533 0.009152 0.007362 0.061674
#
#
# Mechanical properties :
#
#
# Convention : Reuss Voigt Hill
#
# Bulk Modulus (GPa) = 23.34247 49.75589 36.54918
# Shear Modulus (GPa) = 21.63012 33.79138 27.71075
#
# Velocity S-wave (km/s) = 3.15478 3.94315 3.57079
# Velocity P-wave (km/s) = 4.90008 6.60495 5.81533
#
# Compressibility (1/GPa) = 0.04284038
#
# Stress axis : x y z
#
# Youngs Moduli (GPa) = 74.50778 25.41238 83.03043
#
# Poissons Ratio (x) = -0.01692 0.49972
# Poissons Ratio (y) = -0.04960 0.46788
# Poissons Ratio (z) = 0.44843 0.14320
#
# Static dielectric constant tensor:
#      x y z
#    x 1.833780 0.001150 -0.051240 
#    y 0.001150 1.795900 0.006060 
#    z -0.051240 0.006060 1.829670 
# 
# From -- ./inp_files/89918.got.cif
#   From: 2010.05.17/outbox.cif.g08.bks.cpg/sg2_45_cif.got.tgz:89918.got - 2010.06.03 11:33:40.
