data_PCOD9009349
_publ_section_title
;
Structure prediction by ZEFSAII (Michael W. Deem and Ramdas Pophale) SiO2 
 PCOD9009349
Probable space group: P -1
;
_chemical_formula_sum "Si O2"
_cell_formula_units_Z 14
_cell_length_a 12.488428
_cell_length_b 9.393312
_cell_length_c 10.408471
_cell_angle_alpha 109.775625
_cell_angle_beta 106.127846
_cell_angle_gamma 134.529985
_cell_volume 524.813491
_symmetry_space_group_name_H-M "P -1"
_symmetry_group_IT_number 2
_symmetry_cell_setting 'triclinic'
loop_
_space_group_symop_operation_xyz
x,y,z
-x,-y,-z
loop_
_atom_site_type_symbol
_atom_site_label
_atom_site_fract_x
_atom_site_fract_y
_atom_site_fract_z
Si Si1 0.669274 0.821602 0.327377
Si Si2 0.075321 0.035330 0.741531
Si Si3 0.231090 0.039977 0.329700
Si Si4 0.881436 0.021972 0.992114
Si Si5 0.176637 0.510266 0.652335
Si Si6 0.460132 0.822499 0.101317
Si Si7 0.258356 0.722715 0.254958
O O1 0.493036 0.701535 0.143868
O O2 0.595844 0.727340 0.421142
O O3 0.762518 0.784840 0.275602
O O4 0.912125 0.208945 0.524393
O O5 0.192768 0.088409 0.918250
O O6 0.855258 0.662965 0.514593
O O7 0.972669 0.078450 0.747118
O O8 0.176289 0.797487 0.246526
O O9 0.291865 0.143731 0.233468
O O10 0.075282 0.386031 0.152456
O O11 0.000000 0.000000 0.000000
O O12 0.292031 0.796534 0.718702
O O13 0.340124 0.670481 0.877155
O O14 0.320643 0.751702 0.138869
O O15 0.500000 0.000000 0.500000
#
# Coordination Sequence:
#
# PCOD9009349 Si02
#       7
#     2   2   2   2   2   2   2
#     4  10  21  39  68  92 132 171 227 273 338 395
#     4   9  22  42  66  94 130 180 226 272 337 401
#     4  11  22  42  68  96 133 177 222 275 341 400
#     4  10  23  44  69  98 133 182 226 271 343 411
#     4   9  22  38  66  94 139 171 226 279 341 399
#     4  11  21  40  62 105 127 177 226 280 340 402
#     4  12  24  40  67  99 141 169 225 282 337 404
#
# _framework density 26.676144000000001
#
# number of rings (size 3 to 8) (size 9 to 14) (size 15 to 20)
#    0.857    0.857    1.429    3.000    0.000    2.286 
#    0.000   10.000    0.000    0.000    0.000    0.000 
#    0.000    0.000    0.000    0.000    0.000    0.000 
#
# Total GULP energy -78346.935134 kJ/mol
# GULP energy per Si atom -5596.209652 kJ/mol
# Density = 2.661543 g / cm^3
# Si number density = 26.676144 Si / 1000 Ang^3
#
#
#
# Elastic Constant Matrix: (Units=GPa)
#
#
# Indices 1 2 3 4 5 6 
#
# 1 82.6523 35.8343 38.0453 -3.9348 -17.5556 -26.0825
# 2 35.8343 188.2801 73.4899 3.9203 -14.5100 -30.7505
# 3 38.0453 73.4899 132.6417 -23.3387 -15.7282 -12.0333
# 4 -3.9348 3.9203 -23.3387 65.0306 -2.3088 7.0350
# 5 -17.5556 -14.5100 -15.7282 -2.3088 44.6865 -2.3550
# 6 -26.0825 -30.7505 -12.0333 7.0350 -2.3550 41.7254
#
#
#
# Elastic Compliance Matrix: (Units=1/GPa)
#
#
# Indices 1 2 3 4 5 6 
#
# 1 0.018719 0.000408 -0.004008 -0.001334 0.006610 0.011444
# 2 0.000408 0.007958 -0.004322 -0.002539 0.001375 0.005379
# 3 -0.004008 -0.004322 0.011770 0.004611 0.001245 -0.003003
# 4 -0.001334 -0.002539 0.004611 0.017603 0.000958 -0.004289
# 5 0.006610 0.001375 0.001245 0.000958 0.026269 0.006825
# 6 0.011444 0.005379 -0.003003 -0.004289 0.006825 0.035326
#
#
# Mechanical properties :
#
#
# Convention : Reuss Voigt Hill
#
# Bulk Modulus (GPa) = 44.24221 77.59034 60.91627
# Shear Modulus (GPa) = 35.45578 47.36880 41.41229
#
# Velocity S-wave (km/s) = 3.64966 4.21848 3.94434
# Velocity P-wave (km/s) = 5.86353 7.27163 6.60521
#
# Compressibility (1/GPa) = 0.02260285
#
# Stress axis : x y z
#
# Youngs Moduli (GPa) = 53.42305 125.66194 84.96511
#
# Poissons Ratio (x) = -0.05125 0.34051
# Poissons Ratio (y) = -0.02179 0.36719
# Poissons Ratio (z) = 0.21410 0.54307
#
# Static dielectric constant tensor:
#      x y z
#    x 2.016510 0.035780 0.000400 
#    y 0.035780 2.046060 -0.003930 
#    z 0.000400 -0.003930 2.192440 
# 
# From -- ./inp_files/446213.got.cif
#   From: 2010.05.17/outbox.cif.g08.bks.cpg/sg2_224_cif.got.tgz:446213.got - 2010.06.03 11:33:40.
