data_PCOD9009071
_publ_section_title
;
Structure prediction by ZEFSAII (Michael W. Deem and Ramdas Pophale) SiO2 
 PCOD9009071
Probable space group: P -1
;
_chemical_formula_sum "Si O2"
_cell_formula_units_Z 16
_cell_length_a 7.835067
_cell_length_b 13.359250
_cell_length_c 20.985147
_cell_angle_alpha 37.873897
_cell_angle_beta 107.470596
_cell_angle_gamma 136.218830
_cell_volume 720.855687
_symmetry_space_group_name_H-M "P -1"
_symmetry_group_IT_number 2
_symmetry_cell_setting 'triclinic'
loop_
_space_group_symop_operation_xyz
x,y,z
-x,-y,-z
loop_
_atom_site_type_symbol
_atom_site_label
_atom_site_fract_x
_atom_site_fract_y
_atom_site_fract_z
Si Si1 0.343757 0.208221 0.116214
Si Si2 0.861389 0.216879 0.419231
Si Si3 0.210556 0.412068 0.605609
Si Si4 0.769607 0.474547 0.818917
Si Si5 0.234154 0.619766 0.379116
Si Si6 0.471577 0.364142 0.342129
Si Si7 0.150423 0.962085 0.074332
Si Si8 0.214760 0.746262 0.848474
O O1 0.559171 0.230171 0.161497
O O2 0.294726 0.131375 0.073750
O O3 0.500000 0.500000 0.000000
O O4 0.996447 0.909198 0.255919
O O5 0.021455 0.415442 0.274454
O O6 0.083906 0.428935 0.396334
O O7 0.500000 0.000000 0.500000
O O8 0.790367 0.970999 0.530173
O O9 0.288672 0.527275 0.486149
O O10 0.478173 0.589306 0.599545
O O11 0.001773 0.411413 0.608056
O O12 0.638065 0.551237 0.744495
O O13 0.012084 0.666250 0.808783
O O14 0.457169 0.138759 0.977779
O O15 0.569621 0.961511 0.237599
O O16 0.839446 0.616031 0.229812
O O17 0.000000 0.000000 0.000000
O O18 0.000000 0.500000 0.000000
#
# Coordination Sequence:
#
# PCOD9009071 Si02
#       8
#     2   2   2   2   2   2   2   2
#     4  10  21  39  67 100 125 167 225 274 325 398
#     4  12  25  41  67 103 134 169 232 284 325 400
#     4   9  19  40  71  87 133 174 214 272 340 392
#     4  11  24  44  66  98 134 185 222 271 343 406
#     4  10  22  41  65  99 126 176 226 272 335 396
#     4  10  21  44  70  93 136 180 221 273 343 404
#     4   9  20  42  67  91 132 177 215 262 343 396
#     4  11  23  45  68  90 137 181 214 277 345 405
#
# _framework density 22.195841999999999
#
# number of rings (size 3 to 8) (size 9 to 14) (size 15 to 20)
#    0.000    1.750    2.500    1.125    3.500    2.000 
#    6.750    2.500    0.000    0.000    0.000    0.000 
#    0.000    0.000    0.000    0.000    0.000    0.000 
#
# Total GULP energy -89307.570487 kJ/mol
# GULP energy per Si atom -5581.723155 kJ/mol
# Density = 2.214532 g / cm^3
# Si number density = 22.195842 Si / 1000 Ang^3
#
#
#
# Elastic Constant Matrix: (Units=GPa)
#
#
# Indices 1 2 3 4 5 6 
#
# 1 54.3850 38.7884 21.7267 -6.2665 -2.8388 14.7216
# 2 38.7884 189.3604 103.6038 -8.8895 5.9005 21.3308
# 3 21.7267 103.6038 164.9007 -8.4411 -8.7594 -10.3936
# 4 -6.2665 -8.8895 -8.4411 42.3029 2.2333 8.6293
# 5 -2.8388 5.9005 -8.7594 2.2333 39.5233 4.3516
# 6 14.7216 21.3308 -10.3936 8.6293 4.3516 33.6550
#
#
#
# Elastic Compliance Matrix: (Units=1/GPa)
#
#
# Indices 1 2 3 4 5 6 
#
# 1 0.024820 -0.002555 -0.001991 0.004939 0.002707 -0.011469
# 2 -0.002555 0.010660 -0.006885 0.002257 -0.002546 -0.008014
# 3 -0.001991 -0.006885 0.011265 -0.001411 0.002498 0.008753
# 4 0.004939 0.002257 -0.001411 0.026803 -0.000618 -0.010819
# 5 0.002707 -0.002546 0.002498 -0.000618 0.026695 -0.002092
# 6 -0.011469 -0.008014 0.008753 -0.010819 -0.002092 0.045557
#
#
# Mechanical properties :
#
#
# Convention : Reuss Voigt Hill
#
# Bulk Modulus (GPa) = 41.87443 81.87599 61.87521
# Shear Modulus (GPa) = 28.30892 39.39805 33.85348
#
# Velocity S-wave (km/s) = 3.57517 4.21767 3.90964
# Velocity P-wave (km/s) = 5.99577 7.79015 6.95110
#
# Compressibility (1/GPa) = 0.02388092
#
# Stress axis : x y z
#
# Youngs Moduli (GPa) = 40.28973 93.81239 88.77369
#
# Poissons Ratio (x) = 0.23973 0.17674
# Poissons Ratio (y) = 0.10296 0.61124
# Poissons Ratio (z) = 0.08021 0.64593
#
# Static dielectric constant tensor:
#      x y z
#    x 1.734930 -0.023330 0.111810 
#    y -0.023330 1.755900 0.012420 
#    z 0.111810 0.012420 1.711200 
# 
# From -- ./inp_files/559783.got.cif
#   From: 2010.05.17/outbox.cif.g08.bks.cpg/sg2_280_cif.got.tgz:559783.got - 2010.06.03 11:33:40.
