data_PCOD9009947
_publ_section_title
;
Structure prediction by ZEFSAII (Michael W. Deem and Ramdas Pophale) SiO2 
 PCOD9009947
Probable space group: P -1
;
_chemical_formula_sum "Si O2"
_cell_formula_units_Z 14
_cell_length_a 11.861664
_cell_length_b 11.070746
_cell_length_c 12.041592
_cell_angle_alpha 93.834037
_cell_angle_beta 47.927759
_cell_angle_gamma 133.326351
_cell_volume 585.752543
_symmetry_space_group_name_H-M "P -1"
_symmetry_group_IT_number 2
_symmetry_cell_setting 'triclinic'
loop_
_space_group_symop_operation_xyz
x,y,z
-x,-y,-z
loop_
_atom_site_type_symbol
_atom_site_label
_atom_site_fract_x
_atom_site_fract_y
_atom_site_fract_z
Si Si1 0.321028 0.120218 0.914444
Si Si2 0.817237 0.202295 0.867446
Si Si3 0.243075 0.417037 0.206638
Si Si4 0.239656 0.572145 0.022558
Si Si5 0.047941 0.883816 0.405532
Si Si6 0.692505 0.790482 0.301407
Si Si7 0.466001 0.593832 0.675199
O O1 0.601509 0.367282 0.812382
O O2 0.367551 0.157583 0.754082
O O3 0.230413 0.928111 0.011651
O O4 0.048858 0.028503 0.110725
O O5 0.014723 0.271851 0.647446
O O6 0.899121 0.391301 0.868141
O O7 0.500000 0.000000 0.000000
O O8 0.016921 0.201970 0.431518
O O9 0.500000 0.500000 0.000000
O O10 0.104926 0.383725 0.186976
O O11 0.249637 0.523115 0.890877
O O12 0.604185 0.837350 0.826268
O O13 0.796038 0.806274 0.528922
O O14 0.509336 0.675178 0.528647
O O15 0.644193 0.620543 0.276193
#
# Coordination Sequence:
#
# PCOD9009947 Si02
#       7
#     2   2   2   2   2   2   2
#     4  11  20  39  58  87 125 155 202 247 294 363
#     4  10  21  40  61  86 124 165 187 246 319 360
#     4  12  22  34  63  97 117 150 202 256 304 347
#     4  11  23  40  59  92 129 148 200 262 301 352
#     4  11  21  36  64  89 122 159 196 248 312 353
#     4  10  22  35  63  85 117 166 204 242 290 355
#     4  11  20  38  60  90 113 160 209 244 300 350
#
# _framework density 23.900877000000001
#
# number of rings (size 3 to 8) (size 9 to 14) (size 15 to 20)
#    0.000    1.143    7.143    0.429    2.000    0.571 
#    0.000    1.429    0.000    0.000    0.000    0.000 
#    0.000    0.000    0.000    0.000    0.000    0.000 
#
# Total GULP energy -78342.775423 kJ/mol
# GULP energy per Si atom -5595.912530 kJ/mol
# Density = 2.384648 g / cm^3
# Si number density = 23.900877 Si / 1000 Ang^3
#
#
#
# Elastic Constant Matrix: (Units=GPa)
#
#
# Indices 1 2 3 4 5 6 
#
# 1 147.8987 31.3424 61.1782 26.5476 49.4563 -19.0113
# 2 31.3424 73.2346 30.4382 30.3474 13.5171 -10.8202
# 3 61.1782 30.4382 96.4790 24.3546 43.5000 -13.8912
# 4 26.5476 30.3474 24.3546 47.3894 9.5118 -9.3270
# 5 49.4563 13.5171 43.5000 9.5118 61.9043 -1.1286
# 6 -19.0113 -10.8202 -13.8912 -9.3270 -1.1286 32.2208
#
#
#
# Elastic Compliance Matrix: (Units=1/GPa)
#
#
# Indices 1 2 3 4 5 6 
#
# 1 0.011157 -0.000952 -0.002763 -0.002109 -0.006363 0.004239
# 2 -0.000952 0.019771 -0.002750 -0.010340 -0.000001 0.001899
# 3 -0.002763 -0.002750 0.018964 -0.003621 -0.009885 0.004228
# 4 -0.002109 -0.010340 -0.003621 0.030948 0.001782 0.002743
# 5 -0.006363 -0.000001 -0.009885 0.001782 0.027791 -0.006527
# 6 0.004239 0.001899 0.004228 0.002743 -0.006527 0.036563
#
#
# Mechanical properties :
#
#
# Convention : Reuss Voigt Hill
#
# Bulk Modulus (GPa) = 27.05418 62.61444 44.83431
# Shear Modulus (GPa) = 29.33517 41.27980 35.30749
#
# Velocity S-wave (km/s) = 3.50718 4.16038 3.84767
# Velocity P-wave (km/s) = 5.26729 7.02373 6.20794
#
# Compressibility (1/GPa) = 0.03696286
#
# Stress axis : x y z
#
# Youngs Moduli (GPa) = 89.62821 50.58009 52.73110
#
# Poissons Ratio (x) = 0.04814 0.14569
# Poissons Ratio (y) = 0.08531 0.14500
# Poissons Ratio (z) = 0.24763 0.13909
#
# Static dielectric constant tensor:
#      x y z
#    x 1.891060 0.045690 -0.036240 
#    y 0.045690 1.997260 -0.029780 
#    z -0.036240 -0.029780 1.956160 
# 
# From -- ./inp_files/259448.got.cif
#   From: 2010.05.17/outbox.cif.g08.bks.cpg/sg2_130_cif.got.tgz:259448.got - 2010.06.03 11:33:40.
