data_PCOD9009130
_publ_section_title
;
Structure prediction by ZEFSAII (Michael W. Deem and Ramdas Pophale) SiO2 
 PCOD9009130
Probable space group: P -1
;
_chemical_formula_sum "Si O2"
_cell_formula_units_Z 14
_cell_length_a 5.470706
_cell_length_b 14.201836
_cell_length_c 13.596189
_cell_angle_alpha 139.506337
_cell_angle_beta 65.447339
_cell_angle_gamma 128.050000
_cell_volume 537.238011
_symmetry_space_group_name_H-M "P -1"
_symmetry_group_IT_number 2
_symmetry_cell_setting 'triclinic'
loop_
_space_group_symop_operation_xyz
x,y,z
-x,-y,-z
loop_
_atom_site_type_symbol
_atom_site_label
_atom_site_fract_x
_atom_site_fract_y
_atom_site_fract_z
Si Si1 0.830395 0.887221 0.531738
Si Si2 0.116314 0.324869 0.494970
Si Si3 0.676263 0.409827 0.169891
Si Si4 0.586265 0.618592 0.210365
Si Si5 0.004669 0.848463 0.930675
Si Si6 0.042579 0.258524 0.941112
Si Si7 0.387537 0.783891 0.674236
O O1 0.025054 0.827898 0.520143
O O2 0.560960 0.719568 0.386751
O O3 0.645925 0.933084 0.678414
O O4 0.000000 0.000000 0.500000
O O5 0.169383 0.486361 0.675160
O O6 0.441069 0.323657 0.421762
O O7 0.918322 0.294993 0.406531
O O8 0.777693 0.539760 0.165414
O O9 0.307512 0.326107 0.181407
O O10 0.725673 0.261610 0.005133
O O11 0.277116 0.457744 0.093732
O O12 0.789197 0.742318 0.186949
O O13 0.973763 0.858005 0.060091
O O14 0.297041 0.837563 0.832578
O O15 0.000000 0.000000 0.000000
#
# Coordination Sequence:
#
# PCOD9009130 Si02
#       7
#     2   2   2   2   2   2   2
#     4   9  20  37  63  96 128 171 213 270 330 388
#     4   9  22  41  68  96 129 166 221 276 324 383
#     4  10  21  39  67  96 126 170 216 276 330 388
#     4   9  19  39  61  99 124 160 221 269 325 387
#     4  11  27  43  59  95 133 177 221 262 329 402
#     4  10  21  39  67  88 129 172 213 274 322 385
#     4  10  23  44  64  95 132 169 219 273 323 391
#
# _framework density 26.059211000000001
#
# number of rings (size 3 to 8) (size 9 to 14) (size 15 to 20)
#    0.857    1.429    0.000    1.286    4.000    4.571 
#    0.000    2.857    0.000    0.000    0.000    0.000 
#    0.000    0.000    0.000    0.000    0.000    0.000 
#
# Total GULP energy -78147.295723 kJ/mol
# GULP energy per Si atom -5581.949694 kJ/mol
# Density = 2.599990 g / cm^3
# Si number density = 26.059211 Si / 1000 Ang^3
#
#
#
# Elastic Constant Matrix: (Units=GPa)
#
#
# Indices 1 2 3 4 5 6 
#
# 1 95.9310 18.9495 25.1472 -13.3053 -1.1696 -11.0330
# 2 18.9495 153.5386 18.9814 -29.6747 -8.8316 -16.7758
# 3 25.1472 18.9814 104.9957 -32.5714 -4.6425 -9.3944
# 4 -13.3053 -29.6747 -32.5714 37.1484 -0.8702 2.2099
# 5 -1.1696 -8.8316 -4.6425 -0.8702 45.1468 0.9724
# 6 -11.0330 -16.7758 -9.3944 2.2099 0.9724 34.3935
#
#
#
# Elastic Compliance Matrix: (Units=1/GPa)
#
#
# Indices 1 2 3 4 5 6 
#
# 1 0.011604 -0.000514 -0.001817 0.001983 -0.000010 0.002849
# 2 -0.000514 0.008377 0.001358 0.007518 0.001829 0.003757
# 3 -0.001817 0.001358 0.013953 0.012530 0.001830 0.003034
# 4 0.001983 0.007518 0.012530 0.044421 0.003564 0.004771
# 5 -0.000010 0.001829 0.001830 0.003564 0.022753 0.000516
# 6 0.002849 0.003757 0.003034 0.004771 0.000516 0.032329
#
#
# Mechanical properties :
#
#
# Convention : Reuss Voigt Hill
#
# Bulk Modulus (GPa) = 31.25984 53.40237 42.33111
# Shear Modulus (GPa) = 34.23551 42.76357 38.49954
#
# Velocity S-wave (km/s) = 3.62851 4.05534 3.84785
# Velocity P-wave (km/s) = 5.43843 6.51651 6.00173
#
# Compressibility (1/GPa) = 0.03198993
#
# Stress axis : x y z
#
# Youngs Moduli (GPa) = 86.17383 119.37066 71.66716
#
# Poissons Ratio (x) = 0.06131 0.13020
# Poissons Ratio (y) = 0.04426 -0.09730
# Poissons Ratio (z) = 0.15656 -0.16207
#
# Static dielectric constant tensor:
#      x y z
#    x 2.110030 0.043700 0.019460 
#    y 0.043700 2.154390 0.080990 
#    z 0.019460 0.080990 2.077300 
# 
# From -- ./inp_files/484448.got.cif
#   From: 2010.05.17/outbox.cif.g08.bks.cpg/sg2_243_cif.got.tgz:484448.got - 2010.06.03 11:33:40.
