data_PCOD9009246
_publ_section_title
;
Structure prediction by ZEFSAII (Michael W. Deem and Ramdas Pophale) SiO2 
 PCOD9009246
Probable space group: P -1
;
_chemical_formula_sum "Si O2"
_cell_formula_units_Z 16
_cell_length_a 7.180581
_cell_length_b 25.726725
_cell_length_c 5.167801
_cell_angle_alpha 116.080407
_cell_angle_beta 111.286718
_cell_angle_gamma 55.580239
_cell_volume 698.830070
_symmetry_space_group_name_H-M "P -1"
_symmetry_group_IT_number 2
_symmetry_cell_setting 'triclinic'
loop_
_space_group_symop_operation_xyz
x,y,z
-x,-y,-z
loop_
_atom_site_type_symbol
_atom_site_label
_atom_site_fract_x
_atom_site_fract_y
_atom_site_fract_z
Si Si1 0.461386 0.080297 0.939872
Si Si2 0.710498 0.470657 0.340265
Si Si3 0.135305 0.403616 0.111679
Si Si4 0.746929 0.011207 0.429830
Si Si5 0.430497 0.415910 0.917525
Si Si6 0.043434 0.302036 0.578058
Si Si7 0.424683 0.701022 0.610318
Si Si8 0.324100 0.228321 0.063173
O O1 0.649389 0.038684 0.724827
O O2 0.276823 0.054415 0.773283
O O3 0.579848 0.062295 0.240820
O O4 0.359671 0.156692 0.989617
O O5 0.500000 0.500000 0.500000
O O6 0.633793 0.531140 0.229597
O O7 0.982602 0.436844 0.359654
O O8 0.669705 0.408605 0.112862
O O9 0.378146 0.344397 0.189742
O O10 0.223842 0.446071 0.085785
O O11 0.010803 0.374200 0.800251
O O12 0.000000 0.000000 0.500000
O O13 0.479454 0.344079 0.695886
O O14 0.159925 0.279155 0.308887
O O15 0.812561 0.296957 0.450277
O O16 0.209432 0.253083 0.778998
O O17 0.440701 0.767899 0.774349
#
# Coordination Sequence:
#
# PCOD9009246 Si02
#       8
#     2   2   2   2   2   2   2   2
#     4  10  22  40  63 101 138 176 232 272 323 396
#     4  11  25  42  67  96 126 166 217 276 341 420
#     4  11  24  44  68  91 129 168 217 276 344 407
#     4  10  21  39  67  97 141 184 221 276 331 375
#     4  11  23  42  65  94 125 164 218 270 343 408
#     4  11  25  43  68  95 130 175 221 273 336 396
#     4  11  25  41  68  92 126 171 217 273 336 402
#     4  11  25  43  68  99 135 177 224 278 328 391
#
# _framework density 22.895410999999999
#
# number of rings (size 3 to 8) (size 9 to 14) (size 15 to 20)
#    0.000    1.250    2.500    2.250    1.750    8.000 
#    0.000    0.000    0.000    0.000    0.000    0.000 
#    0.000    0.000    0.000    0.000    0.000    0.000 
#
# Total GULP energy -89317.621667 kJ/mol
# GULP energy per Si atom -5582.351354 kJ/mol
# Density = 2.284330 g / cm^3
# Si number density = 22.895411 Si / 1000 Ang^3
#
#
#
# Elastic Constant Matrix: (Units=GPa)
#
#
# Indices 1 2 3 4 5 6 
#
# 1 189.3160 21.0206 36.3727 0.3554 24.9599 9.6362
# 2 21.0206 56.3729 0.4442 9.0943 13.9741 25.8586
# 3 36.3727 0.4442 49.0375 -4.7499 3.5670 1.9073
# 4 0.3554 9.0943 -4.7499 23.9727 8.8415 -1.6191
# 5 24.9599 13.9741 3.5670 8.8415 52.4396 -9.0906
# 6 9.6362 25.8586 1.9073 -1.6191 -9.0906 26.9106
#
#
#
# Elastic Compliance Matrix: (Units=1/GPa)
#
#
# Indices 1 2 3 4 5 6 
#
# 1 0.006809 -0.000397 -0.004678 0.000162 -0.003337 -0.002843
# 2 -0.000397 0.052821 0.002173 -0.015609 -0.021633 -0.059015
# 3 -0.004678 0.002173 0.024436 0.004355 -0.001142 -0.002269
# 4 0.000162 -0.015609 0.004355 0.050288 -0.001733 0.017072
# 5 -0.003337 -0.021633 -0.001142 -0.001733 0.032503 0.032939
# 6 -0.002843 -0.059015 -0.002269 0.017072 0.032939 0.107201
#
#
# Mechanical properties :
#
#
# Convention : Reuss Voigt Hill
#
# Bulk Modulus (GPa) = 12.77754 45.60015 29.18885
# Shear Modulus (GPa) = 16.34252 36.45720 26.39986
#
# Velocity S-wave (km/s) = 2.67458 3.99474 3.39936
# Velocity P-wave (km/s) = 3.88983 6.42162 5.30886
#
# Compressibility (1/GPa) = 0.07826230
#
# Stress axis : x y z
#
# Youngs Moduli (GPa) = 146.85479 18.93174 40.92327
#
# Poissons Ratio (x) = 0.00752 0.19145
# Poissons Ratio (y) = 0.05832 -0.08893
# Poissons Ratio (z) = 0.68702 -0.04114
#
# Static dielectric constant tensor:
#      x y z
#    x 1.866070 0.038020 -0.016830 
#    y 0.038020 1.858140 -0.011170 
#    z -0.016830 -0.011170 2.023160 
# 
# From -- ./inp_files/13679.got.cif
#   From: 2010.05.17/outbox.cif.g08.bks.cpg/sg2_7_cif.got.tgz:13679.got - 2010.06.03 11:33:40.
