data_PCOD9009194
_publ_section_title
;
Structure prediction by ZEFSAII (Michael W. Deem and Ramdas Pophale) SiO2 
 PCOD9009194
Probable space group: P -1
;
_chemical_formula_sum "Si O2"
_cell_formula_units_Z 14
_cell_length_a 11.453870
_cell_length_b 11.886823
_cell_length_c 13.300295
_cell_angle_alpha 111.502256
_cell_angle_beta 76.813944
_cell_angle_gamma 43.021449
_cell_volume 717.172528
_symmetry_space_group_name_H-M "P -1"
_symmetry_group_IT_number 2
_symmetry_cell_setting 'triclinic'
loop_
_space_group_symop_operation_xyz
x,y,z
-x,-y,-z
loop_
_atom_site_type_symbol
_atom_site_label
_atom_site_fract_x
_atom_site_fract_y
_atom_site_fract_z
Si Si1 0.112809 0.589351 0.257441
Si Si2 0.752990 0.452193 0.130142
Si Si3 0.636711 0.188608 0.510197
Si Si4 0.423352 0.538331 0.268187
Si Si5 0.266781 0.300308 0.323279
Si Si6 0.272124 0.317175 0.931838
Si Si7 0.340839 0.846166 0.741011
O O1 0.281606 0.556294 0.245785
O O2 0.176999 0.427146 0.272313
O O3 0.191860 0.468173 0.093799
O O4 0.802570 0.918853 0.420378
O O5 0.669740 0.542421 0.293695
O O6 0.625757 0.680115 0.170631
O O7 0.389861 0.546477 0.867312
O O8 0.067301 0.158102 0.939608
O O9 0.751312 0.202046 0.551943
O O10 0.672664 0.174186 0.380169
O O11 0.604188 0.314957 0.248442
O O12 0.407408 0.289671 0.342336
O O13 0.000000 0.500000 0.500000
O O14 0.497041 0.987772 0.181563
O O15 0.000000 0.500000 0.000000
#
# Coordination Sequence:
#
# PCOD9009194 Si02
#       7
#     2   2   2   2   2   2   2
#     4  11  22  43  65  94 134 170 211 279 326 374
#     4  10  22  38  67  93 130 165 226 253 328 380
#     4  10  21  39  67  95 128 173 213 261 329 386
#     4   9  23  38  66  95 131 164 220 266 330 380
#     4  11  25  43  65  96 131 169 223 267 324 385
#     4  12  23  44  67  91 132 176 218 265 318 388
#     4  11  20  45  63  96 131 170 215 275 314 390
#
# _framework density 19.521104000000001
#
# number of rings (size 3 to 8) (size 9 to 14) (size 15 to 20)
#    0.857    0.571    2.857    2.571    0.000    1.714 
#    5.143    2.857    0.000    0.000    0.000    0.000 
#    0.000    0.000    0.000    0.000    0.000    0.000 
#
# Total GULP energy -77999.931799 kJ/mol
# GULP energy per Si atom -5571.423700 kJ/mol
# Density = 1.947667 g / cm^3
# Si number density = 19.521104 Si / 1000 Ang^3
#
#
#
# Elastic Constant Matrix: (Units=GPa)
#
#
# Indices 1 2 3 4 5 6 
#
# 1 78.8514 42.3336 37.4882 -13.1646 -5.0358 15.2395
# 2 42.3336 85.0576 31.1932 -5.6893 14.0075 14.3166
# 3 37.4882 31.1932 89.2495 -2.8556 9.8132 -7.0074
# 4 -13.1646 -5.6893 -2.8556 28.8712 8.1826 5.9868
# 5 -5.0358 14.0075 9.8132 8.1826 30.7116 -1.5798
# 6 15.2395 14.3166 -7.0074 5.9868 -1.5798 36.7931
#
#
#
# Elastic Compliance Matrix: (Units=1/GPa)
#
#
# Indices 1 2 3 4 5 6 
#
# 1 0.025487 -0.008327 -0.009190 0.008909 0.008017 -0.010172
# 2 -0.008327 0.019973 -0.002597 0.004267 -0.011090 -0.005988
# 3 -0.009190 -0.002597 0.017004 -0.003530 -0.004381 0.008442
# 4 0.008909 0.004267 -0.003530 0.045546 -0.012210 -0.013958
# 5 0.008017 -0.011090 -0.004381 -0.012210 0.043794 0.004028
# 6 -0.010172 -0.005988 0.008442 -0.013958 0.004028 0.037774
#
#
# Mechanical properties :
#
#
# Convention : Reuss Voigt Hill
#
# Bulk Modulus (GPa) = 44.97330 52.79873 48.88601
# Shear Modulus (GPa) = 21.07746 28.75142 24.91444
#
# Velocity S-wave (km/s) = 3.28948 3.84192 3.57639
# Velocity P-wave (km/s) = 6.12502 6.84004 6.49238
#
# Compressibility (1/GPa) = 0.02223542
#
# Stress axis : x y z
#
# Youngs Moduli (GPa) = 39.23499 50.06689 58.80863
#
# Poissons Ratio (x) = 0.41690 0.54048
# Poissons Ratio (y) = 0.32671 0.15275
# Poissons Ratio (z) = 0.36059 0.13004
#
# Static dielectric constant tensor:
#      x y z
#    x 1.698090 0.005760 -0.007790 
#    y 0.005760 1.724140 0.027020 
#    z -0.007790 0.027020 1.685040 
# 
# From -- ./inp_files/398125.got.cif
#   From: 2010.05.17/outbox.cif.g08.bks.cpg/sg2_200_cif.got.tgz:398125.got - 2010.06.03 11:33:40.
