data_PCOD9009833
_publ_section_title
;
Structure prediction by ZEFSAII (Michael W. Deem and Ramdas Pophale) SiO2 
 PCOD9009833
Probable space group: P -1
;
_chemical_formula_sum "Si O2"
_cell_formula_units_Z 12
_cell_length_a 13.005152
_cell_length_b 7.421017
_cell_length_c 8.073990
_cell_angle_alpha 69.219396
_cell_angle_beta 47.540146
_cell_angle_gamma 94.266063
_cell_volume 478.598910
_symmetry_space_group_name_H-M "P -1"
_symmetry_group_IT_number 2
_symmetry_cell_setting 'triclinic'
loop_
_space_group_symop_operation_xyz
x,y,z
-x,-y,-z
loop_
_atom_site_type_symbol
_atom_site_label
_atom_site_fract_x
_atom_site_fract_y
_atom_site_fract_z
Si Si1 0.857381 0.806737 0.879555
Si Si2 0.331218 0.902698 0.626655
Si Si3 0.853242 0.405698 0.816273
Si Si4 0.357176 0.760881 0.196911
Si Si5 0.207632 0.006118 0.416882
Si Si6 0.357673 0.502988 0.556533
O O1 0.862459 0.604075 0.848832
O O2 0.036319 0.984039 0.644785
O O3 0.755376 0.869993 0.841484
O O4 0.783386 0.723898 0.165418
O O5 0.305392 0.052527 0.466476
O O6 0.331832 0.698077 0.598281
O O7 0.500000 0.000000 0.500000
O O8 0.185915 0.794477 0.949494
O O9 0.695530 0.307556 0.908973
O O10 0.000000 0.500000 0.500000
O O11 0.210879 0.784699 0.428730
O O12 0.382980 0.572595 0.316816
O O13 0.500000 0.000000 0.000000
O O14 0.500000 0.500000 0.500000
#
# Coordination Sequence:
#
# PCOD9009833 Si02
#       6
#     2   2   2   2   2   2
#     4  10  22  39  61  89 120 160 196 256 294 361
#     4  10  23  40  62  86 122 162 198 251 303 361
#     4  11  22  38  61  92 120 153 205 249 299 356
#     4  11  22  38  63  88 122 160 197 247 303 364
#     4  10  21  40  60  85 123 158 203 240 309 352
#     4  10  22  38  61  86 117 156 203 240 299 360
#
# _framework density 25.073188999999999
#
# number of rings (size 3 to 8) (size 9 to 14) (size 15 to 20)
#    0.000    1.667    1.667    3.000    2.333    3.333 
#    0.000    5.000    0.000    0.000    0.000    0.000 
#    0.000    0.000    0.000    0.000    0.000    0.000 
#
# Total GULP energy -66895.897932 kJ/mol
# GULP energy per Si atom -5574.658161 kJ/mol
# Density = 2.501612 g / cm^3
# Si number density = 25.073189 Si / 1000 Ang^3
#
#
#
# Elastic Constant Matrix: (Units=GPa)
#
#
# Indices 1 2 3 4 5 6 
#
# 1 164.5427 12.4710 56.5362 -18.1215 20.0397 -14.6446
# 2 12.4710 35.9052 0.2394 -11.1741 3.9586 -10.5984
# 3 56.5362 0.2394 93.1542 -11.2983 13.6961 -10.6959
# 4 -18.1215 -11.1741 -11.2983 23.5403 -6.8454 1.9145
# 5 20.0397 3.9586 13.6961 -6.8454 41.4220 -7.9496
# 6 -14.6446 -10.5984 -10.6959 1.9145 -7.9496 36.6224
#
#
#
# Elastic Compliance Matrix: (Units=1/GPa)
#
#
# Indices 1 2 3 4 5 6 
#
# 1 0.008304 -0.001365 -0.004274 0.003093 -0.001744 0.001137
# 2 -0.001365 0.036828 0.003976 0.017708 0.000771 0.010515
# 3 -0.004274 0.003976 0.014506 0.004809 -0.001728 0.003052
# 4 0.003093 0.017708 0.004809 0.056759 0.005762 0.006050
# 5 -0.001744 0.000771 -0.001728 0.005762 0.027328 0.004652
# 6 0.001137 0.010515 0.003052 0.006050 0.004652 0.032388
#
#
# Mechanical properties :
#
#
# Convention : Reuss Voigt Hill
#
# Bulk Modulus (GPa) = 17.75837 48.01059 32.88448
# Shear Modulus (GPa) = 25.22565 35.27398 30.24981
#
# Velocity S-wave (km/s) = 3.17532 3.75486 3.47718
# Velocity P-wave (km/s) = 4.53228 6.16347 5.40971
#
# Compressibility (1/GPa) = 0.05631147
#
# Stress axis : x y z
#
# Youngs Moduli (GPa) = 120.42812 27.15294 68.93573
#
# Poissons Ratio (x) = 0.03707 0.29463
# Poissons Ratio (y) = 0.16439 -0.27406
# Poissons Ratio (z) = 0.51470 -0.10795
#
# Static dielectric constant tensor:
#      x y z
#    x 2.054570 0.024350 0.051520 
#    y 0.024350 1.958410 0.034130 
#    z 0.051520 0.034130 2.182200 
# 
# From -- ./inp_files/145464.got.cif
#   From: 2010.05.17/outbox.cif.g08.bks.cpg/sg2_73_cif.got.tgz:145464.got - 2010.06.03 11:33:40.
