data_PCOD9009760
_publ_section_title
;
Structure prediction by ZEFSAII (Michael W. Deem and Ramdas Pophale) SiO2 
 PCOD9009760
Probable space group: P -1
;
_chemical_formula_sum "Si O2"
_cell_formula_units_Z 12
_cell_length_a 11.172257
_cell_length_b 13.185628
_cell_length_c 5.095568
_cell_angle_alpha 56.757013
_cell_angle_beta 116.025716
_cell_angle_gamma 135.090370
_cell_volume 441.597514
_symmetry_space_group_name_H-M "P -1"
_symmetry_group_IT_number 2
_symmetry_cell_setting 'triclinic'
loop_
_space_group_symop_operation_xyz
x,y,z
-x,-y,-z
loop_
_atom_site_type_symbol
_atom_site_label
_atom_site_fract_x
_atom_site_fract_y
_atom_site_fract_z
Si Si1 0.593884 0.901385 0.325389
Si Si2 0.117913 0.992689 0.823460
Si Si3 0.242853 0.229809 0.031603
Si Si4 0.622794 0.198885 0.256125
Si Si5 0.211948 0.455435 0.909098
Si Si6 0.001292 0.634280 0.682907
O O1 0.669864 0.816048 0.620713
O O2 0.509675 0.912123 0.483854
O O3 0.766671 0.043972 0.146044
O O4 0.453698 0.827754 0.069434
O O5 0.964246 0.859362 0.046109
O O6 0.000000 0.000000 0.500000
O O7 0.245780 0.153734 0.875425
O O8 0.307946 0.396630 0.950521
O O9 0.673059 0.365551 0.157520
O O10 0.800535 0.226969 0.373873
O O11 0.089503 0.427441 0.596282
O O12 0.109882 0.356826 0.215900
O O13 0.000000 0.500000 0.000000
#
# Coordination Sequence:
#
# PCOD9009760 Si02
#       6
#     2   2   2   2   2   2
#     4  11  21  37  60  88 120 157 188 237 295 360
#     4   9  20  40  61  83 116 158 199 234 289 357
#     4  10  22  39  61  92 114 154 199 240 296 339
#     4  11  21  37  59  87 122 157 189 236 294 349
#     4  11  23  37  63  89 120 152 198 245 279 348
#     4  10  21  40  59  83 118 164 201 228 279 347
#
# _framework density 27.174067999999998
#
# number of rings (size 3 to 8) (size 9 to 14) (size 15 to 20)
#    0.000    1.667    1.667    5.000    4.667    1.333 
#    0.000    0.000    0.000    6.000    0.000    0.000 
#    0.000    0.000    0.000    0.000    0.000    0.000 
#
# Total GULP energy -67054.119135 kJ/mol
# GULP energy per Si atom -5587.843261 kJ/mol
# Density = 2.711222 g / cm^3
# Si number density = 27.174068 Si / 1000 Ang^3
#
#
#
# Elastic Constant Matrix: (Units=GPa)
#
#
# Indices 1 2 3 4 5 6 
#
# 1 177.2877 56.5216 45.7094 23.9400 -24.2517 7.4481
# 2 56.5216 82.9810 40.5796 34.1401 -13.6648 -8.7013
# 3 45.7094 40.5796 150.8578 53.5889 -10.3146 -6.3308
# 4 23.9400 34.1401 53.5889 44.3050 -6.3518 -2.1897
# 5 -24.2517 -13.6648 -10.3146 -6.3518 56.8322 -0.0309
# 6 7.4481 -8.7013 -6.3308 -2.1897 -0.0309 64.2107
#
#
#
# Elastic Compliance Matrix: (Units=1/GPa)
#
#
# Indices 1 2 3 4 5 6 
#
# 1 0.007779 -0.005145 -0.001568 0.001862 0.002005 -0.001690
# 2 -0.005145 0.021754 0.001366 -0.015252 0.001580 0.003160
# 3 -0.001568 0.001366 0.011990 -0.014627 0.000201 0.001050
# 4 0.001862 -0.015252 -0.014627 0.050936 0.000164 -0.001988
# 5 0.002005 0.001580 0.000201 0.000164 0.018886 0.000016
# 6 -0.001690 0.003160 0.001050 -0.001988 0.000016 0.016234
#
#
# Mechanical properties :
#
#
# Convention : Reuss Voigt Hill
#
# Bulk Modulus (GPa) = 32.43678 77.41640 54.92659
# Shear Modulus (GPa) = 33.65896 50.95732 42.30814
#
# Velocity S-wave (km/s) = 3.52325 4.33508 3.95008
# Velocity P-wave (km/s) = 5.33982 7.32176 6.40788
#
# Compressibility (1/GPa) = 0.03082920
#
# Stress axis : x y z
#
# Youngs Moduli (GPa) = 128.55293 45.96874 83.40016
#
# Poissons Ratio (x) = 0.23649 0.13080
# Poissons Ratio (y) = 0.66135 -0.11392
# Poissons Ratio (z) = 0.20161 -0.06279
#
# Static dielectric constant tensor:
#      x y z
#    x 2.315080 0.029750 -0.141530 
#    y 0.029750 2.284370 -0.171120 
#    z -0.141530 -0.171120 2.176030 
# 
# From -- ./inp_files/73847.got.cif
#   From: 2010.05.17/outbox.cif.g08.bks.cpg/sg2_37_cif.got.tgz:73847.got - 2010.06.03 11:33:40.
