data_PCOD9009677
_publ_section_title
;
Structure prediction by ZEFSAII (Michael W. Deem and Ramdas Pophale) SiO2 
 PCOD9009677
Probable space group: P -1
;
_chemical_formula_sum "Si O2"
_cell_formula_units_Z 13
_cell_length_a 16.705735
_cell_length_b 5.532023
_cell_length_c 15.724674
_cell_angle_alpha 118.606848
_cell_angle_beta 154.829237
_cell_angle_gamma 67.542271
_cell_volume 537.476424
_symmetry_space_group_name_H-M "P -1"
_symmetry_group_IT_number 2
_symmetry_cell_setting 'triclinic'
loop_
_space_group_symop_operation_xyz
x,y,z
-x,-y,-z
loop_
_atom_site_type_symbol
_atom_site_label
_atom_site_fract_x
_atom_site_fract_y
_atom_site_fract_z
Si Si1 0.100801 0.791954 0.478654
Si Si2 0.656653 0.637819 0.791966
Si Si3 0.780968 0.002709 0.115278
Si Si4 0.580372 0.761358 0.177294
Si Si5 0.649919 0.631279 0.417773
Si Si6 0.360464 0.851139 0.412986
Si Si7 0.000000 0.500000 0.500000
O O1 0.210647 0.600762 0.492105
O O2 0.121162 0.698539 0.578452
O O3 0.891888 0.805726 0.245897
O O4 0.208124 0.113373 0.628523
O O5 0.539102 0.475969 0.729060
O O6 0.496845 0.748892 0.598761
O O7 0.748010 0.418894 0.784256
O O8 0.784892 0.889307 0.003833
O O9 0.887847 0.312989 0.282150
O O10 0.563351 0.013958 0.933805
O O11 0.595182 0.696487 0.279763
O O12 0.500000 0.500000 0.000000
O O13 0.741839 0.913520 0.600919
O O14 0.500000 0.000000 0.500000
#
# Coordination Sequence:
#
# PCOD9009677 Si02
#       7
#     2   2   2   2   2   2   1
#     4  12  27  47  66 103 144 188 238 297 351 424
#     4  10  21  39  73 103 139 183 238 290 353 424
#     4  12  25  45  68 102 140 189 237 289 357 416
#     4  12  27  45  73 101 138 194 244 293 352 423
#     4  11  21  42  70 104 138 183 234 298 353 418
#     4   9  19  38  68 108 137 178 232 294 355 422
#     4  12  30  42  68 100 148 186 238 294 348 418
#
# _framework density 24.187107999999998
#
# number of rings (size 3 to 8) (size 9 to 14) (size 15 to 20)
#    0.000    0.923    3.077    3.231    4.308    1.231 
#    0.000    1.538    0.000   15.692    0.000    0.000 
#    0.000    0.000    0.000    0.000    0.000    0.000 
#
# Total GULP energy -72559.201119 kJ/mol
# GULP energy per Si atom -5581.477009 kJ/mol
# Density = 2.413206 g / cm^3
# Si number density = 24.187108 Si / 1000 Ang^3
#
#
#
# Elastic Constant Matrix: (Units=GPa)
#
#
# Indices 1 2 3 4 5 6 
#
# 1 120.3356 38.4300 42.8555 12.9110 -31.5262 3.9706
# 2 38.4300 65.5760 30.3458 7.9967 -20.0097 -23.6855
# 3 42.8555 30.3458 85.9574 8.5305 -26.2100 -20.2439
# 4 12.9110 7.9967 8.5305 47.3048 -22.2071 -12.7829
# 5 -31.5262 -20.0097 -26.2100 -22.2071 43.5927 14.6299
# 6 3.9706 -23.6855 -20.2439 -12.7829 14.6299 72.0876
#
#
#
# Elastic Compliance Matrix: (Units=1/GPa)
#
#
# Indices 1 2 3 4 5 6 
#
# 1 0.013426 -0.006007 -0.003871 -0.000469 0.006105 -0.005122
# 2 -0.006007 0.023317 -0.002819 0.001532 0.003151 0.006832
# 3 -0.003871 -0.002819 0.016974 0.002236 0.006178 0.003196
# 4 -0.000469 0.001532 0.002236 0.028601 0.015225 0.003139
# 5 0.006105 0.003151 0.006178 0.015225 0.041366 -0.003261
# 6 -0.005122 0.006832 0.003196 0.003139 -0.003261 0.018515
#
#
# Mechanical properties :
#
#
# Convention : Reuss Voigt Hill
#
# Bulk Modulus (GPa) = 35.30810 55.01463 45.16137
# Shear Modulus (GPa) = 28.24334 43.27953 35.76144
#
# Velocity S-wave (km/s) = 3.42087 4.23468 3.84934
# Velocity P-wave (km/s) = 5.49843 6.83409 6.20232
#
# Compressibility (1/GPa) = 0.02832211
#
# Stress axis : x y z
#
# Youngs Moduli (GPa) = 74.48323 42.88792 58.91473
#
# Poissons Ratio (x) = 0.25761 0.22809
# Poissons Ratio (y) = 0.44739 0.16607
# Poissons Ratio (z) = 0.28836 0.12090
#
# Static dielectric constant tensor:
#      x y z
#    x 1.857200 0.236330 -0.007480 
#    y 0.236330 -0.117610 0.105650 
#    z -0.007480 0.105650 1.946380 
# 
# From -- ./inp_files/525477.got.cif
#   From: 2010.05.17/outbox.cif.g08.bks.cpg/sg2_263_cif.got.tgz:525477.got - 2010.06.03 11:33:40.
