data_PCOD9009148
_publ_section_title
;
Structure prediction by ZEFSAII (Michael W. Deem and Ramdas Pophale) SiO2 
 PCOD9009148
Probable space group: P -1
;
_chemical_formula_sum "Si O2"
_cell_formula_units_Z 16
_cell_length_a 6.852324
_cell_length_b 9.488284
_cell_length_c 18.336956
_cell_angle_alpha 138.800347
_cell_angle_beta 78.906159
_cell_angle_gamma 104.324420
_cell_volume 760.839822
_symmetry_space_group_name_H-M "P -1"
_symmetry_group_IT_number 2
_symmetry_cell_setting 'triclinic'
loop_
_space_group_symop_operation_xyz
x,y,z
-x,-y,-z
loop_
_atom_site_type_symbol
_atom_site_label
_atom_site_fract_x
_atom_site_fract_y
_atom_site_fract_z
Si Si1 0.654123 0.999119 0.734758
Si Si2 0.210771 0.011692 0.029019
Si Si3 0.321617 0.661270 0.663268
Si Si4 0.615530 0.568840 0.728943
Si Si5 0.884168 0.022702 0.292927
Si Si6 0.478416 0.334858 0.794410
Si Si7 0.055014 0.618629 0.464948
Si Si8 0.548777 0.205771 0.972905
O O1 0.627103 0.165144 0.737375
O O2 0.518526 0.762754 0.639618
O O3 0.570985 0.111702 0.855225
O O4 0.880981 0.982437 0.730268
O O5 0.259438 0.221227 0.159115
O O6 0.374655 0.051325 0.968489
O O7 0.253139 0.812462 0.999056
O O8 0.000000 0.000000 0.000000
O O9 0.435308 0.639233 0.721994
O O10 0.184149 0.841770 0.718366
O O11 0.163488 0.439289 0.579941
O O12 0.518995 0.411000 0.738431
O O13 0.771807 0.468622 0.627258
O O14 0.862026 0.143335 0.418720
O O15 0.741052 0.794762 0.220702
O O16 0.505656 0.554723 0.925389
O O17 0.000000 0.500000 0.500000
#
# Coordination Sequence:
#
# PCOD9009148 Si02
#       8
#     2   2   2   2   2   2   2   2
#     4  11  22  41  65  90 132 170 218 261 319 377
#     4  10  23  38  65  98 133 161 210 267 324 381
#     4  10  21  39  67  92 128 161 211 272 312 375
#     4  11  23  42  66  98 129 170 208 270 329 375
#     4  10  24  42  62  97 125 172 220 261 315 388
#     4  10  25  42  61  90 135 170 216 263 313 387
#     4  10  23  39  67 101 125 164 222 262 328 378
#     4  10  22  40  60  97 124 170 217 257 323 377
#
# _framework density 21.029394
#
# number of rings (size 3 to 8) (size 9 to 14) (size 15 to 20)
#    0.000    1.750    1.250    1.875    1.750   10.500 
#    0.000    1.250    0.000    0.000    0.000    0.000 
#    0.000    0.000    0.000    0.000    0.000    0.000 
#
# Total GULP energy -89196.663104 kJ/mol
# GULP energy per Si atom -5574.791444 kJ/mol
# Density = 2.098153 g / cm^3
# Si number density = 21.029394 Si / 1000 Ang^3
#
#
#
# Elastic Constant Matrix: (Units=GPa)
#
#
# Indices 1 2 3 4 5 6 
#
# 1 143.4791 23.8503 19.8074 -6.9783 16.7739 -22.6694
# 2 23.8503 96.0393 9.3365 -6.2229 3.5893 -20.0380
# 3 19.8074 9.3365 96.2847 -14.2204 -4.1071 0.1327
# 4 -6.9783 -6.2229 -14.2204 21.0337 5.3633 2.2862
# 5 16.7739 3.5893 -4.1071 5.3633 35.6708 -8.5325
# 6 -22.6694 -20.0380 0.1327 2.2862 -8.5325 29.6119
#
#
#
# Elastic Compliance Matrix: (Units=1/GPa)
#
#
# Indices 1 2 3 4 5 6 
#
# 1 0.008559 -0.000684 -0.001565 0.001852 -0.003212 0.005028
# 2 -0.000684 0.012406 -0.000765 0.001919 0.000585 0.007895
# 3 -0.001565 -0.000765 0.011901 0.007398 0.000549 -0.002182
# 4 0.001852 0.001919 0.007398 0.056723 -0.009824 -0.004527
# 5 -0.003212 0.000585 0.000549 -0.009824 0.032987 0.008198
# 6 0.005028 0.007895 -0.002182 -0.004527 0.008198 0.045684
#
#
# Mechanical properties :
#
#
# Convention : Reuss Voigt Hill
#
# Bulk Modulus (GPa) = 37.25948 49.08794 43.17371
# Shear Modulus (GPa) = 27.28734 36.11719 31.70227
#
# Velocity S-wave (km/s) = 3.60610 4.14872 3.88689
# Velocity P-wave (km/s) = 5.92410 6.80753 6.38112
#
# Compressibility (1/GPa) = 0.02683881
#
# Stress axis : x y z
#
# Youngs Moduli (GPa) = 116.82976 80.60302 84.02686
#
# Poissons Ratio (x) = 0.05517 0.13150
# Poissons Ratio (y) = 0.07996 0.06426
# Poissons Ratio (z) = 0.18283 0.06164
#
# Static dielectric constant tensor:
#      x y z
#    x 1.799680 -0.020900 0.006790 
#    y -0.020900 1.772530 0.034670 
#    z 0.006790 0.034670 1.825370 
# 
# From -- ./inp_files/323856.got.cif
#   From: 2010.05.17/outbox.cif.g08.bks.cpg/sg2_162_cif.got.tgz:323856.got - 2010.06.03 11:33:40.
