data_PCOD9009125
_publ_section_title
;
Structure prediction by ZEFSAII (Michael W. Deem and Ramdas Pophale) SiO2 
 PCOD9009125
Probable space group: P -1
;
_chemical_formula_sum "Si O2"
_cell_formula_units_Z 16
_cell_length_a 9.999543
_cell_length_b 13.704694
_cell_length_c 11.498104
_cell_angle_alpha 30.864912
_cell_angle_beta 102.855847
_cell_angle_gamma 106.759806
_cell_volume 773.020313
_symmetry_space_group_name_H-M "P -1"
_symmetry_group_IT_number 2
_symmetry_cell_setting 'triclinic'
loop_
_space_group_symop_operation_xyz
x,y,z
-x,-y,-z
loop_
_atom_site_type_symbol
_atom_site_label
_atom_site_fract_x
_atom_site_fract_y
_atom_site_fract_z
Si Si1 0.911054 0.166603 0.313727
Si Si2 0.290397 0.983108 0.172097
Si Si3 0.372469 0.512794 0.876273
Si Si4 0.448651 0.641502 0.508129
Si Si5 0.929133 0.534666 0.109350
Si Si6 0.346217 0.945304 0.476839
Si Si7 0.019637 0.650803 0.455047
Si Si8 0.706924 0.678854 0.359375
O O1 0.947610 0.344034 0.233221
O O2 0.758261 0.059006 0.431866
O O3 0.000000 0.000000 0.500000
O O4 0.944653 0.289269 0.077068
O O5 0.402061 0.845523 0.311299
O O6 0.310514 0.047800 0.246081
O O7 0.138347 0.843877 0.267790
O O8 0.308711 0.155324 0.906801
O O9 0.423956 0.513147 0.752684
O O10 0.219976 0.395758 0.007712
O O11 0.335262 0.724546 0.662684
O O12 0.500000 0.500000 0.000000
O O13 0.605081 0.677118 0.451500
O O14 0.348476 0.523500 0.511432
O O15 0.931658 0.469210 0.308070
O O16 0.500000 0.000000 0.500000
O O17 0.000000 0.500000 0.500000
O O18 0.868781 0.701075 0.399973
#
# Coordination Sequence:
#
# PCOD9009125 Si02
#       8
#     2   2   2   2   2   2   2   2
#     4  10  22  41  66  92 127 168 208 261 329 373
#     4  11  22  46  64  90 131 168 215 269 317 386
#     4  10  21  39  67  88 124 172 204 257 330 377
#     4  10  22  44  59  99 128 160 219 265 316 380
#     4  10  22  44  62  93 135 160 212 279 306 389
#     4  10  23  42  61  96 129 160 214 261 316 395
#     4  12  22  45  67  91 130 174 220 263 327 381
#     4  11  24  38  70  91 127 171 214 265 317 382
#
# _framework density 20.698034
#
# number of rings (size 3 to 8) (size 9 to 14) (size 15 to 20)
#    0.000    1.500    5.000    0.750    3.500    4.000 
#    6.750    0.000    0.000    0.000    0.000    0.000 
#    0.000    0.000    0.000    0.000    0.000    0.000 
#
# Total GULP energy -89228.394019 kJ/mol
# GULP energy per Si atom -5576.774626 kJ/mol
# Density = 2.065092 g / cm^3
# Si number density = 20.698034 Si / 1000 Ang^3
#
#
#
# Elastic Constant Matrix: (Units=GPa)
#
#
# Indices 1 2 3 4 5 6 
#
# 1 170.8404 38.2253 32.0554 5.2413 -8.7122 -1.1084
# 2 38.2253 54.5764 7.8671 6.4458 -4.1614 4.2041
# 3 32.0554 7.8671 78.0627 -3.0392 -8.2604 -1.8998
# 4 5.2413 6.4458 -3.0392 23.7476 1.8075 4.7542
# 5 -8.7122 -4.1614 -8.2604 1.8075 33.6756 2.7326
# 6 -1.1084 4.2041 -1.8998 4.7542 2.7326 21.7440
#
#
#
# Elastic Compliance Matrix: (Units=1/GPa)
#
#
# Indices 1 2 3 4 5 6 
#
# 1 0.007472 -0.004798 -0.002521 -0.000964 0.000675 0.001214
# 2 -0.004798 0.022731 -0.000377 -0.004526 0.002038 -0.003939
# 3 -0.002521 -0.000377 0.014259 0.002207 0.002650 0.000375
# 4 -0.000964 -0.004526 0.002207 0.045734 -0.002014 -0.008728
# 5 0.000675 0.002038 0.002650 -0.002014 0.031172 -0.003605
# 6 0.001214 -0.003939 0.000375 -0.008728 -0.003605 0.049207
#
#
# Mechanical properties :
#
#
# Convention : Reuss Voigt Hill
#
# Bulk Modulus (GPa) = 34.40048 51.08613 42.74331
# Shear Modulus (GPa) = 25.55485 30.85556 28.20521
#
# Velocity S-wave (km/s) = 3.51757 3.86521 3.69548
# Velocity P-wave (km/s) = 5.75795 6.68244 6.23735
#
# Compressibility (1/GPa) = 0.02906936
#
# Stress axis : x y z
#
# Youngs Moduli (GPa) = 133.83427 43.99240 70.13130
#
# Poissons Ratio (x) = 0.21108 0.17682
# Poissons Ratio (y) = 0.64215 0.02644
# Poissons Ratio (z) = 0.33743 0.01658
#
# Static dielectric constant tensor:
#      x y z
#    x 1.868590 0.063280 -0.093960 
#    y 0.063280 1.801350 -0.064540 
#    z -0.093960 -0.064540 1.774890 
# 
# From -- ./inp_files/398276.got.cif
#   From: 2010.05.17/outbox.cif.g08.bks.cpg/sg2_200_cif.got.tgz:398276.got - 2010.06.03 11:33:40.
