data_PCOD9009080
_publ_section_title
;
Structure prediction by ZEFSAII (Michael W. Deem and Ramdas Pophale) SiO2 
 PCOD9009080
Probable space group: P -1
;
_chemical_formula_sum "Si O2"
_cell_formula_units_Z 12
_cell_length_a 6.626354
_cell_length_b 9.546975
_cell_length_c 13.413911
_cell_angle_alpha 126.957967
_cell_angle_beta 98.746057
_cell_angle_gamma 53.355094
_cell_volume 514.985544
_symmetry_space_group_name_H-M "P -1"
_symmetry_group_IT_number 2
_symmetry_cell_setting 'triclinic'
loop_
_space_group_symop_operation_xyz
x,y,z
-x,-y,-z
loop_
_atom_site_type_symbol
_atom_site_label
_atom_site_fract_x
_atom_site_fract_y
_atom_site_fract_z
Si Si1 0.962495 0.223814 0.385240
Si Si2 0.450033 0.535700 0.371114
Si Si3 0.170102 0.071356 0.006718
Si Si4 0.730511 0.618631 0.881147
Si Si5 0.500565 0.085915 0.428714
Si Si6 0.946467 0.834948 0.194223
O O1 0.763664 0.329369 0.321646
O O2 0.751555 0.406512 0.530547
O O3 0.219572 0.202585 0.404064
O O4 0.049307 0.971652 0.294271
O O5 0.342672 0.490799 0.250358
O O6 0.434187 0.751504 0.468467
O O7 0.164524 0.080518 0.889188
O O8 0.454993 0.868783 0.989679
O O9 0.098380 0.315848 0.126689
O O10 0.000000 0.000000 0.000000
O O11 0.850075 0.438873 0.902630
O O12 0.500000 0.000000 0.500000
O O13 0.723627 0.907281 0.289839
#
# Coordination Sequence:
#
# PCOD9009080 Si02
#       6
#     2   2   2   2   2   2
#     4  10  21  39  67 100 140 177 221 275 337 410
#     4  10  21  41  64 103 137 179 224 274 337 405
#     4  11  27  48  69 101 130 182 235 284 346 394
#     4  11  24  45  72  97 140 174 229 293 330 410
#     4  11  23  39  67 107 139 180 223 271 344 412
#     4  11  24  46  69 103 138 175 229 281 341 405
#
# _framework density 23.301622999999999
#
# number of rings (size 3 to 8) (size 9 to 14) (size 15 to 20)
#    0.000    1.333    1.667    3.000    0.000   10.000 
#    3.000    0.000    0.000    0.000    0.000    0.000 
#    0.000    0.000    0.000    0.000    0.000    0.000 
#
# Total GULP energy -66936.401048 kJ/mol
# GULP energy per Si atom -5578.033421 kJ/mol
# Density = 2.324859 g / cm^3
# Si number density = 23.301623 Si / 1000 Ang^3
#
#
#
# Elastic Constant Matrix: (Units=GPa)
#
#
# Indices 1 2 3 4 5 6 
#
# 1 89.7578 8.2645 17.3055 -13.6406 18.3628 13.8336
# 2 8.2645 101.6955 27.4469 0.3967 -3.2510 20.0301
# 3 17.3055 27.4469 62.8794 -8.9789 24.9570 -0.9062
# 4 -13.6406 0.3967 -8.9789 35.3616 -1.3075 5.3905
# 5 18.3628 -3.2510 24.9570 -1.3075 33.9123 -5.2220
# 6 13.8336 20.0301 -0.9062 5.3905 -5.2220 26.5450
#
#
#
# Elastic Compliance Matrix: (Units=1/GPa)
#
#
# Indices 1 2 3 4 5 6 
#
# 1 0.016382 0.000700 0.000414 0.007968 -0.010770 -0.012788
# 2 0.000700 0.014477 -0.009160 -0.000420 0.006146 -0.010307
# 3 0.000414 -0.009160 0.029642 0.006664 -0.022358 0.001956
# 4 0.007968 -0.000420 0.006664 0.034602 -0.009861 -0.012575
# 5 -0.010770 0.006146 -0.022358 -0.009861 0.053958 0.012829
# 6 -0.012788 -0.010307 0.001956 -0.012575 0.012829 0.057258
#
#
# Mechanical properties :
#
#
# Convention : Reuss Voigt Hill
#
# Bulk Modulus (GPa) = 22.51793 40.04075 31.27934
# Shear Modulus (GPa) = 21.07819 32.58484 26.83151
#
# Velocity S-wave (km/s) = 3.01089 3.74357 3.39704
# Velocity P-wave (km/s) = 4.66604 5.99222 5.37022
#
# Compressibility (1/GPa) = 0.04440905
#
# Stress axis : x y z
#
# Youngs Moduli (GPa) = 61.04271 69.07640 33.73643
#
# Poissons Ratio (x) = -0.04839 -0.01395
# Poissons Ratio (y) = -0.04276 0.30902
# Poissons Ratio (z) = -0.02525 0.63272
#
# Static dielectric constant tensor:
#      x y z
#    x 2.007510 0.044210 -0.040730 
#    y 0.044210 1.976060 -0.005250 
#    z -0.040730 -0.005250 1.959640 
# 
# From -- ./inp_files/40453.got.cif
#   From: 2010.05.17/outbox.cif.g08.bks.cpg/sg2_21_cif.got.tgz:40453.got - 2010.06.03 11:33:40.
