data_PCOD9009676
_publ_section_title
;
Structure prediction by ZEFSAII (Michael W. Deem and Ramdas Pophale) SiO2 
 PCOD9009676
Probable space group: P -1
;
_chemical_formula_sum "Si O2"
_cell_formula_units_Z 14
_cell_length_a 5.491821
_cell_length_b 9.638807
_cell_length_c 18.304915
_cell_angle_alpha 131.602267
_cell_angle_beta 60.341035
_cell_angle_gamma 109.936519
_cell_volume 629.520468
_symmetry_space_group_name_H-M "P -1"
_symmetry_group_IT_number 2
_symmetry_cell_setting 'triclinic'
loop_
_space_group_symop_operation_xyz
x,y,z
-x,-y,-z
loop_
_atom_site_type_symbol
_atom_site_label
_atom_site_fract_x
_atom_site_fract_y
_atom_site_fract_z
Si Si1 0.499797 0.803808 0.695048
Si Si2 0.159833 0.831995 0.454166
Si Si3 0.682075 0.992405 0.072135
Si Si4 0.112378 0.484297 0.685688
Si Si5 0.854442 0.087338 0.351225
Si Si6 0.283060 0.308151 0.748144
Si Si7 0.547365 0.683180 0.881708
O O1 0.359969 0.962100 0.821524
O O2 0.387167 0.607343 0.673514
O O3 0.362803 0.829217 0.644641
O O4 0.832071 0.826107 0.663406
O O5 0.251361 0.883416 0.539996
O O6 0.414923 0.774621 0.345018
O O7 0.960841 0.649022 0.417424
O O8 0.000000 0.000000 0.500000
O O9 0.539921 0.162152 0.109795
O O10 0.559356 0.795068 0.994713
O O11 0.000000 0.000000 0.000000
O O12 0.148706 0.361103 0.709258
O O13 0.853197 0.616438 0.788117
O O14 0.879727 0.866606 0.254515
O O15 0.343603 0.502348 0.847980
#
# Coordination Sequence:
#
# PCOD9009676 Si02
#       7
#     2   2   2   2   2   2   2
#     4  12  27  45  66 109 144 177 222 300 363 393
#     4  11  24  44  73 100 133 191 245 271 333 421
#     4  11  21  41  74 100 132 182 235 283 340 425
#     4  11  23  42  73 100 135 180 245 279 329 424
#     4  12  28  45  67 102 154 178 221 298 359 394
#     4  11  23  44  73  97 132 191 239 276 329 429
#     4  10  21  39  73 103 127 172 249 284 323 401
#
# _framework density 22.239148
#
# number of rings (size 3 to 8) (size 9 to 14) (size 15 to 20)
#    0.000    0.857    4.286    2.143    8.000    1.143 
#    0.000    1.429    0.000    0.000    0.000    0.000 
#    0.000    0.000    0.000    0.000    0.000    0.000 
#
# Total GULP energy -78317.881260 kJ/mol
# GULP energy per Si atom -5594.134376 kJ/mol
# Density = 2.218853 g / cm^3
# Si number density = 22.239148 Si / 1000 Ang^3
#
#
#
# Elastic Constant Matrix: (Units=GPa)
#
#
# Indices 1 2 3 4 5 6 
#
# 1 99.8925 10.6437 21.1762 6.8547 -5.7375 1.7479
# 2 10.6437 32.0599 -2.8905 17.7374 -6.2437 19.7775
# 3 21.1762 -2.8905 85.8821 19.2244 17.5589 -1.1283
# 4 6.8547 17.7374 19.2244 37.7200 2.0064 10.5938
# 5 -5.7375 -6.2437 17.5589 2.0064 51.5721 13.7167
# 6 1.7479 19.7775 -1.1283 10.5938 13.7167 51.3300
#
#
#
# Elastic Compliance Matrix: (Units=1/GPa)
#
#
# Indices 1 2 3 4 5 6 
#
# 1 0.011320 -0.005422 -0.003764 0.002113 0.001601 0.000757
# 2 -0.005422 0.064711 0.006945 -0.027406 0.011810 -0.022095
# 3 -0.003764 0.006945 0.016340 -0.011047 -0.005098 0.001454
# 4 0.002113 -0.027406 -0.011047 0.044304 -0.001441 0.001486
# 5 0.001601 0.011810 -0.005098 -0.001441 0.025799 -0.011314
# 6 0.000757 -0.022095 0.001454 0.001486 -0.011314 0.030718
#
#
# Mechanical properties :
#
#
# Convention : Reuss Voigt Hill
#
# Bulk Modulus (GPa) = 11.37798 30.63259 21.00529
# Shear Modulus (GPa) = 22.02932 40.71812 31.37372
#
# Velocity S-wave (km/s) = 3.15074 4.28357 3.76006
# Velocity P-wave (km/s) = 4.28527 6.18622 5.32132
#
# Compressibility (1/GPa) = 0.08788906
#
# Stress axis : x y z
#
# Youngs Moduli (GPa) = 88.33828 15.45335 61.19978
#
# Poissons Ratio (x) = 0.08378 0.23036
# Poissons Ratio (y) = 0.47894 -0.42502
# Poissons Ratio (z) = 0.33252 -0.10732
#
# Static dielectric constant tensor:
#      x y z
#    x 1.877810 0.022830 -0.011120 
#    y 0.022830 1.873010 0.053490 
#    z -0.011120 0.053490 1.912430 
# 
# From -- ./inp_files/34819.got.cif
#   From: 2010.05.17/outbox.cif.g08.bks.cpg/sg2_18_cif.got.tgz:34819.got - 2010.06.03 11:33:40.
