data_PCOD9009386
_publ_section_title
;
Structure prediction by ZEFSAII (Michael W. Deem and Ramdas Pophale) SiO2 
 PCOD9009386
Probable space group: P -1
;
_chemical_formula_sum "Si O2"
_cell_formula_units_Z 16
_cell_length_a 7.980385
_cell_length_b 20.535390
_cell_length_c 10.829368
_cell_angle_alpha 40.133994
_cell_angle_beta 38.307737
_cell_angle_gamma 58.922091
_cell_volume 693.371571
_symmetry_space_group_name_H-M "P -1"
_symmetry_group_IT_number 2
_symmetry_cell_setting 'triclinic'
loop_
_space_group_symop_operation_xyz
x,y,z
-x,-y,-z
loop_
_atom_site_type_symbol
_atom_site_label
_atom_site_fract_x
_atom_site_fract_y
_atom_site_fract_z
Si Si1 0.176883 0.412763 0.534083
Si Si2 0.956938 0.896505 0.328470
Si Si3 0.238217 0.443940 0.986526
Si Si4 0.224098 0.251377 0.121106
Si Si5 0.141593 0.941146 0.687850
Si Si6 0.825055 0.267342 0.125626
Si Si7 0.778483 0.703915 0.562210
Si Si8 0.582427 0.907509 0.909025
O O1 0.114352 0.332997 0.573099
O O2 0.000000 0.500000 0.500000
O O3 0.081004 0.349731 0.804328
O O4 0.493616 0.469556 0.264420
O O5 0.831858 0.820218 0.622602
O O6 0.876973 0.825646 0.357397
O O7 0.844463 0.999053 0.277032
O O8 0.288058 0.919987 0.108481
O O9 0.309520 0.367987 0.948793
O O10 0.151760 0.369181 0.262712
O O11 0.000000 0.500000 0.000000
O O12 0.429330 0.205757 0.979928
O O13 0.932090 0.234661 0.241620
O O14 0.822773 0.921916 0.852166
O O15 0.310121 0.012145 0.379884
O O16 0.230079 0.832010 0.788265
O O17 0.554436 0.313410 0.223825
#
# Coordination Sequence:
#
# PCOD9009386 Si02
#       8
#     2   2   2   2   2   2   2   2
#     4  12  27  44  69  91 130 183 214 262 338 391
#     4  10  21  39  68  95 131 166 213 266 319 385
#     4  11  24  44  70  95 127 166 223 282 320 381
#     4   9  22  39  64  98 127 165 215 271 318 373
#     4   9  20  37  62  96 127 171 207 265 319 377
#     4  11  24  44  65  94 137 170 218 264 324 394
#     4  11  26  44  63  95 132 170 212 275 327 384
#     4   9  18  36  63  94 133 162 209 264 321 382
#
# _framework density 23.075648999999999
#
# number of rings (size 3 to 8) (size 9 to 14) (size 15 to 20)
#    0.000    1.750    1.250    2.250    3.500    9.000 
#    0.000    1.250    0.000    0.000    0.000    0.000 
#    0.000    0.000    0.000    0.000    0.000    0.000 
#
# Total GULP energy -89517.685882 kJ/mol
# GULP energy per Si atom -5594.855368 kJ/mol
# Density = 2.302313 g / cm^3
# Si number density = 23.075649 Si / 1000 Ang^3
#
#
#
# Elastic Constant Matrix: (Units=GPa)
#
#
# Indices 1 2 3 4 5 6 
#
# 1 55.3619 23.0489 -3.5154 2.3741 -4.1393 7.0634
# 2 23.0489 127.2196 9.7175 0.2765 6.5481 20.3303
# 3 -3.5154 9.7175 17.3796 -5.0949 -3.2457 1.4688
# 4 2.3741 0.2765 -5.0949 29.9045 -1.3650 -6.1623
# 5 -4.1393 6.5481 -3.2457 -1.3650 16.1380 -2.4178
# 6 7.0634 20.3303 1.4688 -6.1623 -2.4178 44.4944
#
#
#
# Elastic Compliance Matrix: (Units=1/GPa)
#
#
# Indices 1 2 3 4 5 6 
#
# 1 0.021463 -0.004883 0.008880 0.000073 0.009134 -0.000963
# 2 -0.004883 0.010573 -0.008786 -0.002521 -0.008206 -0.004561
# 3 0.008880 -0.008786 0.071970 0.013312 0.021932 0.003264
# 4 0.000073 -0.002521 0.013312 0.037381 0.007825 0.006303
# 5 0.009134 -0.008206 0.021932 0.007825 0.073710 0.006665
# 6 -0.000963 -0.004561 0.003264 0.006303 0.006665 0.025839
#
#
# Mechanical properties :
#
#
# Convention : Reuss Voigt Hill
#
# Bulk Modulus (GPa) = 10.59009 28.71811 19.65410
# Shear Modulus (GPa) = 17.73123 29.48804 23.60963
#
# Velocity S-wave (km/s) = 2.77500 3.57863 3.20213
# Velocity P-wave (km/s) = 3.85575 5.43578 4.71245
#
# Compressibility (1/GPa) = 0.09442793
#
# Stress axis : x y z
#
# Youngs Moduli (GPa) = 46.59272 94.58122 13.89475
#
# Poissons Ratio (x) = 0.46186 -0.12339
# Poissons Ratio (y) = 0.22752 0.12207
# Poissons Ratio (z) = -0.41376 0.83095
#
# Static dielectric constant tensor:
#      x y z
#    x 1.878820 0.047620 -0.017680 
#    y 0.047620 1.876090 -0.018450 
#    z -0.017680 -0.018450 1.816890 
# 
# From -- ./inp_files/127434.got.cif
#   From: 2010.05.17/outbox.cif.g08.bks.cpg/sg2_64_cif.got.tgz:127434.got - 2010.06.03 11:33:40.
