data_PCOD9009369
_publ_section_title
;
Structure prediction by ZEFSAII (Michael W. Deem and Ramdas Pophale) SiO2 
 PCOD9009369
Probable space group: P -1
;
_chemical_formula_sum "Si O2"
_cell_formula_units_Z 16
_cell_length_a 15.547058
_cell_length_b 16.193678
_cell_length_c 5.308185
_cell_angle_alpha 49.370930
_cell_angle_beta 65.701704
_cell_angle_gamma 39.648378
_cell_volume 635.924128
_symmetry_space_group_name_H-M "P -1"
_symmetry_group_IT_number 2
_symmetry_cell_setting 'triclinic'
loop_
_space_group_symop_operation_xyz
x,y,z
-x,-y,-z
loop_
_atom_site_type_symbol
_atom_site_label
_atom_site_fract_x
_atom_site_fract_y
_atom_site_fract_z
Si Si1 0.945030 0.422962 0.752735
Si Si2 0.688816 0.180846 0.492336
Si Si3 0.878543 0.024709 0.173787
Si Si4 0.528707 0.797216 0.328651
Si Si5 0.771236 0.513981 0.276821
Si Si6 0.378600 0.108367 0.627187
Si Si7 0.173140 0.117872 0.816399
Si Si8 0.661516 0.370963 0.525959
O O1 0.854781 0.459603 0.546304
O O2 0.000000 0.500000 0.500000
O O3 0.079537 0.234962 0.926705
O O4 0.865699 0.476749 0.006223
O O5 0.841266 0.042035 0.472638
O O6 0.552657 0.243320 0.405989
O O7 0.677841 0.312827 0.336672
O O8 0.706261 0.072306 0.901593
O O9 0.904858 0.886459 0.290614
O O10 0.742382 0.209347 0.900825
O O11 0.000000 0.000000 0.000000
O O12 0.625722 0.691715 0.181891
O O13 0.623768 0.773191 0.473967
O O14 0.417868 0.986323 0.037530
O O15 0.726620 0.429868 0.412200
O O16 0.244192 0.170337 0.538094
O O17 0.500000 0.000000 0.500000
O O18 0.500000 0.500000 0.500000
#
# Coordination Sequence:
#
# PCOD9009369 Si02
#       8
#     2   2   2   2   2   2   2   2
#     4  12  29  50  73 108 148 198 245 304 372 445
#     4  10  23  44  68  99 139 184 239 306 363 438
#     4  11  25  42  70  99 140 196 249 300 373 449
#     4  10  22  41  65 101 132 181 237 297 364 430
#     4  12  28  47  76 106 148 194 244 300 375 446
#     4  10  21  39  68  94 131 180 237 298 356 424
#     4  10  24  42  66  99 137 180 243 298 362 430
#     4  11  25  45  69 108 146 189 249 311 379 441
#
# _framework density 25.160233000000002
#
# number of rings (size 3 to 8) (size 9 to 14) (size 15 to 20)
#    0.000    1.250    1.250    2.625   10.500    2.500 
#    0.000    0.000    0.000    0.000    0.000    0.000 
#    0.000    0.000    0.000    0.000    0.000    0.000 
#
# Total GULP energy -89210.964214 kJ/mol
# GULP energy per Si atom -5575.685263 kJ/mol
# Density = 2.510297 g / cm^3
# Si number density = 25.160233 Si / 1000 Ang^3
#
#
#
# Elastic Constant Matrix: (Units=GPa)
#
#
# Indices 1 2 3 4 5 6 
#
# 1 185.1494 57.8542 32.3730 17.3474 -34.0118 37.5305
# 2 57.8542 173.9694 27.6633 19.0592 -22.6708 21.3485
# 3 32.3730 27.6633 36.7666 4.9612 -13.1568 -1.1122
# 4 17.3474 19.0592 4.9612 52.2473 -7.4277 0.6216
# 5 -34.0118 -22.6708 -13.1568 -7.4277 22.4652 -5.1054
# 6 37.5305 21.3485 -1.1122 0.6216 -5.1054 55.8635
#
#
#
# Elastic Compliance Matrix: (Units=1/GPa)
#
#
# Indices 1 2 3 4 5 6 
#
# 1 0.009184 -0.000356 -0.004478 -0.001100 0.009364 -0.005255
# 2 -0.000356 0.007414 -0.003809 -0.001681 0.003628 -0.002319
# 3 -0.004478 -0.003809 0.039112 0.001093 0.014126 0.006522
# 4 -0.001100 -0.001681 0.001093 0.020629 0.004458 0.001581
# 5 0.009364 0.003628 0.014126 0.004458 0.071900 -0.000875
# 6 -0.005255 -0.002319 0.006522 0.001581 -0.000875 0.022350
#
#
# Mechanical properties :
#
#
# Convention : Reuss Voigt Hill
#
# Bulk Modulus (GPa) = 26.02616 70.18515 48.10566
# Shear Modulus (GPa) = 24.91481 44.64820 34.78150
#
# Velocity S-wave (km/s) = 3.15023 4.21712 3.72210
# Velocity P-wave (km/s) = 4.85783 7.18804 6.13459
#
# Compressibility (1/GPa) = 0.03842287
#
# Stress axis : x y z
#
# Youngs Moduli (GPa) = 108.88820 134.87934 25.56736
#
# Poissons Ratio (x) = 0.04808 0.11448
# Poissons Ratio (y) = 0.03881 0.09740
# Poissons Ratio (z) = 0.48758 0.51381
#
# Static dielectric constant tensor:
#      x y z
#    x 2.167550 -0.147740 0.106500 
#    y -0.147740 1.935110 -0.095830 
#    z 0.106500 -0.095830 2.226260 
# 
# From -- ./inp_files/97569.got.cif
#   From: 2010.05.17/outbox.cif.g08.bks.cpg/sg2_49_cif.got.tgz:97569.got - 2010.06.03 11:33:40.
