data_PCOD9009993
_publ_section_title
;
Structure prediction by ZEFSAII (Michael W. Deem and Ramdas Pophale) SiO2 
 PCOD9009993
Probable space group: P -1
;
_chemical_formula_sum "Si O2"
_cell_formula_units_Z 16
_cell_length_a 20.182132
_cell_length_b 12.272318
_cell_length_c 10.933798
_cell_angle_alpha 37.387429
_cell_angle_beta 34.927030
_cell_angle_gamma 27.749001
_cell_volume 697.329332
_symmetry_space_group_name_H-M "P -1"
_symmetry_group_IT_number 2
_symmetry_cell_setting 'triclinic'
loop_
_space_group_symop_operation_xyz
x,y,z
-x,-y,-z
loop_
_atom_site_type_symbol
_atom_site_label
_atom_site_fract_x
_atom_site_fract_y
_atom_site_fract_z
Si Si1 0.193772 0.972054 0.051820
Si Si2 0.830780 0.580714 0.767981
Si Si3 0.279494 0.412637 0.818661
Si Si4 0.636765 0.106976 0.484434
Si Si5 0.172181 0.674661 0.502677
Si Si6 0.005364 0.474711 0.206489
Si Si7 0.835236 0.207658 0.999791
Si Si8 0.514198 0.192478 0.331146
O O1 0.136591 0.912524 0.303587
O O2 0.166903 0.878485 0.054594
O O3 0.378893 0.820354 0.918386
O O4 0.102147 0.253540 0.925212
O O5 0.980795 0.496311 0.693717
O O6 0.743676 0.851114 0.618848
O O7 0.752347 0.544421 0.028069
O O8 0.827065 0.431869 0.803502
O O9 0.461962 0.254721 0.665588
O O10 0.195322 0.626185 0.656395
O O11 0.183953 0.323388 0.021903
O O12 0.708971 0.231342 0.254249
O O13 0.620947 0.081056 0.389200
O O14 0.064407 0.638033 0.633070
O O15 0.347017 0.450451 0.383373
O O16 0.000000 0.000000 0.000000
O O17 0.500000 0.000000 0.500000
#
# Coordination Sequence:
#
# PCOD9009993 Si02
#       8
#     2   2   2   2   2   2   2   2
#     4  11  23  39  61  95 124 158 202 246 311 363
#     4  10  23  40  64  88 122 163 202 248 302 357
#     4   9  22  44  60  92 121 154 219 247 291 373
#     4  10  23  41  63  87 122 164 199 253 303 352
#     4  11  22  40  65  87 125 163 194 260 305 350
#     4  10  22  39  62  92 123 156 207 252 295 367
#     4  11  23  39  58  92 126 153 204 249 294 371
#     4  10  21  40  61  89 125 154 203 248 297 370
#
# _framework density 22.944683000000001
#
# number of rings (size 3 to 8) (size 9 to 14) (size 15 to 20)
#    0.750    1.000    2.500    1.125    3.500    1.500 
#    0.000    2.500    0.000    0.000    0.000    0.000 
#    0.000    0.000    0.000    0.000    0.000    0.000 
#
# Total GULP energy -89195.937889 kJ/mol
# GULP energy per Si atom -5574.746118 kJ/mol
# Density = 2.289246 g / cm^3
# Si number density = 22.944683 Si / 1000 Ang^3
#
#
#
# Elastic Constant Matrix: (Units=GPa)
#
#
# Indices 1 2 3 4 5 6 
#
# 1 67.9310 9.1233 53.3698 -19.3402 -4.2454 -5.0321
# 2 9.1233 63.6106 37.7483 -3.6355 -7.8241 -14.4550
# 3 53.3698 37.7483 146.0146 18.6736 -49.4766 -0.7012
# 4 -19.3402 -3.6355 18.6736 38.8522 27.3386 -6.5087
# 5 -4.2454 -7.8241 -49.4766 27.3386 -34.1652 8.3491
# 6 -5.0321 -14.4550 -0.7012 -6.5087 8.3491 30.1266
#
#
#
# Elastic Compliance Matrix: (Units=1/GPa)
#
#
# Indices 1 2 3 4 5 6 
#
# 1 0.021635 0.002736 -0.005715 0.006569 0.010992 0.003166
# 2 0.002736 0.021175 -0.004698 0.002830 0.006177 0.009407
# 3 -0.005715 -0.004698 0.007137 -0.000446 -0.009059 -0.000628
# 4 0.006569 0.002830 -0.000446 0.019227 0.015153 0.002399
# 5 0.010992 0.006177 -0.009059 0.015153 -0.004575 0.009131
# 6 0.003166 0.009407 -0.000628 0.002399 0.009131 0.036209
#
#
# Mechanical properties :
#
#
# Convention : Reuss Voigt Hill
#
# Bulk Modulus (GPa) = 28.90837 53.11545 41.01191
# Shear Modulus (GPa) = 39.15591 18.78369 28.96980
#
# Velocity S-wave (km/s) = 4.13550 2.86431 3.55715
# Velocity P-wave (km/s) = 5.95229 5.84283 5.89781
#
# Compressibility (1/GPa) = 0.03459205
#
# Stress axis : x y z
#
# Youngs Moduli (GPa) = 46.22055 47.22455 140.12355
#
# Poissons Ratio (x) = -0.12919 0.80087
# Poissons Ratio (y) = -0.12644 0.65827
# Poissons Ratio (z) = 0.26417 0.22185
#
# Static dielectric constant tensor:
#      x y z
#    x 2.162410 0.067350 0.009690 
#    y 0.067350 1.923450 0.084190 
#    z 0.009690 0.084190 1.952470 
# 
# From -- ./inp_files/471856.got.cif
#   From: 2010.05.17/outbox.cif.g08.bks.cpg/sg2_236_cif.got.tgz:471856.got - 2010.06.03 11:33:40.
