data_PCOD9009999
_publ_section_title
;
Structure prediction by ZEFSAII (Michael W. Deem and Ramdas Pophale) SiO2 
 PCOD9009999
Probable space group: P -1
;
_chemical_formula_sum "Si O2"
_cell_formula_units_Z 16
_cell_length_a 7.557755
_cell_length_b 13.913243
_cell_length_c 15.611324
_cell_angle_alpha 117.467922
_cell_angle_beta 26.565473
_cell_angle_gamma 114.503023
_cell_volume 651.375062
_symmetry_space_group_name_H-M "P -1"
_symmetry_group_IT_number 2
_symmetry_cell_setting 'triclinic'
loop_
_space_group_symop_operation_xyz
x,y,z
-x,-y,-z
loop_
_atom_site_type_symbol
_atom_site_label
_atom_site_fract_x
_atom_site_fract_y
_atom_site_fract_z
Si Si1 0.414928 0.080239 0.445163
Si Si2 0.114156 0.301688 0.067891
Si Si3 0.559177 0.845664 0.344578
Si Si4 0.362143 0.383702 0.810789
Si Si5 0.538234 0.162730 0.069165
Si Si6 0.527908 0.392060 0.089943
Si Si7 0.261864 0.078936 0.989118
Si Si8 0.394049 0.146354 0.308595
O O1 0.375702 0.139527 0.576324
O O2 0.180710 0.127468 0.484545
O O3 0.363980 0.953206 0.434933
O O4 0.863807 0.094226 0.223914
O O5 0.171565 0.363579 0.979313
O O6 0.311888 0.378314 0.086459
O O7 0.324997 0.184625 0.946225
O O8 0.661221 0.255861 0.249970
O O9 0.389950 0.725648 0.353330
O O10 0.996919 0.839505 0.108287
O O11 0.011889 0.390995 0.893754
O O12 0.588024 0.497039 0.767463
O O13 0.417356 0.280455 0.137524
O O14 0.547425 0.085738 0.950797
O O15 0.274547 0.146782 0.260701
O O16 0.349540 0.966847 0.857543
#
# Coordination Sequence:
#
# PCOD9009999 Si02
#       8
#     2   2   2   2   2   2   2   2
#     4  10  20  31  51  76 107 137 168 206 271 318
#     4  10  17  29  50  77 101 128 176 216 256 300
#     4  10  19  33  51  75 107 140 163 214 270 311
#     4  10  17  33  51  73 108 136 172 218 268 292
#     4  10  19  33  54  76 104 133 182 215 254 305
#     4   9  19  29  50  82  98 133 177 229 247 301
#     4  10  19  31  54  78 101 138 179 212 253 318
#     4  11  18  31  52  75 101 138 172 211 258 304
#
# _framework density 24.563420000000001
#
# number of rings (size 3 to 8) (size 9 to 14) (size 15 to 20)
#    0.000    2.000    3.750    3.000    0.000    0.000 
#    0.000    0.625    8.250    7.500    0.000    0.000 
#    0.000    0.000    0.000    0.000    0.000    0.000 
#
# Total GULP energy -89126.856842 kJ/mol
# GULP energy per Si atom -5570.428553 kJ/mol
# Density = 2.450751 g / cm^3
# Si number density = 24.563420 Si / 1000 Ang^3
#
#
#
# Elastic Constant Matrix: (Units=GPa)
#
#
# Indices 1 2 3 4 5 6 
#
# 1 92.8710 6.0165 30.9515 -11.0973 38.4277 14.9278
# 2 6.0165 109.7472 42.2400 20.1789 17.5316 8.4664
# 3 30.9515 42.2400 82.2999 -3.5117 20.4064 2.1764
# 4 -11.0973 20.1789 -3.5117 26.7533 0.9455 8.7578
# 5 38.4277 17.5316 20.4064 0.9455 39.6137 -3.5028
# 6 14.9278 8.4664 2.1764 8.7578 -3.5028 41.9818
#
#
#
# Elastic Compliance Matrix: (Units=1/GPa)
#
#
# Indices 1 2 3 4 5 6 
#
# 1 0.027761 0.002940 -0.003974 0.014902 -0.027928 -0.015697
# 2 0.002940 0.014806 -0.007762 -0.010137 -0.005337 -0.001959
# 3 -0.003974 -0.007762 0.018479 0.006566 -0.002346 0.000455
# 4 0.014902 -0.010137 0.006566 0.058240 -0.016254 -0.017101
# 5 -0.027928 -0.005337 -0.002346 -0.016254 0.058005 0.019359
# 6 -0.015697 -0.001959 0.000455 -0.017101 0.019359 0.034956
#
#
# Mechanical properties :
#
#
# Convention : Reuss Voigt Hill
#
# Bulk Modulus (GPa) = 23.01299 49.25932 36.13616
# Shear Modulus (GPa) = 20.46481 35.38375 27.92428
#
# Velocity S-wave (km/s) = 2.88955 3.79952 3.37534
# Velocity P-wave (km/s) = 4.53010 6.27263 5.47118
#
# Compressibility (1/GPa) = 0.04345372
#
# Stress axis : x y z
#
# Youngs Moduli (GPa) = 36.02188 67.54173 54.11670
#
# Poissons Ratio (x) = -0.19855 0.21503
# Poissons Ratio (y) = -0.10589 0.42005
# Poissons Ratio (z) = 0.14313 0.52425
#
# Static dielectric constant tensor:
#      x y z
#    x 2.269770 0.066070 -0.106990 
#    y 0.066070 1.978390 -0.028120 
#    z -0.106990 -0.028120 1.939280 
# 
# From -- ./inp_files/501939.got.cif
#   From: 2010.05.17/outbox.cif.g08.bks.cpg/sg2_251_cif.got.tgz:501939.got - 2010.06.03 11:33:40.
