data_PCOD9009231
_publ_section_title
;
Structure prediction by ZEFSAII (Michael W. Deem and Ramdas Pophale) SiO2 
 PCOD9009231
Probable space group: P -1
;
_chemical_formula_sum "Si O2"
_cell_formula_units_Z 14
_cell_length_a 11.108797
_cell_length_b 9.634524
_cell_length_c 11.735696
_cell_angle_alpha 119.507124
_cell_angle_beta 132.184371
_cell_angle_gamma 92.268802
_cell_volume 663.118702
_symmetry_space_group_name_H-M "P -1"
_symmetry_group_IT_number 2
_symmetry_cell_setting 'triclinic'
loop_
_space_group_symop_operation_xyz
x,y,z
-x,-y,-z
loop_
_atom_site_type_symbol
_atom_site_label
_atom_site_fract_x
_atom_site_fract_y
_atom_site_fract_z
Si Si1 0.432305 0.298317 0.317390
Si Si2 0.573198 0.279027 0.165907
Si Si3 0.537329 0.623379 0.203643
Si Si4 0.048828 0.089296 0.835159
Si Si5 0.154133 0.288292 0.735586
Si Si6 0.835425 0.148081 0.287215
Si Si7 0.623415 0.913930 0.573747
O O1 0.500000 0.500000 0.500000
O O2 0.573863 0.302284 0.312704
O O3 0.400028 0.154439 0.339296
O O4 0.233743 0.223431 0.089167
O O5 0.565812 0.453190 0.184455
O O6 0.760132 0.276969 0.249640
O O7 0.371515 0.069158 0.919970
O O8 0.712827 0.754592 0.277602
O O9 0.551660 0.735170 0.369985
O O10 0.318923 0.513120 0.965506
O O11 0.087268 0.174668 0.766382
O O12 0.854943 0.058928 0.750642
O O13 0.037430 0.889865 0.733958
O O14 0.967185 0.233713 0.519179
O O15 0.500000 0.000000 0.500000
#
# Coordination Sequence:
#
# PCOD9009231 Si02
#       7
#     2   2   2   2   2   2   2
#     4  11  22  46  69  90 135 177 215 272 318 381
#     4  10  22  40  67  98 131 167 221 261 332 391
#     4  11  23  42  64 101 130 166 216 272 332 379
#     4  11  23  44  66  94 129 175 218 263 333 384
#     4  11  22  39  70  95 134 165 206 279 333 383
#     4  10  21  39  67  97 127 168 209 269 334 387
#     4  12  27  45  67  95 130 179 228 263 315 391
#
# _framework density 21.112359000000001
#
# number of rings (size 3 to 8) (size 9 to 14) (size 15 to 20)
#    0.000    1.143    5.714    0.857    2.000    0.571 
#   10.286    1.429    0.000    0.000    0.000    0.000 
#    0.000    0.000    0.000    0.000    0.000    0.000 
#
# Total GULP energy -78196.094809 kJ/mol
# GULP energy per Si atom -5585.435344 kJ/mol
# Density = 2.106431 g / cm^3
# Si number density = 21.112359 Si / 1000 Ang^3
#
#
#
# Elastic Constant Matrix: (Units=GPa)
#
#
# Indices 1 2 3 4 5 6 
#
# 1 86.6070 43.2680 20.1111 -17.1617 5.5226 4.9530
# 2 43.2680 96.9308 34.3426 -18.0190 3.6860 -3.2559
# 3 20.1111 34.3426 136.7371 -11.9698 -13.7359 -12.9028
# 4 -17.1617 -18.0190 -11.9698 26.4264 -2.0142 -0.6533
# 5 5.5226 3.6860 -13.7359 -2.0142 35.1674 -12.4150
# 6 4.9530 -3.2559 -12.9028 -0.6533 -12.4150 40.9689
#
#
#
# Elastic Compliance Matrix: (Units=1/GPa)
#
#
# Indices 1 2 3 4 5 6 
#
# 1 0.016268 -0.005790 -0.001122 0.005760 -0.003365 -0.003708
# 2 -0.005790 0.014789 -0.002423 0.005175 -0.000973 0.000900
# 3 -0.001122 -0.002423 0.009331 0.002410 0.005872 0.004700
# 4 0.005760 0.005175 0.002410 0.046474 0.002895 0.002092
# 5 -0.003365 -0.000973 0.005872 0.002895 0.036181 0.013189
# 6 -0.003708 0.000900 0.004700 0.002092 0.013189 0.030439
#
#
# Mechanical properties :
#
#
# Convention : Reuss Voigt Hill
#
# Bulk Modulus (GPa) = 46.04440 57.30202 51.67321
# Shear Modulus (GPa) = 27.87238 35.34944 31.61091
#
# Velocity S-wave (km/s) = 3.63739 4.09632 3.87366
# Velocity P-wave (km/s) = 6.28469 7.04084 6.67349
#
# Compressibility (1/GPa) = 0.02171817
#
# Stress axis : x y z
#
# Youngs Moduli (GPa) = 61.47215 67.62006 107.16895
#
# Poissons Ratio (x) = 0.39150 0.12027
# Poissons Ratio (y) = 0.35591 0.25962
# Poissons Ratio (z) = 0.06898 0.16381
#
# Static dielectric constant tensor:
#      x y z
#    x 1.760590 0.021230 0.016100 
#    y 0.021230 1.803290 0.025380 
#    z 0.016100 0.025380 1.802950 
# 
# From -- ./inp_files/417957.got.cif
#   From: 2010.05.17/outbox.cif.g08.bks.cpg/sg2_209_cif.got.tgz:417957.got - 2010.06.03 11:33:40.
