data_PCOD9009415
_publ_section_title
;
Structure prediction by ZEFSAII (Michael W. Deem and Ramdas Pophale) SiO2 
 PCOD9009415
Probable space group: P -1
;
_chemical_formula_sum "Si O2"
_cell_formula_units_Z 14
_cell_length_a 12.117588
_cell_length_b 11.486426
_cell_length_c 6.580465
_cell_angle_alpha 59.684569
_cell_angle_beta 60.697030
_cell_angle_gamma 39.103318
_cell_volume 490.597334
_symmetry_space_group_name_H-M "P -1"
_symmetry_group_IT_number 2
_symmetry_cell_setting 'triclinic'
loop_
_space_group_symop_operation_xyz
x,y,z
-x,-y,-z
loop_
_atom_site_type_symbol
_atom_site_label
_atom_site_fract_x
_atom_site_fract_y
_atom_site_fract_z
Si Si1 0.102554 0.624762 0.697373
Si Si2 0.859075 0.719767 0.509154
Si Si3 0.138792 0.998789 0.976686
Si Si4 0.337697 0.608116 0.238340
Si Si5 0.641630 0.542993 0.054590
Si Si6 0.612019 0.802987 0.354397
Si Si7 0.349891 0.954671 0.151134
O O1 0.176902 0.704038 0.452583
O O2 0.163404 0.589103 0.906034
O O3 0.246316 0.411477 0.663822
O O4 0.917014 0.710434 0.697655
O O5 0.670229 0.800658 0.532298
O O6 0.000000 0.500000 0.500000
O O7 0.874602 0.850781 0.262646
O O8 0.307279 0.772349 0.003611
O O9 0.171385 0.015479 0.172425
O O10 0.000000 0.000000 0.000000
O O11 0.531194 0.489536 0.262939
O O12 0.332512 0.497125 0.171736
O O13 0.518642 0.751079 0.074570
O O14 0.413901 0.906725 0.371023
O O15 0.647070 0.905624 0.089136
#
# Coordination Sequence:
#
# PCOD9009415 Si02
#       7
#     2   2   2   2   2   2   2
#     4  10  17  30  51  75  99 133 170 208 251 303
#     4   9  17  29  50  74 100 134 169 206 252 304
#     4  10  17  29  49  77 104 131 168 213 255 299
#     4  10  19  32  50  73 104 134 165 209 254 301
#     4   9  19  32  49  74 103 134 166 208 254 304
#     4   8  15  28  49  75  94 136 176 203 249 301
#     4   8  15  29  49  72 101 134 171 207 251 301
#
# _framework density 28.536643999999999
#
# number of rings (size 3 to 8) (size 9 to 14) (size 15 to 20)
#    0.000    2.857    1.429    0.429    0.000    0.000 
#    0.000    1.429    0.000   13.714    0.000    0.000 
#    0.000    0.000    0.000    0.000    0.000    0.000 
#
# Total GULP energy -78114.113274 kJ/mol
# GULP energy per Si atom -5579.579520 kJ/mol
# Density = 2.847169 g / cm^3
# Si number density = 28.536644 Si / 1000 Ang^3
#
#
#
# Elastic Constant Matrix: (Units=GPa)
#
#
# Indices 1 2 3 4 5 6 
#
# 1 235.7038 24.5580 67.9368 -11.2311 55.5131 4.2673
# 2 24.5580 56.7362 41.0361 -14.6349 -6.3892 -3.7080
# 3 67.9368 41.0361 85.3230 -2.2779 9.5784 16.7584
# 4 -11.2311 -14.6349 -2.2779 47.6649 4.7954 1.7763
# 5 55.5131 -6.3892 9.5784 4.7954 57.7702 -15.6918
# 6 4.2673 -3.7080 16.7584 1.7763 -15.6918 58.2468
#
#
#
# Elastic Compliance Matrix: (Units=1/GPa)
#
#
# Indices 1 2 3 4 5 6 
#
# 1 0.007341 0.000133 -0.004905 0.002245 -0.006680 -0.000986
# 2 0.000133 0.036442 -0.020508 0.008903 0.009409 0.010474
# 3 -0.004905 -0.020508 0.027805 -0.005306 -0.004435 -0.009979
# 4 0.002245 0.008903 -0.005306 0.024180 -0.002132 0.000617
# 5 -0.006680 0.009409 -0.004435 -0.002132 0.028422 0.010086
# 6 -0.000986 0.010474 -0.009979 0.000617 0.010086 0.023477
#
#
# Mechanical properties :
#
#
# Convention : Reuss Voigt Hill
#
# Bulk Modulus (GPa) = 47.55837 71.64719 59.60278
# Shear Modulus (GPa) = 24.36210 49.01852 36.69031
#
# Velocity S-wave (km/s) = 2.92501 4.14906 3.58959
# Velocity P-wave (km/s) = 5.30183 6.93646 6.17349
#
# Compressibility (1/GPa) = 0.02102679
#
# Stress axis : x y z
#
# Youngs Moduli (GPa) = 136.22570 27.44114 35.96414
#
# Poissons Ratio (x) = -0.00364 0.17641
# Poissons Ratio (y) = -0.01809 0.73755
# Poissons Ratio (z) = 0.66822 0.56276
#
# Static dielectric constant tensor:
#      x y z
#    x 2.503450 -0.062250 0.080700 
#    y -0.062250 2.344620 -0.035350 
#    z 0.080700 -0.035350 2.213720 
# 
# From -- ./inp_files/249875.got.cif
#   From: 2010.05.17/outbox.cif.g08.bks.cpg/sg2_125_cif.got.tgz:249875.got - 2010.06.03 11:33:40.
