data_PCOD9009546
_publ_section_title
;
Structure prediction by ZEFSAII (Michael W. Deem and Ramdas Pophale) SiO2 
 PCOD9009546
Probable space group: P -1
;
_chemical_formula_sum "Si O2"
_cell_formula_units_Z 13
_cell_length_a 5.170329
_cell_length_b 14.477728
_cell_length_c 12.187091
_cell_angle_alpha 42.889757
_cell_angle_beta 70.562041
_cell_angle_gamma 63.185215
_cell_volume 554.108041
_symmetry_space_group_name_H-M "P -1"
_symmetry_group_IT_number 2
_symmetry_cell_setting 'triclinic'
loop_
_space_group_symop_operation_xyz
x,y,z
-x,-y,-z
loop_
_atom_site_type_symbol
_atom_site_label
_atom_site_fract_x
_atom_site_fract_y
_atom_site_fract_z
Si Si1 0.468723 0.140686 0.568686
Si Si2 0.996233 0.061814 0.827024
Si Si3 0.757666 0.373203 0.621371
Si Si4 0.010482 0.890849 0.755628
Si Si5 0.758278 0.554930 0.652030
Si Si6 0.157097 0.554925 0.025635
Si Si7 0.500000 0.000000 0.500000
O O1 0.295492 0.094257 0.730309
O O2 0.510426 0.294799 0.437920
O O3 0.290702 0.137333 0.486195
O O4 0.743839 0.996700 0.627926
O O5 0.751575 0.217091 0.728847
O O6 0.955294 0.961537 0.822808
O O7 0.000000 0.000000 0.000000
O O8 0.500000 0.500000 0.500000
O O9 0.741606 0.412466 0.718029
O O10 0.031922 0.392673 0.502689
O O11 0.026270 0.727434 0.896988
O O12 0.313312 0.898843 0.662572
O O13 0.877486 0.509349 0.795018
O O14 0.500000 0.500000 0.000000
O O15 0.000000 0.500000 0.000000
#
# Coordination Sequence:
#
# PCOD9009546 Si02
#       7
#     2   2   2   2   2   2   1
#     4  10  22  39  67  94 133 181 236 284 352 413
#     4  10  22  39  63  98 138 172 233 290 354 421
#     4  10  21  39  69  98 137 183 233 296 359 417
#     4  11  24  43  70 100 135 186 238 290 360 423
#     4  10  23  43  64 102 139 183 242 291 355 432
#     4  12  30  48  72 105 150 193 238 297 369 433
#     4  10  22  40  64  96 132 166 236 284 338 408
#
# _framework density 23.461127000000001
#
# number of rings (size 3 to 8) (size 9 to 14) (size 15 to 20)
#    0.000    1.538    0.000    3.231    8.615    1.846 
#    2.769    0.000    0.000    0.000    0.000    0.000 
#    0.000    0.000    0.000    0.000    0.000    0.000 
#
# Total GULP energy -72394.725168 kJ/mol
# GULP energy per Si atom -5568.825013 kJ/mol
# Density = 2.340773 g / cm^3
# Si number density = 23.461127 Si / 1000 Ang^3
#
#
#
# Elastic Constant Matrix: (Units=GPa)
#
#
# Indices 1 2 3 4 5 6 
#
# 1 61.5547 36.2884 19.0077 -14.4500 4.7883 8.4260
# 2 36.2884 174.3322 100.6647 -21.4020 3.4130 30.2636
# 3 19.0077 100.6647 123.5116 -14.4137 8.1139 20.6534
# 4 -14.4500 -21.4020 -14.4137 55.6872 1.3507 4.9183
# 5 4.7883 3.4130 8.1139 1.3507 26.6286 -1.9416
# 6 8.4260 30.2636 20.6534 4.9183 -1.9416 43.3950
#
#
#
# Elastic Compliance Matrix: (Units=1/GPa)
#
#
# Indices 1 2 3 4 5 6 
#
# 1 0.019739 -0.003779 0.001200 0.004287 -0.003825 -0.002425
# 2 -0.003779 0.012502 -0.008824 0.001854 0.001385 -0.003933
# 3 0.001200 -0.008824 0.015853 0.001296 -0.004123 -0.001955
# 4 0.004287 0.001854 0.001296 0.020646 -0.002830 -0.005209
# 5 -0.003825 0.001385 -0.004123 -0.002830 0.039744 0.003838
# 6 -0.002425 -0.003933 -0.001955 -0.005209 0.003838 0.027950
#
#
# Mechanical properties :
#
#
# Convention : Reuss Voigt Hill
#
# Bulk Modulus (GPa) = 39.54883 74.59112 57.06997
# Shear Modulus (GPa) = 29.82027 38.70466 34.26247
#
# Velocity S-wave (km/s) = 3.56905 4.06610 3.82565
# Velocity P-wave (km/s) = 5.82047 7.34212 6.62513
#
# Compressibility (1/GPa) = 0.02528520
#
# Stress axis : x y z
#
# Youngs Moduli (GPa) = 50.66067 79.98980 63.07961
#
# Poissons Ratio (x) = 0.30231 -0.07567
# Poissons Ratio (y) = 0.19147 0.55664
# Poissons Ratio (z) = -0.06077 0.70587
#
# Static dielectric constant tensor:
#      x y z
#    x 2.989830 0.172630 0.529890 
#    y 0.172630 2.129950 0.038050 
#    z 0.529890 0.038050 2.132570 
# 
# From -- ./inp_files/25565.got.cif
#   From: 2010.05.17/outbox.cif.g08.bks.cpg/sg2_13_cif.got.tgz:25565.got - 2010.06.03 11:33:40.
