data_PCOD9009483
_publ_section_title
;
Structure prediction by ZEFSAII (Michael W. Deem and Ramdas Pophale) SiO2 
 PCOD9009483
Probable space group: P -1
;
_chemical_formula_sum "Si O2"
_cell_formula_units_Z 14
_cell_length_a 7.829660
_cell_length_b 17.257341
_cell_length_c 8.947414
_cell_angle_alpha 138.372313
_cell_angle_beta 118.830402
_cell_angle_gamma 42.632011
_cell_volume 537.734432
_symmetry_space_group_name_H-M "P -1"
_symmetry_group_IT_number 2
_symmetry_cell_setting 'triclinic'
loop_
_space_group_symop_operation_xyz
x,y,z
-x,-y,-z
loop_
_atom_site_type_symbol
_atom_site_label
_atom_site_fract_x
_atom_site_fract_y
_atom_site_fract_z
Si Si1 0.069058 0.040746 0.939931
Si Si2 0.327165 0.060570 0.659898
Si Si3 0.135759 0.528442 0.223511
Si Si4 0.337059 0.651045 0.966196
Si Si5 0.148739 0.326781 0.181015
Si Si6 0.725323 0.797658 0.633317
Si Si7 0.812677 0.158406 0.555724
O O1 0.820171 0.189019 0.963375
O O2 0.220582 0.890710 0.686528
O O3 0.228339 0.094461 0.118826
O O4 0.000000 0.000000 0.000000
O O5 0.038541 0.166674 0.634575
O O6 0.500000 0.000000 0.500000
O O7 0.457937 0.904820 0.586797
O O8 0.317139 0.169506 0.930408
O O9 0.399383 0.474200 0.187586
O O10 0.180520 0.429027 0.243397
O O11 0.939041 0.695995 0.451403
O O12 0.000000 0.500000 0.000000
O O13 0.381239 0.694940 0.210042
O O14 0.135786 0.622431 0.857335
O O15 0.235245 0.303285 0.355743
O O16 0.000000 0.000000 0.500000
#
# Coordination Sequence:
#
# PCOD9009483 Si02
#       7
#     2   2   2   2   2   2   2
#     4  10  21  39  69 106 139 178 228 290 363 405
#     4  11  22  40  72 103 138 179 237 296 340 423
#     4  12  27  46  73 101 141 197 236 285 361 431
#     4   9  23  46  69  98 143 182 240 285 343 436
#     4  10  24  46  70 102 141 185 235 301 357 408
#     4  11  25  44  67 108 144 180 239 293 358 422
#     4   9  20  38  65  96 133 177 220 287 346 397
#
# _framework density 26.035156000000001
#
# number of rings (size 3 to 8) (size 9 to 14) (size 15 to 20)
#    0.000    1.714    0.000    3.429   10.000    4.000 
#    0.000    1.429    0.000    0.000    0.000    0.000 
#    0.000    0.000    0.000    0.000    0.000    0.000 
#
# Total GULP energy -78319.103068 kJ/mol
# GULP energy per Si atom -5594.221648 kJ/mol
# Density = 2.597590 g / cm^3
# Si number density = 26.035156 Si / 1000 Ang^3
#
#
#
# Elastic Constant Matrix: (Units=GPa)
#
#
# Indices 1 2 3 4 5 6 
#
# 1 108.5454 47.5027 37.3083 -16.6883 -49.9912 -3.3491
# 2 47.5027 93.4212 25.5137 -13.9003 -19.2240 4.5305
# 3 37.3083 25.5137 142.7376 -20.1158 -37.6342 -15.2796
# 4 -16.6883 -13.9003 -20.1158 31.7447 5.4176 -10.1758
# 5 -49.9912 -19.2240 -37.6342 5.4176 45.6272 -4.9099
# 6 -3.3491 4.5305 -15.2796 -10.1758 -4.9099 55.9647
#
#
#
# Elastic Compliance Matrix: (Units=1/GPa)
#
#
# Indices 1 2 3 4 5 6 
#
# 1 0.025953 -0.007286 0.004425 0.010895 0.028565 0.007838
# 2 -0.007286 0.014415 -0.001682 0.001360 -0.003688 -0.002138
# 3 0.004425 -0.001682 0.011557 0.008659 0.013321 0.006299
# 4 0.010895 0.001360 0.008659 0.044606 0.015689 0.012393
# 5 0.028565 -0.003688 0.013321 0.015689 0.062287 0.013962
# 6 0.007838 -0.002138 0.006299 0.012393 0.013962 0.023709
#
#
# Mechanical properties :
#
#
# Convention : Reuss Voigt Hill
#
# Bulk Modulus (GPa) = 23.34338 62.81706 43.08022
# Shear Modulus (GPa) = 24.28437 42.29262 33.28850
#
# Velocity S-wave (km/s) = 3.05741 4.03481 3.57963
# Velocity P-wave (km/s) = 4.63134 6.77395 5.80240
#
# Compressibility (1/GPa) = 0.04283870
#
# Stress axis : x y z
#
# Youngs Moduli (GPa) = 38.53098 69.36991 86.52869
#
# Poissons Ratio (x) = 0.50543 -0.38286
# Poissons Ratio (y) = 0.28074 0.14554
# Poissons Ratio (z) = -0.17048 0.11668
#
# Static dielectric constant tensor:
#      x y z
#    x 2.436740 -0.267950 0.051270 
#    y -0.267950 2.965650 0.544840 
#    z 0.051270 0.544840 2.380130 
# 
# From -- ./inp_files/204377.got.cif
#   From: 2010.05.17/outbox.cif.g08.bks.cpg/sg2_103_cif.got.tgz:204377.got - 2010.06.03 11:33:40.
