data_PCOD9009926
_publ_section_title
;
Structure prediction by ZEFSAII (Michael W. Deem and Ramdas Pophale) SiO2 
 PCOD9009926
Probable space group: P -1
;
_chemical_formula_sum "Si O2"
_cell_formula_units_Z 16
_cell_length_a 7.961222
_cell_length_b 14.112540
_cell_length_c 8.471263
_cell_angle_alpha 129.461353
_cell_angle_beta 84.533949
_cell_angle_gamma 69.087429
_cell_volume 614.144307
_symmetry_space_group_name_H-M "P -1"
_symmetry_group_IT_number 2
_symmetry_cell_setting 'triclinic'
loop_
_space_group_symop_operation_xyz
x,y,z
-x,-y,-z
loop_
_atom_site_type_symbol
_atom_site_label
_atom_site_fract_x
_atom_site_fract_y
_atom_site_fract_z
Si Si1 0.844312 0.070493 0.942900
Si Si2 0.512367 0.791774 0.370083
Si Si3 0.229106 0.147840 0.161126
Si Si4 0.476342 0.293483 0.387293
Si Si5 0.348226 0.492962 0.125731
Si Si6 0.054632 0.334282 0.810529
Si Si7 0.165868 0.087514 0.766675
Si Si8 0.158117 0.552315 0.538974
O O1 0.977675 0.071749 0.792956
O O2 0.763377 0.963619 0.829809
O O3 0.660995 0.228758 0.181629
O O4 0.000000 0.000000 0.000000
O O5 0.439320 0.748483 0.487221
O O6 0.723074 0.765042 0.383512
O O7 0.337754 0.952744 0.506746
O O8 0.592102 0.671271 0.098734
O O9 0.360205 0.214916 0.260253
O O10 0.997930 0.276835 0.285403
O O11 0.281001 0.070590 0.902972
O O12 0.307803 0.466168 0.578931
O O13 0.312193 0.500800 0.324027
O O14 0.132755 0.634454 0.240926
O O15 0.500000 0.500000 0.000000
O O16 0.076611 0.248372 0.876566
O O17 0.000000 0.500000 0.000000
O O18 0.000000 0.500000 0.500000
#
# Coordination Sequence:
#
# PCOD9009926 Si02
#       8
#     2   2   2   2   2   2   2   2
#     4  10  21  40  61 100 146 171 223 284 349 406
#     4  11  24  45  71  99 141 176 238 281 351 414
#     4  10  22  40  70  99 141 174 238 280 344 412
#     4  11  22  41  72 104 131 186 232 287 338 416
#     4  11  27  47  70 101 145 183 231 296 352 411
#     4  10  24  44  70  94 136 183 228 274 347 416
#     4  11  24  42  68 106 137 183 220 295 348 414
#     4  10  24  42  69 101 134 182 239 283 338 410
#
# _framework density 26.052510000000002
#
# number of rings (size 3 to 8) (size 9 to 14) (size 15 to 20)
#    0.000    1.500    2.500    2.250   14.000    0.000 
#    0.000    3.750    0.000    0.000    0.000    0.000 
#    0.000    0.000    0.000    0.000    0.000    0.000 
#
# Total GULP energy -89376.980185 kJ/mol
# GULP energy per Si atom -5586.061262 kJ/mol
# Density = 2.599321 g / cm^3
# Si number density = 26.052510 Si / 1000 Ang^3
#
#
#
# Elastic Constant Matrix: (Units=GPa)
#
#
# Indices 1 2 3 4 5 6 
#
# 1 94.3908 21.8360 12.2644 10.8170 -25.1696 13.1432
# 2 21.8360 127.5021 22.9279 27.6825 -16.9389 9.4349
# 3 12.2644 22.9279 90.0039 30.4381 -21.2289 -6.0064
# 4 10.8170 27.6825 30.4381 42.2136 -12.6331 -10.7354
# 5 -25.1696 -16.9389 -21.2289 -12.6331 41.6617 3.2002
# 6 13.1432 9.4349 -6.0064 -10.7354 3.2002 34.8566
#
#
#
# Elastic Compliance Matrix: (Units=1/GPa)
#
#
# Indices 1 2 3 4 5 6 
#
# 1 0.014113 -0.000221 0.000748 -0.003266 0.008358 -0.006906
# 2 -0.000221 0.010113 0.000097 -0.007275 0.002212 -0.005081
# 3 0.000748 0.000097 0.015645 -0.010223 0.005460 -0.001262
# 4 -0.003266 -0.007275 -0.010223 0.040505 0.001081 0.013815
# 5 0.008358 0.002212 0.005460 0.001081 0.033488 -0.005551
# 6 -0.006906 -0.005081 -0.001262 0.013815 -0.005551 0.037215
#
#
# Mechanical properties :
#
#
# Convention : Reuss Voigt Hill
#
# Bulk Modulus (GPa) = 24.32007 47.32814 35.82410
# Shear Modulus (GPa) = 30.57429 40.73761 35.65595
#
# Velocity S-wave (km/s) = 3.42945 3.95862 3.70350
# Velocity P-wave (km/s) = 5.00368 6.25301 5.66290
#
# Compressibility (1/GPa) = 0.04111831
#
# Stress axis : x y z
#
# Youngs Moduli (GPa) = 70.85868 98.88458 63.91843
#
# Poissons Ratio (x) = 0.02186 -0.04782
# Poissons Ratio (y) = 0.01566 -0.00620
# Poissons Ratio (z) = -0.05301 -0.00958
#
# Static dielectric constant tensor:
#      x y z
#    x 2.160470 0.064080 0.094230 
#    y 0.064080 2.103020 -0.031550 
#    z 0.094230 -0.031550 2.152280 
# 
# From -- ./inp_files/208967.got.cif
#   From: 2010.05.17/outbox.cif.g08.bks.cpg/sg2_105_cif.got.tgz:208967.got - 2010.06.03 11:33:40.
