data_PCOD9009796
_publ_section_title
;
Structure prediction by ZEFSAII (Michael W. Deem and Ramdas Pophale) SiO2 
 PCOD9009796
Probable space group: P -1
;
_chemical_formula_sum "Si O2"
_cell_formula_units_Z 14
_cell_length_a 23.104638
_cell_length_b 5.221816
_cell_length_c 5.410050
_cell_angle_alpha 98.719835
_cell_angle_beta 89.628378
_cell_angle_gamma 60.550966
_cell_volume 559.313666
_symmetry_space_group_name_H-M "P -1"
_symmetry_group_IT_number 2
_symmetry_cell_setting 'triclinic'
loop_
_space_group_symop_operation_xyz
x,y,z
-x,-y,-z
loop_
_atom_site_type_symbol
_atom_site_label
_atom_site_fract_x
_atom_site_fract_y
_atom_site_fract_z
Si Si1 0.311238 0.761139 0.219070
Si Si2 0.924775 0.274847 0.842859
Si Si3 0.956006 0.370868 0.361228
Si Si4 0.577939 0.909645 0.964748
Si Si5 0.802765 0.247402 0.042478
Si Si6 0.453884 0.847425 0.498502
Si Si7 0.738607 0.925403 0.230467
O O1 0.246491 0.718999 0.175835
O O2 0.304337 0.897304 0.507561
O O3 0.375643 0.437606 0.139593
O O4 0.300831 0.971610 0.014403
O O5 0.904179 0.424974 0.593214
O O6 0.874298 0.169705 0.927460
O O7 0.930342 0.468491 0.095857
O O8 0.996098 0.983796 0.742857
O O9 0.000000 0.500000 0.500000
O O10 0.580670 0.093188 0.757062
O O11 0.592864 0.994691 0.243979
O O12 0.500000 0.000000 0.000000
O O13 0.794381 0.024704 0.194289
O O14 0.771398 0.574407 0.211409
O O15 0.500000 0.500000 0.500000
O O16 0.500000 0.000000 0.500000
#
# Coordination Sequence:
#
# PCOD9009796 Si02
#       7
#     2   2   2   2   2   2   2
#     4  10  24  45  66  98 132 171 223 278 330 397
#     4  10  23  38  64  91 131 165 220 265 320 389
#     4  10  22  40  61  97 129 169 212 267 325 381
#     4  10  21  43  65  96 128 170 211 269 333 397
#     4  10  26  44  68  98 129 179 224 271 332 387
#     4  10  21  40  59  91 122 159 206 249 315 387
#     4  10  25  42  67  93 132 168 226 272 329 389
#
# _framework density 25.030676
#
# number of rings (size 3 to 8) (size 9 to 14) (size 15 to 20)
#    0.857    1.143    0.000    1.714    6.000    1.143 
#   15.429    0.000    0.000    0.000    0.000    0.000 
#    0.000    0.000    0.000    0.000    0.000    0.000 
#
# Total GULP energy -78267.850721 kJ/mol
# GULP energy per Si atom -5590.560766 kJ/mol
# Density = 2.497371 g / cm^3
# Si number density = 25.030676 Si / 1000 Ang^3
#
#
#
# Elastic Constant Matrix: (Units=GPa)
#
#
# Indices 1 2 3 4 5 6 
#
# 1 107.8652 3.0134 48.0561 -0.3123 0.1809 13.0320
# 2 3.0134 104.5366 39.6236 5.7299 9.0679 7.0567
# 3 48.0561 39.6236 249.4583 -7.3620 9.3069 1.9559
# 4 -0.3123 5.7299 -7.3620 22.3598 9.2473 -2.8630
# 5 0.1809 9.0679 9.3069 9.2473 33.1296 5.8793
# 6 13.0320 7.0567 1.9559 -2.8630 5.8793 38.0935
#
#
#
# Elastic Compliance Matrix: (Units=1/GPa)
#
#
# Indices 1 2 3 4 5 6 
#
# 1 0.010757 0.000803 -0.002289 -0.002023 0.001661 -0.004120
# 2 0.000803 0.010678 -0.001885 -0.003167 -0.001119 -0.002221
# 3 -0.002289 -0.001885 0.004901 0.003052 -0.001951 0.001411
# 4 -0.002023 -0.003167 0.003052 0.054338 -0.016523 0.007756
# 5 0.001661 -0.001119 -0.001951 -0.016523 0.036920 -0.007201
# 6 -0.004120 -0.002221 0.001411 0.007756 -0.007201 0.029694
#
#
# Mechanical properties :
#
#
# Convention : Reuss Voigt Hill
#
# Bulk Modulus (GPa) = 51.03855 71.47182 61.25518
# Shear Modulus (GPa) = 31.14067 43.46105 37.30086
#
# Velocity S-wave (km/s) = 3.53101 4.17143 3.86451
# Velocity P-wave (km/s) = 6.08758 7.19839 6.66616
#
# Compressibility (1/GPa) = 0.01959303
#
# Stress axis : x y z
#
# Youngs Moduli (GPa) = 92.95972 93.65045 204.04557
#
# Poissons Ratio (x) = -0.07516 0.46709
# Poissons Ratio (y) = -0.07460 0.38462
# Poissons Ratio (z) = 0.21280 0.17653
#
# Static dielectric constant tensor:
#      x y z
#    x 2.058840 0.002000 0.023350 
#    y 0.002000 1.920170 -0.067460 
#    z 0.023350 -0.067460 1.980130 
# 
# From -- ./inp_files/125450.got.cif
#   From: 2010.05.17/outbox.cif.g08.bks.cpg/sg2_63_cif.got.tgz:125450.got - 2010.06.03 11:33:40.
