data_PCOD9009062
_publ_section_title
;
Structure prediction by ZEFSAII (Michael W. Deem and Ramdas Pophale) SiO2 
 PCOD9009062
Probable space group: P -1
;
_chemical_formula_sum "Si O2"
_cell_formula_units_Z 12
_cell_length_a 4.962034
_cell_length_b 5.769679
_cell_length_c 16.324488
_cell_angle_alpha 93.660771
_cell_angle_beta 95.104667
_cell_angle_gamma 82.350493
_cell_volume 460.722499
_symmetry_space_group_name_H-M "P -1"
_symmetry_group_IT_number 2
_symmetry_cell_setting 'triclinic'
loop_
_space_group_symop_operation_xyz
x,y,z
-x,-y,-z
loop_
_atom_site_type_symbol
_atom_site_label
_atom_site_fract_x
_atom_site_fract_y
_atom_site_fract_z
Si Si1 0.093567 0.786541 0.716850
Si Si2 0.652845 0.081493 0.125291
Si Si3 0.529289 0.628204 0.341241
Si Si4 0.222414 0.520255 0.181494
Si Si5 0.709562 0.280184 0.970560
Si Si6 0.042873 0.881020 0.411166
O O1 0.175617 0.972674 0.789449
O O2 0.338712 0.641654 0.669718
O O3 0.980324 0.593187 0.766764
O O4 0.898727 0.921064 0.648292
O O5 0.441995 0.305633 0.152318
O O6 0.476733 0.891742 0.082086
O O7 0.827750 0.160683 0.054889
O O8 0.384438 0.676893 0.249550
O O9 0.769966 0.778969 0.372643
O O10 0.295463 0.678716 0.404098
O O11 0.107139 0.639861 0.096462
O O12 0.500000 0.500000 0.000000
O O13 0.000000 0.000000 0.500000
#
# Coordination Sequence:
#
# PCOD9009062 Si02
#       6
#     2   2   2   2   2   2
#     4  11  25  43  72 102 140 187 241 289 356 416
#     4   9  20  38  63  96 136 189 233 289 345 415
#     4  11  25  48  71 105 143 186 232 291 355 420
#     4  10  21  39  66  99 136 187 233 291 344 412
#     4   9  18  37  62  94 143 179 239 283 348 406
#     4  12  28  47  74 107 142 185 233 292 358 429
#
# _framework density 26.046047000000002
#
# number of rings (size 3 to 8) (size 9 to 14) (size 15 to 20)
#    0.000    1.667    1.667    1.500    7.000    2.000 
#    0.000    7.500    0.000    0.000    0.000    0.000 
#    0.000    0.000    0.000    0.000    0.000    0.000 
#
# Total GULP energy -67215.140103 kJ/mol
# GULP energy per Si atom -5601.261675 kJ/mol
# Density = 2.598677 g / cm^3
# Si number density = 26.046047 Si / 1000 Ang^3
#
#
#
# Elastic Constant Matrix: (Units=GPa)
#
#
# Indices 1 2 3 4 5 6 
#
# 1 112.6476 28.7948 43.1263 22.9613 -9.2156 10.7218
# 2 28.7948 71.2173 69.0204 24.7961 -4.3669 5.3917
# 3 43.1263 69.0204 169.1408 43.7163 -8.7658 7.7948
# 4 22.9613 24.7961 43.7163 49.4625 -7.4442 -5.3589
# 5 -9.2156 -4.3669 -8.7658 -7.4442 37.1340 13.8443
# 6 10.7218 5.3917 7.7948 -5.3589 13.8443 47.4227
#
#
#
# Elastic Compliance Matrix: (Units=1/GPa)
#
#
# Indices 1 2 3 4 5 6 
#
# 1 0.010926 -0.002094 -0.000791 -0.003251 0.002859 -0.003304
# 2 -0.002094 0.024507 -0.008340 -0.004082 0.000111 -0.001436
# 3 -0.000791 -0.008340 0.010975 -0.005176 0.000950 -0.001539
# 4 -0.003251 -0.004082 -0.005176 0.029104 0.001498 0.004901
# 5 0.002859 0.000111 0.000950 0.001498 0.031888 -0.009955
# 6 -0.003304 -0.001436 -0.001539 0.004901 -0.009955 0.025710
#
#
# Mechanical properties :
#
#
# Convention : Reuss Voigt Hill
#
# Bulk Modulus (GPa) = 41.73685 70.54321 56.14003
# Shear Modulus (GPa) = 30.57234 40.94144 35.75689
#
# Velocity S-wave (km/s) = 3.42976 3.96900 3.70920
# Velocity P-wave (km/s) = 5.63413 6.93879 6.32022
#
# Compressibility (1/GPa) = 0.02395964
#
# Stress axis : x y z
#
# Youngs Moduli (GPa) = 91.52207 40.80411 91.11665
#
# Poissons Ratio (x) = 0.08545 0.07204
# Poissons Ratio (y) = 0.19165 0.75990
# Poissons Ratio (z) = 0.07236 0.34030
#
# Static dielectric constant tensor:
#      x y z
#    x 2.068510 0.019560 -0.010820 
#    y 0.019560 2.077460 -0.045510 
#    z -0.010820 -0.045510 2.008000 
# 
# From -- ./inp_files/6233.got.cif
#   From: 2010.05.17/outbox.cif.g08.bks.cpg/sg2_4_cif.got.tgz:6233.got - 2010.06.03 11:33:40.
