data_PCOD9009792
_publ_section_title
;
Structure prediction by ZEFSAII (Michael W. Deem and Ramdas Pophale) SiO2 
 PCOD9009792
Probable space group: P -1
;
_chemical_formula_sum "Si O2"
_cell_formula_units_Z 16
_cell_length_a 12.602468
_cell_length_b 11.825817
_cell_length_c 6.343480
_cell_angle_alpha 97.660860
_cell_angle_beta 48.817137
_cell_angle_gamma 79.253205
_cell_volume 655.772074
_symmetry_space_group_name_H-M "P -1"
_symmetry_group_IT_number 2
_symmetry_cell_setting 'triclinic'
loop_
_space_group_symop_operation_xyz
x,y,z
-x,-y,-z
loop_
_atom_site_type_symbol
_atom_site_label
_atom_site_fract_x
_atom_site_fract_y
_atom_site_fract_z
Si Si1 0.176735 0.574984 0.238318
Si Si2 0.133643 0.382543 0.551188
Si Si3 0.816109 0.178208 0.203206
Si Si4 0.344701 0.171072 0.932773
Si Si5 0.121907 0.091429 0.936544
Si Si6 0.645831 0.272609 0.040072
Si Si7 0.666559 0.637848 0.338997
Si Si8 0.651055 0.069211 0.697228
O O1 0.134709 0.507760 0.474853
O O2 0.263734 0.664328 0.205556
O O3 0.022481 0.630842 0.317027
O O4 0.290939 0.470107 0.912691
O O5 0.183042 0.377081 0.727277
O O6 0.266124 0.273516 0.233943
O O7 0.687962 0.166668 0.520616
O O8 0.894068 0.034379 0.991895
O O9 0.734916 0.262271 0.140152
O O10 0.958987 0.193974 0.131744
O O11 0.221762 0.123187 0.986915
O O12 0.386876 0.236884 0.693921
O O13 0.489482 0.072347 0.830564
O O14 0.217772 0.055467 0.581976
O O15 0.654963 0.136539 0.926457
O O16 0.469961 0.354189 0.324942
#
# Coordination Sequence:
#
# PCOD9009792 Si02
#       8
#     2   2   2   2   2   2   2   2
#     4  10  25  40  63  88 122 159 200 256 304 353
#     4  10  23  43  59  93 121 156 210 246 296 372
#     4   9  22  41  58  91 126 156 207 248 291 365
#     4  11  21  40  66  88 126 163 200 246 303 355
#     4   9  21  42  62  87 127 165 191 257 302 343
#     4  12  23  39  65  92 120 164 201 247 306 358
#     4  11  22  42  60  92 123 157 207 248 296 368
#     4  10  21  40  59  90 127 157 204 249 288 364
#
# _framework density 24.398723
#
# number of rings (size 3 to 8) (size 9 to 14) (size 15 to 20)
#    0.750    1.000    2.500    1.125    3.500    2.000 
#    2.250    1.250    0.000    0.000    0.000    0.000 
#    0.000    0.000    0.000    0.000    0.000    0.000 
#
# Total GULP energy -89369.809246 kJ/mol
# GULP energy per Si atom -5585.613078 kJ/mol
# Density = 2.434319 g / cm^3
# Si number density = 24.398723 Si / 1000 Ang^3
#
#
#
# Elastic Constant Matrix: (Units=GPa)
#
#
# Indices 1 2 3 4 5 6 
#
# 1 136.6951 26.4144 15.7517 -1.1400 -23.0666 4.8969
# 2 26.4144 37.6538 7.5432 -8.1044 -2.6159 5.8939
# 3 15.7517 7.5432 48.7449 8.9720 -5.8186 1.3650
# 4 -1.1400 -8.1044 8.9720 21.4892 2.6644 -1.9221
# 5 -23.0666 -2.6159 -5.8186 2.6644 36.7768 4.3425
# 6 4.8969 5.8939 1.3650 -1.9221 4.3425 36.2513
#
#
#
# Elastic Compliance Matrix: (Units=1/GPa)
#
#
# Indices 1 2 3 4 5 6 
#
# 1 0.009677 -0.006543 -0.000968 -0.002353 0.005742 -0.001020
# 2 -0.006543 0.036336 -0.006814 0.016306 -0.003365 -0.003500
# 3 -0.000968 -0.006814 0.024875 -0.013574 0.003932 -0.000889
# 4 -0.002353 0.016306 -0.013574 0.059290 -0.007014 0.002162
# 5 0.005742 -0.003365 0.003932 -0.007014 0.032228 -0.004609
# 6 -0.001020 -0.003500 -0.000889 0.002162 -0.004609 0.028992
#
#
# Mechanical properties :
#
#
# Convention : Reuss Voigt Hill
#
# Bulk Modulus (GPa) = 23.67421 35.83471 29.75446
# Shear Modulus (GPa) = 21.35610 30.46244 25.90927
#
# Velocity S-wave (km/s) = 2.96175 3.53728 3.26223
# Velocity P-wave (km/s) = 4.62818 5.60376 5.13917
#
# Compressibility (1/GPa) = 0.04224005
#
# Stress axis : x y z
#
# Youngs Moduli (GPa) = 103.33596 27.52090 40.20159
#
# Poissons Ratio (x) = 0.18006 0.03890
# Poissons Ratio (y) = 0.67611 0.27392
# Poissons Ratio (z) = 0.09998 0.18752
#
# Static dielectric constant tensor:
#      x y z
#    x 1.928630 0.025530 0.003540 
#    y 0.025530 1.937460 -0.029910 
#    z 0.003540 -0.029910 1.959320 
# 
# From -- ./inp_files/78073.got.cif
#   From: 2010.05.17/outbox.cif.g08.bks.cpg/sg2_40_cif.got.tgz:78073.got - 2010.06.03 11:33:40.
