data_PCOD9009559
_publ_section_title
;
Structure prediction by ZEFSAII (Michael W. Deem and Ramdas Pophale) SiO2 
 PCOD9009559
Probable space group: P -1
;
_chemical_formula_sum "Si O2"
_cell_formula_units_Z 14
_cell_length_a 11.527641
_cell_length_b 25.523720
_cell_length_c 12.501421
_cell_angle_alpha 21.713007
_cell_angle_beta 147.274753
_cell_angle_gamma 156.782819
_cell_volume 534.466737
_symmetry_space_group_name_H-M "P -1"
_symmetry_group_IT_number 2
_symmetry_cell_setting 'triclinic'
loop_
_space_group_symop_operation_xyz
x,y,z
-x,-y,-z
loop_
_atom_site_type_symbol
_atom_site_label
_atom_site_fract_x
_atom_site_fract_y
_atom_site_fract_z
Si Si1 0.760246 0.913544 0.350853
Si Si2 0.737084 0.506851 0.722419
Si Si3 0.679279 0.070813 0.614741
Si Si4 0.570434 0.776102 0.779673
Si Si5 0.647553 0.315728 0.813516
Si Si6 0.198563 0.812853 0.999195
Si Si7 0.568761 0.486030 0.231738
O O1 0.501857 0.883200 0.147129
O O2 0.639744 0.698729 0.658578
O O3 0.071737 0.063089 0.247147
O O4 0.787130 0.011898 0.297411
O O5 0.500000 0.500000 0.500000
O O6 0.830500 0.452042 0.798651
O O7 0.000696 0.724926 0.550284
O O8 0.577515 0.344469 0.996419
O O9 0.548223 0.117679 0.515358
O O10 0.500000 0.000000 0.500000
O O11 0.639742 0.895561 0.962331
O O12 0.488830 0.613952 0.941881
O O13 0.825954 0.275886 0.964448
O O14 0.565664 0.403516 0.500942
O O15 0.910657 0.633866 0.181364
#
# Coordination Sequence:
#
# PCOD9009559 Si02
#       7
#     2   2   2   2   2   2   2
#     4   9  19  36  68  92 137 170 226 271 340 392
#     4  12  27  44  71 102 137 175 242 281 332 404
#     4  12  29  45  66  98 147 185 219 278 353 407
#     4  11  24  42  64  99 135 181 218 276 347 402
#     4  11  23  40  69  97 134 179 230 278 329 407
#     4   9  20  38  64 105 132 174 229 285 334 389
#     4  10  21  39  70 100 135 177 230 282 333 401
#
# _framework density 26.194334000000001
#
# number of rings (size 3 to 8) (size 9 to 14) (size 15 to 20)
#    0.000    1.429    2.857    2.143    6.000    2.857 
#    0.000    2.857    0.000    7.714    0.000    0.000 
#    0.000    0.000    0.000    0.000    0.000    0.000 
#
# Total GULP energy -78419.662997 kJ/mol
# GULP energy per Si atom -5601.404500 kJ/mol
# Density = 2.613471 g / cm^3
# Si number density = 26.194334 Si / 1000 Ang^3
#
#
#
# Elastic Constant Matrix: (Units=GPa)
#
#
# Indices 1 2 3 4 5 6 
#
# 1 132.6348 41.4813 28.2959 -19.8065 11.0893 -12.0902
# 2 41.4813 151.7854 43.6196 -32.9565 1.2139 1.9749
# 3 28.2959 43.6196 131.8070 -22.4247 14.0433 -7.6212
# 4 -19.8065 -32.9565 -22.4247 46.6794 -2.4040 11.2885
# 5 11.0893 1.2139 14.0433 -2.4040 58.5116 -4.7111
# 6 -12.0902 1.9749 -7.6212 11.2885 -4.7111 40.6302
#
#
#
# Elastic Compliance Matrix: (Units=1/GPa)
#
#
# Indices 1 2 3 4 5 6 
#
# 1 0.008798 -0.001876 -0.000768 0.001491 -0.001221 0.002009
# 2 -0.001876 0.008793 -0.001842 0.005213 0.000611 -0.002709
# 3 -0.000768 -0.001842 0.009010 0.002449 -0.001825 0.000659
# 4 0.001491 0.005213 0.002449 0.028673 -0.000393 -0.007362
# 5 -0.001221 0.000611 -0.001825 -0.000393 0.017847 0.001443
# 6 0.002009 -0.002709 0.000659 -0.007362 0.001443 0.027678
#
#
# Mechanical properties :
#
#
# Convention : Reuss Voigt Hill
#
# Bulk Modulus (GPa) = 56.72497 71.44675 64.08586
# Shear Modulus (GPa) = 43.23462 49.35294 46.29378
#
# Velocity S-wave (km/s) = 4.06708 4.34534 4.20851
# Velocity P-wave (km/s) = 6.61493 7.24644 6.93787
#
# Compressibility (1/GPa) = 0.01762892
#
# Stress axis : x y z
#
# Youngs Moduli (GPa) = 113.66178 113.73122 110.98248
#
# Poissons Ratio (x) = 0.21342 0.08522
# Poissons Ratio (y) = 0.21329 0.20440
# Poissons Ratio (z) = 0.08728 0.20947
#
# Static dielectric constant tensor:
#      x y z
#    x 2.117220 0.004920 0.054600 
#    y 0.004920 2.008130 0.036360 
#    z 0.054600 0.036360 2.207270 
# 
# From -- ./inp_files/524624.got.cif
#   From: 2010.05.17/outbox.cif.g08.bks.cpg/sg2_263_cif.got.tgz:524624.got - 2010.06.03 11:33:40.
