data_PCOD9009303
_publ_section_title
;
Structure prediction by ZEFSAII (Michael W. Deem and Ramdas Pophale) SiO2 
 PCOD9009303
Probable space group: P -1
;
_chemical_formula_sum "Si O2"
_cell_formula_units_Z 16
_cell_length_a 15.037065
_cell_length_b 8.511586
_cell_length_c 11.652674
_cell_angle_alpha 127.174516
_cell_angle_beta 105.320690
_cell_angle_gamma 116.347784
_cell_volume 709.615510
_symmetry_space_group_name_H-M "P -1"
_symmetry_group_IT_number 2
_symmetry_cell_setting 'triclinic'
loop_
_space_group_symop_operation_xyz
x,y,z
-x,-y,-z
loop_
_atom_site_type_symbol
_atom_site_label
_atom_site_fract_x
_atom_site_fract_y
_atom_site_fract_z
Si Si1 0.345835 0.184528 0.369387
Si Si2 0.049087 0.772092 0.939325
Si Si3 0.892912 0.833787 0.059800
Si Si4 0.428662 0.163328 0.856459
Si Si5 0.861850 0.170969 0.479620
Si Si6 0.414297 0.842816 0.280489
Si Si7 0.345562 0.454284 0.715372
Si Si8 0.930374 0.789616 0.499645
O O1 0.500000 0.500000 0.500000
O O2 0.347183 0.314557 0.544318
O O3 0.355413 0.964362 0.290195
O O4 0.197860 0.987821 0.158997
O O5 0.951211 0.417786 0.723617
O O6 0.090679 0.937863 0.904377
O O7 0.935381 0.732703 0.942089
O O8 0.727727 0.535310 0.918599
O O9 0.006020 0.993832 0.272796
O O10 0.488605 0.095797 0.759470
O O11 0.251818 0.882006 0.652074
O O12 0.500000 0.500000 0.000000
O O13 0.495018 0.237222 0.037892
O O14 0.990148 0.287135 0.499849
O O15 0.752781 0.827178 0.347647
O O16 0.500000 0.000000 0.500000
O O17 0.246114 0.482421 0.676442
O O18 0.000000 0.000000 0.500000
#
# Coordination Sequence:
#
# PCOD9009303 Si02
#       8
#     2   2   2   2   2   2   2   2
#     4  12  27  44  67 100 139 180 230 292 350 406
#     4  11  25  41  65  99 143 173 229 287 343 404
#     4  11  23  43  67  95 134 185 224 284 340 413
#     4  10  21  41  67 101 135 177 227 283 335 408
#     4  10  22  39  68 101 133 176 228 276 341 402
#     4  12  24  41  72 100 133 183 238 278 346 417
#     4  10  21  42  68  96 139 176 227 283 336 415
#     4  10  21  39  68 101 131 174 228 277 341 407
#
# _framework density 22.547421
#
# number of rings (size 3 to 8) (size 9 to 14) (size 15 to 20)
#    0.000    1.250    1.250    6.000    5.250    3.500 
#    0.000    0.625    0.000    0.000    0.000    0.000 
#    0.000    0.000    0.000    0.000    0.000    0.000 
#
# Total GULP energy -89388.788641 kJ/mol
# GULP energy per Si atom -5586.799290 kJ/mol
# Density = 2.249610 g / cm^3
# Si number density = 22.547421 Si / 1000 Ang^3
#
#
#
# Elastic Constant Matrix: (Units=GPa)
#
#
# Indices 1 2 3 4 5 6 
#
# 1 148.2271 18.2916 40.5808 -15.3488 14.7212 5.3213
# 2 18.2916 48.8233 12.0603 -11.6959 5.3548 -6.6564
# 3 40.5808 12.0603 130.1769 -24.9411 22.9469 1.9344
# 4 -15.3488 -11.6959 -24.9411 18.3739 -1.0634 -3.0934
# 5 14.7212 5.3548 22.9469 -1.0634 43.4071 -7.8957
# 6 5.3213 -6.6564 1.9344 -3.0934 -7.8957 12.7879
#
#
#
# Elastic Compliance Matrix: (Units=1/GPa)
#
#
# Indices 1 2 3 4 5 6 
#
# 1 0.008139 -0.002684 -0.001300 0.002201 -0.002733 -0.005742
# 2 -0.002684 0.029450 0.002062 0.023088 0.000792 0.022209
# 3 -0.001300 0.002062 0.012014 0.016235 -0.005734 0.000184
# 4 0.002201 0.023088 0.016235 0.097720 -0.004405 0.029565
# 5 -0.002733 0.000792 -0.005734 -0.004405 0.030456 0.020156
# 6 -0.005742 0.022209 0.000184 0.029565 0.020156 0.111718
#
#
# Mechanical properties :
#
#
# Convention : Reuss Voigt Hill
#
# Bulk Modulus (GPa) = 21.85305 52.12141 36.98723
# Shear Modulus (GPa) = 16.20251 32.00007 24.10129
#
# Velocity S-wave (km/s) = 2.68357 3.77136 3.27297
# Velocity P-wave (km/s) = 4.39490 6.49082 5.54283
#
# Compressibility (1/GPa) = 0.04576020
#
# Stress axis : x y z
#
# Youngs Moduli (GPa) = 122.86642 33.95573 83.23329
#
# Poissons Ratio (x) = 0.09114 0.10819
# Poissons Ratio (y) = 0.32977 -0.17164
# Poissons Ratio (z) = 0.15970 -0.07002
#
# Static dielectric constant tensor:
#      x y z
#    x 1.793410 0.045530 -0.142610 
#    y 0.045530 1.612270 0.064740 
#    z -0.142610 0.064740 1.862930 
# 
# From -- ./inp_files/207403.got.cif
#   From: 2010.05.17/outbox.cif.g08.bks.cpg/sg2_104_cif.got.tgz:207403.got - 2010.06.03 11:33:40.
