data_PCOD9009881
_publ_section_title
;
Structure prediction by ZEFSAII (Michael W. Deem and Ramdas Pophale) SiO2 
 PCOD9009881
Probable space group: P -1
;
_chemical_formula_sum "Si O2"
_cell_formula_units_Z 16
_cell_length_a 6.959077
_cell_length_b 12.055028
_cell_length_c 8.003835
_cell_angle_alpha 66.863152
_cell_angle_beta 77.021545
_cell_angle_gamma 81.240393
_cell_volume 600.139022
_symmetry_space_group_name_H-M "P -1"
_symmetry_group_IT_number 2
_symmetry_cell_setting 'triclinic'
loop_
_space_group_symop_operation_xyz
x,y,z
-x,-y,-z
loop_
_atom_site_type_symbol
_atom_site_label
_atom_site_fract_x
_atom_site_fract_y
_atom_site_fract_z
Si Si1 0.629277 0.414267 0.647994
Si Si2 0.541180 0.153719 0.223114
Si Si3 0.324564 0.106797 0.981800
Si Si4 0.872704 0.216707 0.497770
Si Si5 0.500738 0.877609 0.387770
Si Si6 0.905163 0.575596 0.702177
Si Si7 0.044451 0.798482 0.907198
Si Si8 0.768223 0.585010 0.092823
O O1 0.500000 0.500000 0.500000
O O2 0.718627 0.301638 0.589996
O O3 0.805498 0.486693 0.648391
O O4 0.458752 0.391020 0.828318
O O5 0.494410 0.196325 0.395446
O O6 0.732404 0.204883 0.072312
O O7 0.587824 0.008378 0.322561
O O8 0.367309 0.166840 0.116711
O O9 0.371337 0.174664 0.761267
O O10 0.092899 0.091630 0.052439
O O11 0.500000 0.000000 0.000000
O O12 0.737481 0.100747 0.615357
O O13 0.920167 0.200923 0.299272
O O14 0.065953 0.290828 0.457754
O O15 0.123315 0.530122 0.762030
O O16 0.778273 0.572692 0.898417
O O17 0.924890 0.684317 0.046822
#
# Coordination Sequence:
#
# PCOD9009881 Si02
#       8
#     2   2   2   2   2   2   2   2
#     4  12  23  39  62  91 128 169 212 267 324 377
#     4   9  20  41  64  91 129 171 200 270 326 373
#     4  10  21  40  64  92 126 166 214 264 321 386
#     4  10  21  40  60  90 132 164 213 266 306 387
#     4   9  19  39  64  90 127 162 213 258 310 386
#     4  10  22  42  62  89 127 174 215 265 327 378
#     4  10  22  41  62  95 129 164 216 262 316 387
#     4  10  22  40  63  90 127 169 220 265 314 389
#
# _framework density 26.660489999999999
#
# number of rings (size 3 to 8) (size 9 to 14) (size 15 to 20)
#    0.000    2.000    1.250    1.500    0.000    4.000 
#    9.000   19.375    0.000    0.000    0.000    0.000 
#    0.000    0.000    0.000    0.000    0.000    0.000 
#
# Total GULP energy -89122.791215 kJ/mol
# GULP energy per Si atom -5570.174451 kJ/mol
# Density = 2.659981 g / cm^3
# Si number density = 26.660490 Si / 1000 Ang^3
#
#
#
# Elastic Constant Matrix: (Units=GPa)
#
#
# Indices 1 2 3 4 5 6 
#
# 1 122.1219 34.2097 68.9493 9.8098 -31.5054 -3.0479
# 2 34.2097 61.3836 19.7888 13.1579 -12.9190 16.9380
# 3 68.9493 19.7888 150.9746 32.3427 -33.4480 -7.1732
# 4 9.8098 13.1579 32.3427 39.0953 2.1449 -10.6457
# 5 -31.5054 -12.9190 -33.4480 2.1449 61.1323 3.3879
# 6 -3.0479 16.9380 -7.1732 -10.6457 3.3879 36.0379
#
#
#
# Elastic Compliance Matrix: (Units=1/GPa)
#
#
# Indices 1 2 3 4 5 6 
#
# 1 0.013881 -0.008081 -0.005774 0.005339 0.001809 0.005230
# 2 -0.008081 0.029740 0.003732 -0.016668 0.005821 -0.019389
# 3 -0.005774 0.003732 0.012077 -0.011045 0.005006 -0.003572
# 4 0.005339 -0.016668 -0.011045 0.045032 -0.009519 0.020284
# 5 0.001809 0.005821 0.005006 -0.009519 0.021952 -0.006462
# 6 0.005230 -0.019389 -0.003572 0.020284 -0.006462 0.043193
#
#
# Mechanical properties :
#
#
# Convention : Reuss Voigt Hill
#
# Bulk Modulus (GPa) = 28.20855 64.48620 46.34738
# Shear Modulus (GPa) = 25.26029 41.35524 33.30777
#
# Velocity S-wave (km/s) = 3.08146 3.94278 3.53842
# Velocity P-wave (km/s) = 4.82329 6.70580 5.84089
#
# Compressibility (1/GPa) = 0.03545024
#
# Stress axis : x y z
#
# Youngs Moduli (GPa) = 72.04107 33.62488 82.79986
#
# Poissons Ratio (x) = 0.27172 0.47813
# Poissons Ratio (y) = 0.58216 -0.30897
# Poissons Ratio (z) = 0.41600 -0.12547
#
# Static dielectric constant tensor:
#      x y z
#    x 2.080270 -0.035970 0.024480 
#    y -0.035970 2.309530 -0.069640 
#    z 0.024480 -0.069640 2.154520 
# 
# From -- ./inp_files/135099.got.cif
#   From: 2010.05.17/outbox.cif.g08.bks.cpg/sg2_68_cif.got.tgz:135099.got - 2010.06.03 11:33:40.
