data_PCOD9009293
_publ_section_title
;
Structure prediction by ZEFSAII (Michael W. Deem and Ramdas Pophale) SiO2 
 PCOD9009293
Probable space group: P -1
;
_chemical_formula_sum "Si O2"
_cell_formula_units_Z 14
_cell_length_a 5.543190
_cell_length_b 13.892083
_cell_length_c 23.855727
_cell_angle_alpha 157.171256
_cell_angle_beta 124.553206
_cell_angle_gamma 56.067723
_cell_volume 583.379424
_symmetry_space_group_name_H-M "P -1"
_symmetry_group_IT_number 2
_symmetry_cell_setting 'triclinic'
loop_
_space_group_symop_operation_xyz
x,y,z
-x,-y,-z
loop_
_atom_site_type_symbol
_atom_site_label
_atom_site_fract_x
_atom_site_fract_y
_atom_site_fract_z
Si Si1 0.232494 0.777003 0.089486
Si Si2 0.317991 0.999120 0.332255
Si Si3 0.280895 0.575830 0.373749
Si Si4 0.178687 0.629751 0.515266
Si Si5 0.210469 0.779118 0.770518
Si Si6 0.663103 0.550250 0.927469
Si Si7 0.187871 0.731385 0.873642
O O1 0.397475 0.919464 0.235989
O O2 0.472214 0.642496 0.006804
O O3 0.002883 0.968900 0.127740
O O4 0.000188 0.612884 0.001057
O O5 0.340416 0.747527 0.235651
O O6 0.509886 0.207859 0.495773
O O7 0.976745 0.117402 0.343977
O O8 0.152871 0.664102 0.463842
O O9 0.476051 0.304887 0.261924
O O10 0.011952 0.492500 0.257657
O O11 0.500000 0.500000 0.500000
O O12 0.975497 0.417850 0.389547
O O13 0.265928 0.719780 0.811597
O O14 0.477508 0.688763 0.926473
O O15 0.000000 0.000000 0.000000
#
# Coordination Sequence:
#
# PCOD9009293 Si02
#       7
#     2   2   2   2   2   2   2
#     4  12  26  45  73 104 142 188 239 290 358 416
#     4  11  26  45  69 101 146 184 236 291 351 435
#     4  10  23  41  69 101 137 185 233 295 355 409
#     4  10  21  39  68 100 135 178 230 291 353 412
#     4  10  22  40  68 105 132 179 236 294 351 410
#     4  12  29  45  71 106 142 197 231 291 354 419
#     4  11  23  44  71 103 142 181 240 293 347 426
#
# _framework density 23.998104999999999
#
# number of rings (size 3 to 8) (size 9 to 14) (size 15 to 20)
#    0.000    1.143    1.429    3.429   10.000    4.000 
#    0.000    6.429    0.000    0.000    0.000    0.000 
#    0.000    0.000    0.000    0.000    0.000    0.000 
#
# Total GULP energy -78171.279031 kJ/mol
# GULP energy per Si atom -5583.662788 kJ/mol
# Density = 2.394348 g / cm^3
# Si number density = 23.998105 Si / 1000 Ang^3
#
#
#
# Elastic Constant Matrix: (Units=GPa)
#
#
# Indices 1 2 3 4 5 6 
#
# 1 82.6866 20.2117 40.7897 0.1224 -2.3886 -3.0530
# 2 20.2117 94.2754 34.3106 9.4153 -5.9002 -9.5934
# 3 40.7897 34.3106 123.3945 7.8727 4.2292 -11.9319
# 4 0.1224 9.4153 7.8727 45.1454 -7.4034 2.0056
# 5 -2.3886 -5.9002 4.2292 -7.4034 39.3401 -8.8927
# 6 -3.0530 -9.5934 -11.9319 2.0056 -8.8927 31.0929
#
#
#
# Elastic Compliance Matrix: (Units=1/GPa)
#
#
# Indices 1 2 3 4 5 6 
#
# 1 0.014779 -0.001593 -0.004623 0.001333 0.001286 -0.000533
# 2 -0.001593 0.012608 -0.002597 -0.001918 0.002522 0.003582
# 3 -0.004623 -0.002597 0.010761 -0.001693 -0.001573 0.002534
# 4 0.001333 -0.001918 -0.001693 0.023577 0.004081 -0.001464
# 5 0.001286 0.002522 -0.001573 0.004081 0.028675 0.008239
# 6 -0.000533 0.003582 0.002534 -0.001464 0.008239 0.036638
#
#
# Mechanical properties :
#
#
# Convention : Reuss Voigt Hill
#
# Bulk Modulus (GPa) = 48.72664 54.55338 51.64001
# Shear Modulus (GPa) = 33.00231 36.78532 34.89381
#
# Velocity S-wave (km/s) = 3.71240 3.91940 3.81730
# Velocity P-wave (km/s) = 6.22289 6.57754 6.40267
#
# Compressibility (1/GPa) = 0.02052265
#
# Stress axis : x y z
#
# Youngs Moduli (GPa) = 67.66182 79.31672 92.92494
#
# Poissons Ratio (x) = 0.12634 0.42962
# Poissons Ratio (y) = 0.10777 0.24131
# Poissons Ratio (z) = 0.31282 0.20597
#
# Static dielectric constant tensor:
#      x y z
#    x 1.983810 -0.028760 0.048040 
#    y -0.028760 1.966000 0.011250 
#    z 0.048040 0.011250 1.963140 
# 
# From -- ./inp_files/63874.got.cif
#   From: 2010.05.17/outbox.cif.g08.bks.cpg/sg2_32_cif.got.tgz:63874.got - 2010.06.03 11:33:40.
