data_PCOD9009344
_publ_section_title
;
Structure prediction by ZEFSAII (Michael W. Deem and Ramdas Pophale) SiO2 
 PCOD9009344
Probable space group: P -1
;
_chemical_formula_sum "Si O2"
_cell_formula_units_Z 16
_cell_length_a 12.034013
_cell_length_b 15.877940
_cell_length_c 10.007063
_cell_angle_alpha 63.321885
_cell_angle_beta 106.657557
_cell_angle_gamma 151.916902
_cell_volume 776.587719
_symmetry_space_group_name_H-M "P -1"
_symmetry_group_IT_number 2
_symmetry_cell_setting 'triclinic'
loop_
_space_group_symop_operation_xyz
x,y,z
-x,-y,-z
loop_
_atom_site_type_symbol
_atom_site_label
_atom_site_fract_x
_atom_site_fract_y
_atom_site_fract_z
Si Si1 0.169608 0.350205 0.567575
Si Si2 0.409247 0.007334 0.847207
Si Si3 0.141866 0.539503 0.411141
Si Si4 0.346707 0.095250 0.213774
Si Si5 0.483335 0.397819 0.725907
Si Si6 0.689082 0.176113 0.328661
Si Si7 0.371524 0.316258 0.036466
Si Si8 0.175855 0.002809 0.917194
O O1 0.214463 0.489168 0.531998
O O2 0.326444 0.381523 0.673025
O O3 0.272092 0.417565 0.404686
O O4 0.886742 0.121925 0.645592
O O5 0.634318 0.238066 0.723429
O O6 0.328854 0.896606 0.762617
O O7 0.199515 0.925819 0.892463
O O8 0.500000 0.000000 0.000000
O O9 0.000000 0.500000 0.500000
O O10 0.953784 0.376642 0.343885
O O11 0.585859 0.205580 0.239271
O O12 0.374079 0.221154 0.185908
O O13 0.282473 0.054044 0.063416
O O14 0.328481 0.197321 0.763736
O O15 0.511803 0.395714 0.891113
O O16 0.500000 0.000000 0.500000
O O17 0.089996 0.144082 0.043499
O O18 0.500000 0.500000 0.000000
#
# Coordination Sequence:
#
# PCOD9009344 Si02
#       8
#     2   2   2   2   2   2   2   2
#     4  11  20  38  71  96 123 171 225 269 338 397
#     4  12  26  46  70 100 137 183 230 280 337 404
#     4  12  26  44  70 101 141 181 226 282 346 406
#     4  11  21  43  69  91 131 177 221 276 334 402
#     4  10  21  39  68  92 122 173 220 270 330 400
#     4  12  25  44  70 102 137 181 227 280 343 407
#     4  11  24  41  62  96 132 172 220 274 334 399
#     4  11  21  44  67  91 132 174 223 273 338 398
#
# _framework density 20.602954
#
# number of rings (size 3 to 8) (size 9 to 14) (size 15 to 20)
#    0.000    0.750    7.500    0.750    0.000    3.500 
#    0.000    0.625    0.000    0.000    0.000    0.000 
#    0.000    0.000    0.000    0.000    0.000    0.000 
#
# Total GULP energy -89335.358705 kJ/mol
# GULP energy per Si atom -5583.459919 kJ/mol
# Density = 2.055606 g / cm^3
# Si number density = 20.602954 Si / 1000 Ang^3
#
#
#
# Elastic Constant Matrix: (Units=GPa)
#
#
# Indices 1 2 3 4 5 6 
#
# 1 127.4873 20.3811 23.6005 0.4879 18.6060 -24.7258
# 2 20.3811 71.4405 28.0273 3.0088 1.4432 -17.9627
# 3 23.6005 28.0273 78.4584 -18.6809 -0.4518 -13.7077
# 4 0.4879 3.0088 -18.6809 30.0550 -2.6339 0.1089
# 5 18.6060 1.4432 -0.4518 -2.6339 38.3869 1.6809
# 6 -24.7258 -17.9627 -13.7077 0.1089 1.6809 33.8221
#
#
#
# Elastic Compliance Matrix: (Units=1/GPa)
#
#
# Indices 1 2 3 4 5 6 
#
# 1 0.010471 -0.000077 -0.002477 -0.002214 -0.005555 0.006893
# 2 -0.000077 0.018879 -0.006987 -0.006390 -0.001510 0.007234
# 3 -0.002477 -0.006987 0.019500 0.013071 0.002493 0.002216
# 4 -0.002214 -0.006390 0.013071 0.042457 0.004383 -0.000069
# 5 -0.005555 -0.001510 0.002493 0.004383 0.029363 -0.005326
# 6 0.006893 0.007234 0.002216 -0.000069 -0.005326 0.039611
#
#
# Mechanical properties :
#
#
# Convention : Reuss Voigt Hill
#
# Bulk Modulus (GPa) = 33.59268 46.82267 40.20768
# Shear Modulus (GPa) = 26.41499 34.14462 30.27981
#
# Velocity S-wave (km/s) = 3.58452 4.07537 3.83780
# Velocity P-wave (km/s) = 5.78549 6.70227 6.26068
#
# Compressibility (1/GPa) = 0.02976839
#
# Stress axis : x y z
#
# Youngs Moduli (GPa) = 95.50279 52.96760 51.28128
#
# Poissons Ratio (x) = 0.00407 0.12702
# Poissons Ratio (y) = 0.00733 0.35832
# Poissons Ratio (z) = 0.23655 0.37011
#
# Static dielectric constant tensor:
#      x y z
#    x 1.727760 -0.069400 0.035800 
#    y -0.069400 1.754690 -0.013030 
#    z 0.035800 -0.013030 1.757730 
# 
# From -- ./inp_files/272559.got.cif
#   From: 2010.05.17/outbox.cif.g08.bks.cpg/sg2_137_cif.got.tgz:272559.got - 2010.06.03 11:33:40.
