data_PCOD9009355
_publ_section_title
;
Structure prediction by ZEFSAII (Michael W. Deem and Ramdas Pophale) SiO2 
 PCOD9009355
Probable space group: P -1
;
_chemical_formula_sum "Si O2"
_cell_formula_units_Z 16
_cell_length_a 9.130734
_cell_length_b 12.043341
_cell_length_c 9.883151
_cell_angle_alpha 99.634942
_cell_angle_beta 82.822595
_cell_angle_gamma 133.271130
_cell_volume 780.074893
_symmetry_space_group_name_H-M "P -1"
_symmetry_group_IT_number 2
_symmetry_cell_setting 'triclinic'
loop_
_space_group_symop_operation_xyz
x,y,z
-x,-y,-z
loop_
_atom_site_type_symbol
_atom_site_label
_atom_site_fract_x
_atom_site_fract_y
_atom_site_fract_z
Si Si1 0.543216 0.853532 0.009510
Si Si2 0.110093 0.631352 0.903305
Si Si3 0.583489 0.453259 0.586179
Si Si4 0.357868 0.900307 0.275638
Si Si5 0.992005 0.392326 0.377535
Si Si6 0.068069 0.834944 0.092345
Si Si7 0.397512 0.350644 0.886690
Si Si8 0.425507 0.812009 0.524661
O O1 0.488450 0.926610 0.135863
O O2 0.553461 0.744637 0.072374
O O3 0.350117 0.740682 0.909932
O O4 0.750491 0.986877 0.934159
O O5 0.008485 0.553061 0.757795
O O6 0.065341 0.738452 0.957946
O O7 0.000000 0.500000 0.000000
O O8 0.500000 0.500000 0.500000
O O9 0.479315 0.403414 0.734950
O O10 0.562407 0.316165 0.498833
O O11 0.822102 0.591505 0.613556
O O12 0.140248 0.806363 0.213621
O O13 0.401151 0.832202 0.374178
O O14 0.401827 0.038682 0.379161
O O15 0.770099 0.230826 0.392829
O O16 0.000000 0.500000 0.500000
O O17 0.844685 0.765611 0.114430
O O18 0.500000 0.500000 0.000000
#
# Coordination Sequence:
#
# PCOD9009355 Si02
#       8
#     2   2   2   2   2   2   2   2
#     4  11  22  43  67  96 135 168 224 276 331 391
#     4  11  22  39  67  97 128 167 224 279 327 386
#     4  11  25  43  63  93 135 173 212 272 330 399
#     4  10  21  39  68  93 124 167 216 275 317 390
#     4  10  22  37  63  92 125 164 219 264 330 376
#     4  11  24  38  67  94 133 173 223 264 340 385
#     4  12  26  44  64  96 135 179 221 269 331 401
#     4  10  21  41  65  93 127 165 219 267 328 384
#
# _framework density 20.510850999999999
#
# number of rings (size 3 to 8) (size 9 to 14) (size 15 to 20)
#    0.000    1.250    1.250    5.625    7.000    4.000 
#    0.000    3.125    0.000    0.000    0.000    0.000 
#    0.000    0.000    0.000    0.000    0.000    0.000 
#
# Total GULP energy -89300.367780 kJ/mol
# GULP energy per Si atom -5581.272986 kJ/mol
# Density = 2.046417 g / cm^3
# Si number density = 20.510851 Si / 1000 Ang^3
#
#
#
# Elastic Constant Matrix: (Units=GPa)
#
#
# Indices 1 2 3 4 5 6 
#
# 1 144.2597 38.3229 60.2387 -2.6661 10.2590 7.1929
# 2 38.3229 74.5917 26.6519 3.0796 1.5987 -7.1426
# 3 60.2387 26.6519 109.1546 4.8225 25.1186 -3.7133
# 4 -2.6661 3.0796 4.8225 31.9212 2.6207 -1.6528
# 5 10.2590 1.5987 25.1186 2.6207 29.1531 -4.5494
# 6 7.1929 -7.1426 -3.7133 -1.6528 -4.5494 35.5441
#
#
#
# Elastic Compliance Matrix: (Units=1/GPa)
#
#
# Indices 1 2 3 4 5 6 
#
# 1 0.010193 -0.003870 -0.004914 0.001783 0.000192 -0.003246
# 2 -0.003870 0.016691 -0.002510 -0.001615 0.003416 0.004237
# 3 -0.004914 -0.002510 0.015081 -0.001521 -0.010897 0.000600
# 4 0.001783 -0.001615 -0.001521 0.032050 -0.002050 0.000384
# 5 0.000192 0.003416 -0.010897 -0.002050 0.044416 0.005099
# 6 -0.003246 0.004237 0.000600 0.000384 0.005099 0.030376
#
#
# Mechanical properties :
#
#
# Convention : Reuss Voigt Hill
#
# Bulk Modulus (GPa) = 51.60665 64.27033 57.93849
# Shear Modulus (GPa) = 28.11329 32.84317 30.47823
#
# Velocity S-wave (km/s) = 3.70625 4.00591 3.85899
# Velocity P-wave (km/s) = 6.59775 7.26631 6.94009
#
# Compressibility (1/GPa) = 0.01937735
#
# Stress axis : x y z
#
# Youngs Moduli (GPa) = 98.10747 59.91410 66.30804
#
# Poissons Ratio (x) = 0.23185 0.32582
# Poissons Ratio (y) = 0.37965 0.16645
# Poissons Ratio (z) = 0.48207 0.15040
#
# Static dielectric constant tensor:
#      x y z
#    x 1.909950 0.200720 -0.009210 
#    y 0.200720 1.962820 -0.022290 
#    z -0.009210 -0.022290 1.769680 
# 
# From -- ./inp_files/184102.got.cif
#   From: 2010.05.17/outbox.cif.g08.bks.cpg/sg2_93_cif.got.tgz:184102.got - 2010.06.03 11:33:40.
