data_PCOD9009727
_publ_section_title
;
Structure prediction by ZEFSAII (Michael W. Deem and Ramdas Pophale) SiO2 
 PCOD9009727
Probable space group: P -1
;
_chemical_formula_sum "Si O2"
_cell_formula_units_Z 13
_cell_length_a 12.963075
_cell_length_b 8.715064
_cell_length_c 7.153620
_cell_angle_alpha 55.274650
_cell_angle_beta 123.119962
_cell_angle_gamma 114.752930
_cell_volume 549.492307
_symmetry_space_group_name_H-M "P -1"
_symmetry_group_IT_number 2
_symmetry_cell_setting 'triclinic'
loop_
_space_group_symop_operation_xyz
x,y,z
-x,-y,-z
loop_
_atom_site_type_symbol
_atom_site_label
_atom_site_fract_x
_atom_site_fract_y
_atom_site_fract_z
Si Si1 0.262455 0.756272 0.519388
Si Si2 0.308845 0.849017 0.911984
Si Si3 0.000000 0.500000 0.500000
Si Si4 0.158055 0.447307 0.036369
Si Si5 0.876133 0.849734 0.458126
Si Si6 0.591917 0.981716 0.772336
Si Si7 0.283432 0.360104 0.848186
O O1 0.333372 0.827160 0.732350
O O2 0.278350 0.913598 0.268064
O O3 0.121591 0.673686 0.492745
O O4 0.317096 0.566702 0.648650
O O5 0.233463 0.024306 0.727766
O O6 0.222038 0.654620 0.019591
O O7 0.419401 0.897847 0.136547
O O8 0.964068 0.540796 0.215338
O O9 0.135033 0.300373 0.282469
O O10 0.252234 0.381626 0.019750
O O11 0.848923 0.730346 0.319830
O O12 0.000000 0.000000 0.500000
O O13 0.500000 0.000000 0.500000
O O14 0.612761 0.770429 0.981720
#
# Coordination Sequence:
#
# PCOD9009727 Si02
#       7
#     2   2   1   2   2   2   2
#     4  10  21  41  59  84 123 155 197 243 294 363
#     4   9  22  40  56  86 117 156 201 241 300 353
#     4   8  20  34  62  86 112 166 186 232 298 344
#     4  10  21  40  58  83 126 157 198 237 296 364
#     4  11  23  32  55  90 119 159 196 242 294 356
#     4  11  23  40  63  86 116 157 200 258 299 338
#     4   9  22  40  56  86 117 156 201 241 300 353
#
# _framework density 23.658201999999999
#
# number of rings (size 3 to 8) (size 9 to 14) (size 15 to 20)
#    0.000    2.462    0.000    1.846   12.923    2.462 
#    0.000    3.077    0.000    0.000    0.000    0.000 
#    0.000    0.000    0.000    0.000    0.000    0.000 
#
# Total GULP energy -72417.029813 kJ/mol
# GULP energy per Si atom -5570.540755 kJ/mol
# Density = 2.360436 g / cm^3
# Si number density = 23.658202 Si / 1000 Ang^3
#
#
#
# Elastic Constant Matrix: (Units=GPa)
#
#
# Indices 1 2 3 4 5 6 
#
# 1 34.6490 6.1281 11.5847 -0.4234 -17.0371 5.8353
# 2 6.1281 111.1930 62.5940 18.7650 -9.0165 -13.1471
# 3 11.5847 62.5940 126.1365 11.3685 -16.0555 -0.1985
# 4 -0.4234 18.7650 11.3685 60.4238 8.0657 -7.2655
# 5 -17.0371 -9.0165 -16.0555 8.0657 38.3527 -6.0221
# 6 5.8353 -13.1471 -0.1985 -7.2655 -6.0221 26.6641
#
#
#
# Elastic Compliance Matrix: (Units=1/GPa)
#
#
# Indices 1 2 3 4 5 6 
#
# 1 0.038041 -0.000525 -0.001018 -0.002177 0.015930 -0.005587
# 2 -0.000525 0.014030 -0.006416 -0.002610 0.001984 0.006722
# 3 -0.001018 -0.006416 0.011622 -0.000859 0.002696 -0.002479
# 4 -0.002177 -0.002610 -0.000859 0.018589 -0.005373 0.003035
# 5 0.015930 0.001984 0.002696 -0.005373 0.036551 0.004303
# 6 -0.005587 0.006722 -0.002479 0.003035 0.004303 0.043821
#
#
# Mechanical properties :
#
#
# Convention : Reuss Voigt Hill
#
# Bulk Modulus (GPa) = 20.93126 48.06581 34.49853
# Shear Modulus (GPa) = 25.70742 37.86622 31.78682
#
# Velocity S-wave (km/s) = 3.29996 4.00503 3.66947
# Velocity P-wave (km/s) = 4.83593 6.46126 5.70676
#
# Compressibility (1/GPa) = 0.04777544
#
# Stress axis : x y z
#
# Youngs Moduli (GPa) = 26.28733 71.27574 86.04448
#
# Poissons Ratio (x) = 0.03740 0.08762
# Poissons Ratio (y) = 0.01379 0.55204
# Poissons Ratio (z) = 0.02677 0.45728
#
# Static dielectric constant tensor:
#      x y z
#    x 1.539680 -0.005500 0.001000 
#    y -0.005500 1.936670 0.058490 
#    z 0.001000 0.058490 1.878750 
# 
# From -- ./inp_files/325695.got.cif
#   From: 2010.05.17/outbox.cif.g08.bks.cpg/sg2_163_cif.got.tgz:325695.got - 2010.06.03 11:33:40.
