data_PCOD9009119
_publ_section_title
;
Structure prediction by ZEFSAII (Michael W. Deem and Ramdas Pophale) SiO2 
 PCOD9009119
Probable space group: P -1
;
_chemical_formula_sum "Si O2"
_cell_formula_units_Z 16
_cell_length_a 14.315964
_cell_length_b 6.714656
_cell_length_c 11.907384
_cell_angle_alpha 58.069116
_cell_angle_beta 65.633227
_cell_angle_gamma 107.713681
_cell_volume 652.221839
_symmetry_space_group_name_H-M "P -1"
_symmetry_group_IT_number 2
_symmetry_cell_setting 'triclinic'
loop_
_space_group_symop_operation_xyz
x,y,z
-x,-y,-z
loop_
_atom_site_type_symbol
_atom_site_label
_atom_site_fract_x
_atom_site_fract_y
_atom_site_fract_z
Si Si1 0.363613 0.402882 0.147214
Si Si2 0.891890 0.505193 0.497142
Si Si3 0.929709 0.063632 0.233832
Si Si4 0.315124 0.475903 0.615912
Si Si5 0.447966 0.251363 0.736741
Si Si6 0.313329 0.831819 0.116764
Si Si7 0.782099 0.471516 0.958013
Si Si8 0.775265 0.164030 0.438364
O O1 0.388331 0.700234 0.097907
O O2 0.261104 0.331124 0.116593
O O3 0.403795 0.169658 0.912155
O O4 0.500000 0.500000 0.000000
O O5 0.745106 0.228791 0.713619
O O6 0.885626 0.440297 0.388868
O O7 0.000000 0.500000 0.500000
O O8 0.918004 0.822376 0.396767
O O9 0.850821 0.158858 0.300003
O O10 0.095017 0.357062 0.065149
O O11 0.841494 0.860585 0.227667
O O12 0.401148 0.431398 0.662964
O O13 0.395911 0.571012 0.427923
O O14 0.315168 0.745768 0.572385
O O15 0.698191 0.852683 0.647140
O O16 0.351501 0.895881 0.834981
O O17 0.183492 0.593349 0.162716
#
# Coordination Sequence:
#
# PCOD9009119 Si02
#       8
#     2   2   2   2   2   2   2   2
#     4   9  17  33  55  84 117 157 193 240 295 355
#     4  11  21  33  59  88 121 165 194 236 307 361
#     4  11  21  38  57  94 119 155 198 254 299 358
#     4  10  21  39  67  82 115 164 201 242 306 356
#     4   8  19  42  61  84 117 158 203 249 291 360
#     4   8  18  35  59  85 120 158 195 250 291 349
#     4   8  18  33  62  80 123 151 190 250 297 333
#     4  11  21  34  57  87 122 155 200 243 300 357
#
# _framework density 24.53153
#
# number of rings (size 3 to 8) (size 9 to 14) (size 15 to 20)
#    1.500    0.750    1.250    3.000    0.000    2.000 
#    2.250    5.000    8.250    0.000    0.000    0.000 
#    0.000    0.000    0.000    0.000    0.000    0.000 
#
# Total GULP energy -89254.347250 kJ/mol
# GULP energy per Si atom -5578.396703 kJ/mol
# Density = 2.447569 g / cm^3
# Si number density = 24.531530 Si / 1000 Ang^3
#
#
#
# Elastic Constant Matrix: (Units=GPa)
#
#
# Indices 1 2 3 4 5 6 
#
# 1 110.2765 26.7555 31.1734 -1.7124 -3.4012 -43.1983
# 2 26.7555 68.6462 9.9376 -2.5009 -2.7436 -18.8034
# 3 31.1734 9.9376 51.2232 -5.9718 -7.5094 -6.5957
# 4 -1.7124 -2.5009 -5.9718 29.3688 0.5675 -6.9405
# 5 -3.4012 -2.7436 -7.5094 0.5675 34.5795 -8.3210
# 6 -43.1983 -18.8034 -6.5957 -6.9405 -8.3210 37.7798
#
#
#
# Elastic Compliance Matrix: (Units=1/GPa)
#
#
# Indices 1 2 3 4 5 6 
#
# 1 0.021963 0.000335 -0.008413 0.005688 0.006597 0.026309
# 2 0.000335 0.017775 -0.001350 0.003661 0.003608 0.010462
# 3 -0.008413 -0.001350 0.025216 0.003388 0.003399 -0.004518
# 4 0.005688 0.003661 0.003388 0.039366 0.005096 0.017272
# 5 0.006597 0.003608 0.003399 0.005096 0.034977 0.018572
# 6 0.026309 0.010462 -0.004518 0.017272 0.018572 0.068233
#
#
# Mechanical properties :
#
#
# Convention : Reuss Voigt Hill
#
# Bulk Modulus (GPa) = 21.69266 40.65321 31.17294
# Shear Modulus (GPa) = 20.68244 31.16426 25.92335
#
# Velocity S-wave (km/s) = 2.90676 3.56810 3.25427
# Velocity P-wave (km/s) = 4.48639 5.79508 5.18221
#
# Compressibility (1/GPa) = 0.04609854
#
# Stress axis : x y z
#
# Youngs Moduli (GPa) = 45.53183 56.25728 39.65776
#
# Poissons Ratio (x) = -0.01885 0.33365
# Poissons Ratio (y) = -0.01526 0.05352
# Poissons Ratio (z) = 0.38306 0.07593
#
# Static dielectric constant tensor:
#      x y z
#    x 2.009630 0.073950 0.004510 
#    y 0.073950 2.029730 -0.064790 
#    z 0.004510 -0.064790 1.938900 
# 
# From -- ./inp_files/524976.got.cif
#   From: 2010.05.17/outbox.cif.g08.bks.cpg/sg2_263_cif.got.tgz:524976.got - 2010.06.03 11:33:40.
