data_PCOD9009785
_publ_section_title
;
Structure prediction by ZEFSAII (Michael W. Deem and Ramdas Pophale) SiO2 
 PCOD9009785
Probable space group: P -1
;
_chemical_formula_sum "Si O2"
_cell_formula_units_Z 16
_cell_length_a 15.503287
_cell_length_b 10.374071
_cell_length_c 13.794828
_cell_angle_alpha 123.181365
_cell_angle_beta 124.832968
_cell_angle_gamma 24.939682
_cell_volume 765.129715
_symmetry_space_group_name_H-M "P -1"
_symmetry_group_IT_number 2
_symmetry_cell_setting 'triclinic'
loop_
_space_group_symop_operation_xyz
x,y,z
-x,-y,-z
loop_
_atom_site_type_symbol
_atom_site_label
_atom_site_fract_x
_atom_site_fract_y
_atom_site_fract_z
Si Si1 0.251272 0.256512 0.125824
Si Si2 0.317414 0.827129 0.969572
Si Si3 0.033859 0.611562 0.727381
Si Si4 0.034727 0.953688 0.119032
Si Si5 0.816531 0.739810 0.131656
Si Si6 0.540012 0.192812 0.620971
Si Si7 0.570320 0.934689 0.357444
Si Si8 0.518824 0.372262 0.223012
O O1 0.015758 0.579144 0.147012
O O2 0.418704 0.130317 0.247209
O O3 0.270174 0.237129 0.012153
O O4 0.292233 0.024997 0.080796
O O5 0.400141 0.741964 0.880880
O O6 0.500000 0.500000 0.000000
O O7 0.103236 0.007188 0.911718
O O8 0.105128 0.479116 0.827528
O O9 0.195107 0.334615 0.640864
O O10 0.048898 0.775301 0.789302
O O11 0.791228 0.875923 0.668588
O O12 0.275055 0.637548 0.175200
O O13 0.000000 0.000000 0.000000
O O14 0.667580 0.046809 0.222770
O O15 0.445273 0.210280 0.655162
O O16 0.466561 0.464154 0.675271
O O17 0.500268 0.149580 0.479206
#
# Coordination Sequence:
#
# PCOD9009785 Si02
#       8
#     2   2   2   2   2   2   2   2
#     4  10  21  40  59  88 126 162 193 240 300 365
#     4  11  19  34  59  86 119 150 195 249 296 346
#     4  11  22  39  62  91 123 152 199 250 298 356
#     4  11  21  33  57  89 115 154 196 240 299 352
#     4  10  22  40  59  87 129 161 187 245 305 359
#     4  10  22  42  65  88 116 154 209 256 286 346
#     4  11  22  39  67  89 114 160 206 247 300 343
#     4  10  22  39  57  85 119 155 198 244 295 349
#
# _framework density 20.911486
#
# number of rings (size 3 to 8) (size 9 to 14) (size 15 to 20)
#    0.000    1.500    2.500    3.375    1.750    0.500 
#    6.750    1.250    0.000    0.000    0.000    0.000 
#    0.000    0.000    0.000    0.000    0.000    0.000 
#
# Total GULP energy -89324.421525 kJ/mol
# GULP energy per Si atom -5582.776345 kJ/mol
# Density = 2.086389 g / cm^3
# Si number density = 20.911486 Si / 1000 Ang^3
#
#
#
# Elastic Constant Matrix: (Units=GPa)
#
#
# Indices 1 2 3 4 5 6 
#
# 1 46.3484 23.9523 28.9180 0.7873 -10.7218 -4.3173
# 2 23.9523 109.8229 37.3140 15.4021 5.2234 9.0246
# 3 28.9180 37.3140 77.2115 -1.6366 9.4681 6.5111
# 4 0.7873 15.4021 -1.6366 24.1709 0.5458 -4.5388
# 5 -10.7218 5.2234 9.4681 0.5458 23.6380 7.0688
# 6 -4.3173 9.0246 6.5111 -4.5388 7.0688 26.8076
#
#
#
# Elastic Compliance Matrix: (Units=1/GPa)
#
#
# Indices 1 2 3 4 5 6 
#
# 1 0.040368 -0.005214 -0.016026 0.001520 0.024031 0.006069
# 2 -0.005214 0.013551 -0.004109 -0.009749 -0.001822 -0.005574
# 3 -0.016026 -0.004109 0.023061 0.004662 -0.015099 -0.002028
# 4 0.001520 -0.009749 0.004662 0.050164 -0.003732 0.011872
# 5 0.024031 -0.001822 -0.015099 -0.003732 0.062415 -0.008939
# 6 0.006069 -0.005574 -0.002028 0.011872 -0.008939 0.045016
#
#
# Mechanical properties :
#
#
# Convention : Reuss Voigt Hill
#
# Bulk Modulus (GPa) = 38.04935 45.97238 42.01086
# Shear Modulus (GPa) = 17.00496 24.46986 20.73741
#
# Velocity S-wave (km/s) = 2.85474 3.42448 3.15250
# Velocity P-wave (km/s) = 5.39453 6.13743 5.77793
#
# Compressibility (1/GPa) = 0.02628166
#
# Stress axis : x y z
#
# Youngs Moduli (GPa) = 24.77224 73.79676 43.36396
#
# Poissons Ratio (x) = 0.38479 0.69493
# Poissons Ratio (y) = 0.12917 0.17818
# Poissons Ratio (z) = 0.39699 0.30323
#
# Static dielectric constant tensor:
#      x y z
#    x 0.816910 -1.382620 -0.167880 
#    y -1.382620 -0.278770 -0.271360 
#    z -0.167880 -0.271360 1.696870 
# 
# From -- ./inp_files/307099.got.cif
#   From: 2010.05.17/outbox.cif.g08.bks.cpg/sg2_154_cif.got.tgz:307099.got - 2010.06.03 11:33:40.
