data_PCOD9009197
_publ_section_title
;
Structure prediction by ZEFSAII (Michael W. Deem and Ramdas Pophale) SiO2 
 PCOD9009197
Probable space group: P -1
;
_chemical_formula_sum "Si O2"
_cell_formula_units_Z 16
_cell_length_a 18.377693
_cell_length_b 20.830750
_cell_length_c 5.291425
_cell_angle_alpha 100.804804
_cell_angle_beta 110.426342
_cell_angle_gamma 22.991765
_cell_volume 690.149591
_symmetry_space_group_name_H-M "P -1"
_symmetry_group_IT_number 2
_symmetry_cell_setting 'triclinic'
loop_
_space_group_symop_operation_xyz
x,y,z
-x,-y,-z
loop_
_atom_site_type_symbol
_atom_site_label
_atom_site_fract_x
_atom_site_fract_y
_atom_site_fract_z
Si Si1 0.100168 0.992991 0.603191
Si Si2 0.434442 0.885343 0.829087
Si Si3 0.472884 0.631485 0.596248
Si Si4 0.128265 0.381543 0.820324
Si Si5 0.322807 0.620900 0.676240
Si Si6 0.741619 0.036770 0.832029
Si Si7 0.889507 0.359787 0.053919
Si Si8 0.936433 0.718386 0.297668
O O1 0.298216 0.823401 0.538698
O O2 0.166380 0.967197 0.942106
O O3 0.000000 0.000000 0.500000
O O4 0.923675 0.179864 0.414336
O O5 0.386987 0.880022 0.516172
O O6 0.254295 0.081271 0.773807
O O7 0.655939 0.747677 0.998828
O O8 0.403978 0.868811 0.036552
O O9 0.357273 0.653448 0.541140
O O10 0.610795 0.502092 0.428936
O O11 0.659450 0.508784 0.911988
O O12 0.154595 0.282967 0.795833
O O13 0.000000 0.500000 0.500000
O O14 0.000000 0.500000 0.000000
O O15 0.500000 0.500000 0.000000
O O16 0.942733 0.830687 0.906856
O O17 0.932210 0.369638 0.357276
O O18 0.929490 0.371813 0.859480
#
# Coordination Sequence:
#
# PCOD9009197 Si02
#       8
#     2   2   2   2   2   2   2   2
#     4  10  22  43  61  95 131 171 226 277 344 398
#     4  10  23  43  70  93 129 178 221 269 330 394
#     4  10  22  39  61  91 126 173 217 279 340 391
#     4  12  25  42  66  99 138 172 210 277 335 394
#     4  10  22  40  64  87 127 171 226 279 333 405
#     4  10  21  42  65  97 129 171 222 283 329 400
#     4  10  21  39  67  95 129 174 220 278 331 392
#     4  10  23  42  68  96 129 173 225 261 329 407
#
# _framework density 23.183378000000001
#
# number of rings (size 3 to 8) (size 9 to 14) (size 15 to 20)
#    0.000    1.750    1.250    1.875    1.750    4.500 
#    4.500    5.000    0.000    0.000    0.000    0.000 
#    0.000    0.000    0.000    0.000    0.000    0.000 
#
# Total GULP energy -89368.398185 kJ/mol
# GULP energy per Si atom -5585.524887 kJ/mol
# Density = 2.313061 g / cm^3
# Si number density = 23.183378 Si / 1000 Ang^3
#
#
#
# Elastic Constant Matrix: (Units=GPa)
#
#
# Indices 1 2 3 4 5 6 
#
# 1 105.0136 13.4873 57.0985 19.9005 14.6630 -15.0853
# 2 13.4873 131.9202 64.9996 2.2022 -1.4966 -1.7790
# 3 57.0985 64.9996 169.6396 17.4113 12.4212 -0.6798
# 4 19.9005 2.2022 17.4113 28.9049 -9.0782 14.1878
# 5 14.6630 -1.4966 12.4212 -9.0782 45.8098 4.5492
# 6 -15.0853 -1.7790 -0.6798 14.1878 4.5492 25.0165
#
#
#
# Elastic Compliance Matrix: (Units=1/GPa)
#
#
# Indices 1 2 3 4 5 6 
#
# 1 0.036990 -0.000651 -0.003101 -0.064603 -0.030209 0.064307
# 2 -0.000651 0.009607 -0.004146 0.004530 0.002833 -0.002906
# 3 -0.003101 -0.004146 0.009177 -0.004422 -0.002613 0.001068
# 4 -0.064603 0.004530 -0.004422 0.179945 0.072987 -0.154081
# 5 -0.030209 0.002833 -0.002613 0.072987 0.053639 -0.069234
# 6 0.064307 -0.002906 0.001068 -0.154081 -0.069234 0.178549
#
#
# Mechanical properties :
#
#
# Convention : Reuss Voigt Hill
#
# Bulk Modulus (GPa) = 25.01344 75.30489 50.15916
# Shear Modulus (GPa) = 10.05977 38.01211 24.03594
#
# Velocity S-wave (km/s) = 2.08534 4.05362 3.22339
# Velocity P-wave (km/s) = 4.07566 7.37983 5.96125
#
# Compressibility (1/GPa) = 0.03997851
#
# Stress axis : x y z
#
# Youngs Moduli (GPa) = 27.03398 104.09093 108.97315
#
# Poissons Ratio (x) = 0.06777 0.33791
# Poissons Ratio (y) = 0.01760 0.45179
# Poissons Ratio (z) = 0.08383 0.43155
#
# Static dielectric constant tensor:
#      x y z
#    x 1.963690 -0.003240 0.054970 
#    y -0.003240 1.907640 -0.047410 
#    z 0.054970 -0.047410 2.041650 
# 
# From -- ./inp_files/39168.got.cif
#   From: 2010.05.17/outbox.cif.g08.bks.cpg/sg2_20_cif.got.tgz:39168.got - 2010.06.03 11:33:40.
