data_PCOD9009101
_publ_section_title
;
Structure prediction by ZEFSAII (Michael W. Deem and Ramdas Pophale) SiO2 
 PCOD9009101
Probable space group: P -1
;
_chemical_formula_sum "Si O2"
_cell_formula_units_Z 16
_cell_length_a 11.089897
_cell_length_b 11.048034
_cell_length_c 14.880377
_cell_angle_alpha 123.320710
_cell_angle_beta 26.456701
_cell_angle_gamma 128.243549
_cell_volume 637.876678
_symmetry_space_group_name_H-M "P -1"
_symmetry_group_IT_number 2
_symmetry_cell_setting 'triclinic'
loop_
_space_group_symop_operation_xyz
x,y,z
-x,-y,-z
loop_
_atom_site_type_symbol
_atom_site_label
_atom_site_fract_x
_atom_site_fract_y
_atom_site_fract_z
Si Si1 0.446889 0.055089 0.192260
Si Si2 0.895294 0.893813 0.220351
Si Si3 0.536976 0.808760 0.593883
Si Si4 0.572235 0.234026 0.003039
Si Si5 0.751748 0.628567 0.939942
Si Si6 0.998876 0.751130 0.660689
Si Si7 0.434853 0.126841 0.752674
Si Si8 0.980586 0.476040 0.112709
O O1 0.290533 0.110652 0.398853
O O2 0.419375 0.124358 0.143140
O O3 0.795171 0.124150 0.004964
O O4 0.380370 0.874750 0.150643
O O5 0.712682 0.795414 0.383948
O O6 0.718794 0.868237 0.236658
O O7 0.941165 0.068575 0.288772
O O8 0.410083 0.948906 0.712178
O O9 0.328313 0.642776 0.699803
O O10 0.331350 0.310293 0.174619
O O11 0.880528 0.351166 0.872356
O O12 0.697611 0.790869 0.051919
O O13 0.824394 0.592455 0.978359
O O14 0.500000 0.500000 0.000000
O O15 0.019018 0.668347 0.707470
O O16 0.237217 0.757766 0.431542
O O17 0.000000 0.500000 0.000000
#
# Coordination Sequence:
#
# PCOD9009101 Si02
#       8
#     2   2   2   2   2   2   2   2
#     4  10  21  40  69  91 135 185 225 269 328 406
#     4  10  21  39  67 103 131 168 232 284 327 393
#     4  11  22  40  70  97 132 175 226 274 336 400
#     4  10  21  41  65  96 138 179 221 275 337 392
#     4  12  25  42  69  99 133 177 224 273 342 402
#     4  10  21  43  67  97 137 168 221 288 325 401
#     4  11  23  40  69 103 128 173 228 281 341 389
#     4  12  24  42  68  96 141 178 218 283 336 396
#
# _framework density 25.083219
#
# number of rings (size 3 to 8) (size 9 to 14) (size 15 to 20)
#    0.000    1.250    2.500    5.250    0.000    2.000 
#    0.000   11.875    2.750    0.000    0.000    0.000 
#    0.000    0.000    0.000    0.000    0.000    0.000 
#
# Total GULP energy -89253.725381 kJ/mol
# GULP energy per Si atom -5578.357836 kJ/mol
# Density = 2.502613 g / cm^3
# Si number density = 25.083219 Si / 1000 Ang^3
#
#
#
# Elastic Constant Matrix: (Units=GPa)
#
#
# Indices 1 2 3 4 5 6 
#
# 1 139.4996 35.6149 34.4516 -16.6668 15.4106 -14.1478
# 2 35.6149 61.4747 25.4203 -29.8453 2.9934 4.0631
# 3 34.4516 25.4203 92.7883 -25.0424 24.4942 -0.1227
# 4 -16.6668 -29.8453 -25.0424 37.1306 -9.5438 1.5737
# 5 15.4106 2.9934 24.4942 -9.5438 34.9268 -10.1870
# 6 -14.1478 4.0631 -0.1227 1.5737 -10.1870 46.1855
#
#
#
# Elastic Compliance Matrix: (Units=1/GPa)
#
#
# Indices 1 2 3 4 5 6 
#
# 1 0.009419 -0.005988 -0.002012 -0.002599 -0.002055 0.003042
# 2 -0.005988 0.031871 -0.001883 0.023496 0.006480 -0.004014
# 3 -0.002012 -0.001883 0.016191 0.006202 -0.009396 -0.002691
# 4 -0.002599 0.023496 0.006202 0.050981 0.007884 -0.002845
# 5 -0.002055 0.006480 -0.009396 0.007884 0.039854 0.007297
# 6 0.003042 -0.004014 -0.002691 -0.002845 0.007297 0.024636
#
#
# Mechanical properties :
#
#
# Convention : Reuss Voigt Hill
#
# Bulk Modulus (GPa) = 26.51391 53.85955 40.18673
# Shear Modulus (GPa) = 24.35581 36.86699 30.61140
#
# Velocity S-wave (km/s) = 3.11947 3.83794 3.49720
# Velocity P-wave (km/s) = 4.85470 6.41550 5.68888
#
# Compressibility (1/GPa) = 0.03771605
#
# Stress axis : x y z
#
# Youngs Moduli (GPa) = 106.16835 31.37626 61.76407
#
# Poissons Ratio (x) = 0.18787 0.12426
# Poissons Ratio (y) = 0.63570 0.11630
# Poissons Ratio (z) = 0.21359 0.05908
#
# Static dielectric constant tensor:
#      x y z
#    x 2.058740 -0.041420 -0.025740 
#    y -0.041420 2.017830 -0.055010 
#    z -0.025740 -0.055010 2.027410 
# 
# From -- ./inp_files/519028.got.cif
#   From: 2010.05.17/outbox.cif.g08.bks.cpg/sg2_260_cif.got.tgz:519028.got - 2010.06.03 11:33:40.
