data_PCOD9009635
_publ_section_title
;
Structure prediction by ZEFSAII (Michael W. Deem and Ramdas Pophale) SiO2 
 PCOD9009635
Probable space group: P -1
;
_chemical_formula_sum "Si O2"
_cell_formula_units_Z 16
_cell_length_a 7.845426
_cell_length_b 5.359971
_cell_length_c 16.947033
_cell_angle_alpha 72.477889
_cell_angle_beta 78.544435
_cell_angle_gamma 60.899959
_cell_volume 592.630366
_symmetry_space_group_name_H-M "P -1"
_symmetry_group_IT_number 2
_symmetry_cell_setting 'triclinic'
loop_
_space_group_symop_operation_xyz
x,y,z
-x,-y,-z
loop_
_atom_site_type_symbol
_atom_site_label
_atom_site_fract_x
_atom_site_fract_y
_atom_site_fract_z
Si Si1 0.549350 0.591519 0.617329
Si Si2 0.784779 0.602378 0.041833
Si Si3 0.118846 0.923414 0.576133
Si Si4 0.379847 0.997547 0.347098
Si Si5 0.873988 0.049868 0.159927
Si Si6 0.256724 0.786813 0.048581
Si Si7 0.461719 0.349048 0.204429
Si Si8 0.860738 0.672768 0.334362
O O1 0.680833 0.255902 0.617194
O O2 0.489718 0.587705 0.716501
O O3 0.357784 0.742121 0.567641
O O4 0.662575 0.785489 0.596226
O O5 0.824212 0.397925 0.136013
O O6 0.699786 0.460130 0.998008
O O7 0.300192 0.049250 0.989887
O O8 0.000000 0.500000 0.000000
O O9 0.089870 0.207301 0.601609
O O10 0.069872 0.673866 0.645354
O O11 0.000000 0.000000 0.500000
O O12 0.621146 0.821858 0.339743
O O13 0.326355 0.193700 0.254107
O O14 0.940055 0.824107 0.247532
O O15 0.651450 0.106414 0.166487
O O16 0.030986 0.916141 0.088626
O O17 0.373044 0.633190 0.131808
#
# Coordination Sequence:
#
# PCOD9009635 Si02
#       8
#     2   2   2   2   2   2   2   2
#     4   8  15  29  45  73 106 136 171 220 263 319
#     4  10  23  42  56  81 117 148 189 240 292 328
#     4  10  17  29  49  82 114 137 177 228 270 333
#     4   7  14  27  45  67 102 126 169 220 253 303
#     4  10  20  41  59  79 115 152 183 245 275 332
#     4  11  24  39  58  85 109 151 194 233 291 331
#     4   9  20  35  57  81 112 141 196 229 273 340
#     4   9  18  30  49  77 103 145 184 212 277 331
#
# _framework density 26.998275
#
# number of rings (size 3 to 8) (size 9 to 14) (size 15 to 20)
#    0.750    2.000    1.250    1.875    1.750    4.000 
#    6.750    0.000    0.000    0.000    0.000    1.750 
#    0.000    0.000    0.000    0.000    0.000    0.000 
#
# Total GULP energy -89289.276834 kJ/mol
# GULP energy per Si atom -5580.579802 kJ/mol
# Density = 2.693683 g / cm^3
# Si number density = 26.998275 Si / 1000 Ang^3
#
#
#
# Elastic Constant Matrix: (Units=GPa)
#
#
# Indices 1 2 3 4 5 6 
#
# 1 65.9175 21.7368 2.9951 3.2544 -5.9926 -8.3078
# 2 21.7368 168.0167 42.2504 -23.3981 -2.9077 22.9639
# 3 2.9951 42.2504 131.9891 -15.7620 -0.7755 -2.1454
# 4 3.2544 -23.3981 -15.7620 40.6640 0.7460 -6.9290
# 5 -5.9926 -2.9077 -0.7755 0.7460 36.4857 -3.9109
# 6 -8.3078 22.9639 -2.1454 -6.9290 -3.9109 42.0263
#
#
#
# Elastic Compliance Matrix: (Units=1/GPa)
#
#
# Indices 1 2 3 4 5 6 
#
# 1 0.017305 -0.003339 0.000506 -0.002284 0.003190 0.005191
# 2 -0.003339 0.008012 -0.002180 0.003248 -0.000522 -0.004663
# 3 0.000506 -0.002180 0.008585 0.002394 0.000273 0.002150
# 4 -0.002284 0.003248 0.002394 0.028000 -0.000372 0.002478
# 5 0.003190 -0.000522 0.000273 -0.000372 0.028279 0.003500
# 6 0.005191 -0.004663 0.002150 0.002478 0.003500 0.028213
#
#
# Mechanical properties :
#
#
# Convention : Reuss Voigt Hill
#
# Bulk Modulus (GPa) = 41.87848 55.54308 48.71078
# Shear Modulus (GPa) = 36.66256 43.76459 40.21358
#
# Velocity S-wave (km/s) = 3.68905 4.03055 3.86357
# Velocity P-wave (km/s) = 5.80436 6.50215 6.16314
#
# Compressibility (1/GPa) = 0.02387861
#
# Stress axis : x y z
#
# Youngs Moduli (GPa) = 57.78526 124.80645 116.47950
#
# Poissons Ratio (x) = 0.41667 -0.05899
# Poissons Ratio (y) = 0.19292 0.25394
# Poissons Ratio (z) = -0.02926 0.27209
#
# Static dielectric constant tensor:
#      x y z
#    x 2.203260 -0.017670 0.017800 
#    y -0.017670 2.205690 -0.058570 
#    z 0.017800 -0.058570 2.151630 
# 
# From -- ./inp_files/584834.got.cif
#   From: 2010.05.17/outbox.cif.g08.bks.cpg/sg2_293_cif.got.tgz:584834.got - 2010.06.03 11:33:40.
