data_PCOD9009707
_publ_section_title
;
Structure prediction by ZEFSAII (Michael W. Deem and Ramdas Pophale) SiO2 
 PCOD9009707
Probable space group: P -1
;
_chemical_formula_sum "Si O2"
_cell_formula_units_Z 14
_cell_length_a 5.156301
_cell_length_b 8.878805
_cell_length_c 16.763683
_cell_angle_alpha 77.933514
_cell_angle_beta 118.755489
_cell_angle_gamma 83.865298
_cell_volume 638.411579
_symmetry_space_group_name_H-M "P -1"
_symmetry_group_IT_number 2
_symmetry_cell_setting 'triclinic'
loop_
_space_group_symop_operation_xyz
x,y,z
-x,-y,-z
loop_
_atom_site_type_symbol
_atom_site_label
_atom_site_fract_x
_atom_site_fract_y
_atom_site_fract_z
Si Si1 0.658343 0.939416 0.294732
Si Si2 0.698489 0.973031 0.611763
Si Si3 0.984714 0.626758 0.756510
Si Si4 0.508184 0.677360 0.998784
Si Si5 0.363045 0.282548 0.149419
Si Si6 0.147169 0.995733 0.935596
Si Si7 0.853555 0.721248 0.201565
O O1 0.488021 0.928679 0.353282
O O2 0.461592 0.096472 0.204621
O O3 0.986137 0.974986 0.357531
O O4 0.712015 0.799581 0.253786
O O5 0.780055 0.786278 0.668577
O O6 0.500000 0.000000 0.500000
O O7 0.863130 0.623410 0.828950
O O8 0.326372 0.654013 0.802925
O O9 0.958932 0.458566 0.734957
O O10 0.614526 0.691170 0.102936
O O11 0.500000 0.500000 0.000000
O O12 0.735235 0.702580 0.959073
O O13 0.206537 0.820414 0.925486
O O14 0.013622 0.142711 0.839905
O O15 0.500000 0.000000 0.000000
O O16 0.000000 0.000000 0.000000
#
# Coordination Sequence:
#
# PCOD9009707 Si02
#       7
#     2   2   2   2   2   2   2
#     4  10  22  40  66  92 124 156 197 255 311 361
#     4  10  22  45  70  92 117 155 200 249 316 392
#     4  10  23  38  63  88 122 157 207 250 307 355
#     4  11  22  39  60  85 125 173 218 241 286 348
#     4  10  21  40  55  88 120 168 210 247 285 355
#     4  10  24  39  55  82 117 164 209 253 292 333
#     4  11  23  40  59  92 130 164 206 257 300 346
#
# _framework density 21.929428000000001
#
# number of rings (size 3 to 8) (size 9 to 14) (size 15 to 20)
#    0.000    1.714    2.857    0.429    2.000    6.286 
#    0.000    1.429    0.000    0.000    0.000    0.000 
#    0.000    0.000    0.000    0.000    0.000    0.000 
#
# Total GULP energy -78236.694978 kJ/mol
# GULP energy per Si atom -5588.335356 kJ/mol
# Density = 2.187952 g / cm^3
# Si number density = 21.929428 Si / 1000 Ang^3
#
#
#
# Elastic Constant Matrix: (Units=GPa)
#
#
# Indices 1 2 3 4 5 6 
#
# 1 111.4849 28.6072 22.9573 3.9255 -10.7412 -18.6620
# 2 28.6072 180.9745 29.4168 12.7605 -6.6043 -10.3804
# 3 22.9573 29.4168 109.3009 5.7855 2.9815 -5.5550
# 4 3.9255 12.7605 5.7855 25.9993 -1.7661 -4.8984
# 5 -10.7412 -6.6043 2.9815 -1.7661 29.0153 3.8686
# 6 -18.6620 -10.3804 -5.5550 -4.8984 3.8686 22.9816
#
#
#
# Elastic Compliance Matrix: (Units=1/GPa)
#
#
# Indices 1 2 3 4 5 6 
#
# 1 0.011178 -0.000969 -0.001819 0.000886 0.003110 0.007865
# 2 -0.000969 0.006146 -0.001299 -0.002326 0.000895 0.001028
# 3 -0.001819 -0.001299 0.010034 -0.001386 -0.002141 0.000427
# 4 0.000886 -0.002326 -0.001386 0.041365 0.001403 0.007914
# 5 0.003110 0.000895 -0.002141 0.001403 0.036585 -0.003448
# 6 0.007865 0.001028 0.000427 0.007914 -0.003448 0.052734
#
#
# Mechanical properties :
#
#
# Convention : Reuss Voigt Hill
#
# Bulk Modulus (GPa) = 52.12989 62.63591 57.38290
# Shear Modulus (GPa) = 28.96672 36.98451 32.97562
#
# Velocity S-wave (km/s) = 3.63837 4.11119 3.88198
# Velocity P-wave (km/s) = 6.44000 7.15264 6.80566
#
# Compressibility (1/GPa) = 0.01918285
#
# Stress axis : x y z
#
# Youngs Moduli (GPa) = 89.46118 162.71455 99.65838
#
# Poissons Ratio (x) = 0.15769 0.18128
# Poissons Ratio (y) = 0.08670 0.12951
# Poissons Ratio (z) = 0.16273 0.21145
#
# Static dielectric constant tensor:
#      x y z
#    x 1.935790 0.066910 0.031100 
#    y 0.066910 1.915760 0.000370 
#    z 0.031100 0.000370 1.798880 
# 
# From -- ./inp_files/36176.got.cif
#   From: 2010.05.17/outbox.cif.g08.bks.cpg/sg2_19_cif.got.tgz:36176.got - 2010.06.03 11:33:40.
