data_PCOD9009387
_publ_section_title
;
Structure prediction by ZEFSAII (Michael W. Deem and Ramdas Pophale) SiO2 
 PCOD9009387
Probable space group: P -1
;
_chemical_formula_sum "Si O2"
_cell_formula_units_Z 16
_cell_length_a 12.792870
_cell_length_b 5.375426
_cell_length_c 11.927162
_cell_angle_alpha 72.127016
_cell_angle_beta 113.762494
_cell_angle_gamma 108.198158
_cell_volume 697.481440
_symmetry_space_group_name_H-M "P -1"
_symmetry_group_IT_number 2
_symmetry_cell_setting 'triclinic'
loop_
_space_group_symop_operation_xyz
x,y,z
-x,-y,-z
loop_
_atom_site_type_symbol
_atom_site_label
_atom_site_fract_x
_atom_site_fract_y
_atom_site_fract_z
Si Si1 0.792285 0.867325 0.657926
Si Si2 0.695826 0.331704 0.775759
Si Si3 0.935163 0.191328 0.875368
Si Si4 0.467468 0.016556 0.854547
Si Si5 0.015471 0.404082 0.332268
Si Si6 0.347675 0.499688 0.728800
Si Si7 0.149978 0.737270 0.547249
Si Si8 0.571841 0.294411 0.508135
O O1 0.701802 0.649628 0.721846
O O2 0.876410 0.708448 0.649626
O O3 0.874148 0.025148 0.766616
O O4 0.759423 0.033091 0.514021
O O5 0.823186 0.281400 0.873097
O O6 0.670764 0.255458 0.644916
O O7 0.585375 0.171310 0.819222
O O8 0.018582 0.445272 0.813961
O O9 0.000000 0.000000 0.000000
O O10 0.415574 0.729876 0.812140
O O11 0.374753 0.208601 0.792107
O O12 0.500000 0.000000 0.000000
O O13 0.919821 0.184102 0.387172
O O14 0.065725 0.608661 0.426858
O O15 0.213636 0.523550 0.662307
O O16 0.387560 0.583371 0.609362
O O17 0.500000 0.500000 0.500000
O O18 0.500000 0.000000 0.500000
#
# Coordination Sequence:
#
# PCOD9009387 Si02
#       8
#     2   2   2   2   2   2   2   2
#     4  10  21  39  68  95 134 166 221 285 347 409
#     4  11  25  42  69 100 135 178 226 292 353 403
#     4  10  23  42  65  96 132 175 231 282 335 413
#     4  12  29  50  66  96 143 191 233 283 336 417
#     4   9  20  41  62  96 135 170 217 278 351 407
#     4  12  25  45  71 103 137 178 236 283 345 421
#     4  10  22  38  66  99 133 171 216 283 351 413
#     4  12  23  40  71 106 136 172 226 288 356 406
#
# _framework density 22.939679000000002
#
# number of rings (size 3 to 8) (size 9 to 14) (size 15 to 20)
#    0.000    1.250    2.500    3.000    8.750    3.000 
#    4.500    0.000    0.000    0.000    0.000    0.000 
#    0.000    0.000    0.000    0.000    0.000    0.000 
#
# Total GULP energy -89213.439296 kJ/mol
# GULP energy per Si atom -5575.839956 kJ/mol
# Density = 2.288747 g / cm^3
# Si number density = 22.939679 Si / 1000 Ang^3
#
#
#
# Elastic Constant Matrix: (Units=GPa)
#
#
# Indices 1 2 3 4 5 6 
#
# 1 69.9688 2.1828 28.4175 -2.9988 4.8191 -10.5289
# 2 2.1828 56.0181 3.7516 2.5699 0.4465 -9.8071
# 3 28.4175 3.7516 122.1368 -7.1251 11.0686 -11.2736
# 4 -2.9988 2.5699 -7.1251 26.8147 -13.3744 7.4793
# 5 4.8191 0.4465 11.0686 -13.3744 40.1043 -7.8097
# 6 -10.5289 -9.8071 -11.2736 7.4793 -7.8097 29.2678
#
#
#
# Elastic Compliance Matrix: (Units=1/GPa)
#
#
# Indices 1 2 3 4 5 6 
#
# 1 0.016373 0.000462 -0.003387 -0.000607 -0.000303 0.004814
# 2 0.000462 0.019359 -0.000231 -0.004012 -0.000071 0.007570
# 3 -0.003387 -0.000231 0.009328 0.000889 -0.001546 0.001657
# 4 -0.000607 -0.004012 0.000889 0.047426 0.013808 -0.009656
# 5 -0.000303 -0.000071 -0.001546 0.013808 0.030774 0.003955
# 6 0.004814 0.007570 0.001657 -0.009656 0.003955 0.042597
#
#
# Mechanical properties :
#
#
# Convention : Reuss Voigt Hill
#
# Bulk Modulus (GPa) = 25.80864 35.20307 30.50586
# Shear Modulus (GPa) = 27.01475 33.48881 30.25178
#
# Velocity S-wave (km/s) = 3.43540 3.82496 3.63540
# Velocity P-wave (km/s) = 5.19722 5.90647 5.56316
#
# Compressibility (1/GPa) = 0.03874671
#
# Stress axis : x y z
#
# Youngs Moduli (GPa) = 61.07733 51.65615 107.20818
#
# Poissons Ratio (x) = -0.02386 0.36314
# Poissons Ratio (y) = -0.02822 0.02476
# Poissons Ratio (z) = 0.20688 0.01193
#
# Static dielectric constant tensor:
#      x y z
#    x 2.055160 0.029470 0.007680 
#    y 0.029470 2.065020 -0.068970 
#    z 0.007680 -0.068970 1.847250 
# 
# From -- ./inp_files/367590.got.cif
#   From: 2010.05.17/outbox.cif.g08.bks.cpg/sg2_184_cif.got.tgz:367590.got - 2010.06.03 11:33:40.
