data_PCOD9009374
_publ_section_title
;
Structure prediction by ZEFSAII (Michael W. Deem and Ramdas Pophale) SiO2 
 PCOD9009374
Probable space group: P -1
;
_chemical_formula_sum "Si O2"
_cell_formula_units_Z 14
_cell_length_a 23.047605
_cell_length_b 16.356064
_cell_length_c 7.660972
_cell_angle_alpha 35.877234
_cell_angle_beta 43.548986
_cell_angle_gamma 20.413260
_cell_volume 581.797470
_symmetry_space_group_name_H-M "P -1"
_symmetry_group_IT_number 2
_symmetry_cell_setting 'triclinic'
loop_
_space_group_symop_operation_xyz
x,y,z
-x,-y,-z
loop_
_atom_site_type_symbol
_atom_site_label
_atom_site_fract_x
_atom_site_fract_y
_atom_site_fract_z
Si Si1 0.591161 0.925147 0.208136
Si Si2 0.708481 0.586253 0.214680
Si Si3 0.670133 0.341190 0.879949
Si Si4 0.866555 0.052897 0.314626
Si Si5 0.182594 0.574910 0.212095
Si Si6 0.864155 0.757579 0.986871
Si Si7 0.979241 0.753739 0.044805
O O1 0.668947 0.766193 0.126241
O O2 0.639143 0.730406 0.571310
O O3 0.698040 0.901537 0.087671
O O4 0.400130 0.230134 0.041786
O O5 0.649293 0.526061 0.529780
O O6 0.905565 0.312335 0.214812
O O7 0.500000 0.500000 0.000000
O O8 0.756459 0.222901 0.085100
O O9 0.800662 0.074151 0.931917
O O10 0.820557 0.977834 0.642212
O O11 0.832291 0.249695 0.141379
O O12 0.058466 0.765047 0.323792
O O13 0.088956 0.598011 0.252533
O O14 0.000000 0.500000 0.000000
O O15 0.947566 0.660921 0.161938
#
# Coordination Sequence:
#
# PCOD9009374 Si02
#       7
#     2   2   2   2   2   2   2
#     4  11  23  44  69  99 148 189 229 288 360 419
#     4  11  23  44  75 103 137 191 241 286 351 423
#     4  11  24  46  70 106 144 184 234 295 356 417
#     4  10  21  39  68  94 139 183 229 287 352 408
#     4  10  21  40  66 101 133 183 237 285 342 418
#     4  12  23  42  68 103 146 185 231 294 359 411
#     4  11  26  42  74 106 138 186 245 290 346 426
#
# _framework density 24.063355000000001
#
# number of rings (size 3 to 8) (size 9 to 14) (size 15 to 20)
#    0.000    1.143    4.286    1.286    6.000    1.143 
#    2.571    1.429    0.000    0.000    0.000    0.000 
#    0.000    0.000    0.000    0.000    0.000    0.000 
#
# Total GULP energy -78353.932649 kJ/mol
# GULP energy per Si atom -5596.709475 kJ/mol
# Density = 2.400859 g / cm^3
# Si number density = 24.063355 Si / 1000 Ang^3
#
#
#
# Elastic Constant Matrix: (Units=GPa)
#
#
# Indices 1 2 3 4 5 6 
#
# 1 182.9001 38.9082 46.2856 -8.7043 -7.1692 -5.3002
# 2 38.9082 131.6851 32.0718 -5.1516 -18.1550 -22.1772
# 3 46.2856 32.0718 134.3220 -2.8538 -7.9390 -17.0973
# 4 -8.7043 -5.1516 -2.8538 35.4201 -10.4356 -1.2531
# 5 -7.1692 -18.1550 -7.9390 -10.4356 46.3309 2.8122
# 6 -5.3002 -22.1772 -17.0973 -1.2531 2.8122 40.0066
#
#
#
# Elastic Compliance Matrix: (Units=1/GPa)
#
#
# Indices 1 2 3 4 5 6 
#
# 1 0.006301 -0.001420 -0.001874 0.001292 0.000434 -0.000743
# 2 -0.001420 0.009593 -0.000965 0.002187 0.003591 0.004533
# 3 -0.001874 -0.000965 0.008745 0.000428 0.000750 0.002915
# 4 0.001292 0.002187 0.000428 0.031351 0.008071 0.001981
# 5 0.000434 0.003591 0.000750 0.008071 0.024952 0.000867
# 6 -0.000743 0.004533 0.002915 0.001981 0.000867 0.028657
#
#
# Mechanical properties :
#
#
# Convention : Reuss Voigt Hill
#
# Bulk Modulus (GPa) = 62.03284 75.93762 68.98523
# Shear Modulus (GPa) = 40.48914 46.46097 43.47505
#
# Velocity S-wave (km/s) = 4.10641 4.39883 4.25513
# Velocity P-wave (km/s) = 6.95114 7.57796 7.27131
#
# Compressibility (1/GPa) = 0.01612049
#
# Stress axis : x y z
#
# Youngs Moduli (GPa) = 158.71343 104.24669 114.34704
#
# Poissons Ratio (x) = 0.14805 0.21424
# Poissons Ratio (y) = 0.22540 0.11039
# Poissons Ratio (z) = 0.29736 0.10064
#
# Static dielectric constant tensor:
#      x y z
#    x 1.948480 0.052680 0.021940 
#    y 0.052680 1.937220 0.012020 
#    z 0.021940 0.012020 1.961300 
# 
# From -- ./inp_files/354985.got.cif
#   From: 2010.05.17/outbox.cif.g08.bks.cpg/sg2_178_cif.got.tgz:354985.got - 2010.06.03 11:33:40.
