data_PCOD9009218
_publ_section_title
;
Structure prediction by ZEFSAII (Michael W. Deem and Ramdas Pophale) SiO2 
 PCOD9009218
Probable space group: P -1
;
_chemical_formula_sum "Si O2"
_cell_formula_units_Z 14
_cell_length_a 8.125438
_cell_length_b 9.671567
_cell_length_c 11.306256
_cell_angle_alpha 67.936323
_cell_angle_beta 111.964556
_cell_angle_gamma 67.050041
_cell_volume 600.900557
_symmetry_space_group_name_H-M "P -1"
_symmetry_group_IT_number 2
_symmetry_cell_setting 'triclinic'
loop_
_space_group_symop_operation_xyz
x,y,z
-x,-y,-z
loop_
_atom_site_type_symbol
_atom_site_label
_atom_site_fract_x
_atom_site_fract_y
_atom_site_fract_z
Si Si1 0.244819 0.102895 0.137593
Si Si2 0.558786 0.367967 0.169930
Si Si3 0.350814 0.728350 0.309680
Si Si4 0.230377 0.635814 0.530295
Si Si5 0.752286 0.957007 0.332267
Si Si6 0.767500 0.838112 0.620932
Si Si7 0.835596 0.470052 0.803780
O O1 0.151194 0.162874 0.227018
O O2 0.237709 0.932280 0.159784
O O3 0.509471 0.006272 0.235797
O O4 0.090079 0.294398 0.961316
O O5 0.696709 0.375526 0.310859
O O6 0.330917 0.431216 0.157644
O O7 0.703060 0.154134 0.229418
O O8 0.500000 0.500000 0.000000
O O9 0.313282 0.731848 0.439193
O O10 0.617322 0.581380 0.401718
O O11 0.252915 0.627985 0.259377
O O12 0.965125 0.768336 0.389615
O O13 0.829406 0.907715 0.505643
O O14 0.823349 0.635166 0.683011
O O15 0.500000 0.000000 0.500000
#
# Coordination Sequence:
#
# PCOD9009218 Si02
#       7
#     2   2   2   2   2   2   2
#     4  11  23  40  68  98 136 172 219 275 334 388
#     4  11  24  40  67 102 135 168 221 279 337 389
#     4  10  24  44  70  92 132 185 228 259 330 408
#     4  10  24  43  67  93 132 176 228 266 326 396
#     4  11  24  40  66 101 130 171 224 278 331 380
#     4  10  21  39  67  96 132 170 225 273 323 387
#     4  11  23  43  67  99 135 179 219 269 336 399
#
# _framework density 23.298363999999999
#
# number of rings (size 3 to 8) (size 9 to 14) (size 15 to 20)
#    0.000    1.429    2.857    2.143   14.000    0.571 
#    0.000    0.714    0.000    0.000    0.000    0.000 
#    0.000    0.000    0.000    0.000    0.000    0.000 
#
# Total GULP energy -78203.401673 kJ/mol
# GULP energy per Si atom -5585.957262 kJ/mol
# Density = 2.324534 g / cm^3
# Si number density = 23.298364 Si / 1000 Ang^3
#
#
#
# Elastic Constant Matrix: (Units=GPa)
#
#
# Indices 1 2 3 4 5 6 
#
# 1 44.4452 10.8260 41.7828 -8.1149 13.2097 -8.2261
# 2 10.8260 79.1695 47.1597 -20.9106 5.2826 17.0339
# 3 41.7828 47.1597 154.6706 -37.0390 -0.0911 4.5606
# 4 -8.1149 -20.9106 -37.0390 40.0328 0.1599 -5.0653
# 5 13.2097 5.2826 -0.0911 0.1599 43.2309 -13.6214
# 6 -8.2261 17.0339 4.5606 -5.0653 -13.6214 33.1967
#
#
#
# Elastic Compliance Matrix: (Units=1/GPa)
#
#
# Indices 1 2 3 4 5 6 
#
# 1 0.035596 0.000061 -0.010136 -0.001294 -0.008906 0.006330
# 2 0.000061 0.019234 -0.004469 0.004563 -0.005843 -0.010942
# 3 -0.010136 -0.004469 0.012222 0.007000 0.003884 0.000764
# 4 -0.001294 0.004563 0.007000 0.033783 0.000241 0.001630
# 5 -0.008906 -0.005843 0.003884 0.000241 0.030627 0.012861
# 6 0.006330 -0.010942 0.000764 0.001630 0.012861 0.042727
#
#
# Mechanical properties :
#
#
# Convention : Reuss Voigt Hill
#
# Bulk Modulus (GPa) = 26.34101 53.09136 39.71619
# Shear Modulus (GPa) = 23.15526 35.19321 29.17424
#
# Velocity S-wave (km/s) = 3.15597 3.89079 3.54248
# Velocity P-wave (km/s) = 4.96092 6.55907 5.81516
#
# Compressibility (1/GPa) = 0.03796362
#
# Stress axis : x y z
#
# Youngs Moduli (GPa) = 28.09273 51.99070 81.81674
#
# Poissons Ratio (x) = -0.00317 0.82933
# Poissons Ratio (y) = -0.00171 0.36565
# Poissons Ratio (z) = 0.28476 0.23235
#
# Static dielectric constant tensor:
#      x y z
#    x 1.975030 -0.056760 0.024290 
#    y -0.056760 1.940490 0.031490 
#    z 0.024290 0.031490 1.868180 
# 
# From -- ./inp_files/381736.got.cif
#   From: 2010.05.17/outbox.cif.g08.bks.cpg/sg2_191_cif.got.tgz:381736.got - 2010.06.03 11:33:40.
