data_PCOD9009579
_publ_section_title
;
Structure prediction by ZEFSAII (Michael W. Deem and Ramdas Pophale) SiO2 
 PCOD9009579
Probable space group: P -1
;
_chemical_formula_sum "Si O2"
_cell_formula_units_Z 14
_cell_length_a 17.250505
_cell_length_b 8.664753
_cell_length_c 28.457154
_cell_angle_alpha 28.570282
_cell_angle_beta 21.994404
_cell_angle_gamma 27.703910
_cell_volume 699.334687
_symmetry_space_group_name_H-M "P -1"
_symmetry_group_IT_number 2
_symmetry_cell_setting 'triclinic'
loop_
_space_group_symop_operation_xyz
x,y,z
-x,-y,-z
loop_
_atom_site_type_symbol
_atom_site_label
_atom_site_fract_x
_atom_site_fract_y
_atom_site_fract_z
Si Si1 0.401657 0.374522 0.852270
Si Si2 0.638383 0.457849 0.782690
Si Si3 0.711081 0.612420 0.852126
Si Si4 0.075468 0.285451 0.137445
Si Si5 0.819538 0.242112 0.980828
Si Si6 0.204903 0.113309 0.360566
Si Si7 0.705933 0.574574 0.204332
O O1 0.514567 0.556819 0.775664
O O2 0.283932 0.541899 0.824597
O O3 0.604826 0.018060 0.817886
O O4 0.239423 0.269584 0.005756
O O5 0.777107 0.691516 0.654386
O O6 0.794604 0.047743 0.813060
O O7 0.433064 0.551595 0.910918
O O8 0.864361 0.389803 0.866936
O O9 0.811297 0.606773 0.746331
O O10 0.500000 0.500000 0.000000
O O11 0.035392 0.643926 0.093405
O O12 0.849096 0.295651 0.237320
O O13 0.815261 0.867355 0.070002
O O14 0.443937 0.781538 0.309170
O O15 0.000000 0.000000 0.500000
#
# Coordination Sequence:
#
# PCOD9009579 Si02
#       7
#     2   2   2   2   2   2   2
#     4  10  17  29  49  80 107 135 163 212 256 310
#     4  10  18  31  55  75 102 135 176 207 255 311
#     4  11  15  31  56  78  99 132 184 206 240 307
#     4  11  18  29  49  86 111 130 162 221 265 294
#     4  10  17  30  51  77 108 140 168 204 252 316
#     4  10  22  38  55  71 100 144 180 210 252 313
#     4  10  21  31  50  78 112 136 169 212 259 303
#
# _framework density 20.019026
#
# number of rings (size 3 to 8) (size 9 to 14) (size 15 to 20)
#    0.000    1.714    7.143    1.714    0.000    0.000 
#    0.000    3.571    0.000    0.857    0.000    0.000 
#    0.000    0.000    0.000    0.000    0.000    0.000 
#
# Total GULP energy -77999.832084 kJ/mol
# GULP energy per Si atom -5571.416577 kJ/mol
# Density = 1.997346 g / cm^3
# Si number density = 20.019026 Si / 1000 Ang^3
#
#
#
# Elastic Constant Matrix: (Units=GPa)
#
#
# Indices 1 2 3 4 5 6 
#
# 1 168.5258 17.6703 37.6830 -1.6884 -28.3523 3.2059
# 2 17.6703 41.0649 1.7484 2.6518 -6.5274 3.1827
# 3 37.6830 1.7484 61.4097 -6.7108 -27.7799 1.0435
# 4 -1.6884 2.6518 -6.7108 11.6312 0.7699 -6.4971
# 5 -28.3523 -6.5274 -27.7799 0.7699 25.0652 -2.3897
# 6 3.2059 3.1827 1.0435 -6.4971 -2.3897 26.6737
#
#
#
# Elastic Compliance Matrix: (Units=1/GPa)
#
#
# Indices 1 2 3 4 5 6 
#
# 1 0.007588 -0.002259 -0.001938 0.000102 0.005843 -0.000018
# 2 -0.002259 0.027312 0.003747 -0.007270 0.008539 -0.004140
# 3 -0.001938 0.003747 0.038411 0.022454 0.041377 0.007459
# 4 0.000102 -0.007270 0.022454 0.116013 0.022428 0.030244
# 5 0.005843 0.008539 0.041377 0.022428 0.094911 0.010626
# 6 -0.000018 -0.004140 0.007459 0.030244 0.010626 0.046013
#
#
# Mechanical properties :
#
#
# Convention : Reuss Voigt Hill
#
# Bulk Modulus (GPa) = 13.80984 42.80042 28.30513
# Shear Modulus (GPa) = 14.07321 26.93392 20.50357
#
# Velocity S-wave (km/s) = 2.65428 3.67197 3.20379
# Velocity P-wave (km/s) = 4.03818 6.27727 5.27783
#
# Compressibility (1/GPa) = 0.07241211
#
# Stress axis : x y z
#
# Youngs Moduli (GPa) = 131.78209 36.61412 26.03418
#
# Poissons Ratio (x) = 0.08272 0.05044
# Poissons Ratio (y) = 0.29772 -0.09755
# Poissons Ratio (z) = 0.25533 -0.13720
#
# Static dielectric constant tensor:
#      x y z
#    x 1.831610 -0.013990 -0.011430 
#    y -0.013990 1.801390 0.005650 
#    z -0.011430 0.005650 1.676930 
# 
# From -- ./inp_files/163373.got.cif
#   From: 2010.05.17/outbox.cif.g08.bks.cpg/sg2_82_cif.got.tgz:163373.got - 2010.06.03 11:33:40.
