data_PCOD9009315
_publ_section_title
;
Structure prediction by ZEFSAII (Michael W. Deem and Ramdas Pophale) SiO2 
 PCOD9009315
Probable space group: P -1
;
_chemical_formula_sum "Si O2"
_cell_formula_units_Z 14
_cell_length_a 23.603924
_cell_length_b 5.384289
_cell_length_c 15.534741
_cell_angle_alpha 109.374238
_cell_angle_beta 20.637117
_cell_angle_gamma 99.045413
_cell_volume 582.570451
_symmetry_space_group_name_H-M "P -1"
_symmetry_group_IT_number 2
_symmetry_cell_setting 'triclinic'
loop_
_space_group_symop_operation_xyz
x,y,z
-x,-y,-z
loop_
_atom_site_type_symbol
_atom_site_label
_atom_site_fract_x
_atom_site_fract_y
_atom_site_fract_z
Si Si1 0.723967 0.258054 0.259772
Si Si2 0.564257 0.154101 0.321130
Si Si3 0.709170 0.760794 0.675506
Si Si4 0.570964 0.231733 0.642762
Si Si5 0.222857 0.448262 0.260542
Si Si6 0.153130 0.941907 0.628671
Si Si7 0.099491 0.056399 0.283865
O O1 0.657870 0.061090 0.271396
O O2 0.627434 0.551406 0.372533
O O3 0.637759 0.376250 0.490228
O O4 0.936699 0.085393 0.953327
O O5 0.512464 0.932777 0.317156
O O6 0.719577 0.187911 0.045950
O O7 0.764012 0.733320 0.693865
O O8 0.758638 0.417959 0.545140
O O9 0.800104 0.892531 0.495425
O O10 0.500000 0.000000 0.000000
O O11 0.746268 0.020461 0.425053
O O12 0.412190 0.430395 0.958236
O O13 0.166108 0.288945 0.249217
O O14 0.060721 0.777535 0.537587
O O15 0.000000 0.000000 0.500000
#
# Coordination Sequence:
#
# PCOD9009315 Si02
#       7
#     2   2   2   2   2   2   2
#     4  11  25  45  71 105 140 195 249 298 363 437
#     4  10  24  44  68 102 143 194 242 307 361 434
#     4  12  27  49  74 109 149 193 241 302 371 441
#     4  11  24  45  70 101 145 192 243 302 362 430
#     4  10  23  40  68 104 143 189 239 304 366 435
#     4  12  29  47  79 107 149 194 244 304 364 437
#     4  10  21  39  68 103 142 187 242 299 368 431
#
# _framework density 24.03143
#
# number of rings (size 3 to 8) (size 9 to 14) (size 15 to 20)
#    0.000    1.143    1.429    3.000    8.000    0.571 
#    5.143    0.000    0.000    0.000    0.000    0.000 
#    0.000    0.000    0.000    0.000    0.000    0.000 
#
# Total GULP energy -78088.608400 kJ/mol
# GULP energy per Si atom -5577.757743 kJ/mol
# Density = 2.397673 g / cm^3
# Si number density = 24.031430 Si / 1000 Ang^3
#
#
#
# Elastic Constant Matrix: (Units=GPa)
#
#
# Indices 1 2 3 4 5 6 
#
# 1 151.1350 18.8726 48.2185 -13.2816 -16.9340 -29.6892
# 2 18.8726 83.3085 44.6308 -4.6960 -0.4317 -21.7139
# 3 48.2185 44.6308 111.3813 -2.1699 -19.0438 -20.5769
# 4 -13.2816 -4.6960 -2.1699 21.9105 0.2946 -7.1363
# 5 -16.9340 -0.4317 -19.0438 0.2946 41.5044 5.9585
# 6 -29.6892 -21.7139 -20.5769 -7.1363 5.9585 37.0432
#
#
#
# Elastic Compliance Matrix: (Units=1/GPa)
#
#
# Indices 1 2 3 4 5 6 
#
# 1 0.010151 0.002403 -0.003229 0.009377 0.001276 0.009352
# 2 0.002403 0.018494 -0.006843 0.008431 -0.003631 0.011174
# 3 -0.003229 -0.006843 0.013919 -0.002142 0.005026 -0.000088
# 4 0.009377 0.008431 -0.002142 0.060434 -0.000806 0.023040
# 5 0.001276 -0.003631 0.005026 -0.000806 0.027299 -0.002860
# 6 0.009352 0.011174 -0.000088 0.023040 -0.002860 0.045890
#
#
# Mechanical properties :
#
#
# Convention : Reuss Voigt Hill
#
# Bulk Modulus (GPa) = 36.72947 63.25209 49.99078
# Shear Modulus (GPa) = 24.92505 35.69849 30.31177
#
# Velocity S-wave (km/s) = 3.22403 3.85839 3.55539
# Velocity P-wave (km/s) = 5.40151 6.79906 6.14018
#
# Compressibility (1/GPa) = 0.02722609
#
# Stress axis : x y z
#
# Youngs Moduli (GPa) = 98.51480 54.07125 71.84232
#
# Poissons Ratio (x) = -0.12993 0.23196
# Poissons Ratio (y) = -0.23672 0.49163
# Poissons Ratio (z) = 0.31808 0.37002
#
# Static dielectric constant tensor:
#      x y z
#    x 0.999850 0.207800 -0.122530 
#    y 0.207800 1.987860 0.006330 
#    z -0.122530 0.006330 1.973320 
# 
# From -- ./inp_files/123387.got.cif
#   From: 2010.05.17/outbox.cif.g08.bks.cpg/sg2_62_cif.got.tgz:123387.got - 2010.06.03 11:33:40.
