data_PCOD9009301
_publ_section_title
;
Structure prediction by ZEFSAII (Michael W. Deem and Ramdas Pophale) SiO2 
 PCOD9009301
Probable space group: P -1
;
_chemical_formula_sum "Si O2"
_cell_formula_units_Z 14
_cell_length_a 19.944367
_cell_length_b 11.413812
_cell_length_c 6.871566
_cell_angle_alpha 117.657020
_cell_angle_beta 124.721938
_cell_angle_gamma 28.803346
_cell_volume 617.039580
_symmetry_space_group_name_H-M "P -1"
_symmetry_group_IT_number 2
_symmetry_cell_setting 'triclinic'
loop_
_space_group_symop_operation_xyz
x,y,z
-x,-y,-z
loop_
_atom_site_type_symbol
_atom_site_label
_atom_site_fract_x
_atom_site_fract_y
_atom_site_fract_z
Si Si1 0.732915 0.552704 0.727897
Si Si2 0.723124 0.284023 0.509831
Si Si3 0.532425 0.335751 0.075852
Si Si4 0.027494 0.487499 0.312312
Si Si5 0.015389 0.810947 0.441316
Si Si6 0.770684 0.366512 0.019225
Si Si7 0.259571 0.173352 0.153229
O O1 0.646034 0.531858 0.527212
O O2 0.895183 0.306755 0.704224
O O3 0.747629 0.526828 0.965490
O O4 0.672345 0.771354 0.707743
O O5 0.619380 0.297655 0.360143
O O6 0.804899 0.206776 0.790420
O O7 0.844066 0.089632 0.391553
O O8 0.383552 0.469274 0.011167
O O9 0.637995 0.080285 0.960071
O O10 0.500000 0.500000 0.000000
O O11 0.015763 0.659080 0.387850
O O12 0.000000 0.500000 0.500000
O O13 0.891464 0.607499 0.059882
O O14 0.189812 0.229581 0.290612
O O15 0.109797 0.763466 0.719984
#
# Coordination Sequence:
#
# PCOD9009301 Si02
#       7
#     2   2   2   2   2   2   2
#     4   9  22  38  66  94 128 163 216 273 329 372
#     4  10  22  42  64  94 130 170 220 270 317 384
#     4  12  25  45  66  95 136 182 216 265 332 391
#     4  10  21  39  68 101 131 164 221 267 338 381
#     4  11  19  41  66  98 127 169 218 275 323 384
#     4  10  24  40  65  96 134 167 227 258 333 388
#     4  10  22  44  64  97 134 171 213 279 319 392
#
# _framework density 22.688984000000001
#
# number of rings (size 3 to 8) (size 9 to 14) (size 15 to 20)
#    0.857    0.857    1.429    3.000    0.000    1.714 
#    2.571    6.429    0.000    0.000    0.000    0.000 
#    0.000    0.000    0.000    0.000    0.000    0.000 
#
# Total GULP energy -78122.075219 kJ/mol
# GULP energy per Si atom -5580.148230 kJ/mol
# Density = 2.263734 g / cm^3
# Si number density = 22.688984 Si / 1000 Ang^3
#
#
#
# Elastic Constant Matrix: (Units=GPa)
#
#
# Indices 1 2 3 4 5 6 
#
# 1 125.1268 44.7204 25.1444 15.3557 -8.2230 -20.3133
# 2 44.7204 80.4211 30.0605 25.6992 14.0678 -8.1594
# 3 25.1444 30.0605 82.6664 7.2561 9.0973 -9.5653
# 4 15.3557 25.6992 7.2561 36.8266 -1.2014 5.8467
# 5 -8.2230 14.0678 9.0973 -1.2014 44.7163 10.2563
# 6 -20.3133 -8.1594 -9.5653 5.8467 10.2563 23.9176
#
#
#
# Elastic Compliance Matrix: (Units=1/GPa)
#
#
# Indices 1 2 3 4 5 6 
#
# 1 0.011579 -0.005001 -0.000878 -0.002276 0.002117 0.007426
# 2 -0.005001 0.025173 -0.003504 -0.017061 -0.011330 0.011969
# 3 -0.000878 -0.003504 0.014769 -0.001114 -0.003400 0.005696
# 4 -0.002276 -0.017061 -0.001114 0.044456 0.011915 -0.024176
# 5 0.002117 -0.011330 -0.003400 0.011915 0.031923 -0.020029
# 6 0.007426 0.011969 0.005696 -0.024176 -0.020029 0.068977
#
#
# Mechanical properties :
#
#
# Convention : Reuss Voigt Hill
#
# Bulk Modulus (GPa) = 30.52694 54.22944 42.37819
# Shear Modulus (GPa) = 22.06919 33.64471 27.85695
#
# Velocity S-wave (km/s) = 3.12217 3.85498 3.50776
# Velocity P-wave (km/s) = 5.14597 6.61571 5.92657
#
# Compressibility (1/GPa) = 0.03275795
#
# Stress axis : x y z
#
# Youngs Moduli (GPa) = 86.36000 39.72477 67.70980
#
# Poissons Ratio (x) = 0.19865 0.05942
# Poissons Ratio (y) = 0.43186 0.23723
# Poissons Ratio (z) = 0.07579 0.13918
#
# Static dielectric constant tensor:
#      x y z
#    x 1.871570 0.010610 0.004770 
#    y 0.010610 1.856540 -0.024970 
#    z 0.004770 -0.024970 1.918130 
# 
# From -- ./inp_files/354426.got.cif
#   From: 2010.05.17/outbox.cif.g08.bks.cpg/sg2_178_cif.got.tgz:354426.got - 2010.06.03 11:33:40.
