data_PCOD9009634
_publ_section_title
;
Structure prediction by ZEFSAII (Michael W. Deem and Ramdas Pophale) SiO2 
 PCOD9009634
Probable space group: P -1
;
_chemical_formula_sum "Si O2"
_cell_formula_units_Z 14
_cell_length_a 14.061388
_cell_length_b 8.366118
_cell_length_c 17.944895
_cell_angle_alpha 40.041239
_cell_angle_beta 152.545050
_cell_angle_gamma 136.397170
_cell_volume 618.977789
_symmetry_space_group_name_H-M "P -1"
_symmetry_group_IT_number 2
_symmetry_cell_setting 'triclinic'
loop_
_space_group_symop_operation_xyz
x,y,z
-x,-y,-z
loop_
_atom_site_type_symbol
_atom_site_label
_atom_site_fract_x
_atom_site_fract_y
_atom_site_fract_z
Si Si1 0.159383 0.240407 0.500592
Si Si2 0.251235 0.507566 0.317389
Si Si3 0.417817 0.449625 0.077204
Si Si4 0.121787 0.998208 0.990594
Si Si5 0.508010 0.106194 0.134983
Si Si6 0.353181 0.652498 0.582011
Si Si7 0.259618 0.168059 0.312407
O O1 0.141967 0.359395 0.364953
O O2 0.165423 0.457045 0.489029
O O3 0.378830 0.133211 0.693881
O O4 0.000000 0.000000 0.500000
O O5 0.500000 0.500000 0.500000
O O6 0.205519 0.790570 0.174517
O O7 0.179891 0.363566 0.242578
O O8 0.551325 0.296894 0.167756
O O9 0.522196 0.457025 0.226837
O O10 0.194436 0.269568 0.981899
O O11 0.421435 0.723837 0.947629
O O12 0.261026 0.020804 0.003334
O O13 0.888320 0.915034 0.831226
O O14 0.513539 0.719300 0.601231
O O15 0.282607 0.913522 0.463308
#
# Coordination Sequence:
#
# PCOD9009634 Si02
#       7
#     2   2   2   2   2   2   2
#     4  12  27  41  65  97 133 172 214 268 329 384
#     4  12  21  45  69  89 132 175 214 265 323 385
#     4   9  21  40  68  90 131 174 207 273 322 377
#     4  10  21  39  71  94 121 173 224 258 315 394
#     4   9  20  43  63  89 132 170 215 260 327 381
#     4  11  24  41  61  98 136 166 214 276 320 376
#     4  11  24  39  67  99 127 168 223 264 323 384
#
# _framework density 22.617936
#
# number of rings (size 3 to 8) (size 9 to 14) (size 15 to 20)
#    0.857    0.571    2.857    2.143    4.000    3.429 
#    0.000    2.143    0.000    0.000    0.000    0.000 
#    0.000    0.000    0.000    0.000    0.000    0.000 
#
# Total GULP energy -78224.899333 kJ/mol
# GULP energy per Si atom -5587.492809 kJ/mol
# Density = 2.256646 g / cm^3
# Si number density = 22.617936 Si / 1000 Ang^3
#
#
#
# Elastic Constant Matrix: (Units=GPa)
#
#
# Indices 1 2 3 4 5 6 
#
# 1 47.6322 26.7231 9.9287 -3.9756 -15.9564 7.6878
# 2 26.7231 109.2501 24.5006 -10.0569 -18.3052 28.7331
# 3 9.9287 24.5006 68.1283 -14.2421 -17.9547 12.1106
# 4 -3.9756 -10.0569 -14.2421 45.1784 2.8505 -2.2466
# 5 -15.9564 -18.3052 -17.9547 2.8505 36.5443 -0.7775
# 6 7.6878 28.7331 12.1106 -2.2466 -0.7775 28.0243
#
#
#
# Elastic Compliance Matrix: (Units=1/GPa)
#
#
# Indices 1 2 3 4 5 6 
#
# 1 0.027135 -0.004256 0.000988 0.000960 0.010059 -0.003151
# 2 -0.004256 0.014871 -0.000690 0.001742 0.004828 -0.013508
# 3 0.000988 -0.000690 0.019580 0.005163 0.009147 -0.007357
# 4 0.000960 0.001742 0.005163 0.023999 0.001907 -0.002304
# 5 0.010059 0.004828 0.009147 0.001907 0.038298 -0.010447
# 6 -0.003151 -0.013508 -0.007357 -0.002304 -0.010447 0.053102
#
#
# Mechanical properties :
#
#
# Convention : Reuss Voigt Hill
#
# Bulk Modulus (GPa) = 18.63261 38.59061 28.61161
# Shear Modulus (GPa) = 24.65598 32.87328 28.76463
#
# Velocity S-wave (km/s) = 3.30526 3.81651 3.57005
# Velocity P-wave (km/s) = 4.77726 6.04317 5.44712
#
# Compressibility (1/GPa) = 0.05366934
#
# Stress axis : x y z
#
# Youngs Moduli (GPa) = 36.85333 67.24454 51.07270
#
# Poissons Ratio (x) = 0.28622 -0.05047
# Poissons Ratio (y) = 0.15686 0.03524
# Poissons Ratio (z) = -0.03642 0.04639
#
# Static dielectric constant tensor:
#      x y z
#    x 1.861630 0.032570 0.037760 
#    y 0.032570 1.832580 0.015220 
#    z 0.037760 0.015220 1.820210 
# 
# From -- ./inp_files/572832.got.cif
#   From: 2010.05.17/outbox.cif.g08.bks.cpg/sg2_287_cif.got.tgz:572832.got - 2010.06.03 11:33:40.
