data_PCOD9009681
_publ_section_title
;
Structure prediction by ZEFSAII (Michael W. Deem and Ramdas Pophale) SiO2 
 PCOD9009681
Probable space group: P -1
;
_chemical_formula_sum "Si O2"
_cell_formula_units_Z 16
_cell_length_a 8.724084
_cell_length_b 14.828887
_cell_length_c 14.446716
_cell_angle_alpha 141.608161
_cell_angle_beta 91.998491
_cell_angle_gamma 60.169922
_cell_volume 757.388482
_symmetry_space_group_name_H-M "P -1"
_symmetry_group_IT_number 2
_symmetry_cell_setting 'triclinic'
loop_
_space_group_symop_operation_xyz
x,y,z
-x,-y,-z
loop_
_atom_site_type_symbol
_atom_site_label
_atom_site_fract_x
_atom_site_fract_y
_atom_site_fract_z
Si Si1 0.326001 0.574345 0.885751
Si Si2 0.288073 0.916328 0.256202
Si Si3 0.354408 0.335448 0.183147
Si Si4 0.804377 0.489816 0.474070
Si Si5 0.803221 0.518828 0.022814
Si Si6 0.841481 0.304994 0.676680
Si Si7 0.306634 0.123221 0.252816
Si Si8 0.775975 0.250312 0.165563
O O1 0.227656 0.521120 0.907175
O O2 0.610960 0.367522 0.713044
O O3 0.195861 0.673289 0.864518
O O4 0.287822 0.757641 0.082044
O O5 0.543556 0.756870 0.178061
O O6 0.260510 0.055255 0.286148
O O7 0.078466 0.073336 0.451818
O O8 0.231197 0.442827 0.365234
O O9 0.214386 0.510526 0.237532
O O10 0.582578 0.272680 0.150774
O O11 0.454937 0.106701 0.973520
O O12 0.698635 0.701510 0.586351
O O13 0.698983 0.415761 0.377051
O O14 0.085000 0.265872 0.293361
O O15 0.862762 0.343628 0.813175
O O16 0.000000 0.500000 0.000000
O O17 0.000000 0.000000 0.000000
#
# Coordination Sequence:
#
# PCOD9009681 Si02
#       8
#     2   2   2   2   2   2   2   2
#     4  10  23  43  67  94 129 169 224 267 318 394
#     4  11  20  43  71  89 128 173 224 263 327 394
#     4  11  20  40  64  89 125 173 220 261 320 386
#     4  11  23  36  60  97 132 165 221 263 324 382
#     4  11  25  44  63  97 134 163 209 280 335 385
#     4  10  21  39  73  91 119 173 221 265 319 391
#     4  11  21  39  61  93 128 172 215 271 316 392
#     4  11  21  41  63  92 133 169 211 271 319 378
#
# _framework density 21.125223999999999
#
# number of rings (size 3 to 8) (size 9 to 14) (size 15 to 20)
#    0.000    1.250    6.250    2.250    0.000    3.500 
#    2.250    0.000    0.000    0.000    0.000    0.000 
#    0.000    0.000    0.000    0.000    0.000    0.000 
#
# Total GULP energy -89351.919593 kJ/mol
# GULP energy per Si atom -5584.494975 kJ/mol
# Density = 2.107714 g / cm^3
# Si number density = 21.125224 Si / 1000 Ang^3
#
#
#
# Elastic Constant Matrix: (Units=GPa)
#
#
# Indices 1 2 3 4 5 6 
#
# 1 66.9504 38.5657 37.3335 5.1328 -6.0666 16.5442
# 2 38.5657 97.4684 24.7690 -2.9605 -11.4451 19.0608
# 3 37.3335 24.7690 124.6780 3.0610 -14.7170 1.3612
# 4 5.1328 -2.9605 3.0610 28.2565 7.9522 -0.8167
# 5 -6.0666 -11.4451 -14.7170 7.9522 30.2706 -0.7444
# 6 16.5442 19.0608 1.3612 -0.8167 -0.7444 31.2191
#
#
#
# Elastic Compliance Matrix: (Units=1/GPa)
#
#
# Indices 1 2 3 4 5 6 
#
# 1 0.024579 -0.006599 -0.005743 -0.004996 0.000734 -0.008859
# 2 -0.006599 0.014450 -0.000485 0.001676 0.003337 -0.005181
# 3 -0.005743 -0.000485 0.010313 -0.001183 0.004063 0.002956
# 4 -0.004996 0.001676 -0.001183 0.039868 -0.011356 0.002448
# 5 0.000734 0.003337 0.004063 -0.011356 0.039354 -0.001962
# 6 -0.008859 -0.005181 0.002956 0.002448 -0.001962 0.039778
#
#
# Mechanical properties :
#
#
# Convention : Reuss Voigt Hill
#
# Bulk Modulus (GPa) = 42.21640 54.49257 48.35449
# Shear Modulus (GPa) = 24.76562 30.51113 27.63837
#
# Velocity S-wave (km/s) = 3.42764 3.80452 3.62098
# Velocity P-wave (km/s) = 5.97429 6.71939 6.35776
#
# Compressibility (1/GPa) = 0.02368748
#
# Stress axis : x y z
#
# Youngs Moduli (GPa) = 40.68554 69.20392 96.96392
#
# Poissons Ratio (x) = 0.45667 0.55685
# Poissons Ratio (y) = 0.26848 0.04707
# Poissons Ratio (z) = 0.23365 0.03359
#
# Static dielectric constant tensor:
#      x y z
#    x 1.777030 0.041790 -0.015770 
#    y 0.041790 1.783670 -0.006380 
#    z -0.015770 -0.006380 1.774040 
# 
# From -- ./inp_files/312749.got.cif
#   From: 2010.05.17/outbox.cif.g08.bks.cpg/sg2_157_cif.got.tgz:312749.got - 2010.06.03 11:33:40.
