data_PCOD9009384
_publ_section_title
;
Structure prediction by ZEFSAII (Michael W. Deem and Ramdas Pophale) SiO2 
 PCOD9009384
Probable space group: P -1
;
_chemical_formula_sum "Si O2"
_cell_formula_units_Z 16
_cell_length_a 15.892121
_cell_length_b 17.439808
_cell_length_c 9.938546
_cell_angle_alpha 147.487734
_cell_angle_beta 36.592549
_cell_angle_gamma 144.048772
_cell_volume 803.611987
_symmetry_space_group_name_H-M "P -1"
_symmetry_group_IT_number 2
_symmetry_cell_setting 'triclinic'
loop_
_space_group_symop_operation_xyz
x,y,z
-x,-y,-z
loop_
_atom_site_type_symbol
_atom_site_label
_atom_site_fract_x
_atom_site_fract_y
_atom_site_fract_z
Si Si1 0.054613 0.172941 0.126254
Si Si2 0.386693 0.357567 0.845981
Si Si3 0.131826 0.950056 0.306488
Si Si4 0.108691 0.733440 0.769546
Si Si5 0.981027 0.702646 0.360892
Si Si6 0.746603 0.405832 0.101195
Si Si7 0.772564 0.462987 0.843840
Si Si8 0.469573 0.156700 0.254498
O O1 0.049815 0.274592 0.411067
O O2 0.946652 0.186687 0.163963
O O3 0.229948 0.243602 0.952850
O O4 0.000000 0.000000 0.000000
O O5 0.472516 0.253065 0.527553
O O6 0.500000 0.500000 0.000000
O O7 0.327083 0.442658 0.933816
O O8 0.061839 0.858096 0.398077
O O9 0.293401 0.095018 0.338790
O O10 0.160434 0.842546 0.995604
O O11 0.000000 0.000000 0.500000
O O12 0.226380 0.666193 0.456577
O O13 0.952584 0.586512 0.798672
O O14 0.820639 0.585883 0.323983
O O15 0.116147 0.642184 0.101985
O O16 0.592432 0.283550 0.187447
O O17 0.727500 0.397358 0.953360
O O18 0.500000 0.000000 0.000000
#
# Coordination Sequence:
#
# PCOD9009384 Si02
#       8
#     2   2   2   2   2   2   2   2
#     4  11  22  41  67  98 133 169 225 283 330 400
#     4  11  26  45  67  95 134 181 224 275 346 411
#     4  12  24  44  68 101 138 184 229 280 349 406
#     4  10  21  39  68  95 129 175 225 276 335 398
#     4  11  22  40  72 100 129 179 234 270 335 415
#     4  11  23  42  68  99 133 176 229 280 334 410
#     4  10  21  41  67  95 129 171 230 281 326 402
#     4  12  27  45  68  99 143 178 219 288 354 409
#
# _framework density 19.910105000000001
#
# number of rings (size 3 to 8) (size 9 to 14) (size 15 to 20)
#    0.000    1.000    3.750    3.750    1.750    0.500 
#    4.500    0.625    0.000    0.000    0.000    0.000 
#    0.000    0.000    0.000    0.000    0.000    0.000 
#
# Total GULP energy -89367.056483 kJ/mol
# GULP energy per Si atom -5585.441030 kJ/mol
# Density = 1.986479 g / cm^3
# Si number density = 19.910105 Si / 1000 Ang^3
#
#
#
# Elastic Constant Matrix: (Units=GPa)
#
#
# Indices 1 2 3 4 5 6 
#
# 1 50.9683 36.5788 11.6610 -11.1610 0.7979 3.4191
# 2 36.5788 138.4246 25.7082 -21.1278 -4.9864 0.6232
# 3 11.6610 25.7082 65.6447 -1.6255 2.9505 11.8562
# 4 -11.1610 -21.1278 -1.6255 27.5391 -2.1634 12.4862
# 5 0.7979 -4.9864 2.9505 -2.1634 33.4952 5.6303
# 6 3.4191 0.6232 11.8562 12.4862 5.6303 26.4370
#
#
#
# Elastic Compliance Matrix: (Units=1/GPa)
#
#
# Indices 1 2 3 4 5 6 
#
# 1 0.026297 -0.005135 -0.001028 0.010248 0.000673 -0.007803
# 2 -0.005135 0.010216 -0.002650 0.006794 0.002680 -0.002168
# 3 -0.001028 -0.002650 0.018202 0.002794 -0.000240 -0.009236
# 4 0.010248 0.006794 0.002794 0.062212 0.010308 -0.034316
# 5 0.000673 0.002680 -0.000240 0.010308 0.032929 -0.011924
# 6 -0.007803 -0.002168 -0.009236 -0.034316 -0.011924 0.061775
#
#
# Mechanical properties :
#
#
# Convention : Reuss Voigt Hill
#
# Bulk Modulus (GPa) = 26.96020 44.77039 35.86530
# Shear Modulus (GPa) = 20.69375 29.56690 25.13033
#
# Velocity S-wave (km/s) = 3.22741 3.85778 3.55658
# Velocity P-wave (km/s) = 5.24009 6.50986 5.90918
#
# Compressibility (1/GPa) = 0.03709171
#
# Stress axis : x y z
#
# Youngs Moduli (GPa) = 38.02684 97.88261 54.93956
#
# Poissons Ratio (x) = 0.50258 0.05646
# Poissons Ratio (y) = 0.19525 0.14556
# Poissons Ratio (z) = 0.03908 0.25934
#
# Static dielectric constant tensor:
#      x y z
#    x 1.644600 0.053480 0.037210 
#    y 0.053480 1.612280 0.014030 
#    z 0.037210 0.014030 1.748010 
# 
# From -- ./inp_files/316039.got.cif
#   From: 2010.05.17/outbox.cif.g08.bks.cpg/sg2_159_cif.got.tgz:316039.got - 2010.06.03 11:33:40.
