data_PCOD9009296
_publ_section_title
;
Structure prediction by ZEFSAII (Michael W. Deem and Ramdas Pophale) SiO2 
 PCOD9009296
Probable space group: P -1
;
_chemical_formula_sum "Si O2"
_cell_formula_units_Z 12
_cell_length_a 5.622918
_cell_length_b 14.142579
_cell_length_c 9.937743
_cell_angle_alpha 40.529879
_cell_angle_beta 84.489094
_cell_angle_gamma 92.389484
_cell_volume 503.083217
_symmetry_space_group_name_H-M "P -1"
_symmetry_group_IT_number 2
_symmetry_cell_setting 'triclinic'
loop_
_space_group_symop_operation_xyz
x,y,z
-x,-y,-z
loop_
_atom_site_type_symbol
_atom_site_label
_atom_site_fract_x
_atom_site_fract_y
_atom_site_fract_z
Si Si1 0.670305 0.531275 0.797600
Si Si2 0.204079 0.655309 0.685658
Si Si3 0.468031 0.761923 0.026851
Si Si4 0.486214 0.303353 0.611499
Si Si5 0.872670 0.029856 0.611893
Si Si6 0.195111 0.009010 0.862706
O O1 0.625562 0.359188 0.948408
O O2 0.686982 0.616911 0.558072
O O3 0.924528 0.585956 0.797692
O O4 0.578669 0.421254 0.185706
O O5 0.256676 0.646951 0.530485
O O6 0.247761 0.824617 0.548647
O O7 0.539519 0.680870 0.245640
O O8 0.266042 0.853388 0.989909
O O9 0.685428 0.885712 0.825867
O O10 0.419652 0.128510 0.771943
O O11 0.000000 0.000000 0.500000
O O12 0.079220 0.065641 0.675080
O O13 0.000000 0.000000 0.000000
#
# Coordination Sequence:
#
# PCOD9009296 Si02
#       6
#     2   2   2   2   2   2
#     4  10  24  40  70 103 147 176 226 289 355 413
#     4  10  22  45  65  98 139 189 221 280 357 416
#     4  12  24  40  66 109 133 179 237 288 342 415
#     4  10  21  39  68 100 141 177 225 280 355 406
#     4  12  26  46  69  97 137 188 239 286 338 415
#     4  12  23  41  74 100 139 180 233 292 348 407
#
# _framework density 23.852910000000001
#
# number of rings (size 3 to 8) (size 9 to 14) (size 15 to 20)
#    1.000    0.000    5.000    2.000    2.333    1.333 
#    0.000    1.667    0.000    0.000    0.000    0.000 
#    0.000    0.000    0.000    0.000    0.000    0.000 
#
# Total GULP energy -67107.965871 kJ/mol
# GULP energy per Si atom -5592.330489 kJ/mol
# Density = 2.379862 g / cm^3
# Si number density = 23.852910 Si / 1000 Ang^3
#
#
#
# Elastic Constant Matrix: (Units=GPa)
#
#
# Indices 1 2 3 4 5 6 
#
# 1 130.6620 15.8399 52.4522 2.1131 -12.2175 -12.0174
# 2 15.8399 87.2254 31.4626 0.0317 -5.1918 -14.2889
# 3 52.4522 31.4626 92.8885 12.4140 -5.9555 -0.3607
# 4 2.1131 0.0317 12.4140 43.2896 -9.0812 -12.0079
# 5 -12.2175 -5.1918 -5.9555 -9.0812 44.5969 -1.4874
# 6 -12.0174 -14.2889 -0.3607 -12.0079 -1.4874 28.0571
#
#
#
# Elastic Compliance Matrix: (Units=1/GPa)
#
#
# Indices 1 2 3 4 5 6 
#
# 1 0.011415 0.002175 -0.007535 0.004586 0.003577 0.008053
# 2 0.002175 0.015665 -0.007059 0.005708 0.003020 0.011422
# 3 -0.007535 -0.007059 0.018315 -0.008236 -0.002459 -0.010242
# 4 0.004586 0.005708 -0.008236 0.032172 0.008005 0.018959
# 5 0.003577 0.003020 -0.002459 0.008005 0.025317 0.007806
# 6 0.008053 0.011422 -0.010242 0.018959 0.007806 0.053304
#
#
# Mechanical properties :
#
#
# Convention : Reuss Voigt Hill
#
# Bulk Modulus (GPa) = 48.64533 56.69836 52.67184
# Shear Modulus (GPa) = 26.61314 37.25681 31.93497
#
# Velocity S-wave (km/s) = 3.34386 3.95643 3.66297
# Velocity P-wave (km/s) = 5.94531 6.68526 6.32611
#
# Compressibility (1/GPa) = 0.02055696
#
# Stress axis : x y z
#
# Youngs Moduli (GPa) = 87.60092 63.83861 54.60066
#
# Poissons Ratio (x) = -0.13887 0.41143
# Poissons Ratio (y) = -0.19056 0.38543
# Poissons Ratio (z) = 0.66009 0.45064
#
# Static dielectric constant tensor:
#      x y z
#    x 1.899310 -0.010730 0.030410 
#    y -0.010730 1.883400 0.014290 
#    z 0.030410 0.014290 1.996160 
# 
# From -- ./inp_files/21429.got.cif
#   From: 2010.05.17/outbox.cif.g08.bks.cpg/sg2_11_cif.got.tgz:21429.got - 2010.06.03 11:33:40.
