data_PCOD9009076
_publ_section_title
;
Structure prediction by ZEFSAII (Michael W. Deem and Ramdas Pophale) SiO2 
 PCOD9009076
Probable space group: P -1
;
_chemical_formula_sum "Si O2"
_cell_formula_units_Z 13
_cell_length_a 9.248469
_cell_length_b 8.236614
_cell_length_c 20.741900
_cell_angle_alpha 129.517106
_cell_angle_beta 153.004509
_cell_angle_gamma 63.487901
_cell_volume 519.437460
_symmetry_space_group_name_H-M "P -1"
_symmetry_group_IT_number 2
_symmetry_cell_setting 'triclinic'
loop_
_space_group_symop_operation_xyz
x,y,z
-x,-y,-z
loop_
_atom_site_type_symbol
_atom_site_label
_atom_site_fract_x
_atom_site_fract_y
_atom_site_fract_z
Si Si1 0.318060 0.907577 0.492197
Si Si2 0.295710 0.004349 0.749247
Si Si3 0.824373 0.525977 0.274155
Si Si4 0.300908 0.006750 0.218657
Si Si5 0.484107 0.486215 0.589911
Si Si6 0.589781 0.647475 0.816556
Si Si7 0.500000 0.500000 0.000000
O O1 0.636401 0.045590 0.695476
O O2 0.368529 0.707351 0.420484
O O3 0.097502 0.031743 0.400916
O O4 0.051665 0.777220 0.408527
O O5 0.407083 0.965493 0.711598
O O6 0.406430 0.831985 0.791184
O O7 0.489165 0.261475 0.907215
O O8 0.557160 0.507604 0.219908
O O9 0.626455 0.433536 0.106186
O O10 0.122517 0.441009 0.399344
O O11 0.285231 0.260096 0.277669
O O12 0.980165 0.803857 0.014846
O O13 0.492345 0.516832 0.677764
#
# Coordination Sequence:
#
# PCOD9009076 Si02
#       7
#     2   2   2   2   2   2   1
#     4  10  22  42  70  91 135 185 217 254 336 409
#     4  10  22  38  66  93 138 173 218 267 335 393
#     4  10  22  42  69  94 136 176 220 269 330 399
#     4  10  21  39  67 100 132 178 221 268 328 397
#     4  10  21  42  70  97 133 182 216 260 340 410
#     4  11  24  40  71 104 132 165 226 280 327 380
#     4  10  24  40  64  96 130 174 222 262 334 378
#
# _framework density 25.027073999999999
#
# number of rings (size 3 to 8) (size 9 to 14) (size 15 to 20)
#    0.000    1.846    0.000    4.615   10.769    1.846 
#    0.000    3.846    6.769    0.923    0.000    0.000 
#    0.000    0.000    0.000    0.000    0.000    0.000 
#
# Total GULP energy -72370.627197 kJ/mol
# GULP energy per Si atom -5566.971323 kJ/mol
# Density = 2.497011 g / cm^3
# Si number density = 25.027074 Si / 1000 Ang^3
#
#
#
# Elastic Constant Matrix: (Units=GPa)
#
#
# Indices 1 2 3 4 5 6 
#
# 1 110.9610 30.4111 65.6334 5.7974 -21.3752 8.4295
# 2 30.4111 81.9000 31.4788 0.8167 -2.3999 -39.5321
# 3 65.6334 31.4788 78.4496 -9.7568 -34.5733 -17.7049
# 4 5.7974 0.8167 -9.7568 35.4475 2.0844 -10.5110
# 5 -21.3752 -2.3999 -34.5733 2.0844 51.8992 4.9581
# 6 8.4295 -39.5321 -17.7049 -10.5110 4.9581 17.8839
#
#
#
# Elastic Compliance Matrix: (Units=1/GPa)
#
#
# Indices 1 2 3 4 5 6 
#
# 1 0.004335 0.012431 -0.002665 0.006482 -0.002278 0.027239
# 2 0.012431 0.006246 -0.022314 -0.013968 -0.006944 -0.020429
# 3 -0.002665 -0.022314 0.024447 -0.002192 0.017100 -0.029896
# 4 0.006482 -0.013968 -0.002192 0.019196 0.002223 -0.025435
# 5 -0.002278 -0.006944 0.017100 0.002223 0.029720 -0.004279
# 6 0.027239 -0.020429 -0.029896 -0.025435 -0.004279 -0.045440
#
#
# Mechanical properties :
#
#
# Convention : Reuss Voigt Hill
#
# Bulk Modulus (GPa) = 100.68878 58.48413 79.58645
# Shear Modulus (GPa) = 74.72657 30.63194 52.67925
#
# Velocity S-wave (km/s) = 5.47020 3.50230 4.59289
# Velocity P-wave (km/s) = 8.95638 6.30665 7.74566
#
# Compressibility (1/GPa) = 0.00993159
#
# Stress axis : x y z
#
# Youngs Moduli (GPa) = 230.69743 160.10443 40.90490
#
# Poissons Ratio (x) = -1.99029 0.10901
# Poissons Ratio (y) = -2.86785 0.91277
# Poissons Ratio (z) = 0.61477 3.57263
#
# Static dielectric constant tensor:
#      x y z
#    x 1.915320 0.020680 0.036330 
#    y 0.020680 2.041380 -0.114470 
#    z 0.036330 -0.114470 2.076300 
# 
# From -- ./inp_files/586945.got.cif
#   From: 2010.05.17/outbox.cif.g08.bks.cpg/sg2_294_cif.got.tgz:586945.got - 2010.06.03 11:33:40.
