data_PCOD9009951
_publ_section_title
;
Structure prediction by ZEFSAII (Michael W. Deem and Ramdas Pophale) SiO2 
 PCOD9009951
Probable space group: P -1
;
_chemical_formula_sum "Si O2"
_cell_formula_units_Z 8
_cell_length_a 5.314222
_cell_length_b 14.079656
_cell_length_c 12.210504
_cell_angle_alpha 21.378148
_cell_angle_beta 114.647023
_cell_angle_gamma 114.093715
_cell_volume 302.146379
_symmetry_space_group_name_H-M "P -1"
_symmetry_group_IT_number 2
_symmetry_cell_setting 'triclinic'
loop_
_space_group_symop_operation_xyz
x,y,z
-x,-y,-z
loop_
_atom_site_type_symbol
_atom_site_label
_atom_site_fract_x
_atom_site_fract_y
_atom_site_fract_z
Si Si1 0.806349 0.554290 0.802286
Si Si2 0.011553 0.716550 0.438876
Si Si3 0.741872 0.229998 0.798699
Si Si4 0.669027 0.013892 0.403055
O O1 0.003619 0.646167 0.640613
O O2 0.607266 0.773990 0.568842
O O3 0.634661 0.282588 0.046173
O O4 0.000000 0.500000 0.000000
O O5 0.771082 0.491841 0.596113
O O6 0.220599 0.677456 0.419080
O O7 0.979119 0.031159 0.090213
O O8 0.500000 0.000000 0.000000
O O9 0.500000 0.000000 0.500000
O O10 0.000000 0.000000 0.500000
#
# Coordination Sequence:
#
# PCOD9009951 Si02
#       4
#     2   2   2   2
#     4  10  21  40  62  93 130 167 211 261 326 394
#     4  10  21  40  63  90 128 163 209 268 317 386
#     4  10  21  40  64  91 122 163 216 264 323 376
#     4  10  21  40  61  86 130 172 213 260 315 389
#
# _framework density 26.477232999999998
#
# number of rings (size 3 to 8) (size 9 to 14) (size 15 to 20)
#    0.000    2.000    0.000    3.000    0.000    0.000 
#   27.000    0.000    0.000    0.000    0.000    0.000 
#    0.000    0.000    0.000    0.000    0.000    0.000 
#
# Total GULP energy -44627.134917 kJ/mol
# GULP energy per Si atom -5578.391865 kJ/mol
# Density = 2.641697 g / cm^3
# Si number density = 26.477233 Si / 1000 Ang^3
#
#
#
# Elastic Constant Matrix: (Units=GPa)
#
#
# Indices 1 2 3 4 5 6 
#
# 1 115.2204 38.0013 40.1275 12.0221 -52.0382 -23.7687
# 2 38.0013 129.6613 83.3040 10.6247 -10.2868 -21.8744
# 3 40.1275 83.3040 200.0970 -21.6906 -32.8009 -29.0026
# 4 12.0221 10.6247 -21.6906 87.7824 -24.0691 -13.4240
# 5 -52.0382 -10.2868 -32.8009 -24.0691 43.7868 11.2515
# 6 -23.7687 -21.8744 -29.0026 -13.4240 11.2515 29.8608
#
#
#
# Elastic Compliance Matrix: (Units=1/GPa)
#
#
# Indices 1 2 3 4 5 6 
#
# 1 0.030348 -0.009598 0.008781 0.013544 0.043932 0.015190
# 2 -0.009598 0.014739 -0.008184 -0.007621 -0.017884 -0.001479
# 3 0.008781 -0.008184 0.012635 0.010194 0.021031 0.009925
# 4 0.013544 -0.007621 0.010194 0.023718 0.031400 0.013930
# 5 0.043932 -0.017884 0.021031 0.031400 0.098947 0.019128
# 6 0.015190 -0.001479 0.009925 0.013930 0.019128 0.053190
#
#
# Mechanical properties :
#
#
# Convention : Reuss Voigt Hill
#
# Bulk Modulus (GPa) = 25.17536 85.31603 55.24570
# Shear Modulus (GPa) = 18.88083 51.18907 35.03495
#
# Velocity S-wave (km/s) = 2.67328 4.40173 3.64154
# Velocity P-wave (km/s) = 4.36549 7.62404 6.21223
#
# Compressibility (1/GPa) = 0.03972137
#
# Stress axis : x y z
#
# Youngs Moduli (GPa) = 32.95095 67.84564 79.14722
#
# Poissons Ratio (x) = 0.65118 -0.69500
# Poissons Ratio (y) = 0.31626 0.64770
# Poissons Ratio (z) = -0.28935 0.55522
#
# Static dielectric constant tensor:
#      x y z
#    x 1.967170 -0.067240 0.066660 
#    y -0.067240 2.240230 -0.467280 
#    z 0.066660 -0.467280 2.663160 
# 
# From -- ./inp_files/1406.got.cif
#   From: 2010.05.17/outbox.cif.g08.bks.cpg/sg2_1_cif.got.tgz:1406.got - 2010.06.03 11:33:40.
