data_PCOD9009327
_publ_section_title
;
Structure prediction by ZEFSAII (Michael W. Deem and Ramdas Pophale) SiO2 
 PCOD9009327
Probable space group: P -1
;
_chemical_formula_sum "Si O2"
_cell_formula_units_Z 14
_cell_length_a 9.020209
_cell_length_b 7.512481
_cell_length_c 21.885066
_cell_angle_alpha 37.492646
_cell_angle_beta 37.471271
_cell_angle_gamma 51.086015
_cell_volume 549.138194
_symmetry_space_group_name_H-M "P -1"
_symmetry_group_IT_number 2
_symmetry_cell_setting 'triclinic'
loop_
_space_group_symop_operation_xyz
x,y,z
-x,-y,-z
loop_
_atom_site_type_symbol
_atom_site_label
_atom_site_fract_x
_atom_site_fract_y
_atom_site_fract_z
Si Si1 0.336699 0.113262 0.736068
Si Si2 0.036792 0.885741 0.328932
Si Si3 0.467539 0.755532 0.148197
Si Si4 0.212696 0.689150 0.782172
Si Si5 0.201173 0.715312 0.128843
Si Si6 0.192597 0.741766 0.991120
Si Si7 0.117288 0.775338 0.473143
O O1 0.594907 0.257006 0.599660
O O2 0.091403 0.307585 0.767341
O O3 0.265967 0.898811 0.763299
O O4 0.364656 0.912577 0.842105
O O5 0.826330 0.110268 0.318206
O O6 0.272823 0.958179 0.190521
O O7 0.079137 0.897789 0.383641
O O8 0.272841 0.618316 0.064027
O O9 0.566661 0.537596 0.226719
O O10 0.336981 0.598238 0.176227
O O11 0.982417 0.556629 0.411516
O O12 0.305570 0.051324 0.002896
O O13 0.967496 0.502865 0.922930
O O14 0.000000 0.000000 0.000000
O O15 0.000000 0.000000 0.500000
#
# Coordination Sequence:
#
# PCOD9009327 Si02
#       7
#     2   2   2   2   2   2   2
#     4  11  22  44  72 105 146 193 244 308 363 443
#     4  11  27  51  78 111 146 199 251 315 373 444
#     4  11  22  44  75 106 154 191 243 301 369 454
#     4  12  24  42  76 111 150 190 247 305 381 443
#     4  10  22  41  70 109 147 194 240 297 369 446
#     4  10  21  39  68 111 149 192 238 299 377 446
#     4  11  27  54  78 106 148 198 260 309 375 445
#
# _framework density 25.494491
#
# number of rings (size 3 to 8) (size 9 to 14) (size 15 to 20)
#    0.000    1.143    4.286    2.143    2.000    2.857 
#    0.000    8.571    0.000    0.000    0.000    0.000 
#    0.000    0.000    0.000    0.000    0.000    0.000 
#
# Total GULP energy -78309.314268 kJ/mol
# GULP energy per Si atom -5593.522448 kJ/mol
# Density = 2.543646 g / cm^3
# Si number density = 25.494491 Si / 1000 Ang^3
#
#
#
# Elastic Constant Matrix: (Units=GPa)
#
#
# Indices 1 2 3 4 5 6 
#
# 1 160.4066 55.3962 41.0779 3.8233 2.8697 -4.6570
# 2 55.3962 120.4204 31.0909 5.4313 -6.8807 -12.9052
# 3 41.0779 31.0909 61.3078 11.9112 -15.3029 -9.5685
# 4 3.8233 5.4313 11.9112 31.0395 -9.9854 3.0500
# 5 2.8697 -6.8807 -15.3029 -9.9854 44.2469 -9.8332
# 6 -4.6570 -12.9052 -9.5685 3.0500 -9.8332 48.1649
#
#
#
# Elastic Compliance Matrix: (Units=1/GPa)
#
#
# Indices 1 2 3 4 5 6 
#
# 1 0.008651 -0.002960 -0.005490 0.000718 -0.003144 -0.001735
# 2 -0.002960 0.010701 -0.002678 -0.000263 0.001393 0.002350
# 3 -0.005490 -0.002678 0.025735 -0.006523 0.008714 0.006056
# 4 0.000718 -0.000263 -0.006523 0.036652 0.005368 -0.002522
# 5 -0.003144 0.001393 0.008714 0.005368 0.028881 0.007357
# 6 -0.001735 0.002350 0.006056 -0.002522 0.007357 0.024089
#
#
# Mechanical properties :
#
#
# Convention : Reuss Voigt Hill
#
# Bulk Modulus (GPa) = 43.80038 66.36275 55.08156
# Shear Modulus (GPa) = 30.38117 38.99493 34.68805
#
# Velocity S-wave (km/s) = 3.45581 3.91518 3.69265
# Velocity P-wave (km/s) = 5.75683 6.82092 6.31134
#
# Compressibility (1/GPa) = 0.02283085
#
# Stress axis : x y z
#
# Youngs Moduli (GPa) = 115.59095 93.45270 38.85705
#
# Poissons Ratio (x) = 0.27663 0.21334
# Poissons Ratio (y) = 0.34217 0.10405
# Poissons Ratio (z) = 0.63463 0.25024
#
# Static dielectric constant tensor:
#      x y z
#    x 2.032710 -0.038900 0.017220 
#    y -0.038900 2.060640 -0.009540 
#    z 0.017220 -0.009540 2.054410 
# 
# From -- ./inp_files/606538.got.cif
#   From: 2010.05.17/outbox.cif.g08.bks.cpg/sg2_304_cif.got.tgz:606538.got - 2010.06.03 11:33:40.
