data_PCOD9009660
_publ_section_title
;
Structure prediction by ZEFSAII (Michael W. Deem and Ramdas Pophale) SiO2 
 PCOD9009660
Probable space group: P -1
;
_chemical_formula_sum "Si O2"
_cell_formula_units_Z 16
_cell_length_a 9.262954
_cell_length_b 11.343137
_cell_length_c 14.316682
_cell_angle_alpha 94.825915
_cell_angle_beta 85.091876
_cell_angle_gamma 27.776229
_cell_volume 655.763040
_symmetry_space_group_name_H-M "P -1"
_symmetry_group_IT_number 2
_symmetry_cell_setting 'triclinic'
loop_
_space_group_symop_operation_xyz
x,y,z
-x,-y,-z
loop_
_atom_site_type_symbol
_atom_site_label
_atom_site_fract_x
_atom_site_fract_y
_atom_site_fract_z
Si Si1 0.541029 0.912298 0.289893
Si Si2 0.522334 0.674335 0.764333
Si Si3 0.755096 0.204935 0.859900
Si Si4 0.750400 0.791222 0.055808
Si Si5 0.268111 0.738437 0.337395
Si Si6 0.646826 0.540341 0.941944
Si Si7 0.226434 0.463623 0.619179
Si Si8 0.575923 0.125226 0.398348
O O1 0.683382 0.915540 0.346841
O O2 0.142127 0.213677 0.346463
O O3 0.595767 0.887175 0.173868
O O4 0.711557 0.670524 0.306567
O O5 0.596298 0.490207 0.709776
O O6 0.687833 0.583673 0.847495
O O7 0.588799 0.711263 0.677887
O O8 0.136110 0.955904 0.828622
O O9 0.707638 0.203256 0.755950
O O10 0.566022 0.468498 0.903735
O O11 0.622521 0.222116 0.951940
O O12 0.003469 0.715006 0.044279
O O13 0.000000 0.500000 0.000000
O O14 0.500000 0.000000 0.000000
O O15 0.503798 0.629119 0.389989
O O16 0.885606 0.985918 0.392674
O O17 0.333336 0.313442 0.510890
#
# Coordination Sequence:
#
# PCOD9009660 Si02
#       8
#     2   2   2   2   2   2   2   2
#     4  12  29  51  75 107 153 194 250 296 371 446
#     4  10  21  39  72 103 139 191 238 307 356 442
#     4   9  20  39  65 101 133 187 233 302 357 436
#     4  12  29  47  72 105 143 195 232 297 363 442
#     4  10  24  42  71 105 147 182 245 305 371 429
#     4  10  22  40  66  96 142 181 250 286 366 430
#     4  12  29  48  77 111 149 195 246 315 365 426
#     4  11  26  48  76 103 146 196 255 296 370 434
#
# _framework density 24.399056999999999
#
# number of rings (size 3 to 8) (size 9 to 14) (size 15 to 20)
#    0.000    1.250    0.000    4.500   15.750    0.500 
#    0.000    0.000    0.000    0.000    0.000    0.000 
#    0.000    0.000    0.000    0.000    0.000    0.000 
#
# Total GULP energy -89429.044124 kJ/mol
# GULP energy per Si atom -5589.315258 kJ/mol
# Density = 2.434352 g / cm^3
# Si number density = 24.399057 Si / 1000 Ang^3
#
#
#
# Elastic Constant Matrix: (Units=GPa)
#
#
# Indices 1 2 3 4 5 6 
#
# 1 69.2242 9.7810 11.5724 -9.1853 10.1727 -17.6056
# 2 9.7810 85.1843 27.3715 -6.5616 -0.7665 -10.1312
# 3 11.5724 27.3715 91.1910 35.9238 -16.7329 -25.1958
# 4 -9.1853 -6.5616 35.9238 19.2333 10.4515 11.0533
# 5 10.1727 -0.7665 -16.7329 10.4515 24.0136 -7.4989
# 6 -17.6056 -10.1312 -25.1958 11.0533 -7.4989 36.2236
#
#
#
# Elastic Compliance Matrix: (Units=1/GPa)
#
#
# Indices 1 2 3 4 5 6 
#
# 1 0.016462 -0.001803 0.002707 -0.003634 -0.000308 0.010425
# 2 -0.001803 0.012048 0.000825 -0.004352 0.005335 0.005500
# 3 0.002707 0.000825 -0.002656 0.019778 -0.014495 -0.009337
# 4 -0.003634 -0.004352 0.019778 -0.016692 0.029296 0.021932
# 5 -0.000308 0.005335 -0.014495 0.029296 0.014510 -0.014675
# 6 0.010425 0.005500 -0.009337 0.021932 -0.014675 0.017987
#
#
# Mechanical properties :
#
#
# Convention : Reuss Voigt Hill
#
# Bulk Modulus (GPa) = 34.11407 38.11657 36.11532
# Shear Modulus (GPa) = 104.22919 29.01908 66.62414
#
# Velocity S-wave (km/s) = 6.54303 3.45244 5.23119
# Velocity P-wave (km/s) = 8.43171 5.61681 7.16388
#
# Compressibility (1/GPa) = 0.02931342
#
# Stress axis : x y z
#
# Youngs Moduli (GPa) = 60.74426 83.00131 -376.48224
#
# Poissons Ratio (x) = 0.14965 1.01924
# Poissons Ratio (y) = 0.10952 0.31068
# Poissons Ratio (z) = -0.16445 -0.06849
#
# Static dielectric constant tensor:
#      x y z
#    x 2.005210 0.015430 -0.037700 
#    y 0.015430 1.982200 -0.025010 
#    z -0.037700 -0.025010 1.953370 
# 
# From -- ./inp_files/500467.got.cif
#   From: 2010.05.17/outbox.cif.g08.bks.cpg/sg2_251_cif.got.tgz:500467.got - 2010.06.03 11:33:40.
