data_PCOD9009346
_publ_section_title
;
Structure prediction by ZEFSAII (Michael W. Deem and Ramdas Pophale) SiO2 
 PCOD9009346
Probable space group: P -1
;
_chemical_formula_sum "Si O2"
_cell_formula_units_Z 12
_cell_length_a 21.369185
_cell_length_b 13.820155
_cell_length_c 8.319543
_cell_angle_alpha 35.336740
_cell_angle_beta 143.351219
_cell_angle_gamma 159.924927
_cell_volume 479.647939
_symmetry_space_group_name_H-M "P -1"
_symmetry_group_IT_number 2
_symmetry_cell_setting 'triclinic'
loop_
_space_group_symop_operation_xyz
x,y,z
-x,-y,-z
loop_
_atom_site_type_symbol
_atom_site_label
_atom_site_fract_x
_atom_site_fract_y
_atom_site_fract_z
Si Si1 0.821432 0.668045 0.144696
Si Si2 0.559901 0.757030 0.149045
Si Si3 0.760123 0.081708 0.647827
Si Si4 0.597062 0.470466 0.508740
Si Si5 0.148676 0.470042 0.932132
Si Si6 0.822257 0.344845 0.759239
O O1 0.776268 0.497059 0.126986
O O2 0.848651 0.575887 0.470279
O O3 0.632909 0.522028 0.966038
O O4 0.000000 0.000000 0.000000
O O5 0.684281 0.769809 0.313170
O O6 0.521681 0.693892 0.345329
O O7 0.646031 0.051051 0.894369
O O8 0.806111 0.272645 0.336223
O O9 0.788389 0.213116 0.695953
O O10 0.925838 0.164205 0.882776
O O11 0.552044 0.747291 0.644109
O O12 0.744920 0.513250 0.750694
O O13 0.000000 0.500000 0.000000
#
# Coordination Sequence:
#
# PCOD9009346 Si02
#       6
#     2   2   2   2   2   2
#     4  10  21  41  69  93 125 171 217 261 321 387
#     4  10  23  40  65  97 129 165 215 269 319 380
#     4  10  21  40  61  91 130 171 212 263 320 382
#     4  10  21  39  68  92 126 169 221 258 320 386
#     4   9  20  35  62  94 120 164 220 257 310 386
#     4  11  26  41  62  98 134 165 212 271 325 374
#
# _framework density 25.018349000000001
#
# number of rings (size 3 to 8) (size 9 to 14) (size 15 to 20)
#    0.000    2.000    0.000    2.000   14.000    0.667 
#    3.000    0.833    0.000    0.000    0.000    0.000 
#    0.000    0.000    0.000    0.000    0.000    0.000 
#
# Total GULP energy -66976.500773 kJ/mol
# GULP energy per Si atom -5581.375064 kJ/mol
# Density = 2.496141 g / cm^3
# Si number density = 25.018349 Si / 1000 Ang^3
#
#
#
# Elastic Constant Matrix: (Units=GPa)
#
#
# Indices 1 2 3 4 5 6 
#
# 1 38.9693 4.7313 19.0997 13.6791 3.0970 -5.1276
# 2 4.7313 126.9060 70.9066 14.4137 0.4173 2.1464
# 3 19.0997 70.9066 153.7129 6.7795 7.1738 5.9166
# 4 13.6791 14.4137 6.7795 49.8149 12.0994 -8.1929
# 5 3.0970 0.4173 7.1738 12.0994 30.0362 3.9047
# 6 -5.1276 2.1464 5.9166 -8.1929 3.9047 31.2296
#
#
#
# Elastic Compliance Matrix: (Units=1/GPa)
#
#
# Indices 1 2 3 4 5 6 
#
# 1 0.030971 0.002358 -0.004750 -0.008121 0.000711 0.003604
# 2 0.002358 0.011260 -0.005407 -0.003907 0.002558 -0.000707
# 3 -0.004750 -0.005407 0.009672 0.001874 -0.002310 -0.001460
# 4 -0.008121 -0.003907 0.001874 0.027122 -0.011407 0.007122
# 5 0.000711 0.002558 -0.002310 -0.011407 0.039310 -0.007529
# 6 0.003604 -0.000707 -0.001460 0.007122 -0.007529 0.035748
#
#
# Mechanical properties :
#
#
# Convention : Reuss Voigt Hill
#
# Bulk Modulus (GPa) = 27.54410 56.56259 42.05335
# Shear Modulus (GPa) = 27.50551 37.20618 32.35585
#
# Velocity S-wave (km/s) = 3.31934 3.86055 3.60013
# Velocity P-wave (km/s) = 5.07190 6.52145 5.84181
#
# Compressibility (1/GPa) = 0.03630541
#
# Stress axis : x y z
#
# Youngs Moduli (GPa) = 32.28814 88.80627 103.39628
#
# Poissons Ratio (x) = -0.20943 0.49113
# Poissons Ratio (y) = -0.07615 0.55909
# Poissons Ratio (z) = 0.15337 0.48019
#
# Static dielectric constant tensor:
#      x y z
#    x 2.016750 -0.008930 0.061570 
#    y -0.008930 2.021600 -0.021170 
#    z 0.061570 -0.021170 2.143530 
# 
# From -- ./inp_files/155862.got.cif
#   From: 2010.05.17/outbox.cif.g08.bks.cpg/sg2_78_cif.got.tgz:155862.got - 2010.06.03 11:33:40.
