data_PCOD9009177
_publ_section_title
;
Structure prediction by ZEFSAII (Michael W. Deem and Ramdas Pophale) SiO2 
 PCOD9009177
Probable space group: P -1
;
_chemical_formula_sum "Si O2"
_cell_formula_units_Z 16
_cell_length_a 17.885241
_cell_length_b 8.219107
_cell_length_c 15.240764
_cell_angle_alpha 104.360405
_cell_angle_beta 156.163344
_cell_angle_gamma 91.159109
_cell_volume 680.358891
_symmetry_space_group_name_H-M "P -1"
_symmetry_group_IT_number 2
_symmetry_cell_setting 'triclinic'
loop_
_space_group_symop_operation_xyz
x,y,z
-x,-y,-z
loop_
_atom_site_type_symbol
_atom_site_label
_atom_site_fract_x
_atom_site_fract_y
_atom_site_fract_z
Si Si1 0.288513 0.498778 0.741666
Si Si2 0.485618 0.207664 0.122655
Si Si3 0.130162 0.615493 0.061702
Si Si4 0.745006 0.814397 0.949921
Si Si5 0.398842 0.324919 0.466804
Si Si6 0.078915 0.726820 0.360041
Si Si7 0.117489 0.772796 0.603387
Si Si8 0.968321 0.087580 0.078918
O O1 0.337389 0.555390 0.698699
O O2 0.054550 0.291140 0.508204
O O3 0.257128 0.678275 0.759233
O O4 0.500000 0.500000 0.000000
O O5 0.357303 0.199796 0.068251
O O6 0.641765 0.136593 0.308393
O O7 0.705946 0.968206 0.176494
O O8 0.393948 0.687214 0.340000
O O9 0.121088 0.808341 0.061313
O O10 0.990091 0.459642 0.806610
O O11 0.000000 0.500000 0.000000
O O12 0.532148 0.580118 0.646465
O O13 0.848639 0.032049 0.038146
O O14 0.972828 0.826684 0.212167
O O15 0.173975 0.160207 0.140203
O O16 0.251484 0.226427 0.387586
O O17 0.987984 0.672421 0.356696
#
# Coordination Sequence:
#
# PCOD9009177 Si02
#       8
#     2   2   2   2   2   2   2   2
#     4  10  21  39  67  94 130 175 222 274 328 384
#     4  11  24  43  68  97 136 176 221 276 332 393
#     4  11  26  44  73  99 136 179 222 281 341 403
#     4  11  25  42  66 100 136 175 224 281 331 400
#     4  10  25  44  66  96 136 173 226 277 331 403
#     4  10  23  43  64  95 136 174 218 278 339 391
#     4  10  23  43  65  95 133 178 223 270 330 400
#     4  11  25  43  71  98 131 184 224 272 345 401
#
# _framework density 23.516997
#
# number of rings (size 3 to 8) (size 9 to 14) (size 15 to 20)
#    0.000    1.500    0.000    3.750   10.500    8.000 
#    0.000    6.250    0.000    0.000    0.000    0.000 
#    0.000    0.000    0.000    0.000    0.000    0.000 
#
# Total GULP energy -89167.490059 kJ/mol
# GULP energy per Si atom -5572.968129 kJ/mol
# Density = 2.346347 g / cm^3
# Si number density = 23.516997 Si / 1000 Ang^3
#
#
#
# Elastic Constant Matrix: (Units=GPa)
#
#
# Indices 1 2 3 4 5 6 
#
# 1 122.0686 41.1287 47.8029 19.1729 16.4514 13.2661
# 2 41.1287 95.4000 49.7396 7.3336 3.7051 18.2910
# 3 47.8029 49.7396 99.2659 5.1892 23.6205 15.5106
# 4 19.1729 7.3336 5.1892 38.6285 1.9295 7.9572
# 5 16.4514 3.7051 23.6205 1.9295 42.6583 -4.5190
# 6 13.2661 18.2910 15.5106 7.9572 -4.5190 15.6763
#
#
#
# Elastic Compliance Matrix: (Units=1/GPa)
#
#
# Indices 1 2 3 4 5 6 
#
# 1 0.011502 -0.002458 -0.003100 -0.004202 -0.002571 -0.002407
# 2 -0.002458 0.016646 -0.005661 0.001224 0.001312 -0.011984
# 3 -0.003100 -0.005661 0.018956 0.003547 -0.010490 -0.014353
# 4 -0.004202 0.001224 0.003547 0.031230 -0.003804 -0.018331
# 5 -0.002571 0.001312 -0.010490 -0.003804 0.032670 0.022373
# 6 -0.002407 -0.011984 -0.014353 -0.018331 0.022373 0.109765
#
#
# Mechanical properties :
#
#
# Convention : Reuss Voigt Hill
#
# Bulk Modulus (GPa) = 40.53945 66.00853 53.27399
# Shear Modulus (GPa) = 19.88618 31.26352 25.57485
#
# Velocity S-wave (km/s) = 2.91109 3.65005 3.30131
# Velocity P-wave (km/s) = 5.34556 6.77445 6.10198
#
# Compressibility (1/GPa) = 0.02466733
#
# Stress axis : x y z
#
# Youngs Moduli (GPa) = 86.93889 60.07424 52.75252
#
# Poissons Ratio (x) = 0.14769 0.16352
# Poissons Ratio (y) = 0.21373 0.29861
# Poissons Ratio (z) = 0.26949 0.34005
#
# Static dielectric constant tensor:
#      x y z
#    x 2.070960 0.021840 -0.009090 
#    y 0.021840 1.931970 0.012240 
#    z -0.009090 0.012240 1.897380 
# 
# From -- ./inp_files/577336.got.cif
#   From: 2010.05.17/outbox.cif.g08.bks.cpg/sg2_289_cif.got.tgz:577336.got - 2010.06.03 11:33:40.
