data_PCOD9009295
_publ_section_title
;
Structure prediction by ZEFSAII (Michael W. Deem and Ramdas Pophale) SiO2 
 PCOD9009295
Probable space group: P -1
;
_chemical_formula_sum "Si O2"
_cell_formula_units_Z 14
_cell_length_a 7.309422
_cell_length_b 12.521237
_cell_length_c 7.827714
_cell_angle_alpha 106.687301
_cell_angle_beta 105.383694
_cell_angle_gamma 112.626351
_cell_volume 573.378901
_symmetry_space_group_name_H-M "P -1"
_symmetry_group_IT_number 2
_symmetry_cell_setting 'triclinic'
loop_
_space_group_symop_operation_xyz
x,y,z
-x,-y,-z
loop_
_atom_site_type_symbol
_atom_site_label
_atom_site_fract_x
_atom_site_fract_y
_atom_site_fract_z
Si Si1 0.659558 0.551504 0.727172
Si Si2 0.247472 0.609164 0.078855
Si Si3 0.689454 0.090040 0.224163
Si Si4 0.754656 0.814672 0.010088
Si Si5 0.110739 0.625107 0.700914
Si Si6 0.872030 0.932793 0.731120
Si Si7 0.448756 0.123796 0.680292
O O1 0.500000 0.500000 0.500000
O O2 0.614969 0.435935 0.791788
O O3 0.904110 0.618759 0.741463
O O4 0.673048 0.667157 0.893250
O O5 0.312293 0.752401 0.221887
O O6 0.000000 0.500000 0.000000
O O7 0.253530 0.609143 0.875735
O O8 0.922042 0.092986 0.250676
O O9 0.745632 0.869113 0.845176
O O10 0.591092 0.016543 0.345292
O O11 0.500000 0.000000 0.000000
O O12 0.011521 0.912214 0.159049
O O13 0.634642 0.838450 0.148929
O O14 0.248106 0.762031 0.705966
O O15 0.000000 0.500000 0.500000
O O16 0.710900 0.883362 0.510695
#
# Coordination Sequence:
#
# PCOD9009295 Si02
#       7
#     2   2   2   2   2   2   2
#     4  11  24  43  70  96 137 183 232 287 351 411
#     4  10  24  44  64  95 143 181 225 288 347 415
#     4  11  21  40  69  94 134 181 224 282 349 411
#     4  10  21  39  68 100 139 171 225 295 347 398
#     4  11  25  44  67  98 142 184 228 283 355 422
#     4  10  22  41  67 104 136 173 230 294 346 411
#     4  11  23  42  72 102 135 180 239 284 349 418
#
# _framework density 24.416661999999999
#
# number of rings (size 3 to 8) (size 9 to 14) (size 15 to 20)
#    0.000    1.429    2.857    2.571    2.000    2.857 
#    0.000    0.000    0.000   18.857    0.000    0.000 
#    0.000    0.000    0.000    0.000    0.000    0.000 
#
# Total GULP energy -78250.703762 kJ/mol
# GULP energy per Si atom -5589.335983 kJ/mol
# Density = 2.436109 g / cm^3
# Si number density = 24.416662 Si / 1000 Ang^3
#
#
#
# Elastic Constant Matrix: (Units=GPa)
#
#
# Indices 1 2 3 4 5 6 
#
# 1 93.3610 18.7773 23.4005 4.6921 12.9365 7.3909
# 2 18.7773 182.1854 85.2227 19.6019 14.7888 11.9361
# 3 23.4005 85.2227 178.7694 -8.1148 30.1309 3.2906
# 4 4.6921 19.6019 -8.1148 48.9737 -1.6464 4.9974
# 5 12.9365 14.7888 30.1309 -1.6464 30.7920 6.2628
# 6 7.3909 11.9361 3.2906 4.9974 6.2628 26.8664
#
#
#
# Elastic Compliance Matrix: (Units=1/GPa)
#
#
# Indices 1 2 3 4 5 6 
#
# 1 0.011681 -0.000302 -0.000780 -0.001053 -0.003662 -0.001934
# 2 -0.000302 0.007832 -0.003888 -0.003492 0.000467 -0.002380
# 3 -0.000780 -0.003888 0.008750 0.002663 -0.006614 0.001917
# 4 -0.001053 -0.003492 0.002663 0.022712 0.001343 -0.003023
# 5 -0.003662 0.000467 -0.006614 0.001343 0.042052 -0.008442
# 6 -0.001934 -0.002380 0.001917 -0.003023 -0.008442 0.041106
#
#
# Mechanical properties :
#
#
# Convention : Reuss Voigt Hill
#
# Bulk Modulus (GPa) = 54.57380 78.79074 66.68227
# Shear Modulus (GPa) = 33.29345 43.12077 38.20711
#
# Velocity S-wave (km/s) = 3.69664 4.20699 3.96004
# Velocity P-wave (km/s) = 6.37336 7.47914 6.94829
#
# Compressibility (1/GPa) = 0.01832381
#
# Stress axis : x y z
#
# Youngs Moduli (GPa) = 85.61048 127.67670 114.29055
#
# Poissons Ratio (x) = 0.03851 0.08917
# Poissons Ratio (y) = 0.02582 0.44432
# Poissons Ratio (z) = 0.06679 0.49636
#
# Static dielectric constant tensor:
#      x y z
#    x 2.123270 -0.085460 0.004490 
#    y -0.085460 2.104840 -0.037030 
#    z 0.004490 -0.037030 1.973210 
# 
# From -- ./inp_files/181960.got.cif
#   From: 2010.05.17/outbox.cif.g08.bks.cpg/sg2_91_cif.got.tgz:181960.got - 2010.06.03 11:33:40.
