data_PCOD9009759
_publ_section_title
;
Structure prediction by ZEFSAII (Michael W. Deem and Ramdas Pophale) SiO2 
 PCOD9009759
Probable space group: P -1
;
_chemical_formula_sum "Si O2"
_cell_formula_units_Z 12
_cell_length_a 11.736655
_cell_length_b 16.749825
_cell_length_c 17.059158
_cell_angle_alpha 16.832558
_cell_angle_beta 35.899597
_cell_angle_gamma 39.025669
_cell_volume 569.411383
_symmetry_space_group_name_H-M "P -1"
_symmetry_group_IT_number 2
_symmetry_cell_setting 'triclinic'
loop_
_space_group_symop_operation_xyz
x,y,z
-x,-y,-z
loop_
_atom_site_type_symbol
_atom_site_label
_atom_site_fract_x
_atom_site_fract_y
_atom_site_fract_z
Si Si1 0.741333 0.854503 0.209572
Si Si2 0.918736 0.833172 0.893996
Si Si3 0.640910 0.826484 0.913619
Si Si4 0.820887 0.300657 0.262956
Si Si5 0.899645 0.743029 0.378169
Si Si6 0.069205 0.588975 0.576845
O O1 0.725668 0.831959 0.334188
O O2 0.766879 0.565337 0.422187
O O3 0.569375 0.035823 0.100356
O O4 0.945704 0.009826 0.936023
O O5 0.733797 0.777140 0.993760
O O6 0.105524 0.837158 0.728617
O O7 0.879208 0.116432 0.694295
O O8 0.959672 0.602638 0.152268
O O9 0.771354 0.059502 0.578169
O O10 0.651082 0.532425 0.139861
O O11 0.000000 0.500000 0.000000
O O12 0.000000 0.500000 0.500000
O O13 0.887772 0.633761 0.575960
#
# Coordination Sequence:
#
# PCOD9009759 Si02
#       6
#     2   2   2   2   2   2
#     4  10  22  39  61  92 114 154 199 240 296 339
#     4  11  21  37  59  87 122 157 187 234 294 351
#     4  11  23  37  63  89 120 152 198 245 279 348
#     4  10  21  40  59  83 118 164 201 228 279 347
#     4   9  20  40  61  83 116 158 199 234 289 357
#     4  11  21  37  60  88 120 157 184 237 297 360
#
# _framework density 21.074394999999999
#
# number of rings (size 3 to 8) (size 9 to 14) (size 15 to 20)
#    0.000    1.667    1.667    5.000    4.667    1.333 
#    0.000    0.000    0.000    6.000    0.000    0.000 
#    0.000    0.000    0.000    0.000    0.000    0.000 
#
# Total GULP energy -66938.151314 kJ/mol
# GULP energy per Si atom -5578.179276 kJ/mol
# Density = 2.102643 g / cm^3
# Si number density = 21.074395 Si / 1000 Ang^3
#
#
#
# Elastic Constant Matrix: (Units=GPa)
#
#
# Indices 1 2 3 4 5 6 
#
# 1 66.6657 57.6165 51.9460 -4.9169 10.7150 59.6496
# 2 57.6165 82.0207 9.0294 -22.4667 5.9995 1.0127
# 3 51.9460 9.0294 111.2830 -3.3544 25.2416 -1.5261
# 4 -4.9169 -22.4667 -3.3544 38.2429 5.2047 11.1581
# 5 10.7150 5.9995 25.2416 5.2047 35.4506 19.4670
# 6 59.6496 1.0127 -1.5261 11.1581 19.4670 -13.9657
#
#
#
# Elastic Compliance Matrix: (Units=1/GPa)
#
#
# Indices 1 2 3 4 5 6 
#
# 1 0.008002 -0.006945 -0.001233 -0.006840 -0.008454 0.016559
# 2 -0.006945 0.021006 0.001244 0.014958 0.002507 -0.012829
# 3 -0.001233 0.001244 0.010273 0.004223 -0.003493 -0.007794
# 4 -0.006840 0.014958 0.004223 0.037043 -0.005359 -0.006465
# 5 -0.008454 0.002507 -0.003493 -0.005359 0.031427 0.003981
# 6 0.016559 -0.012829 -0.007794 -0.006465 0.003981 -0.000575
#
#
# Mechanical properties :
#
#
# Convention : Reuss Voigt Hill
#
# Bulk Modulus (GPa) = 39.35097 55.23923 47.29510
# Shear Modulus (GPa) = 38.60567 21.37073 29.98820
#
# Velocity S-wave (km/s) = 4.28468 3.18789 3.77632
# Velocity P-wave (km/s) = 6.57198 6.31020 6.44242
#
# Compressibility (1/GPa) = 0.02541233
#
# Stress axis : x y z
#
# Youngs Moduli (GPa) = 124.97496 47.60570 97.33846
#
# Poissons Ratio (x) = 0.33061 0.12004
# Poissons Ratio (y) = 0.86792 -0.12105
# Poissons Ratio (z) = 0.15412 -0.05920
#
# Static dielectric constant tensor:
#      x y z
#    x 1.816670 -0.011760 0.014800 
#    y -0.011760 1.809680 0.015850 
#    z 0.014800 0.015850 1.830910 
# 
# From -- ./inp_files/63952.got.cif
#   From: 2010.05.17/outbox.cif.g08.bks.cpg/sg2_32_cif.got.tgz:63952.got - 2010.06.03 11:33:40.
