data_PCOD9009556
_publ_section_title
;
Structure prediction by ZEFSAII (Michael W. Deem and Ramdas Pophale) SiO2 
 PCOD9009556
Probable space group: P -1
;
_chemical_formula_sum "Si O2"
_cell_formula_units_Z 16
_cell_length_a 14.083247
_cell_length_b 14.344983
_cell_length_c 11.087706
_cell_angle_alpha 104.601171
_cell_angle_beta 30.832240
_cell_angle_gamma 121.427802
_cell_volume 876.139419
_symmetry_space_group_name_H-M "P -1"
_symmetry_group_IT_number 2
_symmetry_cell_setting 'triclinic'
loop_
_space_group_symop_operation_xyz
x,y,z
-x,-y,-z
loop_
_atom_site_type_symbol
_atom_site_label
_atom_site_fract_x
_atom_site_fract_y
_atom_site_fract_z
Si Si1 0.784771 0.861258 0.727601
Si Si2 0.549052 0.363906 0.120574
Si Si3 0.636577 0.127611 0.826853
Si Si4 0.152105 0.452542 0.800242
Si Si5 0.057656 0.231977 0.264243
Si Si6 0.920306 0.340429 0.777888
Si Si7 0.745922 0.521836 0.747594
Si Si8 0.656690 0.599565 0.204188
O O1 0.703199 0.760449 0.678155
O O2 0.837157 0.812957 0.772203
O O3 0.555280 0.854141 0.992258
O O4 0.000000 0.000000 0.500000
O O5 0.560872 0.475352 0.194065
O O6 0.703526 0.344972 0.029716
O O7 0.690800 0.412953 0.854161
O O8 0.813402 0.223782 0.770268
O O9 0.779348 0.134166 0.557568
O O10 0.500000 0.000000 0.000000
O O11 0.419299 0.566402 0.509140
O O12 0.181467 0.394841 0.866451
O O13 0.029391 0.354944 0.793059
O O14 0.000000 0.500000 0.000000
O O15 0.096137 0.353443 0.309753
O O16 0.195190 0.281628 0.004281
O O17 0.131166 0.455418 0.506213
O O18 0.500000 0.500000 0.000000
#
# Coordination Sequence:
#
# PCOD9009556 Si02
#       8
#     2   2   2   2   2   2   2   2
#     4  11  21  32  53  82 115 146 177 220 273 335
#     4  10  19  33  51  83 109 142 178 219 283 342
#     4  10  21  35  55  87 113 142 183 221 282 337
#     4  11  22  38  54  81 113 150 192 225 273 324
#     4  10  20  35  53  81 114 146 177 227 279 332
#     4  10  20  32  54  78 113 144 176 228 272 332
#     4  10  17  29  49  79 111 139 171 216 284 344
#     4  10  23  37  57  80 113 150 186 230 272 330
#
# _framework density 18.261932999999999
#
# number of rings (size 3 to 8) (size 9 to 14) (size 15 to 20)
#    0.000    1.750    3.750    1.875    1.750    2.000 
#    0.000    0.000    0.000    0.750    0.000    8.750 
#    0.000    0.000    0.000    0.000    0.000    0.000 
#
# Total GULP energy -89111.899696 kJ/mol
# GULP energy per Si atom -5569.493731 kJ/mol
# Density = 1.822037 g / cm^3
# Si number density = 18.261933 Si / 1000 Ang^3
#
#
#
# Elastic Constant Matrix: (Units=GPa)
#
#
# Indices 1 2 3 4 5 6 
#
# 1 131.1548 29.4682 54.9658 -5.7585 -3.4271 -13.0785
# 2 29.4682 51.3427 31.5660 -11.4122 3.1615 -9.8084
# 3 54.9658 31.5660 110.0386 -5.1756 1.6459 -13.7937
# 4 -5.7585 -11.4122 -5.1756 33.0460 -7.6283 -2.4758
# 5 -3.4271 3.1615 1.6459 -7.6283 27.8561 -0.4433
# 6 -13.0785 -9.8084 -13.7937 -2.4758 -0.4433 26.0826
#
#
#
# Elastic Compliance Matrix: (Units=1/GPa)
#
#
# Indices 1 2 3 4 5 6 
#
# 1 0.010268 -0.003005 -0.004012 0.000754 0.002080 0.002004
# 2 -0.003005 0.027645 -0.005141 0.008568 -0.000746 0.006971
# 3 -0.004012 -0.005141 0.012913 -0.000411 -0.000740 0.002833
# 4 0.000754 0.008568 -0.000411 0.035905 0.009087 0.006945
# 5 0.002080 -0.000746 -0.000740 0.009087 0.038802 0.001893
# 6 0.002004 0.006971 0.002833 0.006945 0.001893 0.044155
#
#
# Mechanical properties :
#
#
# Convention : Reuss Voigt Hill
#
# Bulk Modulus (GPa) = 37.72063 58.28178 48.00120
# Shear Modulus (GPa) = 24.64995 29.16602 26.90798
#
# Velocity S-wave (km/s) = 3.67795 4.00070 3.84271
# Velocity P-wave (km/s) = 6.22387 7.30236 6.78458
#
# Compressibility (1/GPa) = 0.02651069
#
# Stress axis : x y z
#
# Youngs Moduli (GPa) = 97.38817 36.17344 77.43990
#
# Poissons Ratio (x) = 0.10869 0.31066
# Poissons Ratio (y) = 0.29263 0.39814
# Poissons Ratio (z) = 0.39068 0.18598
#
# Static dielectric constant tensor:
#      x y z
#    x 1.896380 -0.172290 0.149350 
#    y -0.172290 1.792980 -0.107360 
#    z 0.149350 -0.107360 1.828300 
# 
# From -- ./inp_files/453871.got.cif
#   From: 2010.05.17/outbox.cif.g08.bks.cpg/sg2_227_cif.got.tgz:453871.got - 2010.06.03 11:33:40.
