data_PCOD9009046
_publ_section_title
;
Structure prediction by ZEFSAII (Michael W. Deem and Ramdas Pophale) SiO2 
 PCOD9009046
Probable space group: P -1
;
_chemical_formula_sum "Si O2"
_cell_formula_units_Z 14
_cell_length_a 7.635298
_cell_length_b 22.362596
_cell_length_c 7.922771
_cell_angle_alpha 135.174082
_cell_angle_beta 51.378331
_cell_angle_gamma 147.107269
_cell_volume 516.444436
_symmetry_space_group_name_H-M "P -1"
_symmetry_group_IT_number 2
_symmetry_cell_setting 'triclinic'
loop_
_space_group_symop_operation_xyz
x,y,z
-x,-y,-z
loop_
_atom_site_type_symbol
_atom_site_label
_atom_site_fract_x
_atom_site_fract_y
_atom_site_fract_z
Si Si1 0.794736 0.476193 0.851837
Si Si2 0.959752 0.898828 0.699705
Si Si3 0.187589 0.976704 0.163751
Si Si4 0.699800 0.260160 0.056170
Si Si5 0.099808 0.225406 0.846729
Si Si6 0.656972 0.148079 0.500355
Si Si7 0.138904 0.410403 0.604421
O O1 0.411398 0.360346 0.859664
O O2 0.930149 0.418205 0.634950
O O3 0.855019 0.538403 0.119410
O O4 0.009637 0.593430 0.838129
O O5 0.971468 0.856681 0.427511
O O6 0.247358 0.923800 0.665303
O O7 0.925850 0.989260 0.847232
O O8 0.625202 0.787801 0.773964
O O9 0.901041 0.833983 0.107190
O O10 0.340413 0.069896 0.418490
O O11 0.500000 0.000000 0.000000
O O12 0.642759 0.195580 0.781829
O O13 0.823488 0.219862 0.023675
O O14 0.951884 0.272654 0.472677
O O15 0.500000 0.500000 0.500000
#
# Coordination Sequence:
#
# PCOD9009046 Si02
#       7
#     2   2   2   2   2   2   2
#     4  10  22  39  66 101 136 178 222 284 337 402
#     4  11  24  46  71 101 133 186 226 280 351 398
#     4  12  26  48  69 101 138 183 232 283 341 406
#     4  10  22  45  68 102 138 175 228 281 348 402
#     4  11  24  43  66 100 141 174 232 283 332 410
#     4  10  25  46  68 100 139 177 229 288 333 411
#     4  10  21  39  66  98 136 181 226 275 343 404
#
# _framework density 27.108435
#
# number of rings (size 3 to 8) (size 9 to 14) (size 15 to 20)
#    0.000    1.429    1.429    2.571    2.000    4.571 
#    5.143    0.000    0.000    0.000    0.000    0.000 
#    0.000    0.000    0.000    0.000    0.000    0.000 
#
# Total GULP energy -78367.661170 kJ/mol
# GULP energy per Si atom -5597.690084 kJ/mol
# Density = 2.704673 g / cm^3
# Si number density = 27.108435 Si / 1000 Ang^3
#
#
#
# Elastic Constant Matrix: (Units=GPa)
#
#
# Indices 1 2 3 4 5 6 
#
# 1 174.4098 56.3044 28.6852 -2.6740 -22.9186 -10.1432
# 2 56.3044 195.1001 10.1745 -2.1287 -17.1722 -2.4147
# 3 28.6852 10.1745 73.6014 -6.5450 -28.1611 -9.5265
# 4 -2.6740 -2.1287 -6.5450 34.8017 5.3129 -4.7751
# 5 -22.9186 -17.1722 -28.1611 5.3129 31.1695 -5.2700
# 6 -10.1432 -2.4147 -9.5265 -4.7751 -5.2700 46.0781
#
#
#
# Elastic Compliance Matrix: (Units=1/GPa)
#
#
# Indices 1 2 3 4 5 6 
#
# 1 0.006991 -0.001619 -0.000833 -0.000063 0.003795 0.001709
# 2 -0.001619 0.005813 0.001070 0.000037 0.003060 0.000523
# 3 -0.000833 0.001070 0.023294 0.002052 0.021925 0.007409
# 4 -0.000063 0.000037 0.002052 0.029976 -0.002740 0.003205
# 5 0.003795 0.003060 0.021925 -0.002740 0.058861 0.011977
# 6 0.001709 0.000523 0.007409 0.003205 0.011977 0.025340
#
#
# Mechanical properties :
#
#
# Convention : Reuss Voigt Hill
#
# Bulk Modulus (GPa) = 30.00119 70.38216 50.19167
# Shear Modulus (GPa) = 30.45992 45.60633 38.03313
#
# Velocity S-wave (km/s) = 3.35570 4.10612 3.74973
# Velocity P-wave (km/s) = 5.10935 6.96418 6.10759
#
# Compressibility (1/GPa) = 0.03333201
#
# Stress axis : x y z
#
# Youngs Moduli (GPa) = 143.04985 172.01574 42.92969
#
# Poissons Ratio (x) = 0.27858 0.03576
# Poissons Ratio (y) = 0.23167 -0.04591
# Poissons Ratio (z) = 0.11915 -0.18397
#
# Static dielectric constant tensor:
#      x y z
#    x 2.125520 0.005660 0.044830 
#    y 0.005660 2.195130 -0.007780 
#    z 0.044830 -0.007780 2.171770 
# 
# From -- ./inp_files/226607.got.cif
#   From: 2010.05.17/outbox.cif.g08.bks.cpg/sg2_114_cif.got.tgz:226607.got - 2010.06.03 11:33:40.
