data_PCOD9009984
_publ_section_title
;
Structure prediction by ZEFSAII (Michael W. Deem and Ramdas Pophale) SiO2 
 PCOD9009984
Probable space group: P -1
;
_chemical_formula_sum "Si O2"
_cell_formula_units_Z 16
_cell_length_a 13.198136
_cell_length_b 10.892271
_cell_length_c 8.020005
_cell_angle_alpha 88.582183
_cell_angle_beta 37.547391
_cell_angle_gamma 99.204291
_cell_volume 671.199535
_symmetry_space_group_name_H-M "P -1"
_symmetry_group_IT_number 2
_symmetry_cell_setting 'triclinic'
loop_
_space_group_symop_operation_xyz
x,y,z
-x,-y,-z
loop_
_atom_site_type_symbol
_atom_site_label
_atom_site_fract_x
_atom_site_fract_y
_atom_site_fract_z
Si Si1 0.819209 0.797015 0.247165
Si Si2 0.995847 0.362507 0.078583
Si Si3 0.051778 0.988450 0.697670
Si Si4 0.756048 0.921432 0.858562
Si Si5 0.259176 0.630300 0.133438
Si Si6 0.478048 0.640023 0.523535
Si Si7 0.111241 0.337843 0.305070
Si Si8 0.606701 0.251801 0.699794
O O1 0.815600 0.887150 0.400078
O O2 0.649362 0.747927 0.361241
O O3 0.887979 0.679960 0.211167
O O4 0.987051 0.880290 0.921801
O O5 0.801802 0.273921 0.376684
O O6 0.094219 0.363362 0.127205
O O7 0.000000 0.500000 0.000000
O O8 0.158124 0.973962 0.398025
O O9 0.861990 0.991047 0.879603
O O10 0.819158 0.788516 0.759919
O O11 0.548746 0.880114 0.119015
O O12 0.225410 0.477344 0.218059
O O13 0.378122 0.705065 0.128660
O O14 0.080975 0.670616 0.373786
O O15 0.337231 0.651702 0.844486
O O16 0.500000 0.500000 0.500000
O O17 0.450122 0.660818 0.365816
#
# Coordination Sequence:
#
# PCOD9009984 Si02
#       8
#     2   2   2   2   2   2   2   2
#     4  11  22  43  64  93 123 171 213 256 315 383
#     4  11  22  39  64  94 132 166 203 260 328 379
#     4  10  23  39  70  85 123 169 223 256 305 378
#     4  11  21  42  64  89 119 170 214 262 312 366
#     4  10  23  38  60  94 127 165 199 261 322 378
#     4  12  23  39  64  93 129 163 206 264 318 375
#     4  10  21  40  61  88 131 165 206 253 316 387
#     4  11  23  38  61  94 128 155 215 264 309 383
#
# _framework density 23.837921000000001
#
# number of rings (size 3 to 8) (size 9 to 14) (size 15 to 20)
#    0.000    1.250    2.500    3.750    0.000    7.000 
#    0.000    1.250   11.000    0.000    0.000    0.000 
#    0.000    0.000    0.000    0.000    0.000    0.000 
#
# Total GULP energy -89172.479143 kJ/mol
# GULP energy per Si atom -5573.279946 kJ/mol
# Density = 2.378367 g / cm^3
# Si number density = 23.837921 Si / 1000 Ang^3
#
#
#
# Elastic Constant Matrix: (Units=GPa)
#
#
# Indices 1 2 3 4 5 6 
#
# 1 58.2335 5.2090 2.7587 -7.4957 -9.1758 20.5841
# 2 5.2090 35.1092 -7.1853 8.2031 -9.9971 6.6992
# 3 2.7587 -7.1853 105.1674 -3.2400 -7.8894 -1.5287
# 4 -7.4957 8.2031 -3.2400 27.0786 7.5754 -6.5419
# 5 -9.1758 -9.9971 -7.8894 7.5754 39.6030 -13.5080
# 6 20.5841 6.6992 -1.5287 -6.5419 -13.5080 27.6195
#
#
#
# Elastic Compliance Matrix: (Units=1/GPa)
#
#
# Indices 1 2 3 4 5 6 
#
# 1 0.023643 -0.001623 -0.001009 0.003191 -0.001657 -0.017337
# 2 -0.001623 0.037161 0.002786 -0.015813 0.010439 -0.006289
# 3 -0.001009 0.002786 0.009991 -0.000320 0.003252 0.002144
# 4 0.003191 -0.015813 -0.000320 0.047171 -0.009646 0.007895
# 5 -0.001657 0.010439 0.003252 -0.009646 0.034608 0.013524
# 6 -0.017337 -0.006289 0.002144 0.007895 0.013524 0.059255
#
#
# Mechanical properties :
#
#
# Convention : Reuss Voigt Hill
#
# Bulk Modulus (GPa) = 14.06441 22.23056 18.14748
# Shear Modulus (GPa) = 21.25653 32.04207 26.64930
#
# Velocity S-wave (km/s) = 2.98939 3.67026 3.34718
# Velocity P-wave (km/s) = 4.22233 5.22561 4.75053
#
# Compressibility (1/GPa) = 0.07110148
#
# Stress axis : x y z
#
# Youngs Moduli (GPa) = 42.29553 26.91016 100.09246
#
# Poissons Ratio (x) = 0.04369 0.10100
# Poissons Ratio (y) = 0.06867 -0.27886
# Poissons Ratio (z) = 0.04268 -0.07497
#
# Static dielectric constant tensor:
#      x y z
#    x 1.931360 0.016470 -0.011000 
#    y 0.016470 2.035340 0.012970 
#    z -0.011000 0.012970 1.973110 
# 
# From -- ./inp_files/307477.got.cif
#   From: 2010.05.17/outbox.cif.g08.bks.cpg/sg2_154_cif.got.tgz:307477.got - 2010.06.03 11:33:40.
