data_PCOD9009250
_publ_section_title
;
Structure prediction by ZEFSAII (Michael W. Deem and Ramdas Pophale) SiO2 
 PCOD9009250
Probable space group: P -1
;
_chemical_formula_sum "Si O2"
_cell_formula_units_Z 16
_cell_length_a 20.536756
_cell_length_b 11.928404
_cell_length_c 17.876765
_cell_angle_alpha 29.506636
_cell_angle_beta 152.049815
_cell_angle_gamma 157.026351
_cell_volume 761.249585
_symmetry_space_group_name_H-M "P -1"
_symmetry_group_IT_number 2
_symmetry_cell_setting 'triclinic'
loop_
_space_group_symop_operation_xyz
x,y,z
-x,-y,-z
loop_
_atom_site_type_symbol
_atom_site_label
_atom_site_fract_x
_atom_site_fract_y
_atom_site_fract_z
Si Si1 0.588536 0.845610 0.184517
Si Si2 0.947607 0.605355 0.816742
Si Si3 0.673062 0.251507 0.478409
Si Si4 0.424329 0.910359 0.207166
Si Si5 0.693077 0.768574 0.170578
Si Si6 0.987814 0.255743 0.359258
Si Si7 0.621343 0.542847 0.669066
Si Si8 0.194081 0.825939 0.489334
O O1 0.625109 0.774949 0.180884
O O2 0.473338 0.554055 0.290045
O O3 0.786759 0.081047 0.289521
O O4 0.500000 0.000000 0.000000
O O5 0.725308 0.366942 0.727759
O O6 0.004014 0.595426 0.796541
O O7 0.082597 0.966183 0.758052
O O8 0.000000 0.500000 0.000000
O O9 0.631443 0.446115 0.281922
O O10 0.844291 0.492102 0.566044
O O11 0.742964 0.151981 0.544775
O O12 0.500000 0.000000 0.500000
O O13 0.365177 0.709285 0.189039
O O14 0.634297 0.092421 0.336480
O O15 0.384684 0.130967 0.024593
O O16 0.000000 0.000000 0.500000
O O17 0.500000 0.500000 0.500000
O O18 0.798191 0.895837 0.646699
O O19 0.000000 0.500000 0.500000
#
# Coordination Sequence:
#
# PCOD9009250 Si02
#       8
#     2   2   2   2   2   2   2   2
#     4  11  21  39  64 100 126 159 218 282 329 377
#     4   9  19  36  63 100 123 150 216 278 318 370
#     4  12  25  42  65  92 140 173 218 271 334 407
#     4  10  21  41  68  91 126 166 221 274 322 386
#     4  10  21  39  67  98 121 168 217 277 329 386
#     4  11  23  38  69  95 124 171 225 272 319 387
#     4  10  23  38  66  90 123 167 220 265 321 382
#     4  11  27  41  60  97 136 177 217 264 338 402
#
# _framework density 21.018073999999999
#
# number of rings (size 3 to 8) (size 9 to 14) (size 15 to 20)
#    0.000    1.500    3.750    1.500    8.750    0.500 
#    0.000    1.250    0.000    3.000    0.000    0.000 
#    0.000    0.000    0.000    0.000    0.000    0.000 
#
# Total GULP energy -89197.954532 kJ/mol
# GULP energy per Si atom -5574.872158 kJ/mol
# Density = 2.097024 g / cm^3
# Si number density = 21.018074 Si / 1000 Ang^3
#
#
#
# Elastic Constant Matrix: (Units=GPa)
#
#
# Indices 1 2 3 4 5 6 
#
# 1 69.9294 30.9158 3.7149 -6.8228 -6.2123 5.7914
# 2 30.9158 155.8838 35.1604 -1.4414 3.1399 20.4700
# 3 3.7149 35.1604 81.9319 -0.5544 0.0899 2.4814
# 4 -6.8228 -1.4414 -0.5544 33.8451 6.7258 -1.2272
# 5 -6.2123 3.1399 0.0899 6.7258 29.1853 -2.4180
# 6 5.7914 20.4700 2.4814 -1.2272 -2.4180 41.0504
#
#
#
# Elastic Compliance Matrix: (Units=1/GPa)
#
#
# Indices 1 2 3 4 5 6 
#
# 1 0.016325 -0.003396 0.000742 0.002503 0.003229 -0.000390
# 2 -0.003396 0.008346 -0.003317 -0.000141 -0.001876 -0.003597
# 3 0.000742 -0.003317 0.013573 0.000159 0.000500 0.000763
# 4 0.002503 -0.000141 0.000159 0.031381 -0.006663 0.000253
# 5 0.003229 -0.001876 0.000500 -0.006663 0.036888 0.002423
# 6 -0.000390 -0.003597 0.000763 0.000253 0.002423 0.026313
#
#
# Mechanical properties :
#
#
# Convention : Reuss Voigt Hill
#
# Bulk Modulus (GPa) = 38.02062 49.70304 43.86183
# Shear Modulus (GPa) = 32.56600 36.67976 34.62288
#
# Velocity S-wave (km/s) = 3.94055 4.18204 4.06309
# Velocity P-wave (km/s) = 6.23158 6.85699 6.55175
#
# Compressibility (1/GPa) = 0.02630152
#
# Stress axis : x y z
#
# Youngs Moduli (GPa) = 61.25449 119.82402 73.67755
#
# Poissons Ratio (x) = 0.40691 -0.05469
# Poissons Ratio (y) = 0.20801 0.24442
# Poissons Ratio (z) = -0.04547 0.39751
#
# Static dielectric constant tensor:
#      x y z
#    x 1.769140 -0.049530 0.077640 
#    y -0.049530 1.718770 0.044040 
#    z 0.077640 0.044040 1.785140 
# 
# From -- ./inp_files/577919.got.cif
#   From: 2010.05.17/outbox.cif.g08.bks.cpg/sg2_289_cif.got.tgz:577919.got - 2010.06.03 11:33:40.
