data_PCOD9009469
_publ_section_title
;
Structure prediction by ZEFSAII (Michael W. Deem and Ramdas Pophale) SiO2 
 PCOD9009469
Probable space group: P -1
;
_chemical_formula_sum "Si O2"
_cell_formula_units_Z 10
_cell_length_a 9.457244
_cell_length_b 14.408273
_cell_length_c 14.200901
_cell_angle_alpha 19.750345
_cell_angle_beta 141.324010
_cell_angle_gamma 140.248641
_cell_volume 403.280507
_symmetry_space_group_name_H-M "P -1"
_symmetry_group_IT_number 2
_symmetry_cell_setting 'triclinic'
loop_
_space_group_symop_operation_xyz
x,y,z
-x,-y,-z
loop_
_atom_site_type_symbol
_atom_site_label
_atom_site_fract_x
_atom_site_fract_y
_atom_site_fract_z
Si Si1 0.507952 0.190038 0.692871
Si Si2 0.835278 0.223184 0.210151
Si Si3 0.469800 0.102356 0.279863
Si Si4 0.827751 0.439313 0.379714
Si Si5 0.235291 0.239561 0.693962
O O1 0.336238 0.236206 0.644961
O O2 0.603998 0.504730 0.412930
O O3 0.371923 0.929978 0.814979
O O4 0.732587 0.062094 0.963535
O O5 0.711564 0.242416 0.227335
O O6 0.000000 0.000000 0.500000
O O7 0.000000 0.500000 0.000000
O O8 0.500000 0.000000 0.500000
O O9 0.373561 0.810351 0.457592
O O10 0.289888 0.312218 0.962305
O O11 0.000000 0.500000 0.500000
O O12 0.981907 0.304609 0.512528
#
# Coordination Sequence:
#
# PCOD9009469 Si02
#       5
#     2   2   2   2   2
#     4  10  21  41  65 103 140 174 245 299 360 419
#     4  12  26  46  73  99 143 200 249 292 362 448
#     4  12  28  49  71 113 155 192 246 316 375 449
#     4  12  24  45  78 107 146 196 255 302 380 442
#     4  10  21  39  69 102 136 180 232 315 356 427
#
# _framework density 24.796635999999999
#
# number of rings (size 3 to 8) (size 9 to 14) (size 15 to 20)
#    0.000    0.800    0.000    7.200    2.800    0.000 
#    0.000    0.000    0.000    0.000    0.000    0.000 
#    0.000    0.000    0.000    0.000    0.000    0.000 
#
# Total GULP energy -55847.073057 kJ/mol
# GULP energy per Si atom -5584.707306 kJ/mol
# Density = 2.474020 g / cm^3
# Si number density = 24.796636 Si / 1000 Ang^3
#
#
#
# Elastic Constant Matrix: (Units=GPa)
#
#
# Indices 1 2 3 4 5 6 
#
# 1 154.0721 59.7640 87.1574 10.7956 5.5334 13.7347
# 2 59.7640 106.1889 31.9598 -14.1631 -28.0343 8.3784
# 3 87.1574 31.9598 202.2738 6.1117 -4.9710 22.5680
# 4 10.7956 -14.1631 6.1117 51.9425 17.3621 1.9286
# 5 5.5334 -28.0343 -4.9710 17.3621 24.8851 -8.6470
# 6 13.7347 8.3784 22.5680 1.9286 -8.6470 32.7078
#
#
#
# Elastic Compliance Matrix: (Units=1/GPa)
#
#
# Indices 1 2 3 4 5 6 
#
# 1 0.014526 -0.011494 -0.004357 0.001163 -0.019751 -0.005440
# 2 -0.011494 0.023415 0.001394 -0.002892 0.033638 0.006930
# 3 -0.004357 0.001394 0.006971 -0.000635 0.003555 -0.002360
# 4 0.001163 -0.002892 -0.000635 0.026953 -0.025063 -0.007525
# 5 -0.019751 0.033638 0.003555 -0.025063 0.110354 0.027877
# 6 -0.005440 0.006930 -0.002360 -0.007525 0.027877 0.040525
#
#
# Mechanical properties :
#
#
# Convention : Reuss Voigt Hill
#
# Bulk Modulus (GPa) = 62.50916 91.14411 76.82664
# Shear Modulus (GPa) = 19.45594 40.81732 30.13663
#
# Velocity S-wave (km/s) = 2.80415 4.06160 3.48997
# Velocity P-wave (km/s) = 5.97894 7.67019 6.87676
#
# Compressibility (1/GPa) = 0.01599766
#
# Stress axis : x y z
#
# Youngs Moduli (GPa) = 68.84000 42.70800 143.45799
#
# Poissons Ratio (x) = 0.49090 0.62501
# Poissons Ratio (y) = 0.79127 -0.19998
# Poissons Ratio (z) = 0.29992 -0.05953
#
# Static dielectric constant tensor:
#      x y z
#    x 2.044010 -0.040360 -0.042100 
#    y -0.040360 1.888830 -0.119640 
#    z -0.042100 -0.119640 1.748580 
# 
# From -- ./inp_files/310475.got.cif
#   From: 2010.05.17/outbox.cif.g08.bks.cpg/sg2_156_cif.got.tgz:310475.got - 2010.06.03 11:33:40.
