data_PCOD9009697
_publ_section_title
;
Structure prediction by ZEFSAII (Michael W. Deem and Ramdas Pophale) SiO2 
 PCOD9009697
Probable space group: P -1
;
_chemical_formula_sum "Si O2"
_cell_formula_units_Z 15
_cell_length_a 13.708880
_cell_length_b 9.246548
_cell_length_c 25.744881
_cell_angle_alpha 28.333608
_cell_angle_beta 155.832079
_cell_angle_gamma 150.834168
_cell_volume 591.327370
_symmetry_space_group_name_H-M "P -1"
_symmetry_group_IT_number 2
_symmetry_cell_setting 'triclinic'
loop_
_space_group_symop_operation_xyz
x,y,z
-x,-y,-z
loop_
_atom_site_type_symbol
_atom_site_label
_atom_site_fract_x
_atom_site_fract_y
_atom_site_fract_z
Si Si1 0.325728 0.566885 0.439132
Si Si2 0.017036 0.526674 0.876202
Si Si3 0.000000 0.500000 0.000000
Si Si4 0.417292 0.741849 0.918279
Si Si5 0.419308 0.719510 0.614122
Si Si6 0.890972 0.718208 0.314245
Si Si7 0.064701 0.153479 0.820994
Si Si8 0.545529 0.734796 0.309584
O O1 0.500000 0.500000 0.500000
O O2 0.067842 0.638503 0.276292
O O3 0.290155 0.291724 0.552925
O O4 0.477700 0.906993 0.435083
O O5 0.063309 0.484894 0.972287
O O6 0.229128 0.522838 0.939209
O O7 0.733236 0.279604 0.802541
O O8 0.051683 0.904287 0.766342
O O9 0.872654 0.785143 0.836359
O O10 0.338447 0.976802 0.767150
O O11 0.500000 0.500000 0.000000
O O12 0.694090 0.954141 0.011384
O O13 0.352065 0.490739 0.704633
O O14 0.526755 0.589232 0.658050
O O15 0.135654 0.648886 0.473723
O O16 0.858153 0.665021 0.253461
#
# Coordination Sequence:
#
# PCOD9009697 Si02
#       8
#     2   2   1   2   2   2   2   2
#     4  12  28  45  74 107 153 196 242 304 376 446
#     4  11  23  43  73 105 142 189 240 302 368 429
#     4  10  22  42  78 108 140 184 248 316 348 434
#     4  12  30  48  72 105 155 197 245 301 377 456
#     4  11  21  43  74 110 140 191 243 307 367 429
#     4  10  21  39  75 108 141 180 248 311 356 426
#     4  11  25  45  68 111 145 189 246 302 369 430
#     4  12  24  49  76 106 143 194 250 305 366 441
#
# _framework density 25.366658999999999
#
# number of rings (size 3 to 8) (size 9 to 14) (size 15 to 20)
#    0.000    0.800    5.333    2.000    1.867    6.933 
#    0.000    1.333    0.000    0.000    0.000    0.000 
#    0.000    0.000    0.000    0.000    0.000    0.000 
#
# Total GULP energy -83565.584042 kJ/mol
# GULP energy per Si atom -5571.038936 kJ/mol
# Density = 2.530892 g / cm^3
# Si number density = 25.366659 Si / 1000 Ang^3
#
#
#
# Elastic Constant Matrix: (Units=GPa)
#
#
# Indices 1 2 3 4 5 6 
#
# 1 179.0442 19.1649 55.0135 -24.1756 3.0291 22.3943
# 2 19.1649 46.9267 1.6747 -4.2318 -1.7891 19.0733
# 3 55.0135 1.6747 97.1619 -14.8817 -12.1239 -5.8041
# 4 -24.1756 -4.2318 -14.8817 21.1532 8.2993 7.6793
# 5 3.0291 -1.7891 -12.1239 8.2993 52.2565 -12.7248
# 6 22.3943 19.0733 -5.8041 7.6793 -12.7248 34.6318
#
#
#
# Elastic Compliance Matrix: (Units=1/GPa)
#
#
# Indices 1 2 3 4 5 6 
#
# 1 0.013315 0.005683 -0.006686 0.024298 -0.011456 -0.022458
# 2 0.005683 0.035446 -0.003062 0.029214 -0.012978 -0.034956
# 3 -0.006686 -0.003062 0.015032 -0.005211 0.007640 0.012492
# 4 0.024298 0.029214 -0.005211 0.118767 -0.038274 -0.073074
# 5 -0.011456 -0.012978 0.007640 -0.038274 0.036385 0.037692
# 6 -0.022458 -0.034956 0.012492 -0.073074 0.037692 0.094796
#
#
# Mechanical properties :
#
#
# Convention : Reuss Voigt Hill
#
# Bulk Modulus (GPa) = 17.96533 52.75986 35.36260
# Shear Modulus (GPa) = 14.68751 38.09361 26.39056
#
# Velocity S-wave (km/s) = 2.40887 3.87941 3.22897
# Velocity P-wave (km/s) = 3.85156 6.39613 5.27944
#
# Compressibility (1/GPa) = 0.05566276
#
# Stress axis : x y z
#
# Youngs Moduli (GPa) = 75.10309 28.21217 66.52432
#
# Poissons Ratio (x) = -0.16033 0.44481
# Poissons Ratio (y) = -0.42682 0.20368
# Poissons Ratio (z) = 0.50217 0.08638
#
# Static dielectric constant tensor:
#      x y z
#    x 2.014150 0.013140 0.034390 
#    y 0.013140 1.786350 -0.032060 
#    z 0.034390 -0.032060 2.108390 
# 
# From -- ./inp_files/609985.got.cif
#   From: 2010.05.17/outbox.cif.g08.bks.cpg/sg2_305_cif.got.tgz:609985.got - 2010.06.03 11:33:40.
