data_PCOD9009687
_publ_section_title
;
Structure prediction by ZEFSAII (Michael W. Deem and Ramdas Pophale) SiO2 
 PCOD9009687
Probable space group: P -1
;
_chemical_formula_sum "Si O2"
_cell_formula_units_Z 10
_cell_length_a 11.248313
_cell_length_b 8.881676
_cell_length_c 8.737969
_cell_angle_alpha 47.879037
_cell_angle_beta 133.894240
_cell_angle_gamma 139.985939
_cell_volume 385.658469
_symmetry_space_group_name_H-M "P -1"
_symmetry_group_IT_number 2
_symmetry_cell_setting 'triclinic'
loop_
_space_group_symop_operation_xyz
x,y,z
-x,-y,-z
loop_
_atom_site_type_symbol
_atom_site_label
_atom_site_fract_x
_atom_site_fract_y
_atom_site_fract_z
Si Si1 0.319992 0.964173 0.060669
Si Si2 0.335045 0.610689 0.716939
Si Si3 0.513975 0.683122 0.511355
Si Si4 0.858058 0.079059 0.382840
Si Si5 0.975857 0.358800 0.763205
O O1 0.374046 0.767048 0.269150
O O2 0.105741 0.834216 0.041165
O O3 0.491066 0.200539 0.143410
O O4 0.299146 0.999244 0.841764
O O5 0.435632 0.574757 0.684387
O O6 0.214387 0.716577 0.461420
O O7 0.157472 0.389257 0.808259
O O8 0.500000 0.500000 0.500000
O O9 0.739219 0.919313 0.533882
O O10 0.952644 0.366796 0.301468
O O11 0.000000 0.000000 0.500000
#
# Coordination Sequence:
#
# PCOD9009687 Si02
#       5
#     2   2   2   2   2
#     4  11  23  45  73  99 134 182 227 271 338 405
#     4  10  22  42  72 100 134 178 223 274 343 401
#     4  11  23  43  69 100 139 174 220 278 341 404
#     4  12  25  43  68 101 140 178 229 281 331 395
#     4  10  21  39  74 100 134 172 226 277 340 398
#
# _framework density 25.929679
#
# number of rings (size 3 to 8) (size 9 to 14) (size 15 to 20)
#    0.000    1.200    2.000    6.000    2.800    0.000 
#    0.000    5.000    0.000    0.000    0.000    0.000 
#    0.000    0.000    0.000    0.000    0.000    0.000 
#
# Total GULP energy -55995.950177 kJ/mol
# GULP energy per Si atom -5599.595018 kJ/mol
# Density = 2.587066 g / cm^3
# Si number density = 25.929679 Si / 1000 Ang^3
#
#
#
# Elastic Constant Matrix: (Units=GPa)
#
#
# Indices 1 2 3 4 5 6 
#
# 1 211.8276 71.2580 43.7294 -1.3950 -24.1007 16.5758
# 2 71.2580 128.9423 41.9489 17.6051 -8.0379 -7.5343
# 3 43.7294 41.9489 81.3228 15.0120 3.4776 -9.6402
# 4 -1.3950 17.6051 15.0120 33.1050 0.9644 -15.1838
# 5 -24.1007 -8.0379 3.4776 0.9644 32.6171 -8.2018
# 6 16.5758 -7.5343 -9.6402 -15.1838 -8.2018 61.1610
#
#
#
# Elastic Compliance Matrix: (Units=1/GPa)
#
#
# Indices 1 2 3 4 5 6 
#
# 1 0.006989 -0.003042 -0.003006 0.002433 0.004269 -0.001566
# 2 -0.003042 0.011220 -0.003323 -0.004263 0.001195 0.000785
# 3 -0.003006 -0.003323 0.016947 -0.005389 -0.004399 0.001149
# 4 0.002433 -0.004263 -0.005389 0.038546 0.002149 0.007824
# 5 0.004269 0.001195 -0.004399 0.002149 0.035413 0.003579
# 6 -0.001566 0.000785 0.001149 0.007824 0.003579 0.019475
#
#
# Mechanical properties :
#
#
# Convention : Reuss Voigt Hill
#
# Bulk Modulus (GPa) = 60.92786 81.77392 71.35089
# Shear Modulus (GPa) = 32.72177 43.05372 37.88775
#
# Velocity S-wave (km/s) = 3.55624 4.07923 3.82668
# Velocity P-wave (km/s) = 6.35695 7.33431 6.86305
#
# Compressibility (1/GPa) = 0.01641285
#
# Stress axis : x y z
#
# Youngs Moduli (GPa) = 143.08079 89.12733 59.00895
#
# Poissons Ratio (x) = 0.27111 0.17741
# Poissons Ratio (y) = 0.43523 0.19609
# Poissons Ratio (z) = 0.43016 0.29618
#
# Static dielectric constant tensor:
#      x y z
#    x 2.162310 0.030040 -0.006170 
#    y 0.030040 2.077750 -0.031730 
#    z -0.006170 -0.031730 1.975850 
# 
# From -- ./inp_files/148146.got.cif
#   From: 2010.05.17/outbox.cif.g08.bks.cpg/sg2_75_cif.got.tgz:148146.got - 2010.06.03 11:33:40.
