data_PCOD9009871
_publ_section_title
;
Structure prediction by ZEFSAII (Michael W. Deem and Ramdas Pophale) SiO2 
 PCOD9009871
Probable space group: P -1
;
_chemical_formula_sum "Si O2"
_cell_formula_units_Z 16
_cell_length_a 15.532247
_cell_length_b 10.506377
_cell_length_c 8.984675
_cell_angle_alpha 109.115072
_cell_angle_beta 58.319946
_cell_angle_gamma 62.846272
_cell_volume 735.582826
_symmetry_space_group_name_H-M "P -1"
_symmetry_group_IT_number 2
_symmetry_cell_setting 'triclinic'
loop_
_space_group_symop_operation_xyz
x,y,z
-x,-y,-z
loop_
_atom_site_type_symbol
_atom_site_label
_atom_site_fract_x
_atom_site_fract_y
_atom_site_fract_z
Si Si1 0.623587 0.839119 0.459881
Si Si2 0.604304 0.354474 0.138700
Si Si3 0.647411 0.009716 0.066214
Si Si4 0.944245 0.890316 0.096813
Si Si5 0.111469 0.343549 0.034058
Si Si6 0.861910 0.057773 0.562061
Si Si7 0.223936 0.165805 0.425771
Si Si8 0.267159 0.679243 0.696519
O O1 0.659718 0.922786 0.574460
O O2 0.500000 0.000000 0.500000
O O3 0.529493 0.827782 0.638823
O O4 0.793303 0.643539 0.144743
O O5 0.410842 0.541379 0.393349
O O6 0.656155 0.404077 0.239981
O O7 0.665604 0.147897 0.068113
O O8 0.692639 0.287477 0.876034
O O9 0.780564 0.809426 0.980161
O O10 0.674541 0.913089 0.845604
O O11 0.903741 0.013832 0.332314
O O12 0.841664 0.074046 0.135064
O O13 0.895921 0.785650 0.104378
O O14 0.133749 0.702555 0.813574
O O15 0.932798 0.576097 0.324967
O O16 0.846701 0.912439 0.547165
O O17 0.000000 0.000000 0.500000
#
# Coordination Sequence:
#
# PCOD9009871 Si02
#       8
#     2   2   2   2   2   2   2   2
#     4  10  22  39  60  90 123 162 206 255 307 368
#     4  10  21  40  60  90 119 159 214 244 312 364
#     4  10  22  40  62  87 131 163 201 262 309 363
#     4  11  22  40  64  88 127 159 207 259 311 357
#     4  11  22  40  61  97 122 164 211 255 308 376
#     4  11  23  41  65  91 127 163 203 260 313 366
#     4  11  23  39  66  91 126 165 209 251 315 370
#     4  10  22  38  63  88 116 166 205 256 300 371
#
# _framework density 21.751460000000002
#
# number of rings (size 3 to 8) (size 9 to 14) (size 15 to 20)
#    0.000    1.500    3.750    1.125    1.750    0.500 
#    0.000    0.000    5.500    0.000    0.000    0.000 
#    0.000    0.000    0.000    0.000    0.000    0.000 
#
# Total GULP energy -89221.192557 kJ/mol
# GULP energy per Si atom -5576.324535 kJ/mol
# Density = 2.170195 g / cm^3
# Si number density = 21.751460 Si / 1000 Ang^3
#
#
#
# Elastic Constant Matrix: (Units=GPa)
#
#
# Indices 1 2 3 4 5 6 
#
# 1 111.4090 27.4650 38.6315 -4.5946 0.6042 -20.2142
# 2 27.4650 43.5425 18.8735 -1.1082 -8.5544 -10.4478
# 3 38.6315 18.8735 141.4136 -15.0279 -6.1060 -23.1103
# 4 -4.5946 -1.1082 -15.0279 23.9026 3.3173 -3.0022
# 5 0.6042 -8.5544 -6.1060 3.3173 29.0425 0.2295
# 6 -20.2142 -10.4478 -23.1103 -3.0022 0.2295 23.4548
#
#
#
# Elastic Compliance Matrix: (Units=1/GPa)
#
#
# Indices 1 2 3 4 5 6 
#
# 1 0.012276 -0.005961 -0.001249 0.002547 -0.002621 0.007045
# 2 -0.005961 0.030660 -0.000926 -0.000617 0.008972 0.007441
# 3 -0.001249 -0.000926 0.009781 0.006867 0.000954 0.009018
# 4 0.002547 -0.000617 0.006867 0.049128 -0.004521 0.015018
# 5 -0.002621 0.008972 0.000954 -0.004521 0.037833 0.001729
# 6 0.007045 0.007441 0.009018 0.015018 0.001729 0.062812
#
#
# Mechanical properties :
#
#
# Convention : Reuss Voigt Hill
#
# Bulk Modulus (GPa) = 27.43894 51.81168 39.62531
# Shear Modulus (GPa) = 21.65335 29.37298 25.51316
#
# Velocity S-wave (km/s) = 3.15856 3.67875 3.42854
# Velocity P-wave (km/s) = 5.09354 6.47425 5.82495
#
# Compressibility (1/GPa) = 0.03644456
#
# Stress axis : x y z
#
# Youngs Moduli (GPa) = 81.45775 32.61597 102.24040
#
# Poissons Ratio (x) = 0.19444 0.12771
# Poissons Ratio (y) = 0.48561 0.09463
# Poissons Ratio (z) = 0.10175 0.03019
#
# Static dielectric constant tensor:
#      x y z
#    x 1.803430 -0.003540 -0.000290 
#    y -0.003540 1.785680 -0.029740 
#    z -0.000290 -0.029740 1.825900 
# 
# From -- ./inp_files/178867.got.cif
#   From: 2010.05.17/outbox.cif.g08.bks.cpg/sg2_90_cif.got.tgz:178867.got - 2010.06.03 11:33:40.
