data_PCOD9009304
_publ_section_title
;
Structure prediction by ZEFSAII (Michael W. Deem and Ramdas Pophale) SiO2 
 PCOD9009304
Probable space group: P -1
;
_chemical_formula_sum "Si O2"
_cell_formula_units_Z 16
_cell_length_a 28.234233
_cell_length_b 9.672289
_cell_length_c 9.561288
_cell_angle_alpha 136.998738
_cell_angle_beta 156.009279
_cell_angle_gamma 42.342650
_cell_volume 699.937979
_symmetry_space_group_name_H-M "P -1"
_symmetry_group_IT_number 2
_symmetry_cell_setting 'triclinic'
loop_
_space_group_symop_operation_xyz
x,y,z
-x,-y,-z
loop_
_atom_site_type_symbol
_atom_site_label
_atom_site_fract_x
_atom_site_fract_y
_atom_site_fract_z
Si Si1 0.989784 0.556277 0.679399
Si Si2 0.030404 0.751567 0.364491
Si Si3 0.231461 0.115530 0.758155
Si Si4 0.767206 0.844063 0.682972
Si Si5 0.747828 0.501736 0.713850
Si Si6 0.329034 0.835409 0.581116
Si Si7 0.242658 0.852229 0.861902
Si Si8 0.595304 0.558279 0.073874
O O1 0.949534 0.389142 0.545926
O O2 0.889891 0.776355 0.575436
O O3 0.000000 0.500000 0.500000
O O4 0.129181 0.539876 0.074752
O O5 0.145783 0.731463 0.564713
O O6 0.000000 0.000000 0.500000
O O7 0.906577 0.724425 0.942797
O O8 0.332213 0.998994 0.835313
O O9 0.210284 0.953148 0.697116
O O10 0.265382 0.299041 0.073983
O O11 0.676017 0.698235 0.324970
O O12 0.727033 0.032528 0.605548
O O13 0.758130 0.956605 0.893673
O O14 0.753740 0.304587 0.683074
O O15 0.638628 0.533680 0.334313
O O16 0.457456 0.680743 0.781335
O O17 0.368266 0.675979 0.063016
#
# Coordination Sequence:
#
# PCOD9009304 Si02
#       8
#     2   2   2   2   2   2   2   2
#     4  10  21  39  68 101 134 167 216 273 329 399
#     4  10  21  40  68  99 134 172 214 266 338 401
#     4  11  25  44  68 103 133 171 221 273 332 393
#     4  11  25  46  66  99 135 170 216 281 334 382
#     4  11  23  44  69  96 135 172 215 280 329 383
#     4  12  29  42  69  99 130 178 231 272 317 397
#     4  11  25  43  72  97 134 177 216 270 338 398
#     4  12  25  48  66  95 135 176 232 268 322 394
#
# _framework density 22.859166999999999
#
# number of rings (size 3 to 8) (size 9 to 14) (size 15 to 20)
#    0.000    1.000    3.750    3.000   10.500    4.000 
#    0.000    0.000    0.000    0.000    0.000    0.000 
#    0.000    0.000    0.000    0.000    0.000    0.000 
#
# Total GULP energy -89521.322479 kJ/mol
# GULP energy per Si atom -5595.082655 kJ/mol
# Density = 2.280714 g / cm^3
# Si number density = 22.859167 Si / 1000 Ang^3
#
#
#
# Elastic Constant Matrix: (Units=GPa)
#
#
# Indices 1 2 3 4 5 6 
#
# 1 80.8583 41.6469 -2.6365 -12.9234 -3.6575 23.7898
# 2 41.6469 126.1434 -2.5231 -16.0674 6.1740 15.8662
# 3 -2.6365 -2.5231 8.0413 -3.4836 -3.6211 5.2096
# 4 -12.9234 -16.0674 -3.4836 42.6782 1.6867 -0.7935
# 5 -3.6575 6.1740 -3.6211 1.6867 23.9813 2.2807
# 6 23.7898 15.8662 5.2096 -0.7935 2.2807 62.5374
#
#
#
# Elastic Compliance Matrix: (Units=1/GPa)
#
#
# Indices 1 2 3 4 5 6 
#
# 1 0.018327 -0.004602 0.014097 0.004579 0.006467 -0.007156
# 2 -0.004602 0.010081 0.001940 0.002668 -0.003114 -0.000821
# 3 0.014097 0.001940 0.161978 0.016786 0.026841 -0.020114
# 4 0.004579 0.002668 0.016786 0.027089 0.000975 -0.003509
# 5 0.006467 -0.003114 0.026841 0.000975 0.048008 -0.005645
# 6 -0.007156 -0.000821 -0.020114 -0.003509 -0.005645 0.020758
#
#
# Mechanical properties :
#
#
# Convention : Reuss Voigt Hill
#
# Bulk Modulus (GPa) = 4.68918 32.00194 18.34556
# Shear Modulus (GPa) = 14.94960 37.74308 26.34634
#
# Velocity S-wave (km/s) = 2.56009 4.06780 3.39861
# Velocity P-wave (km/s) = 3.28551 6.00772 4.84186
#
# Compressibility (1/GPa) = 0.21325706
#
# Stress axis : x y z
#
# Youngs Moduli (GPa) = 54.56364 99.19465 6.17367
#
# Poissons Ratio (x) = 0.45649 -0.08703
# Poissons Ratio (y) = 0.25110 -0.01198
# Poissons Ratio (z) = -0.76920 -0.19242
#
# Static dielectric constant tensor:
#      x y z
#    x 1.856080 -0.028440 -0.011320 
#    y -0.028440 1.862130 0.011820 
#    z -0.011320 0.011820 1.881340 
# 
# From -- ./inp_files/352464.got.cif
#   From: 2010.05.17/outbox.cif.g08.bks.cpg/sg2_177_cif.got.tgz:352464.got - 2010.06.03 11:33:40.
