data_PCOD9009807
_publ_section_title
;
Structure prediction by ZEFSAII (Michael W. Deem and Ramdas Pophale) SiO2 
 PCOD9009807
Probable space group: P -1
;
_chemical_formula_sum "Si O2"
_cell_formula_units_Z 16
_cell_length_a 5.070623
_cell_length_b 11.756637
_cell_length_c 25.117304
_cell_angle_alpha 28.799419
_cell_angle_beta 113.821213
_cell_angle_gamma 115.777166
_cell_volume 648.654932
_symmetry_space_group_name_H-M "P -1"
_symmetry_group_IT_number 2
_symmetry_cell_setting 'triclinic'
loop_
_space_group_symop_operation_xyz
x,y,z
-x,-y,-z
loop_
_atom_site_type_symbol
_atom_site_label
_atom_site_fract_x
_atom_site_fract_y
_atom_site_fract_z
Si Si1 0.925150 0.748548 0.062778
Si Si2 0.336629 0.025607 0.292911
Si Si3 0.526157 0.396342 0.783889
Si Si4 0.266844 0.764179 0.670733
Si Si5 0.287185 0.997516 0.769630
Si Si6 0.683048 0.146596 0.047106
Si Si7 0.671015 0.776812 0.558949
Si Si8 0.566361 0.454718 0.462855
O O1 0.575011 0.707232 0.045801
O O2 0.037090 0.765801 0.003180
O O3 0.143871 0.586546 0.173313
O O4 0.000000 0.000000 0.000000
O O5 0.611301 0.172467 0.287050
O O6 0.451662 0.017094 0.244955
O O7 0.032206 0.118165 0.231887
O O8 0.263999 0.766668 0.423816
O O9 0.332790 0.510208 0.762982
O O10 0.420289 0.121736 0.874549
O O11 0.478601 0.553009 0.664415
O O12 0.954391 0.808722 0.606831
O O13 0.454650 0.981945 0.560639
O O14 0.299407 0.885235 0.875046
O O15 0.298115 0.286590 0.656359
O O16 0.703372 0.667309 0.547256
O O17 0.500000 0.500000 0.500000
#
# Coordination Sequence:
#
# PCOD9009807 Si02
#       8
#     2   2   2   2   2   2   2   2
#     4  10  23  40  62  97 130 159 206 273 331 378
#     4  10  23  39  61  88 129 169 214 257 303 378
#     4  11  22  36  65  88 129 162 209 261 330 377
#     4  10  24  39  60  92 131 173 215 253 309 383
#     4  11  21  40  64  90 123 170 209 263 322 370
#     4  11  23  40  66  99 127 158 213 272 329 381
#     4  10  21  40  59  95 127 169 214 257 309 385
#     4   9  19  38  59  91 127 165 210 256 315 378
#
# _framework density 24.666426000000001
#
# number of rings (size 3 to 8) (size 9 to 14) (size 15 to 20)
#    0.000    1.750    1.250    3.000    7.000    2.000 
#   11.250    0.000    0.000    4.500    0.000    0.000 
#    0.000    0.000    0.000    0.000    0.000    0.000 
#
# Total GULP energy -89186.122569 kJ/mol
# GULP energy per Si atom -5574.132661 kJ/mol
# Density = 2.461028 g / cm^3
# Si number density = 24.666426 Si / 1000 Ang^3
#
#
#
# Elastic Constant Matrix: (Units=GPa)
#
#
# Indices 1 2 3 4 5 6 
#
# 1 95.1900 -4.6008 7.3419 7.7034 5.1106 -4.6944
# 2 -4.6008 69.6862 0.6397 22.7430 0.0643 6.6714
# 3 7.3419 0.6397 111.2411 30.7717 -0.7890 -11.6966
# 4 7.7034 22.7430 30.7717 28.6010 -8.0677 -4.0557
# 5 5.1106 0.0643 -0.7890 -8.0677 31.4862 12.8819
# 6 -4.6944 6.6714 -11.6966 -4.0557 12.8819 25.4282
#
#
#
# Elastic Compliance Matrix: (Units=1/GPa)
#
#
# Indices 1 2 3 4 5 6 
#
# 1 0.011747 0.003435 0.002113 -0.009266 -0.005735 0.003667
# 2 0.003435 0.025514 0.008186 -0.032592 -0.007178 -0.003857
# 3 0.002113 0.008186 0.016897 -0.027020 -0.009533 0.006535
# 4 -0.009266 -0.032592 -0.027020 0.099811 0.028056 -0.003882
# 5 -0.005735 -0.007178 -0.009533 0.028056 0.049552 -0.024189
# 6 0.003667 -0.003857 0.006535 -0.003882 -0.024189 0.055656
#
#
# Mechanical properties :
#
#
# Convention : Reuss Voigt Hill
#
# Bulk Modulus (GPa) = 12.25108 31.43099 21.84104
# Shear Modulus (GPa) = 19.31116 35.28552 27.29834
#
# Velocity S-wave (km/s) = 2.80106 3.78631 3.33032
# Velocity P-wave (km/s) = 3.92921 5.64667 4.86434
#
# Compressibility (1/GPa) = 0.08162543
#
# Stress axis : x y z
#
# Youngs Moduli (GPa) = 85.12824 39.19344 59.18307
#
# Poissons Ratio (x) = -0.13461 -0.12506
# Poissons Ratio (y) = -0.29238 -0.48447
# Poissons Ratio (z) = -0.17989 -0.32084
#
# Static dielectric constant tensor:
#      x y z
#    x 2.034580 0.026150 -0.167400 
#    y 0.026150 2.038050 -0.065720 
#    z -0.167400 -0.065720 2.116100 
# 
# From -- ./inp_files/604438.got.cif
#   From: 2010.05.17/outbox.cif.g08.bks.cpg/sg2_303_cif.got.tgz:604438.got - 2010.06.03 11:33:40.
