data_PCOD9009113
_publ_section_title
;
Structure prediction by ZEFSAII (Michael W. Deem and Ramdas Pophale) SiO2 
 PCOD9009113
Probable space group: P -1
;
_chemical_formula_sum "Si O2"
_cell_formula_units_Z 14
_cell_length_a 11.667196
_cell_length_b 10.698274
_cell_length_c 11.944988
_cell_angle_alpha 38.069858
_cell_angle_beta 51.426073
_cell_angle_gamma 36.862309
_cell_volume 551.436392
_symmetry_space_group_name_H-M "P -1"
_symmetry_group_IT_number 2
_symmetry_cell_setting 'triclinic'
loop_
_space_group_symop_operation_xyz
x,y,z
-x,-y,-z
loop_
_atom_site_type_symbol
_atom_site_label
_atom_site_fract_x
_atom_site_fract_y
_atom_site_fract_z
Si Si1 0.411255 0.907370 0.219466
Si Si2 0.995062 0.607521 0.548746
Si Si3 0.411104 0.356145 0.146777
Si Si4 0.706201 0.169138 0.429014
Si Si5 0.294795 0.605528 0.260165
Si Si6 0.288358 0.423601 0.917252
Si Si7 0.279831 0.083300 0.851379
O O1 0.336016 0.826407 0.417424
O O2 0.520879 0.722072 0.176669
O O3 0.581444 0.889813 0.184237
O O4 0.249019 0.219410 0.068360
O O5 0.000000 0.500000 0.500000
O O6 0.147882 0.656209 0.405480
O O7 0.083640 0.369040 0.749443
O O8 0.809781 0.880505 0.519178
O O9 0.276346 0.482476 0.246018
O O10 0.597540 0.047976 0.246505
O O11 0.500000 0.500000 0.000000
O O12 0.319981 0.415816 0.037245
O O13 0.508656 0.369367 0.339446
O O14 0.821876 0.276939 0.263208
O O15 0.257419 0.874089 0.059211
#
# Coordination Sequence:
#
# PCOD9009113 Si02
#       7
#     2   2   2   2   2   2   2
#     4  10  21  40  74  96 129 177 233 274 327 403
#     4  12  29  39  64 110 138 173 227 273 337 408
#     4   9  17  35  68  92 124 179 218 262 338 391
#     4  12  23  43  70 101 134 178 222 278 335 394
#     4  11  23  44  69  95 140 177 216 279 339 401
#     4  10  21  39  67 106 125 177 234 269 334 400
#     4  10  21  43  65  94 134 178 219 274 343 384
#
# _framework density 25.388241000000001
#
# number of rings (size 3 to 8) (size 9 to 14) (size 15 to 20)
#    0.000    1.429    5.714    1.286    6.000    2.857 
#    0.000    0.714    0.000    5.143    0.000    0.000 
#    0.000    0.000    0.000    0.000    0.000    0.000 
#
# Total GULP energy -78106.253192 kJ/mol
# GULP energy per Si atom -5579.018085 kJ/mol
# Density = 2.533046 g / cm^3
# Si number density = 25.388241 Si / 1000 Ang^3
#
#
#
# Elastic Constant Matrix: (Units=GPa)
#
#
# Indices 1 2 3 4 5 6 
#
# 1 41.0136 38.2822 10.0805 -6.0852 -2.9991 14.3810
# 2 38.2822 119.5954 60.0935 -14.5082 1.2992 18.0133
# 3 10.0805 60.0935 159.0134 -18.0159 0.4457 -5.6425
# 4 -6.0852 -14.5082 -18.0159 54.2873 6.0520 -2.3423
# 5 -2.9991 1.2992 0.4457 6.0520 19.0202 4.1341
# 6 14.3810 18.0133 -5.6425 -2.3423 4.1341 41.1219
#
#
#
# Elastic Compliance Matrix: (Units=1/GPa)
#
#
# Indices 1 2 3 4 5 6 
#
# 1 0.039096 -0.012116 0.001800 0.000375 0.008782 -0.008980
# 2 -0.012116 0.015353 -0.004984 0.001261 -0.002627 -0.002836
# 3 0.001800 -0.004984 0.008374 0.001862 -0.000792 0.002889
# 4 0.000375 0.001261 0.001862 0.020238 -0.006817 0.001410
# 5 0.008782 -0.002627 -0.000792 -0.006817 0.058123 -0.008261
# 6 -0.008980 -0.002836 0.002889 0.001410 -0.008261 0.030008
#
#
# Mechanical properties :
#
#
# Convention : Reuss Voigt Hill
#
# Bulk Modulus (GPa) = 31.03572 59.61496 45.32534
# Shear Modulus (GPa) = 23.52569 36.96363 30.24466
#
# Velocity S-wave (km/s) = 3.04737 3.81981 3.45525
# Velocity P-wave (km/s) = 4.96316 6.55644 5.81463
#
# Compressibility (1/GPa) = 0.03222094
#
# Stress axis : x y z
#
# Youngs Moduli (GPa) = 25.57839 65.13324 119.41678
#
# Poissons Ratio (x) = 0.78916 -0.21491
# Poissons Ratio (y) = 0.30991 0.59523
# Poissons Ratio (z) = -0.04603 0.32465
#
# Static dielectric constant tensor:
#      x y z
#    x 2.061600 -0.033280 -0.035760 
#    y -0.033280 2.073340 0.015740 
#    z -0.035760 0.015740 2.082360 
# 
# From -- ./inp_files/450971.got.cif
#   From: 2010.05.17/outbox.cif.g08.bks.cpg/sg2_226_cif.got.tgz:450971.got - 2010.06.03 11:33:40.
