data_PCOD9009453
_publ_section_title
;
Structure prediction by ZEFSAII (Michael W. Deem and Ramdas Pophale) SiO2 
 PCOD9009453
Probable space group: P -1
;
_chemical_formula_sum "Si O2"
_cell_formula_units_Z 16
_cell_length_a 13.247648
_cell_length_b 10.859995
_cell_length_c 10.504496
_cell_angle_alpha 127.951408
_cell_angle_beta 114.116600
_cell_angle_gamma 36.285496
_cell_volume 692.849126
_symmetry_space_group_name_H-M "P -1"
_symmetry_group_IT_number 2
_symmetry_cell_setting 'triclinic'
loop_
_space_group_symop_operation_xyz
x,y,z
-x,-y,-z
loop_
_atom_site_type_symbol
_atom_site_label
_atom_site_fract_x
_atom_site_fract_y
_atom_site_fract_z
Si Si1 0.451442 0.777489 0.168698
Si Si2 0.092343 0.312502 0.728700
Si Si3 0.702127 0.711662 0.826345
Si Si4 0.611898 0.385828 0.195404
Si Si5 0.793656 0.479414 0.998907
Si Si6 0.628047 0.087974 0.188590
Si Si7 0.005371 0.950122 0.822887
Si Si8 0.845728 0.787731 0.581652
O O1 0.480368 0.654233 0.238855
O O2 0.636916 0.623105 0.108807
O O3 0.317825 0.059332 0.312766
O O4 0.370472 0.748365 0.004013
O O5 0.095837 0.491897 0.880992
O O6 0.194935 0.179233 0.566689
O O7 0.890787 0.486067 0.718867
O O8 0.195930 0.108069 0.762531
O O9 0.527097 0.824161 0.754683
O O10 0.719402 0.607535 0.906137
O O11 0.665802 0.929994 0.988127
O O12 0.571995 0.315435 0.247793
O O13 0.792875 0.269909 0.247865
O O14 0.903653 0.203077 0.866653
O O15 0.917175 0.881984 0.708656
O O16 0.000000 0.000000 0.000000
O O17 0.000000 0.500000 0.500000
#
# Coordination Sequence:
#
# PCOD9009453 Si02
#       8
#     2   2   2   2   2   2   2   2
#     4  11  23  40  69 102 135 171 227 293 338 395
#     4  11  25  45  64 104 145 181 221 277 352 412
#     4  10  21  39  69 100 138 176 233 281 333 396
#     4  11  21  41  71 103 132 166 238 296 326 391
#     4  11  21  42  74 102 130 175 237 289 326 399
#     4  10  21  39  70 103 129 182 230 287 334 398
#     4  12  21  40  70  97 128 177 231 275 340 397
#     4  12  29  45  64  97 147 182 217 280 355 421
#
# _framework density 23.093050999999999
#
# number of rings (size 3 to 8) (size 9 to 14) (size 15 to 20)
#    0.000    1.000    3.750    4.500    1.750    0.500 
#    2.250    3.125    0.000    0.000    0.000    0.000 
#    0.000    0.000    0.000    0.000    0.000    0.000 
#
# Total GULP energy -89481.773301 kJ/mol
# GULP energy per Si atom -5592.610831 kJ/mol
# Density = 2.304049 g / cm^3
# Si number density = 23.093051 Si / 1000 Ang^3
#
#
#
# Elastic Constant Matrix: (Units=GPa)
#
#
# Indices 1 2 3 4 5 6 
#
# 1 68.8679 25.8808 -4.2835 2.2639 5.2873 -8.4263
# 2 25.8808 96.7353 13.9298 18.6376 4.9510 1.5569
# 3 -4.2835 13.9298 36.4618 7.8188 -2.6340 3.6997
# 4 2.2639 18.6376 7.8188 26.0274 -3.3135 -1.5126
# 5 5.2873 4.9510 -2.6340 -3.3135 27.5296 11.3058
# 6 -8.4263 1.5569 3.6997 -1.5126 11.3058 51.7881
#
#
#
# Elastic Compliance Matrix: (Units=1/GPa)
#
#
# Indices 1 2 3 4 5 6 
#
# 1 0.017322 -0.005169 0.003190 0.001006 -0.003417 0.003521
# 2 -0.005169 0.014186 -0.004275 -0.008814 -0.002776 -0.000613
# 3 0.003190 -0.004275 0.031294 -0.006327 0.003424 -0.002520
# 4 0.001006 -0.008814 -0.006327 0.047377 0.006106 0.000931
# 5 -0.003417 -0.002776 0.003424 0.006106 0.042581 -0.009835
# 6 0.003521 -0.000613 -0.002520 0.000931 -0.009835 0.022255
#
#
# Mechanical properties :
#
#
# Convention : Reuss Voigt Hill
#
# Bulk Modulus (GPa) = 19.88374 30.34659 25.11516
# Shear Modulus (GPa) = 24.47513 32.17156 28.32335
#
# Velocity S-wave (km/s) = 3.25906 3.73651 3.50592
# Velocity P-wave (km/s) = 4.77399 5.63781 5.22378
#
# Compressibility (1/GPa) = 0.05029236
#
# Stress axis : x y z
#
# Youngs Moduli (GPa) = 57.73108 70.49104 31.95502
#
# Poissons Ratio (x) = 0.36439 -0.10193
# Poissons Ratio (y) = 0.29843 0.13662
# Poissons Ratio (z) = -0.18416 0.30137
#
# Static dielectric constant tensor:
#      x y z
#    x 1.957490 -0.007160 -0.030250 
#    y -0.007160 1.965840 0.049960 
#    z -0.030250 0.049960 1.866910 
# 
# From -- ./inp_files/451813.got.cif
#   From: 2010.05.17/outbox.cif.g08.bks.cpg/sg2_226_cif.got.tgz:451813.got - 2010.06.03 11:33:40.
