data_PCOD9009423
_publ_section_title
;
Structure prediction by ZEFSAII (Michael W. Deem and Ramdas Pophale) SiO2 
 PCOD9009423
Probable space group: P -1
;
_chemical_formula_sum "Si O2"
_cell_formula_units_Z 16
_cell_length_a 14.099841
_cell_length_b 19.267409
_cell_length_c 21.635941
_cell_angle_alpha 20.651262
_cell_angle_beta 159.864847
_cell_angle_gamma 149.866551
_cell_volume 709.034801
_symmetry_space_group_name_H-M "P -1"
_symmetry_group_IT_number 2
_symmetry_cell_setting 'triclinic'
loop_
_space_group_symop_operation_xyz
x,y,z
-x,-y,-z
loop_
_atom_site_type_symbol
_atom_site_label
_atom_site_fract_x
_atom_site_fract_y
_atom_site_fract_z
Si Si1 0.221253 0.896210 0.920199
Si Si2 0.186266 0.711140 0.663755
Si Si3 0.790589 0.182295 0.743177
Si Si4 0.468911 0.429009 0.246584
Si Si5 0.793431 0.219488 0.125588
Si Si6 0.744955 0.537987 0.205920
Si Si7 0.651088 0.806061 0.434651
Si Si8 0.094211 0.544128 0.199273
O O1 0.214419 0.755792 0.973036
O O2 0.200654 0.759025 0.081837
O O3 0.971444 0.070605 0.615879
O O4 0.500000 0.000000 0.000000
O O5 0.252844 0.635564 0.698393
O O6 0.992651 0.560613 0.703832
O O7 0.473047 0.690106 0.895225
O O8 0.564067 0.239774 0.503581
O O9 0.630959 0.158408 0.729162
O O10 0.976856 0.361752 0.713569
O O11 0.000000 0.000000 0.000000
O O12 0.701446 0.464636 0.309273
O O13 0.405571 0.614146 0.099593
O O14 0.193002 0.420866 0.044417
O O15 0.097987 0.225727 0.335188
O O16 0.705389 0.003080 0.266749
O O17 0.699062 0.616775 0.577086
#
# Coordination Sequence:
#
# PCOD9009423 Si02
#       8
#     2   2   2   2   2   2   2   2
#     4  12  26  39  67 100 130 171 212 274 325 386
#     4  10  24  48  65  90 132 178 219 260 323 389
#     4  12  25  37  62 100 131 168 212 273 322 385
#     4  10  22  43  68  94 126 169 221 270 326 385
#     4  10  21  41  69  95 129 165 213 275 333 379
#     4  10  24  45  65  86 131 179 212 266 318 385
#     4  10  21  39  68  98 127 165 211 276 332 379
#     4  10  22  44  70  97 126 171 217 274 329 382
#
# _framework density 22.565888999999999
#
# number of rings (size 3 to 8) (size 9 to 14) (size 15 to 20)
#    0.000    1.500    1.250    2.625    8.750    3.500 
#    2.250    1.875    0.000    0.000    0.000    0.000 
#    0.000    0.000    0.000    0.000    0.000    0.000 
#
# Total GULP energy -89575.961464 kJ/mol
# GULP energy per Si atom -5598.497591 kJ/mol
# Density = 2.251453 g / cm^3
# Si number density = 22.565889 Si / 1000 Ang^3
#
#
#
# Elastic Constant Matrix: (Units=GPa)
#
#
# Indices 1 2 3 4 5 6 
#
# 1 110.5896 9.5439 45.3912 -1.9153 14.8224 15.1329
# 2 9.5439 46.7669 11.4452 -3.2410 -0.1274 19.2443
# 3 45.3912 11.4452 101.2777 -11.1042 3.5592 0.8564
# 4 -1.9153 -3.2410 -11.1042 28.3299 1.0542 0.3979
# 5 14.8224 -0.1274 3.5592 1.0542 30.9567 5.7818
# 6 15.1329 19.2443 0.8564 0.3979 5.7818 34.4589
#
#
#
# Elastic Compliance Matrix: (Units=1/GPa)
#
#
# Indices 1 2 3 4 5 6 
#
# 1 0.012547 0.000828 -0.005634 -0.001031 -0.004371 -0.005087
# 2 0.000828 0.029290 -0.003410 0.002191 0.003255 -0.017208
# 3 -0.005634 -0.003410 0.013217 0.004344 0.000277 0.003953
# 4 -0.001031 0.002191 0.004344 0.037237 -0.001053 -0.001132
# 5 -0.004371 0.003255 0.000277 -0.001053 0.035506 -0.005851
# 6 -0.005087 -0.017208 0.003953 -0.001132 -0.005851 0.041761
#
#
# Mechanical properties :
#
#
# Convention : Reuss Voigt Hill
#
# Bulk Modulus (GPa) = 25.89066 43.48831 34.68948
# Shear Modulus (GPa) = 25.14281 31.56601 28.35441
#
# Velocity S-wave (km/s) = 3.34158 3.74416 3.54858
# Velocity P-wave (km/s) = 5.13678 6.16484 5.67414
#
# Compressibility (1/GPa) = 0.03862396
#
# Stress axis : x y z
#
# Youngs Moduli (GPa) = 79.69745 34.14153 75.65929
#
# Poissons Ratio (x) = -0.02828 0.42623
# Poissons Ratio (y) = -0.06601 0.25799
# Poissons Ratio (z) = 0.44898 0.11642
#
# Static dielectric constant tensor:
#      x y z
#    x 1.819070 0.000630 -0.031060 
#    y 0.000630 1.860020 0.027010 
#    z -0.031060 0.027010 1.820380 
# 
# From -- ./inp_files/320177.got.cif
#   From: 2010.05.17/outbox.cif.g08.bks.cpg/sg2_161_cif.got.tgz:320177.got - 2010.06.03 11:33:40.
