data_PCOD9009695
_publ_section_title
;
Structure prediction by ZEFSAII (Michael W. Deem and Ramdas Pophale) SiO2 
 PCOD9009695
Probable space group: P -1
;
_chemical_formula_sum "Si O2"
_cell_formula_units_Z 14
_cell_length_a 14.246907
_cell_length_b 8.866914
_cell_length_c 10.097450
_cell_angle_alpha 64.323737
_cell_angle_beta 148.997182
_cell_angle_gamma 110.388027
_cell_volume 591.417157
_symmetry_space_group_name_H-M "P -1"
_symmetry_group_IT_number 2
_symmetry_cell_setting 'triclinic'
loop_
_space_group_symop_operation_xyz
x,y,z
-x,-y,-z
loop_
_atom_site_type_symbol
_atom_site_label
_atom_site_fract_x
_atom_site_fract_y
_atom_site_fract_z
Si Si1 0.468742 0.814885 0.580458
Si Si2 0.939125 0.310075 0.482753
Si Si3 0.136163 0.662840 0.327512
Si Si4 0.199600 0.744517 0.949401
Si Si5 0.278888 0.376570 0.248822
Si Si6 0.774643 0.718407 0.489100
Si Si7 0.685214 0.889383 0.059586
O O1 0.258657 0.773727 0.342057
O O2 0.590402 0.693496 0.680863
O O3 0.500000 0.000000 0.500000
O O4 0.541169 0.807001 0.821647
O O5 0.857725 0.269815 0.541477
O O6 0.812674 0.296112 0.207214
O O7 0.000000 0.500000 0.500000
O O8 0.117321 0.192197 0.713460
O O9 0.215495 0.470609 0.486640
O O10 0.928190 0.659147 0.030889
O O11 0.987293 0.767539 0.730658
O O12 0.303599 0.913277 0.026274
O O13 0.283397 0.577505 0.182832
O O14 0.694687 0.705284 0.543951
O O15 0.668887 0.840631 0.212188
#
# Coordination Sequence:
#
# PCOD9009695 Si02
#       7
#     2   2   2   2   2   2   2
#     4  12  30  46  69 107 142 183 240 291 345 421
#     4  11  17  40  73 108 134 184 236 285 350 414
#     4  11  23  44  75 104 140 185 237 283 354 419
#     4  10  21  39  75 105 138 181 235 286 351 417
#     4  11  24  49  76  98 140 189 232 288 356 412
#     4  10  22  41  76 105 134 188 236 280 355 416
#     4  11  23  45  68 106 146 179 234 293 342 420
#
# _framework density 23.671952999999998
#
# number of rings (size 3 to 8) (size 9 to 14) (size 15 to 20)
#    0.000    1.143    5.714    3.429    4.000    4.000 
#    0.000    1.429    0.000    0.000    0.000    0.000 
#    0.000    0.000    0.000    0.000    0.000    0.000 
#
# Total GULP energy -78469.772961 kJ/mol
# GULP energy per Si atom -5604.983783 kJ/mol
# Density = 2.361807 g / cm^3
# Si number density = 23.671953 Si / 1000 Ang^3
#
#
#
# Elastic Constant Matrix: (Units=GPa)
#
#
# Indices 1 2 3 4 5 6 
#
# 1 140.4694 53.1459 47.2147 6.8604 -17.3981 9.2332
# 2 53.1459 90.0996 49.3529 7.8813 7.1249 4.5084
# 3 47.2147 49.3529 77.2291 0.2288 -10.4092 3.8785
# 4 6.8604 7.8813 0.2288 28.1544 -0.6885 -6.8565
# 5 -17.3981 7.1249 -10.4092 -0.6885 37.6019 3.3279
# 6 9.2332 4.5084 3.8785 -6.8565 3.3279 33.4423
#
#
#
# Elastic Compliance Matrix: (Units=1/GPa)
#
#
# Indices 1 2 3 4 5 6 
#
# 1 0.010880 -0.005254 -0.002388 -0.001738 0.005596 -0.002932
# 2 -0.005254 0.022201 -0.012318 -0.005120 -0.010127 -0.000156
# 3 -0.002388 -0.012318 0.023336 0.003945 0.007793 -0.000353
# 4 -0.001738 -0.005120 0.003945 0.039489 0.001212 0.008688
# 5 0.005596 -0.010127 0.007793 0.001212 0.033652 -0.004184
# 6 -0.002932 -0.000156 -0.000353 0.008688 -0.004184 0.032971
#
#
# Mechanical properties :
#
#
# Convention : Reuss Voigt Hill
#
# Bulk Modulus (GPa) = 60.60789 67.46944 64.03867
# Shear Modulus (GPa) = 24.04443 30.37869 27.21156
#
# Velocity S-wave (km/s) = 3.19052 3.58623 3.39415
# Velocity P-wave (km/s) = 6.26349 6.76105 6.51702
#
# Compressibility (1/GPa) = 0.01649950
#
# Stress axis : x y z
#
# Youngs Moduli (GPa) = 91.91251 45.04204 42.85170
#
# Poissons Ratio (x) = 0.23663 0.10231
# Poissons Ratio (y) = 0.48287 0.52785
# Poissons Ratio (z) = 0.21945 0.55483
#
# Static dielectric constant tensor:
#      x y z
#    x 1.926370 0.009490 -0.026030 
#    y 0.009490 1.856850 0.012610 
#    z -0.026030 0.012610 1.898330 
# 
# From -- ./inp_files/445706.got.cif
#   From: 2010.05.17/outbox.cif.g08.bks.cpg/sg2_223_cif.got.tgz:445706.got - 2010.06.03 11:33:40.
