data_PCOD9009396
_publ_section_title
;
Structure prediction by ZEFSAII (Michael W. Deem and Ramdas Pophale) SiO2 
 PCOD9009396
Probable space group: P -1
;
_chemical_formula_sum "Si O2"
_cell_formula_units_Z 14
_cell_length_a 8.919018
_cell_length_b 9.208558
_cell_length_c 8.767783
_cell_angle_alpha 67.182448
_cell_angle_beta 80.609989
_cell_angle_gamma 91.919462
_cell_volume 651.144998
_symmetry_space_group_name_H-M "P -1"
_symmetry_group_IT_number 2
_symmetry_cell_setting 'triclinic'
loop_
_space_group_symop_operation_xyz
x,y,z
-x,-y,-z
loop_
_atom_site_type_symbol
_atom_site_label
_atom_site_fract_x
_atom_site_fract_y
_atom_site_fract_z
Si Si1 0.444764 0.671713 0.455058
Si Si2 0.417529 0.859420 0.674648
Si Si3 0.888286 0.990622 0.284527
Si Si4 0.902902 0.774266 0.669394
Si Si5 0.393883 0.332988 0.077685
Si Si6 0.871360 0.433995 0.431644
Si Si7 0.737581 0.746670 0.201737
O O1 0.500000 0.500000 0.500000
O O2 0.419746 0.712444 0.618226
O O3 0.273135 0.666715 0.421620
O O4 0.584692 0.777757 0.311029
O O5 0.250627 0.901299 0.726668
O O6 0.512000 0.808907 0.823017
O O7 0.500000 0.000000 0.500000
O O8 0.043245 0.100237 0.256988
O O9 0.871670 0.868025 0.480924
O O10 0.863586 0.888463 0.176041
O O11 0.750587 0.666859 0.785241
O O12 0.043157 0.673406 0.653512
O O13 0.500000 0.500000 0.000000
O O14 0.322954 0.286607 0.944110
O O15 0.805367 0.585474 0.307136
O O16 0.000000 0.500000 0.500000
#
# Coordination Sequence:
#
# PCOD9009396 Si02
#       7
#     2   2   2   2   2   2   2
#     4  10  21  39  68  96 131 177 229 277 324 408
#     4  12  22  45  73  97 129 184 236 272 337 413
#     4  11  23  44  71 102 133 178 238 283 333 407
#     4  11  24  44  72 100 137 183 228 282 340 409
#     4  12  28  45  68 102 144 181 224 287 354 407
#     4  11  22  38  68 100 131 182 235 274 331 407
#     4  11  24  42  64 102 141 175 224 286 344 405
#
# _framework density 21.500589000000002
#
# number of rings (size 3 to 8) (size 9 to 14) (size 15 to 20)
#    0.000    0.857    5.714    1.714    4.000    1.714 
#    0.000    0.000    0.000    0.000    0.000    0.000 
#    0.000    0.000    0.000    0.000    0.000    0.000 
#
# Total GULP energy -78159.037271 kJ/mol
# GULP energy per Si atom -5582.788377 kJ/mol
# Density = 2.145165 g / cm^3
# Si number density = 21.500589 Si / 1000 Ang^3
#
#
#
# Elastic Constant Matrix: (Units=GPa)
#
#
# Indices 1 2 3 4 5 6 
#
# 1 140.9952 36.5756 53.0610 -10.0325 9.1494 4.1972
# 2 36.5756 115.3149 28.2819 4.0458 11.6020 13.0143
# 3 53.0610 28.2819 68.9695 -7.2443 20.3627 8.3625
# 4 -10.0325 4.0458 -7.2443 22.9975 9.7036 2.6890
# 5 9.1494 11.6020 20.3627 9.7036 49.1222 1.2110
# 6 4.1972 13.0143 8.3625 2.6890 1.2110 54.6241
#
#
#
# Elastic Compliance Matrix: (Units=1/GPa)
#
#
# Indices 1 2 3 4 5 6 
#
# 1 0.010413 -0.001712 -0.007544 0.001884 0.001204 0.000643
# 2 -0.001712 0.010266 -0.002963 -0.003202 -0.000203 -0.001699
# 3 -0.007544 -0.002963 0.026119 0.010315 -0.010686 -0.002984
# 4 0.001884 -0.003202 0.010315 0.054661 -0.014586 -0.003328
# 5 0.001204 -0.000203 -0.010686 -0.014586 0.027450 0.001701
# 6 0.000643 -0.001699 -0.002984 -0.003328 0.001701 0.019245
#
#
# Mechanical properties :
#
#
# Convention : Reuss Voigt Hill
#
# Bulk Modulus (GPa) = 44.72616 62.34629 53.53622
# Shear Modulus (GPa) = 27.77075 39.17281 33.47178
#
# Velocity S-wave (km/s) = 3.59782 4.27305 3.94989
# Velocity P-wave (km/s) = 6.17305 7.30792 6.76433
#
# Compressibility (1/GPa) = 0.02235828
#
# Stress axis : x y z
#
# Youngs Moduli (GPa) = 96.03818 97.40751 38.28693
#
# Poissons Ratio (x) = 0.16678 0.28885
# Poissons Ratio (y) = 0.16444 0.11344
# Poissons Ratio (z) = 0.72455 0.28861
#
# Static dielectric constant tensor:
#      x y z
#    x 1.805740 0.057180 -0.018700 
#    y 0.057180 1.849730 -0.001120 
#    z -0.018700 -0.001120 1.799960 
# 
# From -- ./inp_files/156670.got.cif
#   From: 2010.05.17/outbox.cif.g08.bks.cpg/sg2_79_cif.got.tgz:156670.got - 2010.06.03 11:33:40.
