data_PCOD9009347
_publ_section_title
;
Structure prediction by ZEFSAII (Michael W. Deem and Ramdas Pophale) SiO2 
 PCOD9009347
Probable space group: P -1
;
_chemical_formula_sum "Si O2"
_cell_formula_units_Z 14
_cell_length_a 9.441192
_cell_length_b 11.552924
_cell_length_c 7.803308
_cell_angle_alpha 106.139823
_cell_angle_beta 48.316330
_cell_angle_gamma 86.398254
_cell_volume 573.049974
_symmetry_space_group_name_H-M "P -1"
_symmetry_group_IT_number 2
_symmetry_cell_setting 'triclinic'
loop_
_space_group_symop_operation_xyz
x,y,z
-x,-y,-z
loop_
_atom_site_type_symbol
_atom_site_label
_atom_site_fract_x
_atom_site_fract_y
_atom_site_fract_z
Si Si1 0.495131 0.435212 0.283985
Si Si2 0.821895 0.404616 0.616823
Si Si3 0.418305 0.721424 0.392773
Si Si4 0.204819 0.237620 0.080254
Si Si5 0.327718 0.214672 0.369660
Si Si6 0.045336 0.609230 0.122058
Si Si7 0.647403 0.031895 0.259987
O O1 0.363833 0.467102 0.224000
O O2 0.447612 0.588328 0.418730
O O3 0.400843 0.335439 0.392456
O O4 0.735522 0.381470 0.082801
O O5 0.720523 0.294168 0.659949
O O6 0.988243 0.349626 0.312407
O O7 0.070182 0.576515 0.291656
O O8 0.309111 0.848517 0.641388
O O9 0.629314 0.727537 0.152732
O O10 0.275022 0.211217 0.211601
O O11 0.188259 0.104407 0.971325
O O12 0.507440 0.089538 0.231816
O O13 0.134710 0.253283 0.669122
O O14 0.000000 0.500000 0.000000
O O15 0.500000 0.000000 0.500000
#
# Coordination Sequence:
#
# PCOD9009347 Si02
#       7
#     2   2   2   2   2   2   2
#     4  10  23  40  66  97 133 168 206 259 330 387
#     4   9  22  39  63 100 126 175 212 250 330 386
#     4   9  21  39  65  93 132 165 211 255 319 381
#     4  10  21  39  68  92 128 175 214 262 312 381
#     4  11  24  41  65  97 130 170 217 264 323 385
#     4  11  23  38  62  93 139 169 205 262 319 386
#     4  10  22  44  66  91 128 172 221 267 318 372
#
# _framework density 24.430679999999999
#
# number of rings (size 3 to 8) (size 9 to 14) (size 15 to 20)
#    0.857    1.143    0.000    2.571    4.000    4.000 
#    0.000    2.857    0.000   10.286    0.000    0.000 
#    0.000    0.000    0.000    0.000    0.000    0.000 
#
# Total GULP energy -78041.105361 kJ/mol
# GULP energy per Si atom -5574.364669 kJ/mol
# Density = 2.437507 g / cm^3
# Si number density = 24.430680 Si / 1000 Ang^3
#
#
#
# Elastic Constant Matrix: (Units=GPa)
#
#
# Indices 1 2 3 4 5 6 
#
# 1 82.3908 14.8933 28.1673 6.9404 -16.1326 22.2064
# 2 14.8933 110.6143 42.9851 11.5835 -2.1183 19.1097
# 3 28.1673 42.9851 135.9353 12.7551 -15.4751 19.2041
# 4 6.9404 11.5835 12.7551 20.6522 13.2690 15.7356
# 5 -16.1326 -2.1183 -15.4751 13.2690 29.1259 4.2572
# 6 22.2064 19.1097 19.2041 15.7356 4.2572 27.3448
#
#
#
# Elastic Compliance Matrix: (Units=1/GPa)
#
#
# Indices 1 2 3 4 5 6 
#
# 1 0.019884 0.000928 0.000183 -0.004798 0.015793 -0.016622
# 2 0.000928 0.011145 -0.002573 -0.000958 0.001329 -0.006391
# 3 0.000183 -0.002573 0.010571 -0.011493 0.010892 -0.000857
# 4 -0.004798 -0.000958 -0.011493 0.148356 -0.067321 -0.062254
# 5 0.015793 0.001329 0.010892 -0.067321 0.078897 0.005053
# 6 -0.016622 -0.006391 -0.000857 -0.062254 0.005053 0.090175
#
#
# Mechanical properties :
#
#
# Convention : Reuss Voigt Hill
#
# Bulk Modulus (GPa) = 25.85483 55.67019 40.76251
# Shear Modulus (GPa) = 13.33893 31.61756 22.47824
#
# Velocity S-wave (km/s) = 2.33918 3.60137 3.03658
# Velocity P-wave (km/s) = 4.23103 6.33479 5.38661
#
# Compressibility (1/GPa) = 0.03867749
#
# Stress axis : x y z
#
# Youngs Moduli (GPa) = 50.29228 89.72567 94.59416
#
# Poissons Ratio (x) = -0.08330 -0.01729
# Poissons Ratio (y) = -0.04669 0.24335
# Poissons Ratio (z) = -0.00919 0.23082
#
# Static dielectric constant tensor:
#      x y z
#    x 2.096070 -0.025060 0.084610 
#    y -0.025060 1.922400 0.009050 
#    z 0.084610 0.009050 2.062960 
# 
# From -- ./inp_files/181032.got.cif
#   From: 2010.05.17/outbox.cif.g08.bks.cpg/sg2_91_cif.got.tgz:181032.got - 2010.06.03 11:33:40.
