data_PCOD9009307
_publ_section_title
;
Structure prediction by ZEFSAII (Michael W. Deem and Ramdas Pophale) SiO2 
 PCOD9009307
Probable space group: P -1
;
_chemical_formula_sum "Si O2"
_cell_formula_units_Z 13
_cell_length_a 14.118191
_cell_length_b 9.122842
_cell_length_c 11.421152
_cell_angle_alpha 67.004337
_cell_angle_beta 28.944780
_cell_angle_gamma 86.102713
_cell_volume 516.868965
_symmetry_space_group_name_H-M "P -1"
_symmetry_group_IT_number 2
_symmetry_cell_setting 'triclinic'
loop_
_space_group_symop_operation_xyz
x,y,z
-x,-y,-z
loop_
_atom_site_type_symbol
_atom_site_label
_atom_site_fract_x
_atom_site_fract_y
_atom_site_fract_z
Si Si1 0.903213 0.397156 0.011260
Si Si2 0.320728 0.249365 0.896775
Si Si3 0.500000 0.000000 0.500000
Si Si4 0.921112 0.647560 0.703224
Si Si5 0.528646 0.784729 0.722797
Si Si6 0.426857 0.956652 0.958570
Si Si7 0.226510 0.268469 0.730308
O O1 0.979762 0.554114 0.776478
O O2 0.998445 0.264628 0.936919
O O3 0.000000 0.500000 0.000000
O O4 0.610093 0.219968 0.378359
O O5 0.195604 0.194755 0.920393
O O6 0.539416 0.492390 0.589605
O O7 0.136337 0.217734 0.208544
O O8 0.434203 0.136864 0.842514
O O9 0.405579 0.875976 0.763115
O O10 0.137576 0.761248 0.339229
O O11 0.669626 0.454215 0.977312
O O12 0.728947 0.829399 0.395893
O O13 0.593166 0.901952 0.736405
O O14 0.500000 0.000000 0.000000
#
# Coordination Sequence:
#
# PCOD9009307 Si02
#       7
#     2   2   1   2   2   2   2
#     4  11  22  41  73 101 137 177 225 282 347 402
#     4  10  21  39  68 102 130 170 232 280 329 410
#     4  10  24  40  66 104 136 168 230 288 334 400
#     4  10  22  43  63  96 131 177 219 277 339 400
#     4  10  23  42  63  93 136 172 220 281 336 396
#     4  12  25  40  65  95 134 182 227 270 332 415
#     4  10  21  40  70 100 131 174 222 284 347 390
#
# _framework density 25.151440000000001
#
# number of rings (size 3 to 8) (size 9 to 14) (size 15 to 20)
#    0.000    1.538    1.538    2.769    6.462    0.615 
#    0.000   13.077    0.000    1.846    0.000    0.000 
#    0.000    0.000    0.000    0.000    0.000    0.000 
#
# Total GULP energy -72443.364459 kJ/mol
# GULP energy per Si atom -5572.566497 kJ/mol
# Density = 2.509419 g / cm^3
# Si number density = 25.151440 Si / 1000 Ang^3
#
#
#
# Elastic Constant Matrix: (Units=GPa)
#
#
# Indices 1 2 3 4 5 6 
#
# 1 36.7914 52.2840 -44.6747 4.4432 43.5181 -8.0271
# 2 52.2840 187.0146 32.8049 21.5040 14.6884 22.6711
# 3 -44.6747 32.8049 43.6106 -1.1723 42.8388 -13.2979
# 4 4.4432 21.5040 -1.1723 49.7159 1.4640 -0.3200
# 5 43.5181 14.6884 42.8388 1.4640 6.2889 13.8586
# 6 -8.0271 22.6711 -13.2979 -0.3200 13.8586 29.8376
#
#
#
# Elastic Compliance Matrix: (Units=1/GPa)
#
#
# Indices 1 2 3 4 5 6 
#
# 1 0.006330 -0.000860 -0.005971 -0.000712 0.011556 -0.005680
# 2 -0.000860 0.006602 0.000332 -0.002578 -0.006950 -0.001899
# 3 -0.005971 0.000332 0.005750 0.000211 0.009818 -0.003854
# 4 -0.000712 -0.002578 0.000211 0.021248 0.001964 0.001178
# 5 0.011556 -0.006950 0.009818 0.001964 0.009964 0.008158
# 6 -0.005680 -0.001899 -0.003854 0.001178 0.008158 0.027935
#
#
# Mechanical properties :
#
#
# Convention : Reuss Voigt Hill
#
# Bulk Modulus (GPa) = 175.87406 38.69390 107.28398
# Shear Modulus (GPa) = 53.92574 32.30199 43.11387
#
# Velocity S-wave (km/s) = 4.63540 3.58760 4.14475
# Velocity P-wave (km/s) = 9.93615 5.70780 8.10266
#
# Compressibility (1/GPa) = 0.00568589
#
# Stress axis : x y z
#
# Youngs Moduli (GPa) = 157.97004 151.47495 173.92313
#
# Poissons Ratio (x) = 0.13023 1.03843
# Poissons Ratio (y) = 0.13581 -0.05782
# Poissons Ratio (z) = 0.94318 -0.05036
#
# Static dielectric constant tensor:
#      x y z
#    x 2.500470 -0.289440 -0.764670 
#    y -0.289440 2.404990 0.688710 
#    z -0.764670 0.688710 3.423990 
# 
# From -- ./inp_files/293289.got.cif
#   From: 2010.05.17/outbox.cif.g08.bks.cpg/sg2_147_cif.got.tgz:293289.got - 2010.06.03 11:33:40.
