data_PCOD9009963
_publ_section_title
;
Structure prediction by ZEFSAII (Michael W. Deem and Ramdas Pophale) SiO2 
 PCOD9009963
Probable space group: P -1
;
_chemical_formula_sum "Si O2"
_cell_formula_units_Z 16
_cell_length_a 9.707678
_cell_length_b 21.534019
_cell_length_c 18.968114
_cell_angle_alpha 29.338710
_cell_angle_beta 25.834084
_cell_angle_gamma 37.990920
_cell_volume 846.508471
_symmetry_space_group_name_H-M "P -1"
_symmetry_group_IT_number 2
_symmetry_cell_setting 'triclinic'
loop_
_space_group_symop_operation_xyz
x,y,z
-x,-y,-z
loop_
_atom_site_type_symbol
_atom_site_label
_atom_site_fract_x
_atom_site_fract_y
_atom_site_fract_z
Si Si1 0.607263 0.277936 0.399217
Si Si2 0.934628 0.236818 0.069265
Si Si3 0.316668 0.496538 0.402541
Si Si4 0.619536 0.992819 0.676177
Si Si5 0.710643 0.754398 0.958041
Si Si6 0.850859 0.512400 0.352453
Si Si7 0.712905 0.006784 0.323776
Si Si8 0.738665 0.729119 0.578736
O O1 0.549439 0.385869 0.376198
O O2 0.375678 0.305917 0.412248
O O3 0.967022 0.275791 0.205561
O O4 0.519640 0.135178 0.604541
O O5 0.932448 0.124574 0.123938
O O6 0.584391 0.253614 0.246198
O O7 0.165895 0.210871 0.054830
O O8 0.004301 0.369546 0.870243
O O9 0.191117 0.465136 0.568255
O O10 0.000000 0.500000 0.500000
O O11 0.496022 0.630600 0.184606
O O12 0.538042 0.873219 0.881042
O O13 0.495904 0.976178 0.668676
O O14 0.000000 0.000000 0.500000
O O15 0.500000 0.500000 0.500000
O O16 0.045097 0.382192 0.380736
O O17 0.500000 0.000000 0.500000
O O18 0.882718 0.869635 0.372963
#
# Coordination Sequence:
#
# PCOD9009963 Si02
#       8
#     2   2   2   2   2   2   2   2
#     4   9  19  39  62  87 114 150 195 239 288 345
#     4  10  21  40  62  86 117 154 196 239 289 348
#     4  12  24  40  60  81 121 159 195 240 289 348
#     4   9  18  35  61  89 118 144 191 248 287 336
#     4  10  21  40  61  88 118 150 196 246 283 342
#     4  12  24  42  56  83 123 157 194 241 292 339
#     4   9  18  35  61  90 115 148 191 241 292 344
#     4   9  19  39  63  85 115 151 193 241 287 344
#
# _framework density 18.90117
#
# number of rings (size 3 to 8) (size 9 to 14) (size 15 to 20)
#    0.000    2.000    2.500    3.000    1.750    0.000 
#   11.250    2.500    0.000    0.000    0.000    0.000 
#    0.000    0.000    0.000    0.000    0.000    0.000 
#
# Total GULP energy -89180.746582 kJ/mol
# GULP energy per Si atom -5573.796661 kJ/mol
# Density = 1.885815 g / cm^3
# Si number density = 18.901170 Si / 1000 Ang^3
#
#
#
# Elastic Constant Matrix: (Units=GPa)
#
#
# Indices 1 2 3 4 5 6 
#
# 1 122.4703 36.0725 48.0567 -19.8243 3.3353 -4.1509
# 2 36.0725 27.5068 82.3663 -32.1599 2.8557 1.9585
# 3 48.0567 82.3663 36.5637 -34.0170 -0.4556 -8.8011
# 4 -19.8243 -32.1599 -34.0170 28.2024 -1.9229 4.3729
# 5 3.3353 2.8557 -0.4556 -1.9229 33.7308 -4.8115
# 6 -4.1509 1.9585 -8.8011 4.3729 -4.8115 27.4857
#
#
#
# Elastic Compliance Matrix: (Units=1/GPa)
#
#
# Indices 1 2 3 4 5 6 
#
# 1 0.011195 -0.006660 -0.005069 -0.006104 -0.000763 0.001380
# 2 -0.006660 0.006684 0.026072 0.034279 0.002667 0.001880
# 3 -0.005069 0.026072 0.008007 0.036726 -0.000355 -0.005965
# 4 -0.006104 0.034279 0.036726 0.116263 0.003471 -0.009494
# 5 -0.000763 0.002667 -0.000355 0.003471 0.030307 0.004334
# 6 0.001380 0.001880 -0.005965 -0.009494 0.004334 0.036816
#
#
# Mechanical properties :
#
#
# Convention : Reuss Voigt Hill
#
# Bulk Modulus (GPa) = 18.32372 57.72578 38.02475
# Shear Modulus (GPa) = 25.15391 19.22014 22.18702
#
# Velocity S-wave (km/s) = 3.65199 3.19231 3.42986
# Velocity P-wave (km/s) = 5.24387 6.64793 5.98720
#
# Compressibility (1/GPa) = 0.05457407
#
# Stress axis : x y z
#
# Youngs Moduli (GPa) = 89.32448 149.60029 124.89808
#
# Poissons Ratio (x) = 0.99628 0.63308
# Poissons Ratio (y) = 0.59487 -3.25639
# Poissons Ratio (z) = 0.45276 -3.90043
#
# Static dielectric constant tensor:
#      x y z
#    x 1.629040 0.004410 0.005150 
#    y 0.004410 1.665600 -0.015530 
#    z 0.005150 -0.015530 1.631830 
# 
# From -- ./inp_files/218614.got.cif
#   From: 2010.05.17/outbox.cif.g08.bks.cpg/sg2_110_cif.got.tgz:218614.got - 2010.06.03 11:33:40.
