data_PCOD9009958
_publ_section_title
;
Structure prediction by ZEFSAII (Michael W. Deem and Ramdas Pophale) SiO2 
 PCOD9009958
Probable space group: P -1
;
_chemical_formula_sum "Si O2"
_cell_formula_units_Z 16
_cell_length_a 15.049648
_cell_length_b 9.521079
_cell_length_c 8.107632
_cell_angle_alpha 136.355196
_cell_angle_beta 96.628980
_cell_angle_gamma 57.587032
_cell_volume 598.341406
_symmetry_space_group_name_H-M "P -1"
_symmetry_group_IT_number 2
_symmetry_cell_setting 'triclinic'
loop_
_space_group_symop_operation_xyz
x,y,z
-x,-y,-z
loop_
_atom_site_type_symbol
_atom_site_label
_atom_site_fract_x
_atom_site_fract_y
_atom_site_fract_z
Si Si1 0.869616 0.451672 0.387509
Si Si2 0.654165 0.987705 0.376314
Si Si3 0.588891 0.508616 0.338936
Si Si4 0.142495 0.627736 0.204098
Si Si5 0.190160 0.796918 0.044902
Si Si6 0.330525 0.984482 0.220875
Si Si7 0.776815 0.147939 0.358011
Si Si8 0.024660 0.473740 0.225762
O O1 0.871865 0.213268 0.134641
O O2 0.951739 0.414156 0.516521
O O3 0.912177 0.502667 0.270565
O O4 0.735056 0.727567 0.632550
O O5 0.532259 0.189004 0.419955
O O6 0.628183 0.019948 0.592356
O O7 0.721650 0.100257 0.455706
O O8 0.739726 0.682289 0.070538
O O9 0.672066 0.481162 0.189392
O O10 0.669355 0.363694 0.394668
O O11 0.573296 0.296433 0.092994
O O12 0.163418 0.740208 0.461520
O O13 0.038743 0.616582 0.202428
O O14 0.129886 0.799852 0.195492
O O15 0.219154 0.989958 0.211581
O O16 0.867645 0.849364 0.042815
#
# Coordination Sequence:
#
# PCOD9009958 Si02
#       8
#     2   2   2   2   2   2   2   2
#     4  11  21  44  64  89 115 157 199 247 300 354
#     4  11  22  40  61  89 123 159 201 240 296 350
#     4  10  22  39  63  89 118 164 196 245 295 346
#     4  11  23  39  61  89 126 156 195 248 291 358
#     4  10  22  39  60  90 122 155 198 244 291 355
#     4  10  21  40  61  87 122 153 201 247 287 352
#     4  11  21  43  58  91 125 154 197 249 293 351
#     4  10  24  39  67  88 117 155 198 247 303 351
#
# _framework density 26.740586
#
# number of rings (size 3 to 8) (size 9 to 14) (size 15 to 20)
#    0.750    0.750    3.750    1.500    0.000    2.500 
#    2.250    4.375    0.000    0.000    0.000    0.000 
#    0.000    0.000    0.000    0.000    0.000    0.000 
#
# Total GULP energy -89492.216402 kJ/mol
# GULP energy per Si atom -5593.263525 kJ/mol
# Density = 2.667972 g / cm^3
# Si number density = 26.740586 Si / 1000 Ang^3
#
#
#
# Elastic Constant Matrix: (Units=GPa)
#
#
# Indices 1 2 3 4 5 6 
#
# 1 57.9811 4.4196 17.5417 7.0984 13.5969 11.2489
# 2 4.4196 84.9204 43.1857 12.6913 6.0046 -4.0416
# 3 17.5417 43.1857 111.7512 2.7250 26.0666 -17.0961
# 4 7.0984 12.6913 2.7250 46.3382 -6.5103 -8.1837
# 5 13.5969 6.0046 26.0666 -6.5103 47.2063 -1.7751
# 6 11.2489 -4.0416 -17.0961 -8.1837 -1.7751 45.8034
#
#
#
# Elastic Compliance Matrix: (Units=1/GPa)
#
#
# Indices 1 2 3 4 5 6 
#
# 1 0.021798 0.001704 -0.003877 -0.005735 -0.005442 -0.007886
# 2 0.001704 0.015595 -0.006653 -0.004479 0.000495 -0.002307
# 3 -0.003877 -0.006653 0.014236 0.001841 -0.005426 0.005797
# 4 -0.005735 -0.004479 0.001841 0.025409 0.004951 0.006432
# 5 -0.005442 0.000495 -0.005426 0.004951 0.026414 0.001263
# 6 -0.007886 -0.002307 0.005797 0.006432 0.001263 0.026928
#
#
# Mechanical properties :
#
#
# Convention : Reuss Voigt Hill
#
# Bulk Modulus (GPa) = 29.43266 42.77188 36.10227
# Shear Modulus (GPa) = 31.37564 40.50329 35.93946
#
# Velocity S-wave (km/s) = 3.42911 3.89610 3.67004
# Velocity P-wave (km/s) = 5.16808 6.02240 5.61152
#
# Compressibility (1/GPa) = 0.03397586
#
# Stress axis : x y z
#
# Youngs Moduli (GPa) = 45.87486 64.12272 70.24528
#
# Poissons Ratio (x) = -0.10926 0.27237
# Poissons Ratio (y) = -0.07817 0.46736
# Poissons Ratio (z) = 0.17788 0.42662
#
# Static dielectric constant tensor:
#      x y z
#    x 2.129010 0.062290 -0.037050 
#    y 0.062290 2.083380 -0.043660 
#    z -0.037050 -0.043660 2.110550 
# 
# From -- ./inp_files/308805.got.cif
#   From: 2010.05.17/outbox.cif.g08.bks.cpg/sg2_155_cif.got.tgz:308805.got - 2010.06.03 11:33:40.
