data_PCOD9009693
_publ_section_title
;
Structure prediction by ZEFSAII (Michael W. Deem and Ramdas Pophale) SiO2 
 PCOD9009693
Probable space group: P -1
;
_chemical_formula_sum "Si O2"
_cell_formula_units_Z 12
_cell_length_a 10.066225
_cell_length_b 9.430261
_cell_length_c 5.041255
_cell_angle_alpha 103.961405
_cell_angle_beta 84.015508
_cell_angle_gamma 90.265425
_cell_volume 461.779299
_symmetry_space_group_name_H-M "P -1"
_symmetry_group_IT_number 2
_symmetry_cell_setting 'triclinic'
loop_
_space_group_symop_operation_xyz
x,y,z
-x,-y,-z
loop_
_atom_site_type_symbol
_atom_site_label
_atom_site_fract_x
_atom_site_fract_y
_atom_site_fract_z
Si Si1 0.939281 0.655202 0.486162
Si Si2 0.717761 0.466310 0.293240
Si Si3 0.409524 0.646558 0.223566
Si Si4 0.612402 0.875404 0.466018
Si Si5 0.210123 0.107830 0.061955
Si Si6 0.157617 0.795921 0.134896
O O1 0.810414 0.605078 0.320220
O O2 0.734381 0.900723 0.249805
O O3 0.886649 0.756819 0.781967
O O4 0.000000 0.500000 0.500000
O O5 0.656797 0.454633 0.589176
O O6 0.601679 0.437520 0.091141
O O7 0.815021 0.325216 0.152799
O O8 0.539123 0.726414 0.334246
O O9 0.297132 0.777582 0.259668
O O10 0.663478 0.874506 0.756593
O O11 0.500000 0.000000 0.500000
O O12 0.959837 0.256752 0.676675
O O13 0.143916 0.956539 0.093618
#
# Coordination Sequence:
#
# PCOD9009693 Si02
#       6
#     2   2   2   2   2   2
#     4  12  25  49  72 102 151 191 233 297 351 423
#     4  10  21  41  69 101 131 193 228 276 361 414
#     4  10  21  39  74  97 134 183 233 279 361 402
#     4  12  23  47  73 106 148 180 230 307 354 418
#     4  12  28  43  74 114 136 188 244 285 359 425
#     4  10  23  42  73 102 139 184 241 286 356 410
#
# _framework density 25.986440000000002
#
# number of rings (size 3 to 8) (size 9 to 14) (size 15 to 20)
#    1.000    0.000    3.333    3.500    0.000    4.000 
#    0.000    7.500    0.000    0.000    0.000    0.000 
#    0.000    0.000    0.000    0.000    0.000    0.000 
#
# Total GULP energy -67298.906425 kJ/mol
# GULP energy per Si atom -5608.242202 kJ/mol
# Density = 2.592729 g / cm^3
# Si number density = 25.986440 Si / 1000 Ang^3
#
#
#
# Elastic Constant Matrix: (Units=GPa)
#
#
# Indices 1 2 3 4 5 6 
#
# 1 109.1248 33.4930 2.5904 4.6610 -2.9079 6.9622
# 2 33.4930 130.0028 8.8261 20.5485 -12.1331 9.2233
# 3 2.5904 8.8261 78.5662 7.1943 -13.3591 -0.3929
# 4 4.6610 20.5485 7.1943 47.8878 -3.4251 -0.1809
# 5 -2.9079 -12.1331 -13.3591 -3.4251 60.0338 1.3828
# 6 6.9622 9.2233 -0.3929 -0.1809 1.3828 57.4983
#
#
#
# Elastic Compliance Matrix: (Units=1/GPa)
#
#
# Indices 1 2 3 4 5 6 
#
# 1 0.009988 -0.002533 -0.000063 0.000120 -0.000017 -0.000803
# 2 -0.002533 0.009150 -0.000378 -0.003522 0.001469 -0.001210
# 3 -0.000063 -0.000378 0.013401 -0.001644 0.002807 0.000087
# 4 0.000120 -0.003522 -0.001644 0.022646 0.000206 0.000606
# 5 -0.000017 0.001469 0.002807 0.000206 0.017604 -0.000637
# 6 -0.000803 -0.001210 0.000087 0.000606 -0.000637 0.017701
#
#
# Mechanical properties :
#
#
# Convention : Reuss Voigt Hill
#
# Bulk Modulus (GPa) = 37.60436 45.27918 41.44177
# Shear Modulus (GPa) = 47.48278 51.26960 49.37619
#
# Velocity S-wave (km/s) = 4.27923 4.44659 4.36371
# Velocity P-wave (km/s) = 6.23842 6.62004 6.43206
#
# Compressibility (1/GPa) = 0.02659266
#
# Stress axis : x y z
#
# Youngs Moduli (GPa) = 100.11733 109.28929 74.62194
#
# Poissons Ratio (x) = 0.27678 0.00467
# Poissons Ratio (y) = 0.25355 0.02821
# Poissons Ratio (z) = 0.00627 0.04132
#
# Static dielectric constant tensor:
#      x y z
#    x 2.128600 -0.150520 0.068430 
#    y -0.150520 2.055360 0.016160 
#    z 0.068430 0.016160 1.951830 
# 
# From -- ./inp_files/59985.got.cif
#   From: 2010.05.17/outbox.cif.g08.bks.cpg/sg2_30_cif.got.tgz:59985.got - 2010.06.03 11:33:40.
