data_PCOD9009170
_publ_section_title
;
Structure prediction by ZEFSAII (Michael W. Deem and Ramdas Pophale) SiO2 
 PCOD9009170
Probable space group: P -1
;
_chemical_formula_sum "Si O2"
_cell_formula_units_Z 16
_cell_length_a 6.651758
_cell_length_b 13.767315
_cell_length_c 11.358335
_cell_angle_alpha 136.010545
_cell_angle_beta 119.431727
_cell_angle_gamma 77.224278
_cell_volume 613.927324
_symmetry_space_group_name_H-M "P -1"
_symmetry_group_IT_number 2
_symmetry_cell_setting 'triclinic'
loop_
_space_group_symop_operation_xyz
x,y,z
-x,-y,-z
loop_
_atom_site_type_symbol
_atom_site_label
_atom_site_fract_x
_atom_site_fract_y
_atom_site_fract_z
Si Si1 0.856959 0.401113 0.604270
Si Si2 0.740628 0.524299 0.913040
Si Si3 0.971860 0.873163 0.562113
Si Si4 0.044740 0.183812 0.827541
Si Si5 0.966159 0.305844 0.171265
Si Si6 0.611315 0.764131 0.666606
Si Si7 0.459964 0.772755 0.362470
Si Si8 0.750828 0.066362 0.067654
O O1 0.729037 0.481534 0.734610
O O2 0.051541 0.530689 0.718281
O O3 0.626736 0.305966 0.389077
O O4 0.974887 0.279456 0.589158
O O5 0.566037 0.397430 0.819046
O O6 0.000000 0.500000 0.000000
O O7 0.757632 0.691976 0.067090
O O8 0.696057 0.862871 0.452651
O O9 0.053937 0.884849 0.732560
O O10 0.100791 0.028825 0.688974
O O11 0.785304 0.187286 0.705124
O O12 0.017494 0.228514 0.996024
O O13 0.202698 0.333616 0.344209
O O14 0.769900 0.194451 0.090464
O O15 0.515769 0.787306 0.530205
O O16 0.766448 0.918305 0.880960
O O17 0.500000 0.000000 0.000000
#
# Coordination Sequence:
#
# PCOD9009170 Si02
#       8
#     2   2   2   2   2   2   2   2
#     4  10  23  38  62  99 129 156 209 269 314 366
#     4   8  18  41  62  86 123 166 207 248 302 378
#     4  12  22  40  58  95 131 159 205 268 315 358
#     4  10  21  40  70  92 124 169 214 251 310 383
#     4  11  22  42  67  92 121 173 212 250 316 386
#     4  11  20  41  67  93 123 167 214 257 308 383
#     4  10  21  39  67  94 124 168 212 256 306 382
#     4  12  24  41  61  91 135 161 206 270 322 362
#
# _framework density 26.061717000000002
#
# number of rings (size 3 to 8) (size 9 to 14) (size 15 to 20)
#    0.000    1.500    3.750    1.875    0.000    0.500 
#    2.250   11.250    5.500    0.000    0.000    0.000 
#    0.000    0.000    0.000    0.000    0.000    0.000 
#
# Total GULP energy -89270.189498 kJ/mol
# GULP energy per Si atom -5579.386844 kJ/mol
# Density = 2.600240 g / cm^3
# Si number density = 26.061717 Si / 1000 Ang^3
#
#
#
# Elastic Constant Matrix: (Units=GPa)
#
#
# Indices 1 2 3 4 5 6 
#
# 1 34.5760 15.9043 23.2958 10.6631 5.9212 10.3343
# 2 15.9043 129.2993 64.3590 41.0335 0.2415 3.9018
# 3 23.2958 64.3590 123.7767 29.6371 15.2310 16.1290
# 4 10.6631 41.0335 29.6371 82.6127 10.1162 8.7672
# 5 5.9212 0.2415 15.2310 10.1162 39.9390 4.4271
# 6 10.3343 3.9018 16.1290 8.7672 4.4271 38.6296
#
#
#
# Elastic Compliance Matrix: (Units=1/GPa)
#
#
# Indices 1 2 3 4 5 6 
#
# 1 0.035460 -0.001618 -0.004335 -0.001170 -0.002527 -0.006958
# 2 -0.001618 0.012026 -0.005571 -0.004384 0.003161 0.002177
# 3 -0.004335 -0.005571 0.012764 -0.000469 -0.003732 -0.003073
# 4 -0.001170 -0.004384 -0.000469 0.015225 -0.003241 -0.002132
# 5 -0.002527 0.003161 -0.003732 -0.003241 0.027696 -0.000524
# 6 -0.006958 0.002177 -0.003073 -0.002132 -0.000524 0.029355
#
#
# Mechanical properties :
#
#
# Convention : Reuss Voigt Hill
#
# Bulk Modulus (GPa) = 26.88094 54.97447 40.92770
# Shear Modulus (GPa) = 29.76658 44.50912 37.13785
#
# Velocity S-wave (km/s) = 3.38325 4.13708 3.77901
# Velocity P-wave (km/s) = 5.05950 6.63026 5.89741
#
# Compressibility (1/GPa) = 0.03720108
#
# Stress axis : x y z
#
# Youngs Moduli (GPa) = 28.20091 83.15469 78.34685
#
# Poissons Ratio (x) = 0.13454 0.33962
# Poissons Ratio (y) = 0.04563 0.43650
# Poissons Ratio (z) = 0.12225 0.46329
#
# Static dielectric constant tensor:
#      x y z
#    x 2.185850 0.022460 -0.099770 
#    y 0.022460 2.090800 0.034880 
#    z -0.099770 0.034880 2.161640 
# 
# From -- ./inp_files/504542.got.cif
#   From: 2010.05.17/outbox.cif.g08.bks.cpg/sg2_253_cif.got.tgz:504542.got - 2010.06.03 11:33:40.
