data_PCOD9009765
_publ_section_title
;
Structure prediction by ZEFSAII (Michael W. Deem and Ramdas Pophale) SiO2 
 PCOD9009765
Probable space group: P -1
;
_chemical_formula_sum "Si O2"
_cell_formula_units_Z 16
_cell_length_a 9.416898
_cell_length_b 14.232633
_cell_length_c 7.981096
_cell_angle_alpha 45.209149
_cell_angle_beta 102.828359
_cell_angle_gamma 117.317097
_cell_volume 665.720003
_symmetry_space_group_name_H-M "P -1"
_symmetry_group_IT_number 2
_symmetry_cell_setting 'triclinic'
loop_
_space_group_symop_operation_xyz
x,y,z
-x,-y,-z
loop_
_atom_site_type_symbol
_atom_site_label
_atom_site_fract_x
_atom_site_fract_y
_atom_site_fract_z
Si Si1 0.098116 0.579468 0.094136
Si Si2 0.802457 0.831991 0.506304
Si Si3 0.521887 0.541440 0.705720
Si Si4 0.312751 0.932506 0.393510
Si Si5 0.007021 0.849427 0.226206
Si Si6 0.459436 0.752090 0.836407
Si Si7 0.082862 0.866588 0.747868
Si Si8 0.229268 0.434215 0.560847
O O1 0.105732 0.482041 0.372589
O O2 0.283883 0.668902 0.977498
O O3 0.049138 0.702960 0.989382
O O4 0.000000 0.500000 0.000000
O O5 0.628495 0.696366 0.629691
O O6 0.909243 0.796874 0.442308
O O7 0.905368 0.854119 0.674469
O O8 0.820495 0.996496 0.275836
O O9 0.346025 0.525832 0.625467
O O10 0.637121 0.557034 0.554747
O O11 0.496415 0.387400 0.979968
O O12 0.421276 0.843166 0.561171
O O13 0.200842 0.905665 0.565139
O O14 0.187461 0.872267 0.282980
O O15 0.418787 0.109482 0.194224
O O16 0.887573 0.732227 0.212819
O O17 0.000000 0.000000 0.000000
#
# Coordination Sequence:
#
# PCOD9009765 Si02
#       8
#     2   2   2   2   2   2   2   2
#     4  10  17  29  50  72  93 121 159 198 231 272
#     4   9  18  31  48  69  93 125 161 195 233 282
#     4   9  16  28  44  65  93 121 153 193 237 276
#     4   9  17  28  45  71  97 120 153 194 240 283
#     4  10  18  29  47  70  95 124 157 195 237 278
#     4   9  16  27  45  68  94 117 148 197 235 269
#     4   9  17  31  49  69  95 124 157 195 235 279
#     4   9  17  27  44  68  90 118 156 196 232 275
#
# _framework density 24.034127000000002
#
# number of rings (size 3 to 8) (size 9 to 14) (size 15 to 20)
#    0.000    2.750    0.000    4.500    0.000    1.000 
#    0.000    1.250    0.000    2.250    0.000    0.000 
#    0.000    0.000    0.000    0.000    0.000    0.000 
#
# Total GULP energy -89130.263859 kJ/mol
# GULP energy per Si atom -5570.641491 kJ/mol
# Density = 2.397942 g / cm^3
# Si number density = 24.034127 Si / 1000 Ang^3
#
#
#
# Elastic Constant Matrix: (Units=GPa)
#
#
# Indices 1 2 3 4 5 6 
#
# 1 41.7761 50.5735 15.4013 -1.8275 1.0343 9.0846
# 2 50.5735 158.5877 77.8121 -37.4344 4.7102 49.2607
# 3 15.4013 77.8121 116.4778 -36.5661 23.9024 27.7266
# 4 -1.8275 -37.4344 -36.5661 41.2686 1.4984 -6.8590
# 5 1.0343 4.7102 23.9024 1.4984 36.4252 1.2815
# 6 9.0846 49.2607 27.7266 -6.8590 1.2815 47.0072
#
#
#
# Elastic Compliance Matrix: (Units=1/GPa)
#
#
# Indices 1 2 3 4 5 6 
#
# 1 0.049284 -0.024190 0.001130 -0.016694 0.001227 0.012689
# 2 -0.024190 0.025063 -0.005433 0.014094 0.001007 -0.016356
# 3 0.001130 -0.005433 0.019276 0.012016 -0.012339 -0.003804
# 4 -0.016694 0.014094 0.012016 0.045364 -0.010687 -0.011720
# 5 0.001227 0.001007 -0.012339 -0.010687 0.035703 0.003452
# 6 0.012689 -0.016356 -0.003804 -0.011720 0.003452 0.036401
#
#
# Mechanical properties :
#
#
# Convention : Reuss Voigt Hill
#
# Bulk Modulus (GPa) = 27.29521 67.15727 47.22624
# Shear Modulus (GPa) = 17.83873 36.47719 27.15796
#
# Velocity S-wave (km/s) = 2.72734 3.90002 3.36516
# Velocity P-wave (km/s) = 4.61512 6.94862 5.89842
#
# Compressibility (1/GPa) = 0.03663647
#
# Stress axis : x y z
#
# Youngs Moduli (GPa) = 20.29054 39.89930 51.87915
#
# Poissons Ratio (x) = 0.96515 -0.05862
# Poissons Ratio (y) = 0.49082 0.28188
# Poissons Ratio (z) = -0.02293 0.21679
#
# Static dielectric constant tensor:
#      x y z
#    x 1.985780 -0.073640 0.017310 
#    y -0.073640 2.003790 0.019180 
#    z 0.017310 0.019180 2.081290 
# 
# From -- ./inp_files/244164.got.cif
#   From: 2010.05.17/outbox.cif.g08.bks.cpg/sg2_123_cif.got.tgz:244164.got - 2010.06.03 11:33:40.
