data_PCOD9009658
_publ_section_title
;
Structure prediction by ZEFSAII (Michael W. Deem and Ramdas Pophale) SiO2 
 PCOD9009658
Probable space group: P -1
;
_chemical_formula_sum "Si O2"
_cell_formula_units_Z 10
_cell_length_a 11.647012
_cell_length_b 7.722761
_cell_length_c 11.892148
_cell_angle_alpha 74.759059
_cell_angle_beta 142.782757
_cell_angle_gamma 130.969762
_cell_volume 402.156273
_symmetry_space_group_name_H-M "P -1"
_symmetry_group_IT_number 2
_symmetry_cell_setting 'triclinic'
loop_
_space_group_symop_operation_xyz
x,y,z
-x,-y,-z
loop_
_atom_site_type_symbol
_atom_site_label
_atom_site_fract_x
_atom_site_fract_y
_atom_site_fract_z
Si Si1 0.113215 0.990155 0.218327
Si Si2 0.513024 0.885384 0.920965
Si Si3 0.454512 0.400466 0.835652
Si Si4 0.818229 0.073839 0.463891
Si Si5 0.029363 0.736957 0.973722
O O1 0.205782 0.983104 0.412994
O O2 0.189087 0.917460 0.183858
O O3 0.752472 0.722543 0.988201
O O4 0.200960 0.261095 0.219251
O O5 0.281642 0.798867 0.667564
O O6 0.812267 0.125524 0.046314
O O7 0.486210 0.673376 0.993083
O O8 0.500000 0.000000 0.000000
O O9 0.140252 0.268567 0.629621
O O10 0.399218 0.219291 0.721852
O O11 0.000000 0.500000 0.000000
#
# Coordination Sequence:
#
# PCOD9009658 Si02
#       5
#     2   2   2   2   2
#     4  11  24  45  72  98 139 185 223 282 347 404
#     4  10  21  40  69  99 133 177 223 279 339 396
#     4  10  21  43  67 102 140 169 229 291 329 404
#     4  10  21  39  72 103 133 181 224 280 348 397
#     4  11  24  45  68  98 144 180 224 289 338 401
#
# _framework density 24.865957000000002
#
# number of rings (size 3 to 8) (size 9 to 14) (size 15 to 20)
#    0.000    1.600    2.000    3.000    0.000    1.600 
#    0.000    9.000    0.000    0.000    0.000    0.000 
#    0.000    0.000    0.000    0.000    0.000    0.000 
#
# Total GULP energy -55809.423698 kJ/mol
# GULP energy per Si atom -5580.942370 kJ/mol
# Density = 2.480936 g / cm^3
# Si number density = 24.865957 Si / 1000 Ang^3
#
#
#
# Elastic Constant Matrix: (Units=GPa)
#
#
# Indices 1 2 3 4 5 6 
#
# 1 143.7455 53.4611 2.0725 -18.9700 -33.8858 1.4743
# 2 53.4611 175.7014 35.1347 -27.5525 -6.4010 -12.1214
# 3 2.0725 35.1347 78.6434 -29.3422 -24.7036 -6.2559
# 4 -18.9700 -27.5525 -29.3422 54.7036 2.0952 -6.9776
# 5 -33.8858 -6.4010 -24.7036 2.0952 44.3461 -13.3690
# 6 1.4743 -12.1214 -6.2559 -6.9776 -13.3690 54.8337
#
#
#
# Elastic Compliance Matrix: (Units=1/GPa)
#
#
# Indices 1 2 3 4 5 6 
#
# 1 0.012829 -0.003700 0.009432 0.007645 0.015574 0.004683
# 2 -0.003700 0.007637 -0.004440 0.000381 -0.004118 0.000326
# 3 0.009432 -0.004440 0.029813 0.017400 0.025551 0.010610
# 4 0.007645 0.000381 0.017400 0.031076 0.017135 0.009996
# 5 0.015574 -0.004118 0.025551 0.017135 0.052256 0.016507
# 6 0.004683 0.000326 0.010610 0.009996 0.016507 0.024690
#
#
# Mechanical properties :
#
#
# Convention : Reuss Voigt Hill
#
# Bulk Modulus (GPa) = 18.91685 64.38076 41.64880
# Shear Modulus (GPa) = 28.84527 51.27149 40.05838
#
# Velocity S-wave (km/s) = 3.40962 4.54576 4.01805
# Velocity P-wave (km/s) = 4.80881 7.31432 6.18967
#
# Compressibility (1/GPa) = 0.05286293
#
# Stress axis : x y z
#
# Youngs Moduli (GPa) = 77.94731 130.93305 33.54250
#
# Poissons Ratio (x) = 0.48450 -0.31638
# Poissons Ratio (y) = 0.28843 0.14893
# Poissons Ratio (z) = -0.73521 0.58136
#
# Static dielectric constant tensor:
#      x y z
#    x 2.043690 -0.039300 0.024970 
#    y -0.039300 2.110400 0.047320 
#    z 0.024970 0.047320 2.019210 
# 
# From -- ./inp_files/168362.got.cif
#   From: 2010.05.17/outbox.cif.g08.bks.cpg/sg2_85_cif.got.tgz:168362.got - 2010.06.03 11:33:40.
