data_PCOD9009192
_publ_section_title
;
Structure prediction by ZEFSAII (Michael W. Deem and Ramdas Pophale) SiO2 
 PCOD9009192
Probable space group: P -1
;
_chemical_formula_sum "Si O2"
_cell_formula_units_Z 14
_cell_length_a 21.919976
_cell_length_b 14.849442
_cell_length_c 12.550892
_cell_angle_alpha 140.346092
_cell_angle_beta 29.695516
_cell_angle_gamma 161.343200
_cell_volume 609.979079
_symmetry_space_group_name_H-M "P -1"
_symmetry_group_IT_number 2
_symmetry_cell_setting 'triclinic'
loop_
_space_group_symop_operation_xyz
x,y,z
-x,-y,-z
loop_
_atom_site_type_symbol
_atom_site_label
_atom_site_fract_x
_atom_site_fract_y
_atom_site_fract_z
Si Si1 0.319616 0.255442 0.861448
Si Si2 0.771808 0.819567 0.322879
Si Si3 0.773985 0.390862 0.018623
Si Si4 0.722323 0.905183 0.856647
Si Si5 0.718812 0.438993 0.372835
Si Si6 0.332779 0.046065 0.251774
Si Si7 0.285471 0.845438 0.760072
O O1 0.277864 0.228725 0.772227
O O2 0.524985 0.580533 0.886093
O O3 0.480680 0.273124 0.642036
O O4 0.033933 0.993735 0.105528
O O5 0.500000 0.500000 0.500000
O O6 0.814839 0.017955 0.489982
O O7 0.071682 0.706079 0.885303
O O8 0.745191 0.196071 0.860185
O O9 0.635672 0.300863 0.256279
O O10 0.639908 0.344591 0.087440
O O11 0.711460 0.920111 0.760475
O O12 0.030289 0.203933 0.690702
O O13 0.626219 0.950439 0.102334
O O14 0.818646 0.400382 0.246712
O O15 0.500000 0.000000 0.500000
#
# Coordination Sequence:
#
# PCOD9009192 Si02
#       7
#     2   2   2   2   2   2   2
#     4  11  25  42  68 103 133 181 225 268 342 407
#     4  11  24  43  67  93 143 174 220 280 333 396
#     4  10  21  39  67  95 126 177 218 275 337 388
#     4  11  22  42  70  97 136 177 222 278 335 401
#     4  11  21  45  65  97 137 177 218 281 332 400
#     4  11  20  39  70  96 127 174 223 274 334 386
#     4  11  24  42  63  97 137 176 225 279 333 398
#
# _framework density 22.951608
#
# number of rings (size 3 to 8) (size 9 to 14) (size 15 to 20)
#    0.000    1.143    5.714    1.286    2.000    1.143 
#    0.000    2.143    0.000    0.000    0.000    0.000 
#    0.000    0.000    0.000    0.000    0.000    0.000 
#
# Total GULP energy -78203.099930 kJ/mol
# GULP energy per Si atom -5585.935709 kJ/mol
# Density = 2.289937 g / cm^3
# Si number density = 22.951608 Si / 1000 Ang^3
#
#
#
# Elastic Constant Matrix: (Units=GPa)
#
#
# Indices 1 2 3 4 5 6 
#
# 1 38.8273 14.4363 20.0023 -5.6400 -7.8975 15.4309
# 2 14.4363 106.4835 62.6495 17.2739 4.3188 1.3836
# 3 20.0023 62.6495 180.5194 -2.4332 -17.0744 2.9669
# 4 -5.6400 17.2739 -2.4332 36.2823 2.3636 1.8791
# 5 -7.8975 4.3188 -17.0744 2.3636 32.2156 0.0196
# 6 15.4309 1.3836 2.9669 1.8791 0.0196 29.3404
#
#
#
# Elastic Compliance Matrix: (Units=1/GPa)
#
#
# Indices 1 2 3 4 5 6 
#
# 1 0.040733 -0.006840 -0.000722 0.010024 0.009798 -0.021676
# 2 -0.006840 0.014865 -0.005124 -0.008312 -0.005778 0.003951
# 3 -0.000722 -0.005124 0.007863 0.002580 0.004488 -0.000342
# 4 0.010024 -0.008312 0.002580 0.033466 0.002488 -0.007286
# 5 0.009798 -0.005778 0.004488 0.002488 0.036417 -0.005518
# 6 -0.021676 0.003951 -0.000342 -0.007286 -0.005518 0.045801
#
#
# Mechanical properties :
#
#
# Convention : Reuss Voigt Hill
#
# Bulk Modulus (GPa) = 26.25394 57.77850 42.01622
# Shear Modulus (GPa) = 23.01889 34.81713 28.91801
#
# Velocity S-wave (km/s) = 3.17035 3.89907 3.55344
# Velocity P-wave (km/s) = 4.98649 6.74530 5.93145
#
# Compressibility (1/GPa) = 0.03808952
#
# Stress axis : x y z
#
# Youngs Moduli (GPa) = 24.54993 67.27290 127.17922
#
# Poissons Ratio (x) = 0.46013 0.09177
# Poissons Ratio (y) = 0.16791 0.65173
# Poissons Ratio (z) = 0.01772 0.34474
#
# Static dielectric constant tensor:
#      x y z
#    x 1.900970 -0.004010 -0.001360 
#    y -0.004010 1.945980 0.017010 
#    z -0.001360 0.017010 1.850240 
# 
# From -- ./inp_files/293959.got.cif
#   From: 2010.05.17/outbox.cif.g08.bks.cpg/sg2_147_cif.got.tgz:293959.got - 2010.06.03 11:33:40.
