data_PCOD9009196
_publ_section_title
;
Structure prediction by ZEFSAII (Michael W. Deem and Ramdas Pophale) SiO2 
 PCOD9009196
Probable space group: P -1
;
_chemical_formula_sum "Si O2"
_cell_formula_units_Z 16
_cell_length_a 11.328744
_cell_length_b 21.156381
_cell_length_c 11.191860
_cell_angle_alpha 138.157323
_cell_angle_beta 63.675594
_cell_angle_gamma 148.876882
_cell_volume 764.085488
_symmetry_space_group_name_H-M "P -1"
_symmetry_group_IT_number 2
_symmetry_cell_setting 'triclinic'
loop_
_space_group_symop_operation_xyz
x,y,z
-x,-y,-z
loop_
_atom_site_type_symbol
_atom_site_label
_atom_site_fract_x
_atom_site_fract_y
_atom_site_fract_z
Si Si1 0.722337 0.764372 0.318197
Si Si2 0.134078 0.834878 0.889854
Si Si3 0.417914 0.028359 0.670128
Si Si4 0.771225 0.402226 0.745985
Si Si5 0.050321 0.675102 0.461844
Si Si6 0.687234 0.198372 0.043550
Si Si7 0.346170 0.623456 0.982618
Si Si8 0.591744 0.577530 0.877547
O O1 0.473203 0.682366 0.299507
O O2 0.640083 0.650193 0.311895
O O3 0.714309 0.682887 0.100423
O O4 0.000000 0.000000 0.500000
O O5 0.053498 0.708669 0.644217
O O6 0.852408 0.710180 0.869473
O O7 0.408072 0.063047 0.039568
O O8 0.240428 0.849135 0.980478
O O9 0.599676 0.128229 0.847931
O O10 0.452155 0.158046 0.796490
O O11 0.500000 0.000000 0.500000
O O12 0.114921 0.809518 0.544664
O O13 0.844193 0.478098 0.957307
O O14 0.709915 0.252028 0.560700
O O15 0.018802 0.564813 0.767720
O O16 0.797418 0.468991 0.212588
O O17 0.475451 0.602508 0.914945
#
# Coordination Sequence:
#
# PCOD9009196 Si02
#       8
#     2   2   2   2   2   2   2   2
#     4  10  23  42  68  97 126 173 220 268 333 391
#     4  10  23  43  63  97 133 180 213 268 329 392
#     4  11  21  39  65  98 130 166 219 276 332 384
#     4  11  20  40  66  98 126 162 219 281 329 373
#     4  11  23  39  65  98 131 167 225 269 332 390
#     4  10  21  39  67  95 129 168 218 269 325 377
#     4  11  23  40  67  97 131 173 216 279 330 383
#     4  10  23  46  63  91 141 171 218 270 321 401
#
# _framework density 20.940062999999999
#
# number of rings (size 3 to 8) (size 9 to 14) (size 15 to 20)
#    0.000    1.500    3.750    1.125    0.000    6.000 
#    2.250    2.500    0.000    0.000    0.000    0.000 
#    0.000    0.000    0.000    0.000    0.000    0.000 
#
# Total GULP energy -89071.751352 kJ/mol
# GULP energy per Si atom -5566.984460 kJ/mol
# Density = 2.089240 g / cm^3
# Si number density = 20.940063 Si / 1000 Ang^3
#
#
#
# Elastic Constant Matrix: (Units=GPa)
#
#
# Indices 1 2 3 4 5 6 
#
# 1 97.7802 57.3684 28.1326 -6.9724 -21.3431 -2.1054
# 2 57.3684 129.5338 44.3182 9.7047 -16.3019 9.0899
# 3 28.1326 44.3182 70.6933 16.0220 -17.2355 7.6406
# 4 -6.9724 9.7047 16.0220 41.5643 -6.0394 -7.7368
# 5 -21.3431 -16.3019 -17.2355 -6.0394 24.7929 -2.7469
# 6 -2.1054 9.0899 7.6406 -7.7368 -2.7469 30.0683
#
#
#
# Elastic Compliance Matrix: (Units=1/GPa)
#
#
# Indices 1 2 3 4 5 6 
#
# 1 0.018684 -0.006909 -0.002933 0.009127 0.012572 0.007639
# 2 -0.006909 0.012584 -0.004385 -0.003497 -0.002046 -0.004260
# 3 -0.002933 -0.004385 0.022377 -0.008113 0.007510 -0.005967
# 4 0.009127 -0.003497 -0.008113 0.033376 0.009511 0.013215
# 5 0.012572 -0.002046 0.007510 0.009511 0.058164 0.007351
# 6 0.007639 -0.004260 -0.005967 0.013215 0.007351 0.040669
#
#
# Mechanical properties :
#
#
# Convention : Reuss Voigt Hill
#
# Bulk Modulus (GPa) = 39.69835 61.96064 50.82949
# Shear Modulus (GPa) = 22.45142 30.49764 26.47453
#
# Velocity S-wave (km/s) = 3.27796 3.82045 3.55956
# Velocity P-wave (km/s) = 5.77286 7.00820 6.42031
#
# Compressibility (1/GPa) = 0.02518997
#
# Stress axis : x y z
#
# Youngs Moduli (GPa) = 53.52226 79.46830 44.68940
#
# Poissons Ratio (x) = 0.54904 0.13108
# Poissons Ratio (y) = 0.36978 0.19597
# Poissons Ratio (z) = 0.15698 0.34848
#
# Static dielectric constant tensor:
#      x y z
#    x 1.775400 -0.052300 0.012500 
#    y -0.052300 1.840950 0.082280 
#    z 0.012500 0.082280 1.868300 
# 
# From -- ./inp_files/438680.got.cif
#   From: 2010.05.17/outbox.cif.g08.bks.cpg/sg2_220_cif.got.tgz:438680.got - 2010.06.03 11:33:40.
