data_PCOD9009005
_publ_section_title
;
Structure prediction by ZEFSAII (Michael W. Deem and Ramdas Pophale) SiO2 
 PCOD9009005
Probable space group: P -1
;
_chemical_formula_sum "Si O2"
_cell_formula_units_Z 16
_cell_length_a 21.412512
_cell_length_b 5.226923
_cell_length_c 12.152927
_cell_angle_alpha 116.996629
_cell_angle_beta 30.972450
_cell_angle_gamma 109.355154
_cell_volume 618.733184
_symmetry_space_group_name_H-M "P -1"
_symmetry_group_IT_number 2
_symmetry_cell_setting 'triclinic'
loop_
_space_group_symop_operation_xyz
x,y,z
-x,-y,-z
loop_
_atom_site_type_symbol
_atom_site_label
_atom_site_fract_x
_atom_site_fract_y
_atom_site_fract_z
Si Si1 0.473843 0.208715 0.925565
Si Si2 0.070172 0.189472 0.801393
Si Si3 0.966965 0.338642 0.351274
Si Si4 0.782178 0.786733 0.644187
Si Si5 0.629335 0.302454 0.381861
Si Si6 0.367521 0.276966 0.857287
Si Si7 0.295736 0.082996 0.594337
Si Si8 0.873212 0.279199 0.719489
O O1 0.413779 0.284979 0.912655
O O2 0.595164 0.996164 0.674922
O O3 0.500000 0.500000 0.000000
O O4 0.359594 0.105049 0.141551
O O5 0.145937 0.201921 0.576112
O O6 0.167888 0.088851 0.727846
O O7 0.988712 0.935839 0.843724
O O8 0.000000 0.500000 0.000000
O O9 0.828803 0.459369 0.547083
O O10 0.957816 0.262441 0.478359
O O11 0.050533 0.599312 0.273335
O O12 0.823582 0.973051 0.721089
O O13 0.481924 0.361681 0.629500
O O14 0.686586 0.594405 0.329014
O O15 0.652890 0.048136 0.207963
O O16 0.680664 0.151823 0.389584
O O17 0.244810 0.487478 0.067642
#
# Coordination Sequence:
#
# PCOD9009005 Si02
#       8
#     2   2   2   2   2   2   2   2
#     4  11  24  42  75 108 145 182 234 301 371 437
#     4  11  28  45  67 100 142 190 242 297 356 440
#     4  10  22  42  63  99 135 175 239 288 354 422
#     4  11  23  42  71 100 140 184 235 298 368 432
#     4  10  25  45  71 104 142 190 242 299 357 437
#     4  10  22  42  69 102 141 183 237 294 358 428
#     4  11  26  47  73 104 146 190 246 296 368 431
#     4  10  21  39  66  96 136 179 229 293 349 422
#
# _framework density 25.859287999999999
#
# number of rings (size 3 to 8) (size 9 to 14) (size 15 to 20)
#    0.000    1.500    1.250    1.875    8.750    7.500 
#    0.000    0.000    0.000    0.000    0.000    0.000 
#    0.000    0.000    0.000    0.000    0.000    0.000 
#
# Total GULP energy -89611.767113 kJ/mol
# GULP energy per Si atom -5600.735445 kJ/mol
# Density = 2.580043 g / cm^3
# Si number density = 25.859288 Si / 1000 Ang^3
#
#
#
# Elastic Constant Matrix: (Units=GPa)
#
#
# Indices 1 2 3 4 5 6 
#
# 1 118.0708 25.5088 57.3976 10.1253 -1.1091 22.6634
# 2 25.5088 89.7517 32.9441 26.8737 9.8145 27.0570
# 3 57.3976 32.9441 161.3783 24.7088 4.9703 13.7072
# 4 10.1253 26.8737 24.7088 39.7428 -3.1827 13.1528
# 5 -1.1091 9.8145 4.9703 -3.1827 40.7098 7.2342
# 6 22.6634 27.0570 13.7072 13.1528 7.2342 43.9808
#
#
#
# Elastic Compliance Matrix: (Units=1/GPa)
#
#
# Indices 1 2 3 4 5 6 
#
# 1 0.011334 -0.001216 -0.003746 0.002046 0.002086 -0.004880
# 2 -0.001216 0.016672 -0.001028 -0.008562 -0.003499 -0.006174
# 3 -0.003746 -0.001028 0.008288 -0.004096 -0.001443 0.001442
# 4 0.002046 -0.008562 -0.004096 0.035553 0.006503 -0.006213
# 5 0.002086 -0.003499 -0.001443 0.006503 0.027013 -0.004861
# 6 -0.004880 -0.006174 0.001442 -0.006213 -0.004861 0.031258
#
#
# Mechanical properties :
#
#
# Convention : Reuss Voigt Hill
#
# Bulk Modulus (GPa) = 41.12770 66.76686 53.94728
# Shear Modulus (GPa) = 33.28834 41.77670 37.53252
#
# Velocity S-wave (km/s) = 3.59177 4.02374 3.81388
# Velocity P-wave (km/s) = 5.75674 6.88931 6.34833
#
# Compressibility (1/GPa) = 0.02431451
#
# Stress axis : x y z
#
# Youngs Moduli (GPa) = 88.22961 59.98042 120.65786
#
# Poissons Ratio (x) = 0.07293 0.45198
# Poissons Ratio (y) = 0.10727 0.12403
# Poissons Ratio (z) = 0.33050 0.06166
#
# Static dielectric constant tensor:
#      x y z
#    x 2.004000 -0.016630 0.012390 
#    y -0.016630 2.116720 -0.093530 
#    z 0.012390 -0.093530 2.049860 
# 
# From -- ./inp_files/542085.got.cif
#   From: 2010.05.17/outbox.cif.g08.bks.cpg/sg2_272_cif.got.tgz:542085.got - 2010.06.03 11:33:40.
