data_PCOD9009363
_publ_section_title
;
Structure prediction by ZEFSAII (Michael W. Deem and Ramdas Pophale) SiO2 
 PCOD9009363
Probable space group: P -1
;
_chemical_formula_sum "Si O2"
_cell_formula_units_Z 16
_cell_length_a 8.012201
_cell_length_b 12.279831
_cell_length_c 17.744679
_cell_angle_alpha 30.619209
_cell_angle_beta 58.410785
_cell_angle_gamma 74.052236
_cell_volume 692.318540
_symmetry_space_group_name_H-M "P -1"
_symmetry_group_IT_number 2
_symmetry_cell_setting 'triclinic'
loop_
_space_group_symop_operation_xyz
x,y,z
-x,-y,-z
loop_
_atom_site_type_symbol
_atom_site_label
_atom_site_fract_x
_atom_site_fract_y
_atom_site_fract_z
Si Si1 0.026901 0.046431 0.256885
Si Si2 0.838604 0.160017 0.782066
Si Si3 0.490731 0.230350 0.441838
Si Si4 0.825174 0.898371 0.168112
Si Si5 0.093606 0.675034 0.996518
Si Si6 0.480700 0.752827 0.750798
Si Si7 0.882157 0.762908 0.714324
Si Si8 0.532147 0.699396 0.223613
O O1 0.050700 0.251332 0.069692
O O2 0.125796 0.154307 0.248062
O O3 0.771196 0.900592 0.416030
O O4 0.130362 0.894635 0.279209
O O5 0.708099 0.321294 0.721403
O O6 0.070215 0.234602 0.722873
O O7 0.685625 0.917829 0.005153
O O8 0.557425 0.282323 0.308123
O O9 0.556914 0.466361 0.332077
O O10 0.566561 0.035018 0.570946
O O11 0.608895 0.759383 0.256163
O O12 0.820576 0.114521 0.088956
O O13 0.000000 0.000000 0.000000
O O14 0.277182 0.663859 0.905394
O O15 0.007928 0.421105 0.205134
O O16 0.648941 0.652207 0.797679
O O17 0.000000 0.000000 0.500000
#
# Coordination Sequence:
#
# PCOD9009363 Si02
#       8
#     2   2   2   2   2   2   2   2
#     4  10  22  43  61  93 137 166 212 265 328 387
#     4   9  21  39  63  94 127 166 224 264 314 396
#     4  10  22  43  62  90 136 169 207 274 324 378
#     4   9  20  41  61  97 126 162 221 265 316 383
#     4  10  23  42  68  88 131 171 210 265 321 391
#     4  10  23  41  61  93 130 166 218 261 322 385
#     4  12  24  39  63 102 125 166 215 266 325 380
#     4  10  21  39  68  94 123 175 218 264 328 375
#
# _framework density 23.110748999999998
#
# number of rings (size 3 to 8) (size 9 to 14) (size 15 to 20)
#    0.000    2.000    1.250    0.750    3.500    6.500 
#    2.250    5.625    0.000    0.000    0.000    0.000 
#    0.000    0.000    0.000    0.000    0.000    0.000 
#
# Total GULP energy -89439.716524 kJ/mol
# GULP energy per Si atom -5589.982283 kJ/mol
# Density = 2.305815 g / cm^3
# Si number density = 23.110749 Si / 1000 Ang^3
#
#
#
# Elastic Constant Matrix: (Units=GPa)
#
#
# Indices 1 2 3 4 5 6 
#
# 1 59.4760 26.2641 15.4335 -4.8679 14.8675 2.1367
# 2 26.2641 130.4866 34.4999 -2.8064 17.5001 11.0294
# 3 15.4335 34.4999 88.8341 -10.8626 8.0412 6.4785
# 4 -4.8679 -2.8064 -10.8626 22.8046 -6.3905 -3.0167
# 5 14.8675 17.5001 8.0412 -6.3905 27.2290 6.3551
# 6 2.1367 11.0294 6.4785 -3.0167 6.3551 38.7096
#
#
#
# Elastic Compliance Matrix: (Units=1/GPa)
#
#
# Indices 1 2 3 4 5 6 
#
# 1 0.020748 -0.002568 -0.001768 0.000860 -0.009299 0.001476
# 2 -0.002568 0.009619 -0.003075 -0.002163 -0.004008 -0.001595
# 3 -0.001768 -0.003075 0.013474 0.005684 0.000512 -0.000922
# 4 0.000860 -0.002163 0.005684 0.049646 0.010482 0.001766
# 5 -0.009299 -0.004008 0.000512 0.010482 0.047969 -0.005489
# 6 0.001476 -0.001595 -0.000922 0.001766 -0.005489 0.027399
#
#
# Mechanical properties :
#
#
# Convention : Reuss Voigt Hill
#
# Bulk Modulus (GPa) = 34.45939 47.91019 41.18479
# Shear Modulus (GPa) = 25.85964 31.25525 28.55744
#
# Velocity S-wave (km/s) = 3.34869 3.68150 3.51903
# Velocity P-wave (km/s) = 5.46759 6.23274 5.86266
#
# Compressibility (1/GPa) = 0.02901966
#
# Stress axis : x y z
#
# Youngs Moduli (GPa) = 48.19715 103.95804 74.21521
#
# Poissons Ratio (x) = 0.26694 0.13122
# Poissons Ratio (y) = 0.12376 0.22822
# Poissons Ratio (z) = 0.08522 0.31968
#
# Static dielectric constant tensor:
#      x y z
#    x 1.885660 -0.013010 -0.057450 
#    y -0.013010 1.806440 0.010520 
#    z -0.057450 0.010520 1.976850 
# 
# From -- ./inp_files/218950.got.cif
#   From: 2010.05.17/outbox.cif.g08.bks.cpg/sg2_110_cif.got.tgz:218950.got - 2010.06.03 11:33:40.
