data_PCOD9009089
_publ_section_title
;
Structure prediction by ZEFSAII (Michael W. Deem and Ramdas Pophale) SiO2 
 PCOD9009089
Probable space group: P -1
;
_chemical_formula_sum "Si O2"
_cell_formula_units_Z 14
_cell_length_a 20.345706
_cell_length_b 13.100722
_cell_length_c 5.124478
_cell_angle_alpha 80.916188
_cell_angle_beta 99.726748
_cell_angle_gamma 33.190841
_cell_volume 613.233397
_symmetry_space_group_name_H-M "P -1"
_symmetry_group_IT_number 2
_symmetry_cell_setting 'triclinic'
loop_
_space_group_symop_operation_xyz
x,y,z
-x,-y,-z
loop_
_atom_site_type_symbol
_atom_site_label
_atom_site_fract_x
_atom_site_fract_y
_atom_site_fract_z
Si Si1 0.678853 0.364703 0.190136
Si Si2 0.598452 0.694111 0.084886
Si Si3 0.119702 0.562205 0.584847
Si Si4 0.109913 0.443164 0.114833
Si Si5 0.949899 0.004515 0.211698
Si Si6 0.595370 0.299352 0.450739
Si Si7 0.406676 0.930790 0.351117
O O1 0.683275 0.469395 0.289202
O O2 0.712803 0.216778 0.444252
O O3 0.778792 0.229735 0.057222
O O4 0.512229 0.584039 0.903775
O O5 0.716579 0.620881 0.208408
O O6 0.474389 0.872500 0.146254
O O7 0.528440 0.781380 0.715935
O O8 0.111921 0.486987 0.386868
O O9 0.020962 0.794622 0.345644
O O10 0.070921 0.584097 0.820295
O O11 0.267125 0.185914 0.239840
O O12 0.000000 0.500000 0.000000
O O13 0.000000 0.000000 0.500000
O O14 0.000000 0.000000 0.000000
O O15 0.500000 0.500000 0.500000
O O16 0.635720 0.133214 0.664707
#
# Coordination Sequence:
#
# PCOD9009089 Si02
#       7
#     2   2   2   2   2   2   2
#     4  10  23  40  64 104 144 174 229 288 351 429
#     4  11  23  43  73 105 138 176 237 297 350 424
#     4  12  27  48  74 103 141 191 238 293 357 414
#     4  12  29  51  70 101 143 189 244 293 345 430
#     4  12  27  44  73 108 144 186 227 287 370 425
#     4  10  21  39  67 101 137 185 226 286 356 411
#     4  11  25  43  73 101 141 185 237 293 349 412
#
# _framework density 22.829809000000001
#
# number of rings (size 3 to 8) (size 9 to 14) (size 15 to 20)
#    0.000    0.857    2.857    3.000    8.000    4.571 
#    0.000    0.000    0.000    0.000    0.000    0.000 
#    0.000    0.000    0.000    0.000    0.000    0.000 
#
# Total GULP energy -78371.551686 kJ/mol
# GULP energy per Si atom -5597.967978 kJ/mol
# Density = 2.277785 g / cm^3
# Si number density = 22.829809 Si / 1000 Ang^3
#
#
#
# Elastic Constant Matrix: (Units=GPa)
#
#
# Indices 1 2 3 4 5 6 
#
# 1 116.5448 -8.3375 23.8845 2.7359 9.7171 -10.0974
# 2 -8.3375 66.7430 0.0374 -2.2863 13.7192 -2.9179
# 3 23.8845 0.0374 53.5029 16.6894 -2.5066 3.1469
# 4 2.7359 -2.2863 16.6894 40.9748 5.9446 -5.5502
# 5 9.7171 13.7192 -2.5066 5.9446 32.5425 13.4166
# 6 -10.0974 -2.9179 3.1469 -5.5502 13.4166 41.1442
#
#
#
# Elastic Compliance Matrix: (Units=1/GPa)
#
#
# Indices 1 2 3 4 5 6 
#
# 1 0.011851 0.004047 -0.007808 0.005108 -0.009967 0.007732
# 2 0.004047 0.018902 -0.004762 0.005830 -0.013916 0.008022
# 3 -0.007808 -0.004762 0.028004 -0.014589 0.013615 -0.010804
# 4 0.005108 0.005830 -0.014589 0.034504 -0.016724 0.012891
# 5 -0.009967 -0.013916 0.013615 -0.016724 0.053665 -0.024230
# 6 0.007732 0.008022 -0.010804 0.012891 -0.024230 0.037238
#
#
# Mechanical properties :
#
#
# Convention : Reuss Voigt Hill
#
# Bulk Modulus (GPa) = 23.97550 29.77328 26.87439
# Shear Modulus (GPa) = 23.24346 37.67940 30.46143
#
# Velocity S-wave (km/s) = 3.19426 4.06698 3.65675
# Velocity P-wave (km/s) = 4.91213 5.92650 5.44300
#
# Compressibility (1/GPa) = 0.04170924
#
# Stress axis : x y z
#
# Youngs Moduli (GPa) = 84.38028 52.90491 35.70927
#
# Poissons Ratio (x) = -0.21408 0.27884
# Poissons Ratio (y) = -0.34145 0.17004
# Poissons Ratio (z) = 0.65888 0.25193
#
# Static dielectric constant tensor:
#      x y z
#    x 1.896360 0.010450 -0.006930 
#    y 0.010450 1.816390 -0.032360 
#    z -0.006930 -0.032360 1.875950 
# 
# From -- ./inp_files/109060.got.cif
#   From: 2010.05.17/outbox.cif.g08.bks.cpg/sg2_55_cif.got.tgz:109060.got - 2010.06.03 11:33:40.
