data_PCOD9009319
_publ_section_title
;
Structure prediction by ZEFSAII (Michael W. Deem and Ramdas Pophale) SiO2 
 PCOD9009319
Probable space group: P -1
;
_chemical_formula_sum "Si O2"
_cell_formula_units_Z 16
_cell_length_a 16.930446
_cell_length_b 5.517600
_cell_length_c 9.087472
_cell_angle_alpha 86.077018
_cell_angle_beta 106.898135
_cell_angle_gamma 110.136373
_cell_volume 762.134836
_symmetry_space_group_name_H-M "P -1"
_symmetry_group_IT_number 2
_symmetry_cell_setting 'triclinic'
loop_
_space_group_symop_operation_xyz
x,y,z
-x,-y,-z
loop_
_atom_site_type_symbol
_atom_site_label
_atom_site_fract_x
_atom_site_fract_y
_atom_site_fract_z
Si Si1 0.772020 0.479148 0.900784
Si Si2 0.602587 0.863954 0.458428
Si Si3 0.227979 0.935102 0.628762
Si Si4 0.918708 0.594210 0.476899
Si Si5 0.918708 0.243207 0.941811
Si Si6 0.397413 0.658783 0.355842
Si Si7 0.129166 0.129164 0.314583
Si Si8 0.859717 0.859719 0.179858
O O1 0.825584 0.286434 0.908047
O O2 0.669511 0.374819 0.814079
O O3 0.812241 0.696579 0.788830
O O4 0.799755 0.608349 0.068994
O O5 0.500000 0.762998 0.365186
O O6 0.618062 0.618060 0.559030
O O7 0.669512 0.964205 0.355431
O O8 0.617924 0.117922 0.558963
O O9 0.174416 0.635263 0.582457
O O10 0.187758 0.072095 0.476589
O O11 0.200242 0.008825 0.769237
O O12 0.922824 0.714757 0.634835
O O13 0.917197 0.792141 0.339885
O O14 0.000000 0.500000 0.500000
O O15 0.922822 0.130894 0.787988
O O16 0.000000 0.500000 0.000000
O O17 0.917198 0.042250 0.077311
#
# Coordination Sequence:
#
# PCOD9009319 Si02
#       8
#     2   2   2   2   2   2   2   2
#     4  11  22  40  65  94 130 171 217 271 337 397
#     4  10  21  39  68 104 137 172 225 283 338 401
#     4  11  22  40  65  94 130 171 217 271 337 397
#     4  11  25  43  64  90 128 172 221 275 333 397
#     4  11  25  43  64  90 128 172 221 275 333 397
#     4  10  21  39  68 104 137 172 225 283 338 401
#     4  10  22  39  65  92 118 168 223 264 326 401
#     4  10  26  43  61  92 128 172 217 274 338 401
#
# _framework density 20.993659999999998
#
# number of rings (size 3 to 8) (size 9 to 14) (size 15 to 20)
#    0.000    1.500    1.250    3.000    3.500   10.000 
#    0.000    4.375    0.000    3.000    0.000    0.000 
#    0.000    0.000    0.000    0.000    0.000    0.000 
#
# Total GULP energy -89492.480772 kJ/mol
# GULP energy per Si atom -5593.280048 kJ/mol
# Density = 2.094588 g / cm^3
# Si number density = 20.993660 Si / 1000 Ang^3
#
#
#
# Elastic Constant Matrix: (Units=GPa)
#
#
# Indices 1 2 3 4 5 6 
#
# 1 111.5744 39.8898 47.7196 26.6576 -3.0657 3.4068
# 2 39.8898 87.3744 19.2774 16.6555 -4.7695 -7.3928
# 3 47.7196 19.2774 99.9723 28.2064 -9.7903 -5.7188
# 4 26.6576 16.6555 28.2064 41.2271 -8.9651 -6.5828
# 5 -3.0657 -4.7695 -9.7903 -8.9651 36.5581 0.3519
# 6 3.4068 -7.3928 -5.7188 -6.5828 0.3519 31.6610
#
#
#
# Elastic Compliance Matrix: (Units=1/GPa)
#
#
# Indices 1 2 3 4 5 6 
#
# 1 0.014036 -0.004891 -0.004806 -0.004951 -0.001919 -0.004529
# 2 -0.004891 0.014339 0.000486 -0.002181 0.001022 0.003497
# 3 -0.004806 0.000486 0.014222 -0.006088 0.001958 0.001912
# 4 -0.004951 -0.002181 -0.006088 0.034814 0.006149 0.006094
# 5 -0.001919 0.001022 0.001958 0.006149 0.029341 0.001751
# 6 -0.004529 0.003497 0.001912 0.006094 0.001751 0.034481
#
#
# Mechanical properties :
#
#
# Convention : Reuss Voigt Hill
#
# Bulk Modulus (GPa) = 41.37084 56.96610 49.16847
# Shear Modulus (GPa) = 29.81258 34.69153 32.25205
#
# Velocity S-wave (km/s) = 3.77248 4.06948 3.92379
# Velocity P-wave (km/s) = 6.22291 7.01959 6.63322
#
# Compressibility (1/GPa) = 0.02417162
#
# Stress axis : x y z
#
# Youngs Moduli (GPa) = 71.24730 69.74218 70.31348
#
# Poissons Ratio (x) = 0.34114 0.33795
# Poissons Ratio (y) = 0.34850 -0.03414
# Poissons Ratio (z) = 0.34244 -0.03386
#
# Static dielectric constant tensor:
#      x y z
#    x 1.755280 -0.028760 0.014730 
#    y -0.028760 1.832460 -0.001790 
#    z 0.014730 -0.001790 1.709950 
# 
# From -- ./inp_files/143299.got.cif
#   From: 2010.05.17/outbox.cif.g08.bks.cpg/sg2_72_cif.got.tgz:143299.got - 2010.06.03 11:33:40.
