data_PCOD9009573
_publ_section_title
;
Structure prediction by ZEFSAII (Michael W. Deem and Ramdas Pophale) SiO2 
 PCOD9009573
Probable space group: P -1
;
_chemical_formula_sum "Si O2"
_cell_formula_units_Z 14
_cell_length_a 8.676720
_cell_length_b 18.235755
_cell_length_c 9.040335
_cell_angle_alpha 29.799716
_cell_angle_beta 108.950962
_cell_angle_gamma 120.431123
_cell_volume 590.551124
_symmetry_space_group_name_H-M "P -1"
_symmetry_group_IT_number 2
_symmetry_cell_setting 'triclinic'
loop_
_space_group_symop_operation_xyz
x,y,z
-x,-y,-z
loop_
_atom_site_type_symbol
_atom_site_label
_atom_site_fract_x
_atom_site_fract_y
_atom_site_fract_z
Si Si1 0.864766 0.571164 0.879088
Si Si2 0.858798 0.320739 0.847806
Si Si3 0.490992 0.119186 0.914615
Si Si4 0.856327 0.769775 0.989582
Si Si5 0.893282 0.034461 0.768562
Si Si6 0.317601 0.494091 0.369651
Si Si7 0.604700 0.481915 0.203575
O O1 0.711248 0.526422 0.778926
O O2 0.984509 0.770621 0.570228
O O3 0.785512 0.497245 0.145255
O O4 0.000000 0.500000 0.000000
O O5 0.690499 0.193368 0.919363
O O6 0.740743 0.364015 0.855115
O O7 0.000000 0.500000 0.500000
O O8 0.976698 0.222235 0.069437
O O9 0.495586 0.294302 0.561983
O O10 0.500000 0.000000 0.000000
O O11 0.312734 0.020901 0.135924
O O12 0.841422 0.669293 0.313248
O O13 0.681746 0.641543 0.058913
O O14 0.872430 0.934663 0.782424
O O15 0.000000 0.000000 0.000000
O O16 0.500000 0.500000 0.500000
O O17 0.500000 0.500000 0.000000
#
# Coordination Sequence:
#
# PCOD9009573 Si02
#       7
#     2   2   2   2   2   2   2
#     4  12  27  45  72 111 155 186 241 320 393 427
#     4  10  21  39  70 106 134 185 255 299 347 427
#     4  12  25  43  73 106 141 188 252 302 359 443
#     4  11  23  42  75 101 142 195 256 290 365 452
#     4  12  25  44  75 110 144 196 255 306 359 460
#     4  11  21  41  74 104 136 201 257 296 350 467
#     4  12  26  45  70 108 147 188 236 309 378 430
#
# _framework density 23.706671
#
# number of rings (size 3 to 8) (size 9 to 14) (size 15 to 20)
#    0.000    0.571    4.286    5.143    4.000    0.571 
#    0.000    1.429    0.000    6.857    0.000    0.000 
#    0.000    0.000    0.000    0.000    0.000    0.000 
#
# Total GULP energy -78053.388108 kJ/mol
# GULP energy per Si atom -5575.242008 kJ/mol
# Density = 2.365271 g / cm^3
# Si number density = 23.706671 Si / 1000 Ang^3
#
#
#
# Elastic Constant Matrix: (Units=GPa)
#
#
# Indices 1 2 3 4 5 6 
#
# 1 131.1631 68.7372 13.2544 -12.3775 7.8386 -8.0272
# 2 68.7372 217.9246 37.3273 -26.0722 10.8669 -17.4477
# 3 13.2544 37.3273 50.4358 -9.7256 -1.0456 -10.6202
# 4 -12.3775 -26.0722 -9.7256 46.4802 -6.7574 7.8218
# 5 7.8386 10.8669 -1.0456 -6.7574 34.2306 -4.5375
# 6 -8.0272 -17.4477 -10.6202 7.8218 -4.5375 49.7271
#
#
#
# Elastic Compliance Matrix: (Units=1/GPa)
#
#
# Indices 1 2 3 4 5 6 
#
# 1 0.009213 -0.002705 -0.000252 0.000678 -0.001088 0.000278
# 2 -0.002705 0.006374 -0.003533 0.001851 -0.001059 0.000657
# 3 -0.000252 -0.003533 0.023870 0.002758 0.002937 0.003652
# 4 0.000678 0.001851 0.002758 0.024225 0.003844 -0.002112
# 5 -0.001088 -0.001059 0.002937 0.003844 0.030952 0.002300
# 6 0.000278 0.000657 0.003652 -0.002112 0.002300 0.021707
#
#
# Mechanical properties :
#
#
# Convention : Reuss Voigt Hill
#
# Bulk Modulus (GPa) = 37.76973 70.90680 54.33826
# Shear Modulus (GPa) = 36.19299 44.76790 40.48044
#
# Velocity S-wave (km/s) = 3.91154 4.35030 4.13674
# Velocity P-wave (km/s) = 6.03050 7.43024 6.76666
#
# Compressibility (1/GPa) = 0.02647623
#
# Stress axis : x y z
#
# Youngs Moduli (GPa) = 108.53879 156.88525 41.89356
#
# Poissons Ratio (x) = 0.42440 0.01057
# Poissons Ratio (y) = 0.29361 0.14801
# Poissons Ratio (z) = 0.02739 0.55429
#
# Static dielectric constant tensor:
#      x y z
#    x 2.181430 -0.041650 0.026100 
#    y -0.041650 1.952040 0.003510 
#    z 0.026100 0.003510 1.907820 
# 
# From -- ./inp_files/216367.got.cif
#   From: 2010.05.17/outbox.cif.g08.bks.cpg/sg2_109_cif.got.tgz:216367.got - 2010.06.03 11:33:40.
