data_PCOD9009662
_publ_section_title
;
Structure prediction by ZEFSAII (Michael W. Deem and Ramdas Pophale) SiO2 
 PCOD9009662
Probable space group: P -1
;
_chemical_formula_sum "Si O2"
_cell_formula_units_Z 16
_cell_length_a 8.737653
_cell_length_b 11.148506
_cell_length_c 8.159846
_cell_angle_alpha 87.568986
_cell_angle_beta 122.127732
_cell_angle_gamma 86.526606
_cell_volume 669.282402
_symmetry_space_group_name_H-M "P -1"
_symmetry_group_IT_number 2
_symmetry_cell_setting 'triclinic'
loop_
_space_group_symop_operation_xyz
x,y,z
-x,-y,-z
loop_
_atom_site_type_symbol
_atom_site_label
_atom_site_fract_x
_atom_site_fract_y
_atom_site_fract_z
Si Si1 0.109827 0.261208 0.935999
Si Si2 0.803048 0.391070 0.969767
Si Si3 0.516513 0.455247 0.327704
Si Si4 0.169438 0.470037 0.712350
Si Si5 0.509940 0.194082 0.239540
Si Si6 0.268306 0.048137 0.562711
Si Si7 0.591602 0.165845 0.896487
Si Si8 0.929182 0.991114 0.200816
O O1 0.158434 0.342624 0.803758
O O2 0.020760 0.140713 0.839172
O O3 0.973533 0.348795 0.960519
O O4 0.294060 0.212122 0.135819
O O5 0.688660 0.516082 0.851702
O O6 0.668254 0.288614 0.881733
O O7 0.846777 0.416872 0.179140
O O8 0.500000 0.500000 0.500000
O O9 0.647396 0.527029 0.286306
O O10 0.580771 0.315744 0.341997
O O11 0.000000 0.500000 0.500000
O O12 0.613217 0.079380 0.391856
O O13 0.537894 0.176895 0.059200
O O14 0.105718 0.062238 0.335616
O O15 0.422102 0.136486 0.689510
O O16 0.162751 0.034605 0.675221
O O17 0.766287 0.064913 0.002790
#
# Coordination Sequence:
#
# PCOD9009662 Si02
#       8
#     2   2   2   2   2   2   2   2
#     4  12  24  44  71  99 147 192 233 296 359 420
#     4  12  27  45  70 103 148 189 238 294 357 427
#     4  12  27  47  72 106 141 185 241 299 356 434
#     4  12  27  45  70 104 140 188 242 293 360 429
#     4  11  21  43  73  94 141 186 238 290 365 416
#     4  10  21  39  72 104 134 190 240 294 358 424
#     4  11  21  46  69 105 138 195 235 294 362 416
#     4  10  22  39  69 105 139 182 246 295 347 435
#
# _framework density 23.906202
#
# number of rings (size 3 to 8) (size 9 to 14) (size 15 to 20)
#    0.000    0.750    5.000    3.000    5.250    1.500 
#    0.000    0.625    0.000    0.000    0.000    0.000 
#    0.000    0.000    0.000    0.000    0.000    0.000 
#
# Total GULP energy -89537.279399 kJ/mol
# GULP energy per Si atom -5596.079962 kJ/mol
# Density = 2.385179 g / cm^3
# Si number density = 23.906202 Si / 1000 Ang^3
#
#
#
# Elastic Constant Matrix: (Units=GPa)
#
#
# Indices 1 2 3 4 5 6 
#
# 1 117.8896 48.9403 52.9879 12.8629 9.2528 -10.3887
# 2 48.9403 102.5855 19.8855 26.1045 2.3146 -12.9083
# 3 52.9879 19.8855 101.6753 28.4370 27.4802 -2.2876
# 4 12.8629 26.1045 28.4370 31.8306 -3.4989 12.9470
# 5 9.2528 2.3146 27.4802 -3.4989 36.4173 4.5489
# 6 -10.3887 -12.9083 -2.2876 12.9470 4.5489 41.5285
#
#
#
# Elastic Compliance Matrix: (Units=1/GPa)
#
#
# Indices 1 2 3 4 5 6 
#
# 1 0.016177 -0.011332 -0.015227 0.020847 0.011106 -0.008030
# 2 -0.011332 0.026927 0.020571 -0.048088 -0.021982 0.024068
# 3 -0.015227 0.020571 0.044426 -0.067369 -0.041251 0.030553
# 4 0.020847 -0.048088 -0.067369 0.159566 0.072816 -0.071166
# 5 0.011106 -0.021982 -0.041251 0.072816 0.068725 -0.036555
# 6 -0.008030 0.024068 0.030553 -0.071166 -0.036555 0.057426
#
#
# Mechanical properties :
#
#
# Convention : Reuss Voigt Hill
#
# Bulk Modulus (GPa) = 13.23540 62.86418 38.04979
# Shear Modulus (GPa) = 12.18300 35.31105 23.74703
#
# Velocity S-wave (km/s) = 2.25992 3.84743 3.15515
# Velocity P-wave (km/s) = 3.51540 6.78898 5.40594
#
# Compressibility (1/GPa) = 0.07555494
#
# Stress axis : x y z
#
# Youngs Moduli (GPa) = 61.81631 37.13678 22.50928
#
# Poissons Ratio (x) = 0.42082 0.34275
# Poissons Ratio (y) = 0.70047 -0.46304
# Poissons Ratio (z) = 0.94129 -0.76394
#
# Static dielectric constant tensor:
#      x y z
#    x 1.904450 0.011350 0.013570 
#    y 0.011350 1.957160 0.040170 
#    z 0.013570 0.040170 1.991680 
# 
# From -- ./inp_files/188868.got.cif
#   From: 2010.05.17/outbox.cif.g08.bks.cpg/sg2_95_cif.got.tgz:188868.got - 2010.06.03 11:33:40.
