data_PCOD9009120
_publ_section_title
;
Structure prediction by ZEFSAII (Michael W. Deem and Ramdas Pophale) SiO2 
 PCOD9009120
Probable space group: P -1
;
_chemical_formula_sum "Si O2"
_cell_formula_units_Z 10
_cell_length_a 10.068448
_cell_length_b 13.221556
_cell_length_c 9.500773
_cell_angle_alpha 149.008695
_cell_angle_beta 43.310372
_cell_angle_gamma 135.562556
_cell_volume 431.884140
_symmetry_space_group_name_H-M "P -1"
_symmetry_group_IT_number 2
_symmetry_cell_setting 'triclinic'
loop_
_space_group_symop_operation_xyz
x,y,z
-x,-y,-z
loop_
_atom_site_type_symbol
_atom_site_label
_atom_site_fract_x
_atom_site_fract_y
_atom_site_fract_z
Si Si1 0.818180 0.609977 0.769315
Si Si2 0.632520 0.657828 0.247650
Si Si3 0.756859 0.772345 0.720825
Si Si4 0.793618 0.027358 0.748694
Si Si5 0.719719 0.420496 0.134961
O O1 0.601259 0.443830 0.723420
O O2 0.842043 0.757052 0.790831
O O3 0.000000 0.500000 0.500000
O O4 0.769102 0.723308 0.082721
O O5 0.636146 0.840315 0.571050
O O6 0.737102 0.497224 0.052122
O O7 0.782146 0.983827 0.872303
O O8 0.828856 0.620150 0.377530
O O9 0.521816 0.660362 0.771988
O O10 0.000000 0.000000 0.500000
O O11 0.777373 0.237712 0.950394
#
# Coordination Sequence:
#
# PCOD9009120 Si02
#       5
#     2   2   2   2   2
#     4  10  21  39  67  82 121 164 195 243 298 355
#     4   9  22  43  59  91 118 157 202 241 301 353
#     4   9  20  38  60  89 111 158 202 240 298 350
#     4  11  23  36  62  91 120 152 197 250 299 348
#     4   9  19  39  64  82 119 152 197 255 292 342
#
# _framework density 23.154357999999998
#
# number of rings (size 3 to 8) (size 9 to 14) (size 15 to 20)
#    0.000    2.400    0.000    1.800    5.600    1.600 
#    0.000   12.000    0.000    0.000    0.000    0.000 
#    0.000    0.000    0.000    0.000    0.000    0.000 
#
# Total GULP energy -55754.675202 kJ/mol
# GULP energy per Si atom -5575.467520 kJ/mol
# Density = 2.310166 g / cm^3
# Si number density = 23.154358 Si / 1000 Ang^3
#
#
#
# Elastic Constant Matrix: (Units=GPa)
#
#
# Indices 1 2 3 4 5 6 
#
# 1 102.5402 66.0994 41.0623 -7.0454 -21.3066 -39.5983
# 2 66.0994 90.3885 28.0588 -3.2680 0.0790 -36.2142
# 3 41.0623 28.0588 44.7710 8.7153 -19.1076 -30.7678
# 4 -7.0454 -3.2680 8.7153 39.9627 -7.6939 -0.9119
# 5 -21.3066 0.0790 -19.1076 -7.6939 30.9923 0.5112
# 6 -39.5983 -36.2142 -30.7678 -0.9119 0.5112 62.2626
#
#
#
# Elastic Compliance Matrix: (Units=1/GPa)
#
#
# Indices 1 2 3 4 5 6 
#
# 1 0.030824 -0.017796 -0.006487 0.009274 0.019440 0.006024
# 2 -0.017796 0.026284 -0.005940 -0.002881 -0.016697 0.001129
# 3 -0.006487 -0.005940 0.063544 -0.008759 0.032171 0.023428
# 4 0.009274 -0.002881 -0.008759 0.029959 0.008416 0.000263
# 5 0.019440 -0.016697 0.032171 0.008416 0.067298 0.018120
# 6 0.006024 0.001129 0.023428 0.000263 0.018120 0.031981
#
#
# Mechanical properties :
#
#
# Convention : Reuss Voigt Hill
#
# Bulk Modulus (GPa) = 16.60954 56.46007 36.53481
# Shear Modulus (GPa) = 15.13297 33.47547 24.30422
#
# Velocity S-wave (km/s) = 2.55927 3.80643 3.24336
# Velocity P-wave (km/s) = 3.99026 6.61481 5.46250
#
# Compressibility (1/GPa) = 0.06020635
#
# Stress axis : x y z
#
# Youngs Moduli (GPa) = 32.44206 38.04622 15.73718
#
# Poissons Ratio (x) = 0.67706 0.10208
# Poissons Ratio (y) = 0.57733 0.09348
# Poissons Ratio (z) = 0.21044 0.22601
#
# Static dielectric constant tensor:
#      x y z
#    x 1.940370 0.015550 0.031750 
#    y 0.015550 1.904080 -0.028850 
#    z 0.031750 -0.028850 1.953010 
# 
# From -- ./inp_files/18047.got.cif
#   From: 2010.05.17/outbox.cif.g08.bks.cpg/sg2_10_cif.got.tgz:18047.got - 2010.06.03 11:33:40.
