data_PCOD9009345
_publ_section_title
;
Structure prediction by ZEFSAII (Michael W. Deem and Ramdas Pophale) SiO2 
 PCOD9009345
Probable space group: P -1
;
_chemical_formula_sum "Si O2"
_cell_formula_units_Z 16
_cell_length_a 15.119667
_cell_length_b 9.714766
_cell_length_c 8.539673
_cell_angle_alpha 122.161695
_cell_angle_beta 107.445540
_cell_angle_gamma 107.807111
_cell_volume 827.900550
_symmetry_space_group_name_H-M "P -1"
_symmetry_group_IT_number 2
_symmetry_cell_setting 'triclinic'
loop_
_space_group_symop_operation_xyz
x,y,z
-x,-y,-z
loop_
_atom_site_type_symbol
_atom_site_label
_atom_site_fract_x
_atom_site_fract_y
_atom_site_fract_z
Si Si1 0.452099 0.512263 0.230717
Si Si2 0.105648 0.209306 0.119177
Si Si3 0.330142 0.774498 0.853893
Si Si4 0.645506 0.522475 0.500525
Si Si5 0.692790 0.947682 0.216032
Si Si6 0.078490 0.424675 0.481851
Si Si7 0.496629 0.122192 0.714410
Si Si8 0.071651 0.986310 0.663018
O O1 0.574817 0.566875 0.376170
O O2 0.400506 0.518869 0.372458
O O3 0.459041 0.661420 0.198853
O O4 0.379842 0.287030 0.997078
O O5 0.225064 0.286976 0.309826
O O6 0.089138 0.375622 0.276356
O O7 0.114660 0.168454 0.918176
O O8 0.000000 0.000000 0.000000
O O9 0.366088 0.672426 0.686609
O O10 0.202237 0.589750 0.716043
O O11 0.319661 0.939609 0.867441
O O12 0.419988 0.855592 0.090513
O O13 0.629385 0.973971 0.341351
O O14 0.822008 0.015567 0.339329
O O15 0.000000 0.500000 0.500000
O O16 0.015365 0.218335 0.415654
O O17 0.500000 0.000000 0.500000
O O18 0.000000 0.000000 0.500000
#
# Coordination Sequence:
#
# PCOD9009345 Si02
#       8
#     2   2   2   2   2   2   2   2
#     4  11  24  40  67  95 127 166 214 266 323 384
#     4   9  20  38  64  92 122 161 212 261 308 377
#     4  11  24  42  68  92 129 173 212 267 325 386
#     4  10  21  39  68  92 126 168 212 260 323 384
#     4  12  24  44  68  91 131 173 222 260 330 393
#     4  10  21  43  66  91 124 168 217 259 316 386
#     4  12  28  43  62  98 138 164 216 270 326 384
#     4  11  24  42  65  97 130 167 216 272 319 378
#
# _framework density 19.325990999999998
#
# number of rings (size 3 to 8) (size 9 to 14) (size 15 to 20)
#    0.000    1.250    3.750    1.500    5.250    2.000 
#    2.250    0.625    0.000    0.000    0.000    0.000 
#    0.000    0.000    0.000    0.000    0.000    0.000 
#
# Total GULP energy -89312.007420 kJ/mol
# GULP energy per Si atom -5582.000464 kJ/mol
# Density = 1.928200 g / cm^3
# Si number density = 19.325991 Si / 1000 Ang^3
#
#
#
# Elastic Constant Matrix: (Units=GPa)
#
#
# Indices 1 2 3 4 5 6 
#
# 1 152.1904 41.2672 60.4261 -9.2410 4.3146 -7.7679
# 2 41.2672 107.5271 40.2851 -2.1403 8.8431 -16.2330
# 3 60.4261 40.2851 94.9196 -0.6595 3.6075 -1.5373
# 4 -9.2410 -2.1403 -0.6595 24.7596 1.2838 5.7472
# 5 4.3146 8.8431 3.6075 1.2838 35.0227 0.9702
# 6 -7.7679 -16.2330 -1.5373 5.7472 0.9702 24.4804
#
#
#
# Elastic Compliance Matrix: (Units=1/GPa)
#
#
# Indices 1 2 3 4 5 6 
#
# 1 0.009277 -0.001329 -0.005289 0.002985 -0.000401 0.001046
# 2 -0.001329 0.012916 -0.004403 -0.001271 -0.002827 0.008277
# 3 -0.005289 -0.004403 0.015698 -0.001174 0.000282 -0.003348
# 4 0.002985 -0.001271 -0.001174 0.043794 -0.001248 -0.010202
# 5 -0.000401 -0.002827 0.000282 -0.001248 0.029412 -0.002856
# 6 0.001046 0.008277 -0.003348 -0.010202 -0.002856 0.048968
#
#
# Mechanical properties :
#
#
# Convention : Reuss Voigt Hill
#
# Bulk Modulus (GPa) = 63.09409 70.95487 67.02448
# Shear Modulus (GPa) = 26.68238 31.02976 28.85607
#
# Velocity S-wave (km/s) = 3.71974 4.01134 3.86829
# Velocity P-wave (km/s) = 7.15309 7.63210 7.39647
#
# Compressibility (1/GPa) = 0.01584935
#
# Stress axis : x y z
#
# Youngs Moduli (GPa) = 107.79501 77.42099 63.70255
#
# Poissons Ratio (x) = 0.10286 0.33692
# Poissons Ratio (y) = 0.14321 0.28051
# Poissons Ratio (z) = 0.57012 0.34092
#
# Static dielectric constant tensor:
#      x y z
#    x 1.720410 0.015950 -0.018490 
#    y 0.015950 1.588530 0.006500 
#    z -0.018490 0.006500 1.667350 
# 
# From -- ./inp_files/189544.got.cif
#   From: 2010.05.17/outbox.cif.g08.bks.cpg/sg2_95_cif.got.tgz:189544.got - 2010.06.03 11:33:40.
