data_PCOD9009976
_publ_section_title
;
Structure prediction by ZEFSAII (Michael W. Deem and Ramdas Pophale) SiO2 
 PCOD9009976
Probable space group: P -1
;
_chemical_formula_sum "Si O2"
_cell_formula_units_Z 16
_cell_length_a 4.927010
_cell_length_b 25.904535
_cell_length_c 5.604173
_cell_angle_alpha 90.565597
_cell_angle_beta 92.983654
_cell_angle_gamma 58.500098
_cell_volume 608.916839
_symmetry_space_group_name_H-M "P -1"
_symmetry_group_IT_number 2
_symmetry_cell_setting 'triclinic'
loop_
_space_group_symop_operation_xyz
x,y,z
-x,-y,-z
loop_
_atom_site_type_symbol
_atom_site_label
_atom_site_fract_x
_atom_site_fract_y
_atom_site_fract_z
Si Si1 0.232726 0.511359 0.796197
Si Si2 0.697245 0.693487 0.133096
Si Si3 0.630106 0.045094 0.005523
Si Si4 0.674650 0.676773 0.636137
Si Si5 0.388980 0.070812 0.492429
Si Si6 0.537938 0.577886 0.605185
Si Si7 0.899696 0.190157 0.358154
Si Si8 0.971259 0.772105 0.135515
O O1 0.286914 0.557255 0.637154
O O2 0.331153 0.450427 0.651405
O O3 0.848803 0.543435 0.798071
O O4 0.500000 0.500000 0.000000
O O5 0.845602 0.663552 0.389503
O O6 0.329349 0.712374 0.129398
O O7 0.708932 0.753993 0.116095
O O8 0.853175 0.658327 0.896542
O O9 0.495547 0.082256 0.755536
O O10 0.554155 0.076366 0.261294
O O11 0.500000 0.000000 0.000000
O O12 0.000000 0.000000 0.000000
O O13 0.460639 0.646117 0.620271
O O14 0.454952 0.750423 0.644160
O O15 0.017571 0.120407 0.421142
O O16 0.500000 0.000000 0.500000
O O17 0.047201 0.203299 0.598894
O O18 0.029534 0.192875 0.101578
#
# Coordination Sequence:
#
# PCOD9009976 Si02
#       8
#     2   2   2   2   2   2   2   2
#     4  10  22  43  67  94 136 176 226 279 340 398
#     4  10  22  40  63  90 131 167 215 263 327 392
#     4  10  21  40  63  90 123 159 212 264 319 384
#     4  10  23  42  66 101 133 176 222 277 336 398
#     4  10  21  40  66  96 128 174 218 271 332 396
#     4  10  23  40  65 100 130 177 229 278 337 410
#     4  10  21  41  65  94 134 170 219 273 331 398
#     4  10  21  40  61  88 125 171 211 266 326 389
#
# _framework density 26.276164999999999
#
# number of rings (size 3 to 8) (size 9 to 14) (size 15 to 20)
#    0.000    2.000    0.000    2.250    1.750    4.000 
#    2.250   30.000    0.000    0.000    0.000    0.000 
#    0.000    0.000    0.000    0.000    0.000    0.000 
#
# Total GULP energy -89213.824909 kJ/mol
# GULP energy per Si atom -5575.864057 kJ/mol
# Density = 2.621636 g / cm^3
# Si number density = 26.276165 Si / 1000 Ang^3
#
#
#
# Elastic Constant Matrix: (Units=GPa)
#
#
# Indices 1 2 3 4 5 6 
#
# 1 105.1154 6.9346 25.3526 0.0367 8.6422 2.0483
# 2 6.9346 87.1875 15.4854 -15.1192 11.2510 -14.1087
# 3 25.3526 15.4854 251.8341 -11.9842 18.1721 -0.3361
# 4 0.0367 -15.1192 -11.9842 30.5382 1.4204 9.1842
# 5 8.6422 11.2510 18.1721 1.4204 33.7378 4.9602
# 6 2.0483 -14.1087 -0.3361 9.1842 4.9602 23.9786
#
#
#
# Elastic Compliance Matrix: (Units=1/GPa)
#
#
# Indices 1 2 3 4 5 6 
#
# 1 0.009917 -0.000582 -0.000852 -0.000340 -0.001769 -0.000705
# 2 -0.000582 0.014453 -0.000151 0.005008 -0.005956 0.007865
# 3 -0.000852 -0.000151 0.004301 0.001772 -0.002093 -0.000202
# 4 -0.000340 0.005008 0.001772 0.039533 -0.002493 -0.011626
# 5 -0.001769 -0.005956 -0.002093 -0.002493 0.034725 -0.009611
# 6 -0.000705 0.007865 -0.000202 -0.011626 -0.009611 0.052830
#
#
# Mechanical properties :
#
#
# Convention : Reuss Voigt Hill
#
# Bulk Modulus (GPa) = 39.21754 59.96468 49.59111
# Shear Modulus (GPa) = 29.86325 44.07522 36.96923
#
# Velocity S-wave (km/s) = 3.37488 4.10003 3.75500
# Velocity P-wave (km/s) = 5.49035 6.72935 6.14118
#
# Compressibility (1/GPa) = 0.02549879
#
# Stress axis : x y z
#
# Youngs Moduli (GPa) = 100.84138 69.19180 232.50290
#
# Poissons Ratio (x) = 0.04029 0.19809
# Poissons Ratio (y) = 0.05871 0.03521
# Poissons Ratio (z) = 0.08592 0.01048
#
# Static dielectric constant tensor:
#      x y z
#    x 2.006470 -0.052190 -0.028550 
#    y -0.052190 2.101960 -0.037900 
#    z -0.028550 -0.037900 2.149600 
# 
# From -- ./inp_files/14555.got.cif
#   From: 2010.05.17/outbox.cif.g08.bks.cpg/sg2_8_cif.got.tgz:14555.got - 2010.06.03 11:33:40.
