data_PCOD9009322
_publ_section_title
;
Structure prediction by ZEFSAII (Michael W. Deem and Ramdas Pophale) SiO2 
 PCOD9009322
Probable space group: P -1
;
_chemical_formula_sum "Si O2"
_cell_formula_units_Z 16
_cell_length_a 12.564769
_cell_length_b 14.505489
_cell_length_c 9.043723
_cell_angle_alpha 139.847819
_cell_angle_beta 130.767416
_cell_angle_gamma 69.001305
_cell_volume 770.809034
_symmetry_space_group_name_H-M "P -1"
_symmetry_group_IT_number 2
_symmetry_cell_setting 'triclinic'
loop_
_space_group_symop_operation_xyz
x,y,z
-x,-y,-z
loop_
_atom_site_type_symbol
_atom_site_label
_atom_site_fract_x
_atom_site_fract_y
_atom_site_fract_z
Si Si1 0.606215 0.723018 0.572797
Si Si2 0.275732 0.744076 0.844395
Si Si3 0.171148 0.424421 0.237781
Si Si4 0.590815 0.738202 0.237846
Si Si5 0.929119 0.118885 0.659202
Si Si6 0.863390 0.035774 0.838066
Si Si7 0.654079 0.048869 0.118119
Si Si8 0.618518 0.495433 0.728741
O O1 0.715284 0.647238 0.661622
O O2 0.595042 0.684035 0.342995
O O3 0.449419 0.657892 0.432422
O O4 0.666088 0.900000 0.863129
O O5 0.179493 0.575271 0.518030
O O6 0.326446 0.824490 0.831931
O O7 0.427680 0.749993 0.072381
O O8 0.183861 0.834663 0.960571
O O9 0.232041 0.473673 0.188579
O O10 0.024738 0.289441 0.933261
O O11 0.718703 0.893354 0.529401
O O12 0.622190 0.624602 0.007691
O O13 0.909705 0.082796 0.770321
O O14 0.776117 0.095352 0.410278
O O15 0.000000 0.000000 0.500000
O O16 0.000000 0.000000 0.000000
O O17 0.500000 0.000000 0.000000
O O18 0.500000 0.500000 0.500000
#
# Coordination Sequence:
#
# PCOD9009322 Si02
#       8
#     2   2   2   2   2   2   2   2
#     4  11  22  42  69 104 140 180 232 287 347 419
#     4  12  26  46  70 105 144 178 238 302 341 417
#     4  11  24  46  72 102 145 181 237 289 352 416
#     4  12  23  43  74 104 140 183 235 285 355 413
#     4  12  25  46  75  99 137 194 233 281 357 423
#     4  12  27  47  70 103 144 189 232 290 359 422
#     4  12  26  43  70 106 142 181 238 292 343 417
#     4  10  21  39  68 106 136 178 224 289 346 410
#
# _framework density 20.75741
#
# number of rings (size 3 to 8) (size 9 to 14) (size 15 to 20)
#    0.000    0.500    5.000    4.500    5.250    1.000 
#    0.000    1.250    0.000    0.000    0.000    0.000 
#    0.000    0.000    0.000    0.000    0.000    0.000 
#
# Total GULP energy -89533.881942 kJ/mol
# GULP energy per Si atom -5595.867621 kJ/mol
# Density = 2.071017 g / cm^3
# Si number density = 20.757410 Si / 1000 Ang^3
#
#
#
# Elastic Constant Matrix: (Units=GPa)
#
#
# Indices 1 2 3 4 5 6 
#
# 1 110.3428 20.1559 67.2054 -10.8837 2.5331 11.2198
# 2 20.1559 46.1931 48.6216 -2.5925 4.5235 3.7662
# 3 67.2054 48.6216 177.7939 10.3710 8.2684 -3.8752
# 4 -10.8837 -2.5925 10.3710 45.0005 6.3922 -1.9216
# 5 2.5331 4.5235 8.2684 6.3922 37.3380 1.4589
# 6 11.2198 3.7662 -3.8752 -1.9216 1.4589 43.8115
#
#
#
# Elastic Compliance Matrix: (Units=1/GPa)
#
#
# Indices 1 2 3 4 5 6 
#
# 1 0.013062 0.000572 -0.005410 0.004333 -0.000356 -0.003671
# 2 0.000572 0.031742 -0.009106 0.004270 -0.002466 -0.003411
# 3 -0.005410 -0.009106 0.010474 -0.004085 -0.000264 0.002924
# 4 0.004333 0.004270 -0.004085 0.025023 -0.004167 -0.000602
# 5 -0.000356 -0.002466 -0.000264 -0.004167 0.027910 -0.000832
# 6 -0.003671 -0.003411 0.002924 -0.000602 -0.000832 0.024318
#
#
# Mechanical properties :
#
#
# Convention : Reuss Voigt Hill
#
# Bulk Modulus (GPa) = 36.50809 67.36616 51.93712
# Shear Modulus (GPa) = 29.49036 38.45312 33.97174
#
# Velocity S-wave (km/s) = 3.77333 4.30874 4.04989
# Velocity P-wave (km/s) = 6.05063 7.56823 6.85158
#
# Compressibility (1/GPa) = 0.02739119
#
# Stress axis : x y z
#
# Youngs Moduli (GPa) = 76.55808 31.50385 95.47528
#
# Poissons Ratio (x) = -0.01803 0.51653
# Poissons Ratio (y) = -0.04382 0.86937
# Poissons Ratio (z) = 0.41419 0.28686
#
# Static dielectric constant tensor:
#      x y z
#    x 1.668900 -0.019390 -0.035900 
#    y -0.019390 1.730400 0.023830 
#    z -0.035900 0.023830 1.706550 
# 
# From -- ./inp_files/274783.got.cif
#   From: 2010.05.17/outbox.cif.g08.bks.cpg/sg2_138_cif.got.tgz:274783.got - 2010.06.03 11:33:40.
