data_PCOD9009362
_publ_section_title
;
Structure prediction by ZEFSAII (Michael W. Deem and Ramdas Pophale) SiO2 
 PCOD9009362
Probable space group: P -1
;
_chemical_formula_sum "Si O2"
_cell_formula_units_Z 16
_cell_length_a 10.548087
_cell_length_b 6.113353
_cell_length_c 27.117757
_cell_angle_alpha 130.524821
_cell_angle_beta 27.179826
_cell_angle_gamma 121.734071
_cell_volume 600.299328
_symmetry_space_group_name_H-M "P -1"
_symmetry_group_IT_number 2
_symmetry_cell_setting 'triclinic'
loop_
_space_group_symop_operation_xyz
x,y,z
-x,-y,-z
loop_
_atom_site_type_symbol
_atom_site_label
_atom_site_fract_x
_atom_site_fract_y
_atom_site_fract_z
Si Si1 0.116847 0.339337 0.713331
Si Si2 0.629384 0.629641 0.855028
Si Si3 0.628562 0.270712 0.578963
Si Si4 0.654672 0.292160 0.178076
Si Si5 0.934589 0.776149 0.650652
Si Si6 0.723982 0.269045 0.916300
Si Si7 0.739379 0.841599 0.550172
Si Si8 0.360027 0.200505 0.816189
O O1 0.438452 0.370490 0.611888
O O2 0.902237 0.540303 0.782406
O O3 0.011649 0.353571 0.808804
O O4 0.078092 0.025815 0.661862
O O5 0.566836 0.370956 0.802942
O O6 0.681665 0.948193 0.867115
O O7 0.352180 0.695465 0.995159
O O8 0.532912 0.490516 0.687675
O O9 0.951571 0.236984 0.446983
O O10 0.587799 0.962771 0.570099
O O11 0.775849 0.518610 0.130744
O O12 0.399004 0.168401 0.220889
O O13 0.789462 0.010288 0.124342
O O14 0.084508 0.466275 0.571084
O O15 0.500000 0.500000 0.000000
O O16 0.516888 0.962922 0.688352
O O17 0.000000 0.000000 0.500000
#
# Coordination Sequence:
#
# PCOD9009362 Si02
#       8
#     2   2   2   2   2   2   2   2
#     4  11  24  38  60  93 133 166 210 272 333 382
#     4  10  21  39  68  94 120 159 221 270 325 396
#     4  11  24  37  55  91 135 174 216 263 323 376
#     4  11  22  38  64  89 128 171 228 260 307 377
#     4  12  21  36  59  89 128 180 221 260 305 383
#     4   9  21  41  63  93 120 163 208 272 331 394
#     4  11  22  36  58  88 125 175 224 264 302 374
#     4  11  21  37  65  97 119 169 220 274 308 373
#
# _framework density 26.653371
#
# number of rings (size 3 to 8) (size 9 to 14) (size 15 to 20)
#    0.000    1.250    5.000    2.250    1.750    1.500 
#    0.000    0.000    0.000    3.750    0.000    0.000 
#    0.000    0.000    0.000    0.000    0.000    0.000 
#
# Total GULP energy -89158.650135 kJ/mol
# GULP energy per Si atom -5572.415633 kJ/mol
# Density = 2.659271 g / cm^3
# Si number density = 26.653371 Si / 1000 Ang^3
#
#
#
# Elastic Constant Matrix: (Units=GPa)
#
#
# Indices 1 2 3 4 5 6 
#
# 1 72.8554 29.1131 10.5096 4.1494 -0.8448 -12.9956
# 2 29.1131 136.7883 23.7150 31.5926 -7.2399 -33.6147
# 3 10.5096 23.7150 52.0496 18.0102 -6.1213 -10.0176
# 4 4.1494 31.5926 18.0102 50.6958 -4.6818 -2.2173
# 5 -0.8448 -7.2399 -6.1213 -4.6818 29.0657 -0.4192
# 6 -12.9956 -33.6147 -10.0176 -2.2173 -0.4192 46.2483
#
#
#
# Elastic Compliance Matrix: (Units=1/GPa)
#
#
# Indices 1 2 3 4 5 6 
#
# 1 0.015382 -0.002756 -0.001937 0.001193 -0.000427 0.001953
# 2 -0.002756 0.011229 -0.000970 -0.005973 0.001650 0.006906
# 3 -0.001937 -0.000970 0.023623 -0.007143 0.003578 0.003558
# 4 0.001193 -0.005973 -0.007143 0.025805 0.001137 -0.004306
# 5 -0.000427 0.001650 0.003578 0.001137 0.035772 0.002233
# 6 0.001953 0.006906 0.003558 -0.004306 0.002233 0.027775
#
#
# Mechanical properties :
#
#
# Convention : Reuss Voigt Hill
#
# Bulk Modulus (GPa) = 25.70188 43.15208 34.42698
# Shear Modulus (GPa) = 30.50988 38.42565 34.46777
#
# Velocity S-wave (km/s) = 3.38700 3.80107 3.59999
# Velocity P-wave (km/s) = 4.99596 5.95730 5.49768
#
# Compressibility (1/GPa) = 0.03890766
#
# Stress axis : x y z
#
# Youngs Moduli (GPa) = 65.01070 89.05270 42.33239
#
# Poissons Ratio (x) = 0.24545 0.08201
# Poissons Ratio (y) = 0.17918 0.04105
# Poissons Ratio (z) = 0.12594 0.08636
#
# Static dielectric constant tensor:
#      x y z
#    x 2.137980 -0.182950 0.041570 
#    y -0.182950 2.756120 -0.161590 
#    z 0.041570 -0.161590 2.122540 
# 
# From -- ./inp_files/622849.got.cif
#   From: 2010.05.17/outbox.cif.g08.bks.cpg/sg2_312_cif.got.tgz:622849.got - 2010.06.03 11:33:40.
