data_PCOD9009216
_publ_section_title
;
Structure prediction by ZEFSAII (Michael W. Deem and Ramdas Pophale) SiO2 
 PCOD9009216
Probable space group: P -1
;
_chemical_formula_sum "Si O2"
_cell_formula_units_Z 12
_cell_length_a 10.154000
_cell_length_b 17.529842
_cell_length_c 9.584754
_cell_angle_alpha 148.878133
_cell_angle_beta 42.247118
_cell_angle_gamma 146.635659
_cell_volume 483.034335
_symmetry_space_group_name_H-M "P -1"
_symmetry_group_IT_number 2
_symmetry_cell_setting 'triclinic'
loop_
_space_group_symop_operation_xyz
x,y,z
-x,-y,-z
loop_
_atom_site_type_symbol
_atom_site_label
_atom_site_fract_x
_atom_site_fract_y
_atom_site_fract_z
Si Si1 0.967506 0.418161 0.243753
Si Si2 0.243995 0.969383 0.186010
Si Si3 0.683008 0.991299 0.492580
Si Si4 0.844347 0.237197 0.509501
Si Si5 0.553985 0.698167 0.620261
Si Si6 0.663575 0.695144 0.852210
O O1 0.704017 0.340317 0.267778
O O2 0.000000 0.500000 0.500000
O O3 0.137659 0.582486 0.261878
O O4 0.967284 0.242940 0.991906
O O5 0.251479 0.016544 0.414830
O O6 0.246270 0.112897 0.311312
O O7 0.500000 0.000000 0.000000
O O8 0.407910 0.929169 0.613233
O O9 0.838363 0.184017 0.592439
O O10 0.675057 0.841777 0.170041
O O11 0.070199 0.258547 0.294177
O O12 0.596348 0.707973 0.766663
O O13 0.518734 0.518415 0.304013
#
# Coordination Sequence:
#
# PCOD9009216 Si02
#       6
#     2   2   2   2   2   2
#     4  10  21  39  67  96 129 181 217 270 334 383
#     4  10  22  41  67  97 135 174 221 275 329 386
#     4  11  24  41  71 101 130 179 217 274 330 394
#     4  10  23  41  69  98 135 173 219 268 329 396
#     4   9  21  42  69  93 141 172 212 283 325 391
#     4  10  22  44  70 101 135 172 216 274 336 388
#
# _framework density 24.842953000000001
#
# number of rings (size 3 to 8) (size 9 to 14) (size 15 to 20)
#    0.000    2.000    0.000    2.500   11.667    1.333 
#    6.000    0.833    0.000    0.000    0.000    0.000 
#    0.000    0.000    0.000    0.000    0.000    0.000 
#
# Total GULP energy -67166.575800 kJ/mol
# GULP energy per Si atom -5597.214650 kJ/mol
# Density = 2.478641 g / cm^3
# Si number density = 24.842953 Si / 1000 Ang^3
#
#
#
# Elastic Constant Matrix: (Units=GPa)
#
#
# Indices 1 2 3 4 5 6 
#
# 1 51.8172 28.2767 26.8605 -2.4107 -3.0422 -12.0809
# 2 28.2767 166.6216 76.9757 43.6344 -16.1559 -46.6951
# 3 26.8605 76.9757 138.4108 20.9947 8.9102 -18.8457
# 4 -2.4107 43.6344 20.9947 37.6955 -5.5248 -22.2169
# 5 -3.0422 -16.1559 8.9102 -5.5248 30.8909 -3.9935
# 6 -12.0809 -46.6951 -18.8457 -22.2169 -3.9935 59.4557
#
#
#
# Elastic Compliance Matrix: (Units=1/GPa)
#
#
# Indices 1 2 3 4 5 6 
#
# 1 0.025764 -0.003284 -0.004540 0.012378 0.005143 0.006188
# 2 -0.003284 0.013549 -0.005324 -0.008527 0.007498 0.005604
# 3 -0.004540 -0.005324 0.011674 -0.003703 -0.007688 -0.003304
# 4 0.012378 -0.008527 -0.003703 0.048240 0.008164 0.013219
# 5 0.005143 0.007498 -0.007688 0.008164 0.041816 0.010356
# 6 0.006188 0.005604 -0.003304 0.013219 0.010356 0.027065
#
#
# Mechanical properties :
#
#
# Convention : Reuss Voigt Hill
#
# Bulk Modulus (GPa) = 40.49996 69.00839 54.75417
# Shear Modulus (GPa) = 24.67493 40.59087 32.63290
#
# Velocity S-wave (km/s) = 3.15498 4.04654 3.62825
# Velocity P-wave (km/s) = 5.44148 7.04775 6.29605
#
# Compressibility (1/GPa) = 0.02469138
#
# Stress axis : x y z
#
# Youngs Moduli (GPa) = 38.81327 73.80719 85.66319
#
# Poissons Ratio (x) = 0.24237 0.38890
# Poissons Ratio (y) = 0.12745 0.45608
# Poissons Ratio (z) = 0.17621 0.39296
#
# Static dielectric constant tensor:
#      x y z
#    x 2.000130 -0.018790 -0.051430 
#    y -0.018790 2.002120 0.051890 
#    z -0.051430 0.051890 1.967270 
# 
# From -- ./inp_files/280224.got.cif
#   From: 2010.05.17/outbox.cif.g08.bks.cpg/sg2_141_cif.got.tgz:280224.got - 2010.06.03 11:33:40.
