data_PCOD9009213
_publ_section_title
;
Structure prediction by ZEFSAII (Michael W. Deem and Ramdas Pophale) SiO2 
 PCOD9009213
Probable space group: P -1
;
_chemical_formula_sum "Si O2"
_cell_formula_units_Z 14
_cell_length_a 9.324937
_cell_length_b 24.498457
_cell_length_c 5.074864
_cell_angle_alpha 110.692278
_cell_angle_beta 101.812379
_cell_angle_gamma 34.356947
_cell_volume 603.694645
_symmetry_space_group_name_H-M "P -1"
_symmetry_group_IT_number 2
_symmetry_cell_setting 'triclinic'
loop_
_space_group_symop_operation_xyz
x,y,z
-x,-y,-z
loop_
_atom_site_type_symbol
_atom_site_label
_atom_site_fract_x
_atom_site_fract_y
_atom_site_fract_z
Si Si1 0.137121 0.788946 0.225591
Si Si2 0.402081 0.994638 0.704779
Si Si3 0.702750 0.593464 0.946177
Si Si4 0.150747 0.710326 0.594211
Si Si5 0.694875 0.776575 0.425221
Si Si6 0.641600 0.511155 0.161886
Si Si7 0.226629 0.323671 0.219999
O O1 0.082880 0.784477 0.492021
O O2 0.908415 0.906706 0.258519
O O3 0.434859 0.708740 0.161691
O O4 0.102505 0.745924 0.934345
O O5 0.500000 0.000000 0.500000
O O6 0.518160 0.891704 0.578863
O O7 0.500000 0.000000 0.000000
O O8 0.660536 0.542441 0.955986
O O9 0.719486 0.625857 0.737210
O O10 0.000000 0.500000 0.000000
O O11 0.448186 0.602861 0.456844
O O12 0.980799 0.710635 0.452550
O O13 0.664207 0.753265 0.100751
O O14 0.672327 0.735866 0.574371
O O15 0.500000 0.500000 0.000000
O O16 0.918963 0.416039 0.236397
#
# Coordination Sequence:
#
# PCOD9009213 Si02
#       7
#     2   2   2   2   2   2   2
#     4  11  22  42  66  95 131 170 218 274 328 384
#     4  12  22  39  66 101 133 166 217 283 336 373
#     4   9  23  45  66  94 134 181 216 261 332 398
#     4  11  22  37  64  99 130 164 213 276 331 380
#     4  12  23  39  64  94 132 171 219 267 332 381
#     4  10  21  39  67  96 126 165 221 272 323 383
#     4  11  25  42  61  92 138 176 214 266 323 401
#
# _framework density 23.190534
#
# number of rings (size 3 to 8) (size 9 to 14) (size 15 to 20)
#    0.000    1.143    4.286    1.714    2.000    6.286 
#    0.000    8.571    0.000    0.000    0.000    0.000 
#    0.000    0.000    0.000    0.000    0.000    0.000 
#
# Total GULP energy -78187.630862 kJ/mol
# GULP energy per Si atom -5584.830776 kJ/mol
# Density = 2.313775 g / cm^3
# Si number density = 23.190534 Si / 1000 Ang^3
#
#
#
# Elastic Constant Matrix: (Units=GPa)
#
#
# Indices 1 2 3 4 5 6 
#
# 1 137.2322 49.1574 15.3440 -0.2575 -12.4491 9.5383
# 2 49.1574 166.9484 31.3134 5.5699 -15.7316 -1.4683
# 3 15.3440 31.3134 76.0665 -9.0535 1.2072 -4.9724
# 4 -0.2575 5.5699 -9.0535 36.0842 7.3840 -2.7749
# 5 -12.4491 -15.7316 1.2072 7.3840 29.0056 -3.9539
# 6 9.5383 -1.4683 -4.9724 -2.7749 -3.9539 30.7223
#
#
#
# Elastic Compliance Matrix: (Units=1/GPa)
#
#
# Indices 1 2 3 4 5 6 
#
# 1 0.008565 -0.002085 -0.001155 -0.000601 0.002379 -0.002694
# 2 -0.002085 0.007679 -0.003085 -0.002775 0.004215 0.000807
# 3 -0.001155 -0.003085 0.015524 0.005351 -0.003807 0.002717
# 4 -0.000601 -0.002775 0.005351 0.031659 -0.009700 0.002531
# 5 0.002379 0.004215 -0.003807 -0.009700 0.040851 0.003228
# 6 -0.002694 0.000807 0.002717 0.002531 0.003228 0.034508
#
#
# Mechanical properties :
#
#
# Convention : Reuss Voigt Hill
#
# Bulk Modulus (GPa) = 52.30423 63.54186 57.92305
# Shear Modulus (GPa) = 31.68391 38.12457 34.90424
#
# Velocity S-wave (km/s) = 3.70028 4.05899 3.88378
# Velocity P-wave (km/s) = 6.39212 7.03040 6.71885
#
# Compressibility (1/GPa) = 0.01911891
#
# Stress axis : x y z
#
# Youngs Moduli (GPa) = 116.75799 130.22186 64.41539
#
# Poissons Ratio (x) = 0.27148 0.07439
# Poissons Ratio (y) = 0.24341 0.19873
# Poissons Ratio (z) = 0.13484 0.40175
#
# Static dielectric constant tensor:
#      x y z
#    x 1.750200 -0.061510 -0.182050 
#    y -0.061510 1.879970 -0.019800 
#    z -0.182050 -0.019800 1.587930 
# 
# From -- ./inp_files/51669.got.cif
#   From: 2010.05.17/outbox.cif.g08.bks.cpg/sg2_26_cif.got.tgz:51669.got - 2010.06.03 11:33:40.
