data_PCOD9009482
_publ_section_title
;
Structure prediction by ZEFSAII (Michael W. Deem and Ramdas Pophale) SiO2 
 PCOD9009482
Probable space group: P -1
;
_chemical_formula_sum "Si O2"
_cell_formula_units_Z 16
_cell_length_a 12.499642
_cell_length_b 8.003526
_cell_length_c 9.295268
_cell_angle_alpha 107.152094
_cell_angle_beta 108.139960
_cell_angle_gamma 49.129313
_cell_volume 662.836347
_symmetry_space_group_name_H-M "P -1"
_symmetry_group_IT_number 2
_symmetry_cell_setting 'triclinic'
loop_
_space_group_symop_operation_xyz
x,y,z
-x,-y,-z
loop_
_atom_site_type_symbol
_atom_site_label
_atom_site_fract_x
_atom_site_fract_y
_atom_site_fract_z
Si Si1 0.675987 0.678493 0.387325
Si Si2 0.739563 0.058521 0.296923
Si Si3 0.512738 0.942594 0.823583
Si Si4 0.244962 0.155528 0.274688
Si Si5 0.189851 0.819340 0.171610
Si Si6 0.753434 0.373696 0.569511
Si Si7 0.996593 0.580635 0.357685
Si Si8 0.139016 0.778948 0.820112
O O1 0.564009 0.847013 0.265242
O O2 0.711897 0.810376 0.540036
O O3 0.634626 0.578021 0.469274
O O4 0.797051 0.452115 0.292493
O O5 0.578213 0.146247 0.255748
O O6 0.843869 0.792172 0.293580
O O7 0.774417 0.159030 0.464574
O O8 0.779984 0.130776 0.191393
O O9 0.673340 0.809063 0.800162
O O10 0.500000 0.000000 0.000000
O O11 0.268272 0.928803 0.213074
O O12 0.075819 0.358333 0.239937
O O13 0.030304 0.019744 0.216772
O O14 0.268781 0.626349 0.272278
O O15 0.171001 0.743344 0.993037
O O16 0.895289 0.356433 0.596505
O O17 0.000000 0.500000 0.500000
#
# Coordination Sequence:
#
# PCOD9009482 Si02
#       8
#     2   2   2   2   2   2   2   2
#     4  10  24  43  71  99 133 179 246 280 338 420
#     4  11  22  42  72  99 138 184 236 287 353 417
#     4  12  27  50  67  97 148 194 232 292 355 418
#     4  11  26  43  72 105 139 186 241 289 349 413
#     4  11  22  42  67 101 154 174 223 291 363 415
#     4  10  21  39  69 106 134 177 233 290 348 411
#     4  11  22  37  69 110 135 172 229 299 348 409
#     4  10  24  42  66 107 142 184 222 290 362 418
#
# _framework density 24.138687999999998
#
# number of rings (size 3 to 8) (size 9 to 14) (size 15 to 20)
#    0.000    1.250    1.250    4.500   10.500    2.000 
#    0.000   18.125    0.000    0.000    0.000    0.000 
#    0.000    0.000    0.000    0.000    0.000    0.000 
#
# Total GULP energy -89439.540276 kJ/mol
# GULP energy per Si atom -5589.971267 kJ/mol
# Density = 2.408375 g / cm^3
# Si number density = 24.138688 Si / 1000 Ang^3
#
#
#
# Elastic Constant Matrix: (Units=GPa)
#
#
# Indices 1 2 3 4 5 6 
#
# 1 128.9086 16.6538 16.3271 4.8476 -13.5005 19.0874
# 2 16.6538 77.5307 31.6647 -2.2695 1.5565 17.9792
# 3 16.3271 31.6647 131.4330 -6.9289 -15.5905 8.6616
# 4 4.8476 -2.2695 -6.9289 33.1196 5.3336 -1.0751
# 5 -13.5005 1.5565 -15.5905 5.3336 25.6017 2.9887
# 6 19.0874 17.9792 8.6616 -1.0751 2.9887 37.3282
#
#
#
# Elastic Compliance Matrix: (Units=1/GPa)
#
#
# Indices 1 2 3 4 5 6 
#
# 1 0.009347 -0.001091 0.000007 -0.002580 0.006099 -0.004818
# 2 -0.001091 0.016141 -0.003697 0.000822 -0.003271 -0.006073
# 3 0.000007 -0.003697 0.009282 0.000723 0.005826 -0.000822
# 4 -0.002580 0.000822 0.000723 0.032132 -0.007935 0.002317
# 5 0.006099 -0.003271 0.005826 -0.007935 0.048494 -0.007007
# 6 -0.004818 -0.006073 -0.000822 0.002317 -0.007007 0.032996
#
#
# Mechanical properties :
#
#
# Convention : Reuss Voigt Hill
#
# Bulk Modulus (GPa) = 39.67407 51.90707 45.79057
# Shear Modulus (GPa) = 30.05590 37.42500 33.74045
#
# Velocity S-wave (km/s) = 3.53247 3.94180 3.74274
# Velocity P-wave (km/s) = 5.75408 6.50134 6.13909
#
# Compressibility (1/GPa) = 0.02520538
#
# Stress axis : x y z
#
# Youngs Moduli (GPa) = 106.98923 61.95569 107.73860
#
# Poissons Ratio (x) = 0.06760 -0.00073
# Poissons Ratio (y) = 0.11674 0.39836
# Poissons Ratio (z) = -0.00072 0.22908
#
# Static dielectric constant tensor:
#      x y z
#    x 2.017110 -0.044910 0.008010 
#    y -0.044910 1.979810 -0.008170 
#    z 0.008010 -0.008170 1.894130 
# 
# From -- ./inp_files/326322.got.cif
#   From: 2010.05.17/outbox.cif.g08.bks.cpg/sg2_164_cif.got.tgz:326322.got - 2010.06.03 11:33:40.
