data_PCOD9009262
_publ_section_title
;
Structure prediction by ZEFSAII (Michael W. Deem and Ramdas Pophale) SiO2 
 PCOD9009262
Probable space group: P -1
;
_chemical_formula_sum "Si O2"
_cell_formula_units_Z 12
_cell_length_a 11.805458
_cell_length_b 8.649667
_cell_length_c 8.410108
_cell_angle_alpha 118.778160
_cell_angle_beta 61.324013
_cell_angle_gamma 141.352670
_cell_volume 461.549687
_symmetry_space_group_name_H-M "P -1"
_symmetry_group_IT_number 2
_symmetry_cell_setting 'triclinic'
loop_
_space_group_symop_operation_xyz
x,y,z
-x,-y,-z
loop_
_atom_site_type_symbol
_atom_site_label
_atom_site_fract_x
_atom_site_fract_y
_atom_site_fract_z
Si Si1 0.045034 0.235128 0.383407
Si Si2 0.285184 0.731868 0.991541
Si Si3 0.306338 0.049332 0.688420
Si Si4 0.641522 0.231505 0.690225
Si Si5 0.440182 0.539313 0.717889
Si Si6 0.853716 0.051129 0.769855
O O1 0.236733 0.529159 0.392643
O O2 0.068087 0.047948 0.251035
O O3 0.910603 0.176242 0.306963
O O4 0.946047 0.156360 0.583817
O O5 0.252344 0.652868 0.158957
O O6 0.152761 0.764156 0.052510
O O7 0.298875 0.563622 0.802129
O O8 0.500000 0.000000 0.000000
O O9 0.432896 0.101304 0.770781
O O10 0.353598 0.300689 0.764016
O O11 0.373954 0.984090 0.467707
O O12 0.500000 0.500000 0.500000
O O13 0.636247 0.795641 0.775726
#
# Coordination Sequence:
#
# PCOD9009262 Si02
#       6
#     2   2   2   2   2   2
#     4  11  21  40  71  97 139 175 216 265 329 398
#     4  10  22  42  68  95 133 174 222 275 332 385
#     4  11  22  38  66 102 129 177 223 261 322 398
#     4  11  23  41  69  97 135 179 216 270 329 389
#     4  11  20  41  69  93 127 175 226 273 326 393
#     4  10  21  39  67  98 134 178 215 266 333 386
#
# _framework density 25.999369999999999
#
# number of rings (size 3 to 8) (size 9 to 14) (size 15 to 20)
#    0.000    1.333    5.000    1.500    0.000    0.667 
#    0.000    1.667    0.000    0.000    0.000    0.000 
#    0.000    0.000    0.000    0.000    0.000    0.000 
#
# Total GULP energy -67057.635644 kJ/mol
# GULP energy per Si atom -5588.136304 kJ/mol
# Density = 2.594019 g / cm^3
# Si number density = 25.999370 Si / 1000 Ang^3
#
#
#
# Elastic Constant Matrix: (Units=GPa)
#
#
# Indices 1 2 3 4 5 6 
#
# 1 148.7483 14.1518 46.2387 6.0267 -50.0061 -1.0029
# 2 14.1518 136.4279 33.0949 2.2718 -7.4775 4.5856
# 3 46.2387 33.0949 95.0516 11.7253 -39.6341 -17.0871
# 4 6.0267 2.2718 11.7253 36.7335 -12.0893 -3.2761
# 5 -50.0061 -7.4775 -39.6341 -12.0893 54.4278 15.3421
# 6 -1.0029 4.5856 -17.0871 -3.2761 15.3421 34.2859
#
#
#
# Elastic Compliance Matrix: (Units=1/GPa)
#
#
# Indices 1 2 3 4 5 6 
#
# 1 0.010667 0.000114 -0.002168 0.001796 0.010081 -0.005123
# 2 0.000114 0.008267 -0.003714 0.000198 -0.000678 -0.002631
# 3 -0.002168 -0.003714 0.017529 -0.001781 0.008388 0.005246
# 4 0.001796 0.000198 -0.001781 0.029792 0.007367 -0.001311
# 5 0.010081 -0.000678 0.008388 0.007367 0.038679 -0.012038
# 6 -0.005123 -0.002631 0.005246 -0.001311 -0.012038 0.037244
#
#
# Mechanical properties :
#
#
# Convention : Reuss Voigt Hill
#
# Bulk Modulus (GPa) = 40.11715 63.02206 51.56960
# Shear Modulus (GPa) = 30.85962 44.20560 37.53261
#
# Velocity S-wave (km/s) = 3.44893 4.12789 3.80359
# Velocity P-wave (km/s) = 5.59676 6.85651 6.25841
#
# Compressibility (1/GPa) = 0.02492700
#
# Stress axis : x y z
#
# Youngs Moduli (GPa) = 93.74280 120.96333 57.04924
#
# Poissons Ratio (x) = -0.01382 0.12369
# Poissons Ratio (y) = -0.01071 0.21189
# Poissons Ratio (z) = 0.20325 0.44928
#
# Static dielectric constant tensor:
#      x y z
#    x 2.073720 -0.060130 0.001690 
#    y -0.060130 2.144280 0.038950 
#    z 0.001690 0.038950 2.159960 
# 
# From -- ./inp_files/150274.got.cif
#   From: 2010.05.17/outbox.cif.g08.bks.cpg/sg2_76_cif.got.tgz:150274.got - 2010.06.03 11:33:40.
