data_PCOD9009006
_publ_section_title
;
Structure prediction by ZEFSAII (Michael W. Deem and Ramdas Pophale) SiO2 
 PCOD9009006
Probable space group: P -1
;
_chemical_formula_sum "Si O2"
_cell_formula_units_Z 16
_cell_length_a 15.780203
_cell_length_b 16.032222
_cell_length_c 7.851847
_cell_angle_alpha 54.102094
_cell_angle_beta 61.408921
_cell_angle_gamma 25.585744
_cell_volume 687.712265
_symmetry_space_group_name_H-M "P -1"
_symmetry_group_IT_number 2
_symmetry_cell_setting 'triclinic'
loop_
_space_group_symop_operation_xyz
x,y,z
-x,-y,-z
loop_
_atom_site_type_symbol
_atom_site_label
_atom_site_fract_x
_atom_site_fract_y
_atom_site_fract_z
Si Si1 0.478518 0.136500 0.787230
Si Si2 0.977318 0.428617 0.243771
Si Si3 0.665796 0.393110 0.343545
Si Si4 0.077793 0.747452 0.497112
Si Si5 0.584412 0.175591 0.959196
Si Si6 0.744464 0.149078 0.093871
Si Si7 0.575690 0.522073 0.747532
Si Si8 0.362243 0.035668 0.533641
O O1 0.569723 0.129070 0.850695
O O2 0.243319 0.362693 0.724117
O O3 0.572921 0.061590 0.600722
O O4 0.500000 0.000000 0.000000
O O5 0.138699 0.281720 0.414820
O O6 0.988326 0.301925 0.309539
O O7 0.000000 0.500000 0.000000
O O8 0.500000 0.500000 0.500000
O O9 0.873267 0.214477 0.450889
O O10 0.600772 0.572296 0.158343
O O11 0.620181 0.354856 0.285200
O O12 0.288426 0.541406 0.437227
O O13 0.912278 0.942139 0.293869
O O14 0.726101 0.288963 0.927591
O O15 0.755647 0.095482 0.953313
O O16 0.529370 0.323334 0.180572
O O17 0.610890 0.068042 0.212840
O O18 0.500000 0.000000 0.500000
#
# Coordination Sequence:
#
# PCOD9009006 Si02
#       8
#     2   2   2   2   2   2   2   2
#     4  12  25  47  73  96 141 187 232 292 358 407
#     4  12  25  44  69 102 138 184 238 288 345 420
#     4   9  20  39  66  99 138 183 222 284 348 413
#     4  11  21  38  67  96 134 179 228 283 341 411
#     4  11  22  43  68 103 138 180 228 286 350 408
#     4  10  21  39  66  96 137 173 227 279 345 415
#     4   9  21  40  64  95 135 178 222 280 349 411
#     4  12  26  46  72 100 138 183 233 295 345 414
#
# _framework density 23.265543000000001
#
# number of rings (size 3 to 8) (size 9 to 14) (size 15 to 20)
#    0.000    1.250    5.000    0.375    1.750    1.000 
#    0.000    1.250    2.750    0.000    0.000    0.000 
#    0.000    0.000    0.000    0.000    0.000    0.000 
#
# Total GULP energy -89145.057833 kJ/mol
# GULP energy per Si atom -5571.566115 kJ/mol
# Density = 2.321259 g / cm^3
# Si number density = 23.265543 Si / 1000 Ang^3
#
#
#
# Elastic Constant Matrix: (Units=GPa)
#
#
# Indices 1 2 3 4 5 6 
#
# 1 147.8787 40.4495 61.3056 -13.1871 19.1762 4.9142
# 2 40.4495 79.8109 34.6879 -6.2582 14.1271 -5.7061
# 3 61.3056 34.6879 142.2940 -4.2063 7.0758 -9.5780
# 4 -13.1871 -6.2582 -4.2063 37.0810 -4.4707 13.4737
# 5 19.1762 14.1271 7.0758 -4.4707 52.7124 5.7813
# 6 4.9142 -5.7061 -9.5780 13.4737 5.7813 26.1266
#
#
#
# Elastic Compliance Matrix: (Units=1/GPa)
#
#
# Indices 1 2 3 4 5 6 
#
# 1 0.009971 -0.003306 -0.003704 0.004636 -0.001184 -0.006084
# 2 -0.003306 0.015936 -0.002014 -0.000752 -0.003355 0.004494
# 3 -0.003704 -0.002014 0.009383 -0.002412 -0.000122 0.004968
# 4 0.004636 -0.000752 -0.002412 0.036654 0.004337 -0.021783
# 5 -0.001184 -0.003355 -0.000122 0.004337 0.021513 -0.007552
# 6 -0.006084 0.004494 0.004968 -0.021783 -0.007552 0.055127
#
#
# Mechanical properties :
#
#
# Convention : Reuss Voigt Hill
#
# Bulk Modulus (GPa) = 57.98819 71.42997 64.70908
# Shear Modulus (GPa) = 29.00593 38.75338 33.87966
#
# Velocity S-wave (km/s) = 3.53474 4.08572 3.82018
# Velocity P-wave (km/s) = 6.45274 7.28191 6.87983
#
# Compressibility (1/GPa) = 0.01724489
#
# Stress axis : x y z
#
# Youngs Moduli (GPa) = 100.29071 62.74972 106.57133
#
# Poissons Ratio (x) = 0.20743 0.39470
# Poissons Ratio (y) = 0.33153 0.21459
# Poissons Ratio (z) = 0.37144 0.12635
#
# Static dielectric constant tensor:
#      x y z
#    x 2.016520 0.077510 0.027050 
#    y 0.077510 1.939100 -0.004480 
#    z 0.027050 -0.004480 2.025370 
# 
# From -- ./inp_files/314790.got.cif
#   From: 2010.05.17/outbox.cif.g08.bks.cpg/sg2_158_cif.got.tgz:314790.got - 2010.06.03 11:33:40.
