data_PCOD9009105
_publ_section_title
;
Structure prediction by ZEFSAII (Michael W. Deem and Ramdas Pophale) SiO2 
 PCOD9009105
Probable space group: P -1
;
_chemical_formula_sum "Si O2"
_cell_formula_units_Z 10
_cell_length_a 4.854712
_cell_length_b 14.237436
_cell_length_c 9.357780
_cell_angle_alpha 141.331153
_cell_angle_beta 73.124412
_cell_angle_gamma 91.533262
_cell_volume 364.474758
_symmetry_space_group_name_H-M "P -1"
_symmetry_group_IT_number 2
_symmetry_cell_setting 'triclinic'
loop_
_space_group_symop_operation_xyz
x,y,z
-x,-y,-z
loop_
_atom_site_type_symbol
_atom_site_label
_atom_site_fract_x
_atom_site_fract_y
_atom_site_fract_z
Si Si1 0.507024 0.639760 0.778934
Si Si2 0.073877 0.144540 0.738481
Si Si3 0.088193 0.617568 0.416005
Si Si4 0.049768 0.867515 0.952865
Si Si5 0.700783 0.653760 0.260415
O O1 0.500000 0.500000 0.500000
O O2 0.792655 0.560130 0.746089
O O3 0.386078 0.802917 0.898779
O O4 0.228579 0.698766 0.005790
O O5 0.294375 0.209118 0.687350
O O6 0.164543 0.093386 0.828603
O O7 0.000000 0.000000 0.500000
O O8 0.026548 0.722629 0.691304
O O9 0.372421 0.633615 0.301078
O O10 0.791972 0.682329 0.441189
O O11 0.000000 0.000000 0.000000
O O12 0.000000 0.500000 0.000000
#
# Coordination Sequence:
#
# PCOD9009105 Si02
#       5
#     2   2   2   2   2
#     4   8  18  38  67  96 134 176 232 274 334 407
#     4  10  21  39  67 103 141 173 227 288 344 394
#     4  11  23  45  71 100 134 181 231 276 337 414
#     4   9  19  41  67  94 138 182 226 275 342 407
#     4  12  24  42  71 104 138 176 228 286 342 401
#
# _framework density 27.436741999999999
#
# number of rings (size 3 to 8) (size 9 to 14) (size 15 to 20)
#    1.200    0.800    2.000    1.800    0.000    0.000 
#    0.000   26.000    4.400    0.000    0.000    0.000 
#    0.000    0.000    0.000    0.000    0.000    0.000 
#
# Total GULP energy -55854.287465 kJ/mol
# GULP energy per Si atom -5585.428747 kJ/mol
# Density = 2.737429 g / cm^3
# Si number density = 27.436742 Si / 1000 Ang^3
#
#
#
# Elastic Constant Matrix: (Units=GPa)
#
#
# Indices 1 2 3 4 5 6 
#
# 1 102.5321 45.3055 20.3249 -6.7447 -6.3373 3.5404
# 2 45.3055 277.9423 37.8386 -12.7220 -3.8006 -2.5332
# 3 20.3249 37.8386 149.4988 -24.4875 -3.3815 7.5389
# 4 -6.7447 -12.7220 -24.4875 44.7413 -7.9595 -4.7050
# 5 -6.3373 -3.8006 -3.3815 -7.9595 44.6793 -17.1420
# 6 3.5404 -2.5332 7.5389 -4.7050 -17.1420 52.9190
#
#
#
# Elastic Compliance Matrix: (Units=1/GPa)
#
#
# Indices 1 2 3 4 5 6 
#
# 1 0.010778 -0.001576 -0.000873 0.000945 0.001452 -0.000118
# 2 -0.001576 0.003992 -0.000712 0.000641 0.000401 0.000585
# 3 -0.000873 -0.000712 0.007685 0.003999 0.000954 -0.000406
# 4 0.000945 0.000641 0.003999 0.026471 0.006713 0.003926
# 5 0.001452 0.000401 0.000954 0.006713 0.027448 0.009274
# 6 -0.000118 0.000585 -0.000406 0.003926 0.009274 0.022344
#
#
# Mechanical properties :
#
#
# Convention : Reuss Voigt Hill
#
# Bulk Modulus (GPa) = 61.98060 81.87904 71.92982
# Shear Modulus (GPa) = 45.28282 56.90155 51.09218
#
# Velocity S-wave (km/s) = 4.06697 4.55897 4.31998
# Velocity P-wave (km/s) = 6.68529 7.59078 7.15238
#
# Compressibility (1/GPa) = 0.01613408
#
# Stress axis : x y z
#
# Youngs Moduli (GPa) = 92.77781 250.51518 130.12561
#
# Poissons Ratio (x) = 0.39483 0.11359
# Poissons Ratio (y) = 0.14622 0.09259
# Poissons Ratio (z) = 0.08099 0.17825
#
# Static dielectric constant tensor:
#      x y z
#    x 2.392390 0.182440 0.040530 
#    y 0.182440 2.316290 -0.050150 
#    z 0.040530 -0.050150 2.258500 
# 
# From -- ./inp_files/42965.got.cif
#   From: 2010.05.17/outbox.cif.g08.bks.cpg/sg2_22_cif.got.tgz:42965.got - 2010.06.03 11:33:40.
