data_PCOD9009511
_publ_section_title
;
Structure prediction by ZEFSAII (Michael W. Deem and Ramdas Pophale) SiO2 
 PCOD9009511
Probable space group: P -1
;
_chemical_formula_sum "Si O2"
_cell_formula_units_Z 14
_cell_length_a 5.257431
_cell_length_b 8.643285
_cell_length_c 17.980905
_cell_angle_alpha 51.497202
_cell_angle_beta 67.880838
_cell_angle_gamma 93.557915
_cell_volume 540.573345
_symmetry_space_group_name_H-M "P -1"
_symmetry_group_IT_number 2
_symmetry_cell_setting 'triclinic'
loop_
_space_group_symop_operation_xyz
x,y,z
-x,-y,-z
loop_
_atom_site_type_symbol
_atom_site_label
_atom_site_fract_x
_atom_site_fract_y
_atom_site_fract_z
Si Si1 0.644122 0.360003 0.071027
Si Si2 0.701336 0.258279 0.404928
Si Si3 0.794151 0.611726 0.177273
Si Si4 0.395319 0.754003 0.106600
Si Si5 0.483100 0.853176 0.392482
Si Si6 0.554728 0.872128 0.207476
Si Si7 0.872109 0.870963 0.685574
O O1 0.423173 0.272209 0.193124
O O2 0.609898 0.120987 0.118160
O O3 0.500000 0.500000 0.000000
O O4 0.000000 0.500000 0.000000
O O5 0.627500 0.398166 0.308374
O O6 0.635717 0.320984 0.475698
O O7 0.022230 0.261918 0.345228
O O8 0.500000 0.000000 0.500000
O O9 0.660451 0.674729 0.101187
O O10 0.828439 0.814313 0.166823
O O11 0.118224 0.616687 0.127545
O O12 0.320399 0.738001 0.208693
O O13 0.500000 0.000000 0.000000
O O14 0.479470 0.797897 0.322594
O O15 0.237565 0.959210 0.391365
O O16 0.831939 0.010599 0.328949
#
# Coordination Sequence:
#
# PCOD9009511 Si02
#       7
#     2   2   2   2   2   2   2
#     4  11  23  39  65  98 126 174 222 276 340 384
#     4  10  23  45  68 101 140 178 226 280 337 400
#     4  10  24  41  69  98 129 178 226 274 335 401
#     4  10  23  44  65  93 133 176 225 275 337 393
#     4  10  21  39  69  93 133 180 215 277 341 387
#     4   9  24  41  66  92 139 165 230 273 331 409
#     4  10  22  40  63  96 135 176 220 276 332 407
#
# _framework density 25.898427999999999
#
# number of rings (size 3 to 8) (size 9 to 14) (size 15 to 20)
#    0.857    1.143    0.000    2.571    6.000    6.286 
#    0.000    3.571    0.000    0.000    0.000    0.000 
#    0.000    0.000    0.000    0.000    0.000    0.000 
#
# Total GULP energy -78105.074673 kJ/mol
# GULP energy per Si atom -5578.933905 kJ/mol
# Density = 2.583948 g / cm^3
# Si number density = 25.898428 Si / 1000 Ang^3
#
#
#
# Elastic Constant Matrix: (Units=GPa)
#
#
# Indices 1 2 3 4 5 6 
#
# 1 202.7333 21.6099 44.8002 -7.0343 15.3073 -12.7480
# 2 21.6099 88.3446 10.7096 8.0362 -11.2590 -6.0637
# 3 44.8002 10.7096 137.3822 4.2247 11.2935 -7.6922
# 4 -7.0343 8.0362 4.2247 54.4134 -9.0661 11.2693
# 5 15.3073 -11.2590 11.2935 -9.0661 41.5223 6.3224
# 6 -12.7480 -6.0637 -7.6922 11.2693 6.3224 32.1360
#
#
#
# Elastic Compliance Matrix: (Units=1/GPa)
#
#
# Indices 1 2 3 4 5 6 
#
# 1 0.005718 -0.001405 -0.001456 0.000248 -0.002347 0.002029
# 2 -0.001405 0.012446 -0.000657 -0.001714 0.003460 0.001554
# 3 -0.001456 -0.000657 0.008200 -0.001645 -0.002588 0.002347
# 4 0.000248 -0.001714 -0.001645 0.021760 0.006081 -0.009446
# 5 -0.002347 0.003460 -0.002588 0.006081 0.029256 -0.008786
# 6 0.002029 0.001554 0.002347 -0.009446 -0.008786 0.037819
#
#
# Mechanical properties :
#
#
# Convention : Reuss Voigt Hill
#
# Bulk Modulus (GPa) = 51.73727 64.74441 58.24084
# Shear Modulus (GPa) = 38.85706 49.03704 43.94705
#
# Velocity S-wave (km/s) = 3.87765 4.35608 4.12381
# Velocity P-wave (km/s) = 6.32998 7.09607 6.72395
#
# Compressibility (1/GPa) = 0.01932843
#
# Stress axis : x y z
#
# Youngs Moduli (GPa) = 174.90135 80.34637 121.95462
#
# Poissons Ratio (x) = 0.11285 0.17757
# Poissons Ratio (y) = 0.24565 0.08012
# Poissons Ratio (z) = 0.25466 0.05278
#
# Static dielectric constant tensor:
#      x y z
#    x 2.161420 0.077350 -0.010650 
#    y 0.077350 2.128660 0.043160 
#    z -0.010650 0.043160 2.076900 
# 
# From -- ./inp_files/583000.got.cif
#   From: 2010.05.17/outbox.cif.g08.bks.cpg/sg2_292_cif.got.tgz:583000.got - 2010.06.03 11:33:40.
