data_PCOD9009978
_publ_section_title
;
Structure prediction by ZEFSAII (Michael W. Deem and Ramdas Pophale) SiO2 
 PCOD9009978
Probable space group: P -1
;
_chemical_formula_sum "Si O2"
_cell_formula_units_Z 16
_cell_length_a 12.537921
_cell_length_b 15.302644
_cell_length_c 12.570286
_cell_angle_alpha 161.190625
_cell_angle_beta 79.466238
_cell_angle_gamma 96.554980
_cell_volume 751.190397
_symmetry_space_group_name_H-M "P -1"
_symmetry_group_IT_number 2
_symmetry_cell_setting 'triclinic'
loop_
_space_group_symop_operation_xyz
x,y,z
-x,-y,-z
loop_
_atom_site_type_symbol
_atom_site_label
_atom_site_fract_x
_atom_site_fract_y
_atom_site_fract_z
Si Si1 0.081667 0.207521 0.241518
Si Si2 0.374506 0.248512 0.580393
Si Si3 0.016886 0.931356 0.293603
Si Si4 0.878311 0.699353 0.888251
Si Si5 0.654843 0.532981 0.701922
Si Si6 0.431867 0.002555 0.906523
Si Si7 0.148315 0.312387 0.572287
Si Si8 0.547070 0.207145 0.807419
O O1 0.145030 0.185071 0.093186
O O2 0.152854 0.166711 0.288286
O O3 0.994005 0.490158 0.605494
O O4 0.000000 0.000000 0.000000
O O5 0.477939 0.124024 0.344238
O O6 0.266291 0.299363 0.587764
O O7 0.365338 0.007000 0.386946
O O8 0.400582 0.538999 0.954813
O O9 0.072451 0.157485 0.482561
O O10 0.095606 0.632290 0.935396
O O11 0.000000 0.000000 0.500000
O O12 0.908217 0.893467 0.200835
O O13 0.770619 0.566553 0.773238
O O14 0.648214 0.216940 0.319930
O O15 0.555386 0.657667 0.943545
O O16 0.627305 0.705324 0.795328
O O17 0.500000 0.000000 0.000000
O O18 0.500000 0.000000 0.500000
#
# Coordination Sequence:
#
# PCOD9009978 Si02
#       8
#     2   2   2   2   2   2   2   2
#     4  10  21  40  61  88 126 164 203 259 297 364
#     4  10  22  38  61  91 119 153 204 246 293 365
#     4  11  24  43  62  90 128 159 205 259 302 361
#     4  10  23  39  60  92 124 162 209 250 307 365
#     4  10  23  37  60  89 117 158 202 241 298 361
#     4  10  22  40  56  88 123 153 192 245 296 352
#     4  11  23  40  64  92 122 165 205 245 314 365
#     4  10  21  42  62  87 123 157 201 255 297 353
#
# _framework density 21.299527999999999
#
# number of rings (size 3 to 8) (size 9 to 14) (size 15 to 20)
#    0.000    1.750    1.250    1.875    3.500    2.000 
#    0.000    0.000    0.000    0.000    0.000    0.000 
#    0.000    0.000    0.000    0.000    0.000    0.000 
#
# Total GULP energy -89243.362166 kJ/mol
# GULP energy per Si atom -5577.710135 kJ/mol
# Density = 2.125105 g / cm^3
# Si number density = 21.299528 Si / 1000 Ang^3
#
#
#
# Elastic Constant Matrix: (Units=GPa)
#
#
# Indices 1 2 3 4 5 6 
#
# 1 84.3364 -17.1973 -3.0523 0.3364 17.6437 -19.1640
# 2 -17.1973 -11.2661 -20.1745 -14.3510 -13.4302 -12.6331
# 3 -3.0523 -20.1745 51.2703 -6.3923 5.6898 -5.6633
# 4 0.3364 -14.3510 -6.3923 40.4850 -10.4733 11.0604
# 5 17.6437 -13.4302 5.6898 -10.4733 27.6482 5.4354
# 6 -19.1640 -12.6331 -5.6633 11.0604 5.4354 27.4632
#
#
#
# Elastic Compliance Matrix: (Units=1/GPa)
#
#
# Indices 1 2 3 4 5 6 
#
# 1 0.022505 -0.008135 0.002141 -0.017570 -0.030423 0.025501
# 2 -0.008135 -0.023969 -0.012130 -0.006959 -0.003503 -0.015708
# 3 0.002141 -0.012130 0.016102 -0.006691 -0.014032 0.004707
# 4 -0.017570 -0.006959 -0.006691 0.040487 0.032319 -0.039543
# 5 -0.030423 -0.003503 -0.014032 0.032319 0.079732 -0.054531
# 6 0.025501 -0.015708 0.004707 -0.039543 -0.054531 0.074670
#
#
# Mechanical properties :
#
#
# Convention : Reuss Voigt Hill
#
# Bulk Modulus (GPa) = -46.27633 4.83250 -20.72192
# Shear Modulus (GPa) = 20.95805 30.10360 25.53082
#
# Velocity S-wave (km/s) = 3.14023 3.76353 3.46592
# Velocity P-wave (km/s) = 2.93693 4.59992 2.50337
#
# Compressibility (1/GPa) = -0.02160932
#
# Stress axis : x y z
#
# Youngs Moduli (GPa) = 44.43429 -41.72123 62.10458
#
# Poissons Ratio (x) = -0.33941 -0.13297
# Poissons Ratio (y) = 0.36148 0.75331
# Poissons Ratio (z) = -0.09514 -0.50607
#
# Static dielectric constant tensor:
#      x y z
#    x 1.573060 -0.029750 0.147010 
#    y -0.029750 1.854140 0.012340 
#    z 0.147010 0.012340 1.654610 
# 
# From -- ./inp_files/66795.got.cif
#   From: 2010.05.17/outbox.cif.g08.bks.cpg/sg2_34_cif.got.tgz:66795.got - 2010.06.03 11:33:40.
