data_PCOD9009690
_publ_section_title
;
Structure prediction by ZEFSAII (Michael W. Deem and Ramdas Pophale) SiO2 
 PCOD9009690
Probable space group: P -1
;
_chemical_formula_sum "Si O2"
_cell_formula_units_Z 12
_cell_length_a 5.192560
_cell_length_b 14.793923
_cell_length_c 9.711004
_cell_angle_alpha 129.802351
_cell_angle_beta 72.166072
_cell_angle_gamma 98.443963
_cell_volume 544.331839
_symmetry_space_group_name_H-M "P -1"
_symmetry_group_IT_number 2
_symmetry_cell_setting 'triclinic'
loop_
_space_group_symop_operation_xyz
x,y,z
-x,-y,-z
loop_
_atom_site_type_symbol
_atom_site_label
_atom_site_fract_x
_atom_site_fract_y
_atom_site_fract_z
Si Si1 0.478823 0.304087 0.351754
Si Si2 0.692895 0.966282 0.564008
Si Si3 0.983912 0.777950 0.485030
Si Si4 0.750325 0.065355 0.190068
Si Si5 0.269173 0.478404 0.347201
Si Si6 0.801997 0.463936 0.879610
O O1 0.177102 0.280208 0.423078
O O2 0.641920 0.178411 0.225706
O O3 0.455011 0.368470 0.270935
O O4 0.574185 0.403189 0.538333
O O5 0.765991 0.830330 0.461101
O O6 0.508353 0.002220 0.769686
O O7 0.500000 0.000000 0.500000
O O8 0.000000 0.000000 0.500000
O O9 0.127901 0.881172 0.638319
O O10 0.167882 0.675712 0.286459
O O11 0.000000 0.000000 0.000000
O O12 0.161171 0.467798 0.201808
O O13 0.000000 0.500000 0.500000
O O14 0.500000 0.500000 0.000000
O O15 0.000000 0.500000 0.000000
#
# Coordination Sequence:
#
# PCOD9009690 Si02
#       6
#     2   2   2   2   2   2
#     4  10  21  39  74 102 143 190 239 299 382 416
#     4  11  24  46  75 102 143 197 239 298 374 441
#     4  11  23  47  71  99 149 189 238 309 378 428
#     4  11  24  45  77 108 143 190 253 312 368 436
#     4  11  21  41  72 101 144 190 243 299 365 444
#     4  12  27  44  70 107 144 190 238 294 369 442
#
# _framework density 22.045376000000001
#
# number of rings (size 3 to 8) (size 9 to 14) (size 15 to 20)
#    0.000    1.000    5.000    1.000    4.667    2.667 
#    3.000    3.333    0.000    0.000    0.000    0.000 
#    0.000    0.000    0.000    0.000    0.000    0.000 
#
# Total GULP energy -66857.178841 kJ/mol
# GULP energy per Si atom -5571.431570 kJ/mol
# Density = 2.199520 g / cm^3
# Si number density = 22.045376 Si / 1000 Ang^3
#
#
#
# Elastic Constant Matrix: (Units=GPa)
#
#
# Indices 1 2 3 4 5 6 
#
# 1 144.7201 49.4297 69.2375 -11.5412 -8.3601 -18.8937
# 2 49.4297 122.1689 50.8634 -19.7145 -6.3178 -30.7950
# 3 69.2375 50.8634 128.4061 -9.0969 -22.8766 -20.0928
# 4 -11.5412 -19.7145 -9.0969 32.1262 -8.1117 -1.1174
# 5 -8.3601 -6.3178 -22.8766 -8.1117 55.2180 -4.1085
# 6 -18.8937 -30.7950 -20.0928 -1.1174 -4.1085 68.8215
#
#
#
# Elastic Compliance Matrix: (Units=1/GPa)
#
#
# Indices 1 2 3 4 5 6 
#
# 1 0.009806 -0.001807 -0.004473 0.001072 -0.000375 0.000572
# 2 -0.001807 0.012200 -0.002438 0.006661 0.001422 0.004444
# 3 -0.004473 -0.002438 0.012325 0.001578 0.004499 0.001574
# 4 0.001072 0.006661 0.001578 0.038116 0.007535 0.004804
# 5 -0.000375 0.001422 0.004499 0.007535 0.021428 0.003248
# 6 0.000572 0.004444 0.001574 0.004804 0.003248 0.017408
#
#
# Mechanical properties :
#
#
# Convention : Reuss Voigt Hill
#
# Bulk Modulus (GPa) = 59.18809 81.59515 70.39162
# Shear Modulus (GPa) = 37.21648 46.28410 41.75029
#
# Velocity S-wave (km/s) = 4.11320 4.58699 4.35654
# Velocity P-wave (km/s) = 7.03310 8.07135 7.57005
#
# Compressibility (1/GPa) = 0.01689529
#
# Stress axis : x y z
#
# Youngs Moduli (GPa) = 101.98289 81.96675 81.13864
#
# Poissons Ratio (x) = 0.14814 0.36290
# Poissons Ratio (y) = 0.18431 0.19778
# Poissons Ratio (z) = 0.45613 0.19980
#
# Static dielectric constant tensor:
#      x y z
#    x 1.941310 0.084810 0.019320 
#    y 0.084810 1.957070 -0.003880 
#    z 0.019320 -0.003880 1.812750 
# 
# From -- ./inp_files/134612.got.cif
#   From: 2010.05.17/outbox.cif.g08.bks.cpg/sg2_68_cif.got.tgz:134612.got - 2010.06.03 11:33:40.
