data_PCOD9009682
_publ_section_title
;
Structure prediction by ZEFSAII (Michael W. Deem and Ramdas Pophale) SiO2 
 PCOD9009682
Probable space group: P -1
;
_chemical_formula_sum "Si O2"
_cell_formula_units_Z 16
_cell_length_a 8.932595
_cell_length_b 14.227440
_cell_length_c 18.506635
_cell_angle_alpha 150.010556
_cell_angle_beta 41.465246
_cell_angle_gamma 137.033168
_cell_volume 753.746263
_symmetry_space_group_name_H-M "P -1"
_symmetry_group_IT_number 2
_symmetry_cell_setting 'triclinic'
loop_
_space_group_symop_operation_xyz
x,y,z
-x,-y,-z
loop_
_atom_site_type_symbol
_atom_site_label
_atom_site_fract_x
_atom_site_fract_y
_atom_site_fract_z
Si Si1 0.907633 0.326938 0.862189
Si Si2 0.116072 0.897762 0.041147
Si Si3 0.775917 0.867480 0.456750
Si Si4 0.540968 0.189987 0.016282
Si Si5 0.380562 0.529933 0.378031
Si Si6 0.693935 0.148354 0.574738
Si Si7 0.241645 0.503300 0.118519
Si Si8 0.024127 0.765285 0.600382
O O1 0.866300 0.401104 0.846454
O O2 0.114461 0.218684 0.708699
O O3 0.668439 0.204275 0.902745
O O4 0.000000 0.500000 0.000000
O O5 0.309794 0.015528 0.993465
O O6 0.269512 0.838210 0.011079
O O7 0.983817 0.050482 0.224677
O O8 0.933447 0.708965 0.951097
O O9 0.602312 0.684804 0.433868
O O10 0.650161 0.028915 0.585179
O O11 0.000000 0.000000 0.500000
O O12 0.468247 0.387644 0.196119
O O13 0.222902 0.656120 0.479754
O O14 0.220325 0.390083 0.400560
O O15 0.717409 0.367147 0.737573
O O16 0.925393 0.169070 0.456439
O O17 0.500000 0.000000 0.500000
O O18 0.500000 0.500000 0.000000
#
# Coordination Sequence:
#
# PCOD9009682 Si02
#       8
#     2   2   2   2   2   2   2   2
#     4  12  23  42  69  96 128 175 217 264 329 385
#     4  10  21  43  66  99 130 168 218 269 323 389
#     4  12  24  42  64  96 132 166 217 276 319 381
#     4  10  21  39  73  94 127 175 216 262 328 392
#     4  10  21  40  67  94 128 167 220 265 321 390
#     4  12  25  43  66  93 127 178 217 263 326 386
#     4  12  27  41  63 101 136 164 221 274 317 389
#     4  10  22  40  68  94 124 176 214 261 329 391
#
# _framework density 21.227302999999999
#
# number of rings (size 3 to 8) (size 9 to 14) (size 15 to 20)
#    0.000    1.000    5.000    1.500    3.500    0.000 
#    2.250    1.250    0.000    0.000    0.000    0.000 
#    0.000    0.000    0.000    0.000    0.000    0.000 
#
# Total GULP energy -89204.564336 kJ/mol
# GULP energy per Si atom -5575.285271 kJ/mol
# Density = 2.117899 g / cm^3
# Si number density = 21.227303 Si / 1000 Ang^3
#
#
#
# Elastic Constant Matrix: (Units=GPa)
#
#
# Indices 1 2 3 4 5 6 
#
# 1 44.1390 16.5919 7.6377 20.6078 0.8249 16.8148
# 2 16.5919 189.1032 53.4400 18.9701 17.0374 28.4083
# 3 7.6377 53.4400 98.2866 18.6812 0.6212 14.6189
# 4 20.6078 18.9701 18.6812 40.6426 6.6349 8.5494
# 5 0.8249 17.0374 0.6212 6.6349 35.7078 9.1682
# 6 16.8148 28.4083 14.6189 8.5494 9.1682 34.3095
#
#
#
# Elastic Compliance Matrix: (Units=1/GPa)
#
#
# Indices 1 2 3 4 5 6 
#
# 1 0.036492 -0.000504 0.003119 -0.017381 0.006750 -0.016269
# 2 -0.000504 0.006997 -0.003146 -0.000458 -0.002294 -0.003479
# 3 0.003119 -0.003146 0.013350 -0.005948 0.003334 -0.004021
# 4 -0.017381 -0.000458 -0.005948 0.036649 -0.007168 0.004215
# 5 0.006750 -0.002294 0.003334 -0.007168 0.032731 -0.009790
# 6 -0.016269 -0.003479 -0.004021 0.004215 -0.009790 0.043279
#
#
# Mechanical properties :
#
#
# Convention : Reuss Voigt Hill
#
# Bulk Modulus (GPa) = 17.92862 54.09646 36.01254
# Shear Modulus (GPa) = 26.43385 39.05593 32.74489
#
# Velocity S-wave (km/s) = 3.53268 4.29405 3.93183
# Velocity P-wave (km/s) = 5.01040 7.07989 6.13306
#
# Compressibility (1/GPa) = 0.05577675
#
# Stress axis : x y z
#
# Youngs Moduli (GPa) = 27.40337 142.92715 74.90654
#
# Poissons Ratio (x) = 0.07199 -0.23363
# Poissons Ratio (y) = 0.01380 0.23566
# Poissons Ratio (z) = -0.08547 0.44965
#
# Static dielectric constant tensor:
#      x y z
#    x 1.742370 -0.126520 -0.099110 
#    y -0.126520 1.708560 -0.029500 
#    z -0.099110 -0.029500 1.755080 
# 
# From -- ./inp_files/299062.got.cif
#   From: 2010.05.17/outbox.cif.g08.bks.cpg/sg2_150_cif.got.tgz:299062.got - 2010.06.03 11:33:40.
