data_PCOD9009432
_publ_section_title
;
Structure prediction by ZEFSAII (Michael W. Deem and Ramdas Pophale) SiO2 
 PCOD9009432
Probable space group: P -1
;
_chemical_formula_sum "Si O2"
_cell_formula_units_Z 14
_cell_length_a 7.912927
_cell_length_b 10.456209
_cell_length_c 14.530210
_cell_angle_alpha 63.519912
_cell_angle_beta 123.030511
_cell_angle_gamma 69.695921
_cell_volume 557.420543
_symmetry_space_group_name_H-M "P -1"
_symmetry_group_IT_number 2
_symmetry_cell_setting 'triclinic'
loop_
_space_group_symop_operation_xyz
x,y,z
-x,-y,-z
loop_
_atom_site_type_symbol
_atom_site_label
_atom_site_fract_x
_atom_site_fract_y
_atom_site_fract_z
Si Si1 0.715740 0.951042 0.498932
Si Si2 0.376620 0.408028 0.622458
Si Si3 0.649560 0.086261 0.056475
Si Si4 0.634619 0.894024 0.291334
Si Si5 0.516522 0.510975 0.108275
Si Si6 0.954269 0.378322 0.732189
Si Si7 0.578770 0.593216 0.716619
O O1 0.698514 0.131546 0.454518
O O2 0.500000 0.000000 0.500000
O O3 0.568761 0.991334 0.342351
O O4 0.095682 0.695212 0.689537
O O5 0.539538 0.161392 0.764677
O O6 0.519946 0.473710 0.687096
O O7 0.010619 0.631832 0.483487
O O8 0.314849 0.446254 0.481351
O O9 0.612700 0.030477 0.163821
O O10 0.946431 0.842647 0.173570
O O11 0.684085 0.233854 0.017020
O O12 0.303230 0.251238 0.851696
O O13 0.364271 0.474526 0.139097
O O14 0.500000 0.500000 0.000000
O O15 0.862209 0.491752 0.767306
#
# Coordination Sequence:
#
# PCOD9009432 Si02
#       7
#     2   2   2   2   2   2   2
#     4  12  26  46  71  95 134 184 231 269 332 409
#     4  10  21  39  68  98 131 167 227 275 321 394
#     4  10  23  43  67  93 141 174 215 269 342 406
#     4  10  21  41  68  95 130 181 219 265 335 396
#     4  12  27  44  67  99 139 174 224 281 337 388
#     4  10  23  41  67  99 133 171 219 272 339 393
#     4  12  25  42  71  99 134 172 229 279 328 394
#
# _framework density 25.115686
#
# number of rings (size 3 to 8) (size 9 to 14) (size 15 to 20)
#    0.000    1.143    1.429    4.286   10.000    1.714 
#    0.000    2.857    0.000    0.000    0.000    0.000 
#    0.000    0.000    0.000    0.000    0.000    0.000 
#
# Total GULP energy -78210.190735 kJ/mol
# GULP energy per Si atom -5586.442195 kJ/mol
# Density = 2.505852 g / cm^3
# Si number density = 25.115686 Si / 1000 Ang^3
#
#
#
# Elastic Constant Matrix: (Units=GPa)
#
#
# Indices 1 2 3 4 5 6 
#
# 1 51.6432 35.0109 21.4601 0.9082 -27.2464 -15.1835
# 2 35.0109 113.5371 30.8528 0.6438 -22.6664 -25.4863
# 3 21.4601 30.8528 82.8842 2.6608 -34.1618 -9.4813
# 4 0.9082 0.6438 2.6608 45.8205 0.5625 -12.2454
# 5 -27.2464 -22.6664 -34.1618 0.5625 38.9544 2.6178
# 6 -15.1835 -25.4863 -9.4813 -12.2454 2.6178 49.2078
#
#
#
# Elastic Compliance Matrix: (Units=1/GPa)
#
#
# Indices 1 2 3 4 5 6 
#
# 1 0.037681 -0.005647 0.003976 0.001011 0.025982 0.008337
# 2 -0.005647 0.012351 -0.002288 0.001257 0.000911 0.004478
# 3 0.003976 -0.002288 0.019962 -0.000712 0.018784 0.002712
# 4 0.001011 0.001257 -0.000712 0.023619 0.000023 0.006702
# 5 0.025982 0.000911 0.018784 0.000023 0.060248 0.008909
# 6 0.008337 0.004478 0.002712 0.006702 0.008909 0.026930
#
#
# Mechanical properties :
#
#
# Convention : Reuss Voigt Hill
#
# Bulk Modulus (GPa) = 16.10937 46.96803 31.53870
# Shear Modulus (GPa) = 23.87760 37.51257 30.69509
#
# Velocity S-wave (km/s) = 3.08670 3.86889 3.49972
# Velocity P-wave (km/s) = 4.37397 6.22086 5.37730
#
# Compressibility (1/GPa) = 0.06207567
#
# Stress axis : x y z
#
# Youngs Moduli (GPa) = 26.53859 80.96680 50.09418
#
# Poissons Ratio (x) = 0.45723 -0.19916
# Poissons Ratio (y) = 0.14987 0.11461
# Poissons Ratio (z) = -0.10551 0.18524
#
# Static dielectric constant tensor:
#      x y z
#    x -0.889060 5.639550 -1.628570 
#    y 5.639550 -8.315280 3.037740 
#    z -1.628570 3.037740 1.132070 
# 
# From -- ./inp_files/397504.got.cif
#   From: 2010.05.17/outbox.cif.g08.bks.cpg/sg2_199_cif.got.tgz:397504.got - 2010.06.03 11:33:40.
