data_PCOD9009004
_publ_section_title
;
Structure prediction by ZEFSAII (Michael W. Deem and Ramdas Pophale) SiO2 
 PCOD9009004
Probable space group: P -1
;
_chemical_formula_sum "Si O2"
_cell_formula_units_Z 16
_cell_length_a 8.150408
_cell_length_b 7.223474
_cell_length_c 19.310425
_cell_angle_alpha 45.916613
_cell_angle_beta 100.044534
_cell_angle_gamma 120.944364
_cell_volume 668.693999
_symmetry_space_group_name_H-M "P -1"
_symmetry_group_IT_number 2
_symmetry_cell_setting 'triclinic'
loop_
_space_group_symop_operation_xyz
x,y,z
-x,-y,-z
loop_
_atom_site_type_symbol
_atom_site_label
_atom_site_fract_x
_atom_site_fract_y
_atom_site_fract_z
Si Si1 0.483474 0.830680 0.970651
Si Si2 0.134929 0.184942 0.343127
Si Si3 0.535088 0.754723 0.243195
Si Si4 0.847756 0.335926 0.466142
Si Si5 0.939712 0.220753 0.906758
Si Si6 0.138486 0.302140 0.154438
Si Si7 0.840756 0.625636 0.254419
Si Si8 0.677187 0.698752 0.409101
O O1 0.399343 0.948440 0.875577
O O2 0.711263 0.972774 0.930835
O O3 0.332831 0.478951 0.073903
O O4 0.500000 0.000000 0.000000
O O5 0.292354 0.540068 0.283286
O O6 0.171411 0.199815 0.258830
O O7 0.207946 0.006910 0.440834
O O8 0.892189 0.969784 0.385604
O O9 0.619550 0.562271 0.263358
O O10 0.619760 0.832826 0.306406
O O11 0.899967 0.462974 0.358742
O O12 0.694542 0.429135 0.447634
O O13 0.000000 0.500000 0.500000
O O14 0.928988 0.462343 0.893207
O O15 0.092833 0.409932 0.806542
O O16 0.000000 0.000000 0.000000
O O17 0.972365 0.990761 0.186481
O O18 0.500000 0.500000 0.500000
#
# Coordination Sequence:
#
# PCOD9009004 Si02
#       8
#     2   2   2   2   2   2   2   2
#     4  10  21  39  66  96 136 179 225 281 337 413
#     4  11  21  44  67  93 135 187 219 277 351 401
#     4  11  22  42  67  95 135 188 223 272 357 404
#     4   9  19  41  64  93 134 177 223 278 336 406
#     4  11  25  42  65 104 136 173 238 290 330 415
#     4  11  22  46  69  93 142 185 220 282 354 394
#     4  11  23  43  70 100 135 180 233 280 339 414
#     4  10  23  42  62 100 133 170 233 286 328 412
#
# _framework density 23.927236000000001
#
# number of rings (size 3 to 8) (size 9 to 14) (size 15 to 20)
#    0.000    1.500    6.250    1.500    0.000    7.000 
#    4.500    0.000    0.000    0.000    0.000    0.000 
#    0.000    0.000    0.000    0.000    0.000    0.000 
#
# Total GULP energy -89312.057045 kJ/mol
# GULP energy per Si atom -5582.003565 kJ/mol
# Density = 2.387278 g / cm^3
# Si number density = 23.927236 Si / 1000 Ang^3
#
#
#
# Elastic Constant Matrix: (Units=GPa)
#
#
# Indices 1 2 3 4 5 6 
#
# 1 85.2243 31.3932 58.1550 4.3690 -7.9852 20.7093
# 2 31.3932 65.4668 15.8254 -12.7152 -5.1365 5.8690
# 3 58.1550 15.8254 181.0595 1.2809 2.8820 13.0774
# 4 4.3690 -12.7152 1.2809 33.8715 9.6323 -2.0361
# 5 -7.9852 -5.1365 2.8820 9.6323 39.1574 -3.0962
# 6 20.7093 5.8690 13.0774 -2.0361 -3.0962 36.4448
#
#
#
# Elastic Compliance Matrix: (Units=1/GPa)
#
#
# Indices 1 2 3 4 5 6 
#
# 1 0.022290 -0.009716 -0.005674 -0.008278 0.005005 -0.009103
# 2 -0.009716 0.021262 0.001063 0.009749 -0.001500 0.002133
# 3 -0.005674 0.001063 0.007245 0.001411 -0.001868 0.000373
# 4 -0.008278 0.009749 0.001411 0.037085 -0.009327 0.003907
# 5 0.005005 -0.001500 -0.001868 -0.009327 0.028793 -0.000007
# 6 -0.009103 0.002133 0.000373 0.003907 -0.000007 0.032352
#
#
# Mechanical properties :
#
#
# Convention : Reuss Voigt Hill
#
# Bulk Modulus (GPa) = 45.16004 60.27752 52.71878
# Shear Modulus (GPa) = 27.01821 36.98655 32.00238
#
# Velocity S-wave (km/s) = 3.36398 3.93592 3.66114
# Velocity P-wave (km/s) = 5.83124 6.77510 6.32081
#
# Compressibility (1/GPa) = 0.02214347
#
# Stress axis : x y z
#
# Youngs Moduli (GPa) = 44.86393 47.03285 138.02100
#
# Poissons Ratio (x) = 0.45698 0.78309
# Poissons Ratio (y) = 0.43590 -0.14675
# Poissons Ratio (z) = 0.25454 -0.05001
#
# Static dielectric constant tensor:
#      x y z
#    x 2.020400 -0.006370 -0.006780 
#    y -0.006370 1.946520 0.016450 
#    z -0.006780 0.016450 1.978730 
# 
# From -- ./inp_files/587767.got.cif
#   From: 2010.05.17/outbox.cif.g08.bks.cpg/sg2_294_cif.got.tgz:587767.got - 2010.06.03 11:33:40.
