data_PCOD9009756
_publ_section_title
;
Structure prediction by ZEFSAII (Michael W. Deem and Ramdas Pophale) SiO2 
 PCOD9009756
Probable space group: P -1
;
_chemical_formula_sum "Si O2"
_cell_formula_units_Z 14
_cell_length_a 12.797781
_cell_length_b 8.845399
_cell_length_c 9.619924
_cell_angle_alpha 133.625225
_cell_angle_beta 44.526923
_cell_angle_gamma 118.682573
_cell_volume 552.628052
_symmetry_space_group_name_H-M "P -1"
_symmetry_group_IT_number 2
_symmetry_cell_setting 'triclinic'
loop_
_space_group_symop_operation_xyz
x,y,z
-x,-y,-z
loop_
_atom_site_type_symbol
_atom_site_label
_atom_site_fract_x
_atom_site_fract_y
_atom_site_fract_z
Si Si1 0.476447 0.811285 0.085200
Si Si2 0.036346 0.973997 0.649859
Si Si3 0.299847 0.573522 0.351072
Si Si4 0.362921 0.957137 0.705365
Si Si5 0.899860 0.704020 0.818124
Si Si6 0.876921 0.602669 0.082967
Si Si7 0.775868 0.186931 0.877948
O O1 0.373322 0.702175 0.233971
O O2 0.562631 0.006151 0.192071
O O3 0.371637 0.879843 0.101646
O O4 0.594104 0.621551 0.824888
O O5 0.020866 0.849896 0.727290
O O6 0.098533 0.834475 0.377683
O O7 0.868745 0.061208 0.828019
O O8 0.145806 0.165698 0.690120
O O9 0.157881 0.460276 0.345994
O O10 0.293893 0.738314 0.587682
O O11 0.500000 0.000000 0.500000
O O12 0.244534 0.146063 0.920115
O O13 0.938310 0.620930 0.880362
O O14 0.750835 0.431275 0.091790
O O15 0.000000 0.500000 0.000000
#
# Coordination Sequence:
#
# PCOD9009756 Si02
#       7
#     2   2   2   2   2   2   2
#     4   9  17  33  57  83 109 148 193 232 280 341
#     4  10  24  38  56  86 118 151 196 230 285 340
#     4   9  18  33  55  87 111 143 192 236 285 336
#     4   9  20  33  57  89 112 147 191 234 285 338
#     4  11  21  37  59  88 117 147 189 244 278 335
#     4  10  22  38  57  85 116 152 192 229 282 343
#     4  10  21  40  59  82 116 159 187 233 287 338
#
# _framework density 25.333494999999999
#
# number of rings (size 3 to 8) (size 9 to 14) (size 15 to 20)
#    0.000    2.286    1.429    1.286    4.000    1.714 
#    0.000    2.857    0.000    1.714    0.000    0.000 
#    0.000    0.000    0.000    0.000    0.000    0.000 
#
# Total GULP energy -78308.525551 kJ/mol
# GULP energy per Si atom -5593.466111 kJ/mol
# Density = 2.527583 g / cm^3
# Si number density = 25.333495 Si / 1000 Ang^3
#
#
#
# Elastic Constant Matrix: (Units=GPa)
#
#
# Indices 1 2 3 4 5 6 
#
# 1 170.5640 41.1458 43.4227 18.6881 27.6891 1.1447
# 2 41.1458 58.8934 38.7008 21.3980 7.0170 -0.8341
# 3 43.4227 38.7008 83.7275 37.3855 16.4707 2.3719
# 4 18.6881 21.3980 37.3855 42.3326 11.5836 14.0981
# 5 27.6891 7.0170 16.4707 11.5836 39.6100 0.3443
# 6 1.1447 -0.8341 2.3719 14.0981 0.3443 50.9588
#
#
#
# Elastic Compliance Matrix: (Units=1/GPa)
#
#
# Indices 1 2 3 4 5 6 
#
# 1 0.007973 -0.004397 -0.002096 0.002013 -0.004506 -0.000680
# 2 -0.004397 0.027478 -0.008293 -0.006492 0.003529 0.002707
# 3 -0.002096 -0.008293 0.025085 -0.017592 -0.002384 0.003627
# 4 0.002013 -0.006492 -0.017592 0.047536 -0.006736 -0.012438
# 5 -0.004506 0.003529 -0.002384 -0.006736 0.030715 0.001926
# 6 -0.000680 0.002707 0.003627 -0.012438 0.001926 0.022943
#
#
# Mechanical properties :
#
#
# Convention : Reuss Voigt Hill
#
# Bulk Modulus (GPa) = 32.29568 62.19152 47.24360
# Shear Modulus (GPa) = 24.79899 39.24133 32.02016
#
# Velocity S-wave (km/s) = 3.13213 3.93999 3.55906
# Velocity P-wave (km/s) = 5.08490 6.73056 5.96476
#
# Compressibility (1/GPa) = 0.03096389
#
# Stress axis : x y z
#
# Youngs Moduli (GPa) = 125.42988 36.39295 39.86525
#
# Poissons Ratio (x) = 0.16003 0.08354
# Poissons Ratio (y) = 0.55154 0.33059
# Poissons Ratio (z) = 0.26284 0.30180
#
# Static dielectric constant tensor:
#      x y z
#    x 2.018570 0.036830 -0.019280 
#    y 0.036830 2.027260 0.008780 
#    z -0.019280 0.008780 2.037660 
# 
# From -- ./inp_files/245793.got.cif
#   From: 2010.05.17/outbox.cif.g08.bks.cpg/sg2_123_cif.got.tgz:245793.got - 2010.06.03 11:33:40.
