data_PCOD9009980
_publ_section_title
;
Structure prediction by ZEFSAII (Michael W. Deem and Ramdas Pophale) SiO2 
 PCOD9009980
Probable space group: P -1
;
_chemical_formula_sum "Si O2"
_cell_formula_units_Z 16
_cell_length_a 5.492864
_cell_length_b 5.474324
_cell_length_c 21.572818
_cell_angle_alpha 90.320162
_cell_angle_beta 84.359974
_cell_angle_gamma 107.153609
_cell_volume 616.645851
_symmetry_space_group_name_H-M "P -1"
_symmetry_group_IT_number 2
_symmetry_cell_setting 'triclinic'
loop_
_space_group_symop_operation_xyz
x,y,z
-x,-y,-z
loop_
_atom_site_type_symbol
_atom_site_label
_atom_site_fract_x
_atom_site_fract_y
_atom_site_fract_z
Si Si1 0.979714 0.380019 0.069118
Si Si2 0.447512 0.050093 0.806039
Si Si3 0.219971 0.633755 0.542646
Si Si4 0.984602 0.198341 0.835015
Si Si5 0.383151 0.187476 0.575904
Si Si6 0.451208 0.234394 0.039581
Si Si7 0.349407 0.566992 0.312589
Si Si8 0.814250 0.405825 0.274559
O O1 0.154260 0.188613 0.064994
O O2 0.084781 0.598902 0.117221
O O3 0.674028 0.282426 0.085415
O O4 0.000000 0.500000 0.000000
O O5 0.245458 0.145526 0.852569
O O6 0.566866 0.263818 0.750884
O O7 0.705251 0.003511 0.826862
O O8 0.252653 0.816624 0.774680
O O9 0.233043 0.398040 0.584453
O O10 0.471557 0.740376 0.493220
O O11 0.000000 0.500000 0.500000
O O12 0.211268 0.894880 0.576044
O O13 0.084752 0.333496 0.766998
O O14 0.581044 0.251588 0.628358
O O15 0.500000 0.500000 0.000000
O O16 0.500000 0.000000 0.000000
O O17 0.539316 0.391107 0.310230
O O18 0.055047 0.407966 0.310942
#
# Coordination Sequence:
#
# PCOD9009980 Si02
#       8
#     2   2   2   2   2   2   2   2
#     4  10  21  40  62  90 128 164 212 264 319 392
#     4  10  21  40  63  89 122 164 207 269 331 389
#     4  10  22  42  61  91 136 175 213 267 325 387
#     4  10  21  41  61  89 126 161 210 261 326 397
#     4  10  23  39  61  97 125 171 225 263 324 388
#     4  10  21  40  61  88 127 161 205 259 308 368
#     4  10  23  38  64  92 124 161 217 274 316 391
#     4  10  22  42  61  93 122 161 213 268 337 381
#
# _framework density 25.946822000000001
#
# number of rings (size 3 to 8) (size 9 to 14) (size 15 to 20)
#    0.000    2.000    0.000    2.250    3.500    0.000 
#   13.500    0.000    0.000    0.000    0.000    0.000 
#    0.000    0.000    0.000    0.000    0.000    0.000 
#
# Total GULP energy -89365.848519 kJ/mol
# GULP energy per Si atom -5585.365532 kJ/mol
# Density = 2.588777 g / cm^3
# Si number density = 25.946822 Si / 1000 Ang^3
#
#
#
# Elastic Constant Matrix: (Units=GPa)
#
#
# Indices 1 2 3 4 5 6 
#
# 1 198.8865 62.0958 37.7601 2.9362 22.9909 -3.8400
# 2 62.0958 121.0389 21.1646 17.1051 5.1244 -0.9084
# 3 37.7601 21.1646 69.0211 14.6992 11.4930 -7.1018
# 4 2.9362 17.1051 14.6992 49.3855 11.6223 -1.2834
# 5 22.9909 5.1244 11.4930 11.6223 51.6331 1.6137
# 6 -3.8400 -0.9084 -7.1018 -1.2834 1.6137 45.5596
#
#
#
# Elastic Compliance Matrix: (Units=1/GPa)
#
#
# Indices 1 2 3 4 5 6 
#
# 1 0.006826 -0.003212 -0.002749 0.002143 -0.002598 0.000235
# 2 -0.003212 0.010515 -0.000994 -0.003496 0.001406 -0.000364
# 3 -0.002749 -0.000994 0.017756 -0.004304 -0.001738 0.002457
# 4 0.002143 -0.003496 -0.004304 0.023801 -0.005015 0.000288
# 5 -0.002598 0.001406 -0.001738 -0.005015 0.021944 -0.001380
# 6 0.000235 -0.000364 0.002457 0.000288 -0.001380 0.022402
#
#
# Mechanical properties :
#
#
# Convention : Reuss Voigt Hill
#
# Bulk Modulus (GPa) = 47.19986 70.10972 58.65479
# Shear Modulus (GPa) = 40.25220 47.17737 43.71478
#
# Velocity S-wave (km/s) = 3.94297 4.26870 4.10906
# Velocity P-wave (km/s) = 6.24178 7.16763 6.72067
#
# Compressibility (1/GPa) = 0.02118650
#
# Stress axis : x y z
#
# Youngs Moduli (GPa) = 146.49657 95.09890 56.31968
#
# Poissons Ratio (x) = 0.30549 0.15481
# Poissons Ratio (y) = 0.47059 0.05600
# Poissons Ratio (z) = 0.40269 0.09455
#
# Static dielectric constant tensor:
#      x y z
#    x 2.097750 0.008300 -0.055080 
#    y 0.008300 2.278760 -0.064880 
#    z -0.055080 -0.064880 2.092820 
# 
# From -- ./inp_files/12919.got.cif
#   From: 2010.05.17/outbox.cif.g08.bks.cpg/sg2_7_cif.got.tgz:12919.got - 2010.06.03 11:33:40.
