data_PCOD9009899
_publ_section_title
;
Structure prediction by ZEFSAII (Michael W. Deem and Ramdas Pophale) SiO2 
 PCOD9009899
Probable space group: P -1
;
_chemical_formula_sum "Si O2"
_cell_formula_units_Z 16
_cell_length_a 15.035033
_cell_length_b 23.949744
_cell_length_c 13.876134
_cell_angle_alpha 20.589061
_cell_angle_beta 26.398034
_cell_angle_gamma 28.828770
_cell_volume 758.355836
_symmetry_space_group_name_H-M "P -1"
_symmetry_group_IT_number 2
_symmetry_cell_setting 'triclinic'
loop_
_space_group_symop_operation_xyz
x,y,z
-x,-y,-z
loop_
_atom_site_type_symbol
_atom_site_label
_atom_site_fract_x
_atom_site_fract_y
_atom_site_fract_z
Si Si1 0.230794 0.386506 0.172469
Si Si2 0.888438 0.316785 0.522523
Si Si3 0.032865 0.014824 0.749844
Si Si4 0.617266 0.139600 0.191057
Si Si5 0.138040 0.761995 0.694800
Si Si6 0.660403 0.613562 0.159296
Si Si7 0.622479 0.086845 0.944256
Si Si8 0.259490 0.979596 0.386186
O O1 0.437995 0.276692 0.193657
O O2 0.038326 0.304526 0.488714
O O3 0.174279 0.568479 0.972526
O O4 0.270548 0.385257 0.019759
O O5 0.826278 0.505851 0.245552
O O6 0.706026 0.234148 0.866907
O O7 0.984192 0.207569 0.514132
O O8 0.184322 0.935526 0.816249
O O9 0.161729 0.965313 0.608330
O O10 0.805847 0.984749 0.998683
O O11 0.500000 0.000000 0.500000
O O12 0.257721 0.813199 0.403520
O O13 0.896663 0.856243 0.769845
O O14 0.232489 0.834980 0.576697
O O15 0.500000 0.500000 0.500000
O O16 0.550073 0.788488 0.027380
O O17 0.492394 0.992060 0.157275
#
# Coordination Sequence:
#
# PCOD9009899 Si02
#       8
#     2   2   2   2   2   2   2   2
#     4  12  23  39  62  87 127 161 195 257 303 362
#     4  12  23  38  61  91 122 158 194 249 313 371
#     4  11  23  37  58  87 118 158 206 239 293 357
#     4  12  26  41  59  90 124 163 208 243 296 371
#     4  10  21  40  60  93 118 158 206 247 309 354
#     4  12  19  35  60  95 125 151 194 244 323 372
#     4  11  20  36  61  89 126 160 192 251 306 361
#     4  10  22  38  63  88 123 157 203 256 294 360
#
# _framework density 21.098274
#
# number of rings (size 3 to 8) (size 9 to 14) (size 15 to 20)
#    0.000    0.750    5.000    3.375    1.750    0.000 
#    0.000    0.625    0.000    1.500    0.000    0.000 
#    0.000    0.000    0.000    0.000    0.000    0.000 
#
# Total GULP energy -89351.770032 kJ/mol
# GULP energy per Si atom -5584.485627 kJ/mol
# Density = 2.105025 g / cm^3
# Si number density = 21.098274 Si / 1000 Ang^3
#
#
#
# Elastic Constant Matrix: (Units=GPa)
#
#
# Indices 1 2 3 4 5 6 
#
# 1 113.1545 47.8536 40.0855 -13.3000 -27.9390 -25.9002
# 2 47.8536 90.1213 41.0283 -8.2235 -17.5958 -13.9463
# 3 40.0855 41.0283 85.6868 -1.9601 -20.6516 -6.3328
# 4 -13.3000 -8.2235 -1.9601 25.7971 0.4532 -11.2530
# 5 -27.9390 -17.5958 -20.6516 0.4532 36.6128 3.1257
# 6 -25.9002 -13.9463 -6.3328 -11.2530 3.1257 44.4473
#
#
#
# Elastic Compliance Matrix: (Units=1/GPa)
#
#
# Indices 1 2 3 4 5 6 
#
# 1 0.017710 -0.003149 -0.003499 0.012686 0.008895 0.011420
# 2 -0.003149 0.016776 -0.005672 0.004874 0.002083 0.003708
# 3 -0.003499 -0.005672 0.016794 -0.003561 0.004346 -0.002633
# 4 0.012686 0.004874 -0.003561 0.056094 0.007434 0.022093
# 5 0.008895 0.002083 0.004346 0.007434 0.036971 0.005738
# 6 0.011420 0.003708 -0.002633 0.022093 0.005738 0.035131
#
#
# Mechanical properties :
#
#
# Convention : Reuss Voigt Hill
#
# Bulk Modulus (GPa) = 37.53720 60.76640 49.15180
# Shear Modulus (GPa) = 23.47443 32.03777 27.75610
#
# Velocity S-wave (km/s) = 3.33922 3.90102 3.63100
# Velocity P-wave (km/s) = 5.71816 7.01105 6.39735
#
# Compressibility (1/GPa) = 0.02664024
#
# Stress axis : x y z
#
# Youngs Moduli (GPa) = 56.46439 59.60978 59.54377
#
# Poissons Ratio (x) = 0.18774 0.20834
# Poissons Ratio (y) = 0.17783 0.33771
# Poissons Ratio (z) = 0.19757 0.33808
#
# Static dielectric constant tensor:
#      x y z
#    x 1.835440 -0.104420 0.015610 
#    y -0.104420 1.871710 0.057370 
#    z 0.015610 0.057370 1.796020 
# 
# From -- ./inp_files/465699.got.cif
#   From: 2010.05.17/outbox.cif.g08.bks.cpg/sg2_233_cif.got.tgz:465699.got - 2010.06.03 11:33:40.
