data_PCOD9009882
_publ_section_title
;
Structure prediction by ZEFSAII (Michael W. Deem and Ramdas Pophale) SiO2 
 PCOD9009882
Probable space group: P -1
;
_chemical_formula_sum "Si O2"
_cell_formula_units_Z 16
_cell_length_a 8.435301
_cell_length_b 10.855307
_cell_length_c 12.255363
_cell_angle_alpha 96.297761
_cell_angle_beta 143.082222
_cell_angle_gamma 89.099060
_cell_volume 665.113314
_symmetry_space_group_name_H-M "P -1"
_symmetry_group_IT_number 2
_symmetry_cell_setting 'triclinic'
loop_
_space_group_symop_operation_xyz
x,y,z
-x,-y,-z
loop_
_atom_site_type_symbol
_atom_site_label
_atom_site_fract_x
_atom_site_fract_y
_atom_site_fract_z
Si Si1 0.264734 0.371934 0.712042
Si Si2 0.219010 0.103931 0.585841
Si Si3 0.514614 0.145760 0.545690
Si Si4 0.561183 0.273067 0.039381
Si Si5 0.269257 0.939291 0.016335
Si Si6 0.784651 0.718597 0.757943
Si Si7 0.920888 0.571757 0.611795
Si Si8 0.108260 0.219734 0.945353
O O1 0.170136 0.226093 0.635996
O O2 0.536615 0.362755 0.928585
O O3 0.049384 0.444013 0.660606
O O4 0.279288 0.421763 0.599740
O O5 0.261896 0.147137 0.488349
O O6 0.505209 0.061250 0.767876
O O7 0.000000 0.000000 0.500000
O O8 0.468578 0.220965 0.418514
O O9 0.792530 0.205897 0.754425
O O10 0.500000 0.000000 0.500000
O O11 0.286274 0.275993 0.949516
O O12 0.596744 0.129805 0.016398
O O13 0.815214 0.328793 0.253242
O O14 0.022484 0.834124 0.892263
O O15 0.178260 0.075655 0.975755
O O16 0.821141 0.610849 0.679317
O O17 0.791303 0.696291 0.887252
#
# Coordination Sequence:
#
# PCOD9009882 Si02
#       8
#     2   2   2   2   2   2   2   2
#     4  10  22  43  68  97 122 162 227 270 317 373
#     4  11  24  39  67 100 129 161 209 274 317 379
#     4  12  24  38  62  92 133 178 209 258 331 387
#     4  10  24  39  66  95 126 164 221 274 314 377
#     4  10  21  40  60  90 134 172 214 259 314 391
#     4  11  22  40  64  91 129 175 218 256 330 388
#     4  10  22  43  73  89 120 174 222 270 316 383
#     4  12  24  40  60  97 138 173 209 267 329 392
#
# _framework density 24.056049999999999
#
# number of rings (size 3 to 8) (size 9 to 14) (size 15 to 20)
#    0.000    1.250    3.750    1.875    5.250    1.000 
#    0.000    0.625    0.000    2.250    0.000    0.000 
#    0.000    0.000    0.000    0.000    0.000    0.000 
#
# Total GULP energy -89342.437539 kJ/mol
# GULP energy per Si atom -5583.902346 kJ/mol
# Density = 2.400130 g / cm^3
# Si number density = 24.056050 Si / 1000 Ang^3
#
#
#
# Elastic Constant Matrix: (Units=GPa)
#
#
# Indices 1 2 3 4 5 6 
#
# 1 90.8970 7.7722 31.2892 12.2812 -11.3478 -15.3143
# 2 7.7722 72.5925 15.8015 -3.2059 -3.1625 -36.2152
# 3 31.2892 15.8015 128.4814 -15.6575 -7.5224 -5.7623
# 4 12.2812 -3.2059 -15.6575 26.0676 -11.4420 -1.5328
# 5 -11.3478 -3.1625 -7.5224 -11.4420 27.0760 10.1471
# 6 -15.3143 -36.2152 -5.7623 -1.5328 10.1471 30.9086
#
#
#
# Elastic Compliance Matrix: (Units=1/GPa)
#
#
# Indices 1 2 3 4 5 6 
#
# 1 0.015921 0.006550 -0.005628 -0.011215 -0.004671 0.015490
# 2 0.006550 0.041233 -0.005918 -0.005995 -0.017576 0.055927
# 3 -0.005628 -0.005918 0.011444 0.012161 0.008993 -0.009938
# 4 -0.011215 -0.005995 0.012161 0.062815 0.031040 -0.017389
# 5 -0.004671 -0.017576 0.008993 0.031040 0.063763 -0.040625
# 6 0.015490 0.055927 -0.009938 -0.017389 -0.040625 0.116179
#
#
# Mechanical properties :
#
#
# Convention : Reuss Voigt Hill
#
# Bulk Modulus (GPa) = 17.06308 44.63297 30.84803
# Shear Modulus (GPa) = 14.66781 32.61764 23.64272
#
# Velocity S-wave (km/s) = 2.47196 3.68625 3.13839
# Velocity P-wave (km/s) = 3.90588 6.05904 5.09744
#
# Compressibility (1/GPa) = 0.05860606
#
# Stress axis : x y z
#
# Youngs Moduli (GPa) = 62.81080 24.25246 87.37828
#
# Poissons Ratio (x) = -0.15885 0.49178
# Poissons Ratio (y) = -0.41139 0.51707
# Poissons Ratio (z) = 0.35351 0.14352
#
# Static dielectric constant tensor:
#      x y z
#    x 2.018140 -0.030990 -0.083540 
#    y -0.030990 1.888500 -0.016100 
#    z -0.083540 -0.016100 1.984410 
# 
# From -- ./inp_files/390546.got.cif
#   From: 2010.05.17/outbox.cif.g08.bks.cpg/sg2_196_cif.got.tgz:390546.got - 2010.06.03 11:33:40.
