data_PCOD9009735
_publ_section_title
;
Structure prediction by ZEFSAII (Michael W. Deem and Ramdas Pophale) SiO2 
 PCOD9009735
Probable space group: P -1
;
_chemical_formula_sum "Si O2"
_cell_formula_units_Z 16
_cell_length_a 11.338640
_cell_length_b 9.230319
_cell_length_c 14.208850
_cell_angle_alpha 64.468797
_cell_angle_beta 40.628138
_cell_angle_gamma 92.959050
_cell_volume 668.018756
_symmetry_space_group_name_H-M "P -1"
_symmetry_group_IT_number 2
_symmetry_cell_setting 'triclinic'
loop_
_space_group_symop_operation_xyz
x,y,z
-x,-y,-z
loop_
_atom_site_type_symbol
_atom_site_label
_atom_site_fract_x
_atom_site_fract_y
_atom_site_fract_z
Si Si1 0.058142 0.622766 0.333173
Si Si2 0.149024 0.859779 0.551879
Si Si3 0.440223 0.758953 0.347036
Si Si4 0.818240 0.771547 0.484065
Si Si5 0.687795 0.524548 0.811603
Si Si6 0.862785 0.278690 0.198596
Si Si7 0.867251 0.819367 0.053103
Si Si8 0.476005 0.669357 0.560957
O O1 0.818722 0.455790 0.464397
O O2 0.057576 0.809737 0.306189
O O3 0.000000 0.500000 0.500000
O O4 0.282733 0.652182 0.150917
O O5 0.388153 0.918519 0.347362
O O6 0.084476 0.715171 0.723890
O O7 0.944307 0.730388 0.635121
O O8 0.161721 0.046902 0.528684
O O9 0.660972 0.818455 0.136515
O O10 0.506707 0.730958 0.417447
O O11 0.664756 0.575400 0.704848
O O12 0.686560 0.718614 0.480156
O O13 0.500000 0.500000 0.000000
O O14 0.604160 0.212239 0.371843
O O15 0.000000 0.500000 0.000000
O O16 0.940709 0.156593 0.137913
O O17 0.727532 0.583007 0.242066
O O18 0.000000 0.000000 0.000000
#
# Coordination Sequence:
#
# PCOD9009735 Si02
#       8
#     2   2   2   2   2   2   2   2
#     4   9  20  39  64  86 117 166 209 249 310 372
#     4  10  23  40  65  88 122 166 212 250 304 373
#     4  10  21  40  58  87 123 166 205 245 306 378
#     4  11  22  39  66  89 122 163 214 252 301 381
#     4  10  23  42  65  90 120 158 209 262 319 360
#     4   9  22  39  58  88 128 159 199 250 311 362
#     4  11  23  35  57  89 127 154 205 256 301 353
#     4  10  22  39  61  83 125 168 204 240 317 373
#
# _framework density 23.951423999999999
#
# number of rings (size 3 to 8) (size 9 to 14) (size 15 to 20)
#    0.000    2.000    1.250    0.750    7.000    1.000 
#    0.000    1.875    0.000    0.000    0.000    0.000 
#    0.000    0.000    0.000    0.000    0.000    0.000 
#
# Total GULP energy -89270.793139 kJ/mol
# GULP energy per Si atom -5579.424571 kJ/mol
# Density = 2.389691 g / cm^3
# Si number density = 23.951424 Si / 1000 Ang^3
#
#
#
# Elastic Constant Matrix: (Units=GPa)
#
#
# Indices 1 2 3 4 5 6 
#
# 1 120.0464 32.6640 27.1683 14.6632 -2.3034 -13.3292
# 2 32.6640 179.6067 43.5080 43.1106 -21.4034 -35.7021
# 3 27.1683 43.5080 70.8801 30.3552 -7.5945 -29.1295
# 4 14.6632 43.1106 30.3552 55.0988 -14.1489 -15.5989
# 5 -2.3034 -21.4034 -7.5945 -14.1489 28.4401 12.6621
# 6 -13.3292 -35.7021 -29.1295 -15.5989 12.6621 41.7486
#
#
#
# Elastic Compliance Matrix: (Units=1/GPa)
#
#
# Indices 1 2 3 4 5 6 
#
# 1 0.009289 -0.000988 -0.002761 -0.000342 -0.001073 0.000392
# 2 -0.000988 0.007884 -0.001176 -0.003703 0.002101 0.003585
# 3 -0.002761 -0.001176 0.025033 -0.009646 -0.005266 0.013572
# 4 -0.000342 -0.003703 -0.009646 0.028276 0.009744 -0.002397
# 5 -0.001073 0.002101 -0.005266 0.009744 0.045626 -0.012418
# 6 0.000392 0.003585 0.013572 -0.002397 -0.012418 0.039484
#
#
# Mechanical properties :
#
#
# Convention : Reuss Voigt Hill
#
# Bulk Modulus (GPa) = 30.90746 64.13486 47.52116
# Shear Modulus (GPa) = 28.37234 42.87034 35.62134
#
# Velocity S-wave (km/s) = 3.44550 4.23530 3.86065
# Velocity P-wave (km/s) = 5.36292 7.12405 6.30528
#
# Compressibility (1/GPa) = 0.03235465
#
# Stress axis : x y z
#
# Youngs Moduli (GPa) = 107.65866 126.83373 39.94692
#
# Poissons Ratio (x) = 0.12535 0.11030
# Poissons Ratio (y) = 0.10640 0.04699
# Poissons Ratio (z) = 0.29727 0.14918
#
# Static dielectric constant tensor:
#      x y z
#    x 1.888680 -0.031750 -0.017480 
#    y -0.031750 2.030420 0.043770 
#    z -0.017480 0.043770 1.993760 
# 
# From -- ./inp_files/401353.got.cif
#   From: 2010.05.17/outbox.cif.g08.bks.cpg/sg2_201_cif.got.tgz:401353.got - 2010.06.03 11:33:40.
