data_PCOD9009025
_publ_section_title
;
Structure prediction by ZEFSAII (Michael W. Deem and Ramdas Pophale) SiO2 
 PCOD9009025
Probable space group: P -1
;
_chemical_formula_sum "Si O2"
_cell_formula_units_Z 14
_cell_length_a 10.772402
_cell_length_b 8.433874
_cell_length_c 6.826199
_cell_angle_alpha 103.681280
_cell_angle_beta 107.040042
_cell_angle_gamma 88.200886
_cell_volume 575.651082
_symmetry_space_group_name_H-M "P -1"
_symmetry_group_IT_number 2
_symmetry_cell_setting 'triclinic'
loop_
_space_group_symop_operation_xyz
x,y,z
-x,-y,-z
loop_
_atom_site_type_symbol
_atom_site_label
_atom_site_fract_x
_atom_site_fract_y
_atom_site_fract_z
Si Si1 0.909126 0.017688 0.269887
Si Si2 0.983164 0.720936 0.020871
Si Si3 0.223373 0.520509 0.052835
Si Si4 0.399052 0.010742 0.774967
Si Si5 0.942477 0.336785 0.509473
Si Si6 0.596172 0.608006 0.214756
Si Si7 0.356536 0.650585 0.509767
O O1 0.961416 0.201791 0.311454
O O2 0.755048 0.997116 0.239392
O O3 0.000000 0.000000 0.500000
O O4 0.937813 0.902010 0.071019
O O5 0.122093 0.659116 0.003353
O O6 0.996355 0.691181 0.258046
O O7 0.858894 0.604003 0.879481
O O8 0.337979 0.604033 0.260274
O O9 0.271951 0.427116 0.857814
O O10 0.419681 0.194035 0.740500
O O11 0.419070 0.835108 0.622031
O O12 0.500000 0.000000 0.000000
O O13 0.789539 0.331188 0.473911
O O14 0.000000 0.500000 0.500000
O O15 0.598659 0.506086 0.389861
O O16 0.500000 0.500000 0.000000
#
# Coordination Sequence:
#
# PCOD9009025 Si02
#       7
#     2   2   2   2   2   2   2
#     4   9  18  33  61  95 123 172 215 262 338 384
#     4   9  17  35  61  90 129 173 203 273 344 373
#     4  10  21  39  66  97 133 165 223 282 323 397
#     4  11  22  43  66  97 136 175 220 276 326 400
#     4   9  17  30  58  94 128 165 215 266 322 398
#     4  12  24  43  71  92 127 183 225 267 335 398
#     4  10  23  41  65  96 127 173 223 266 333 388
#
# _framework density 24.320287
#
# number of rings (size 3 to 8) (size 9 to 14) (size 15 to 20)
#    0.000    2.000    2.857    1.714    2.000    0.571 
#    0.000    2.143    6.286    4.286    0.000    0.000 
#    0.000    0.000    0.000    0.000    0.000    0.000 
#
# Total GULP energy -77962.565480 kJ/mol
# GULP energy per Si atom -5568.754677 kJ/mol
# Density = 2.426493 g / cm^3
# Si number density = 24.320287 Si / 1000 Ang^3
#
#
#
# Elastic Constant Matrix: (Units=GPa)
#
#
# Indices 1 2 3 4 5 6 
#
# 1 76.4525 20.8730 12.9300 -2.5660 14.7631 -6.3421
# 2 20.8730 186.4348 58.2090 37.5709 -3.8859 3.9977
# 3 12.9300 58.2090 100.2410 11.4800 14.4963 -2.4613
# 4 -2.5660 37.5709 11.4800 43.7850 0.8478 -2.2780
# 5 14.7631 -3.8859 14.4963 0.8478 44.3621 9.2280
# 6 -6.3421 3.9977 -2.4613 -2.2780 9.2280 29.9795
#
#
#
# Elastic Compliance Matrix: (Units=1/GPa)
#
#
# Indices 1 2 3 4 5 6 
#
# 1 0.015815 -0.002942 0.000400 0.003806 -0.007018 0.006220
# 2 -0.002942 0.008637 -0.004573 -0.006671 0.004177 -0.003942
# 3 0.000400 -0.004573 0.013405 0.000730 -0.005677 0.003598
# 4 0.003806 -0.006671 0.000730 0.028931 -0.003701 0.005092
# 5 -0.007018 0.004177 -0.005677 -0.003701 0.029647 -0.011915
# 6 0.006220 -0.003942 0.003598 0.005092 -0.011915 0.039547
#
#
# Mechanical properties :
#
#
# Convention : Reuss Voigt Hill
#
# Bulk Modulus (GPa) = 42.32364 60.79469 51.55916
# Shear Modulus (GPa) = 31.62804 41.69975 36.66390
#
# Velocity S-wave (km/s) = 3.61013 4.14527 3.88692
# Velocity P-wave (km/s) = 5.90066 6.92552 6.43353
#
# Compressibility (1/GPa) = 0.02362746
#
# Stress axis : x y z
#
# Youngs Moduli (GPa) = 63.23304 115.78353 74.59693
#
# Poissons Ratio (x) = 0.34066 -0.02987
# Poissons Ratio (y) = 0.18605 0.34112
# Poissons Ratio (z) = -0.02532 0.52945
#
# Static dielectric constant tensor:
#      x y z
#    x 1.969530 -0.002980 -0.056170 
#    y -0.002980 2.209100 0.003970 
#    z -0.056170 0.003970 1.982060 
# 
# From -- ./inp_files/235401.got.cif
#   From: 2010.05.17/outbox.cif.g08.bks.cpg/sg2_118_cif.got.tgz:235401.got - 2010.06.03 11:33:40.
