data_PCOD9009323
_publ_section_title
;
Structure prediction by ZEFSAII (Michael W. Deem and Ramdas Pophale) SiO2 
 PCOD9009323
Probable space group: P -1
;
_chemical_formula_sum "Si O2"
_cell_formula_units_Z 15
_cell_length_a 11.712900
_cell_length_b 18.754944
_cell_length_c 5.412543
_cell_angle_alpha 62.870125
_cell_angle_beta 117.867388
_cell_angle_gamma 143.538606
_cell_volume 617.357663
_symmetry_space_group_name_H-M "P -1"
_symmetry_group_IT_number 2
_symmetry_cell_setting 'triclinic'
loop_
_space_group_symop_operation_xyz
x,y,z
-x,-y,-z
loop_
_atom_site_type_symbol
_atom_site_label
_atom_site_fract_x
_atom_site_fract_y
_atom_site_fract_z
Si Si1 0.376100 0.807770 0.677010
Si Si2 0.102713 0.134683 0.818108
Si Si3 0.548869 0.337990 0.115852
Si Si4 0.000000 0.000000 0.500000
Si Si5 0.211416 0.809763 0.009212
Si Si6 0.776298 0.598370 0.724019
Si Si7 0.546842 0.452978 0.319955
Si Si8 0.770638 0.022337 0.984347
O O1 0.365138 0.706765 0.800557
O O2 0.279327 0.796522 0.348231
O O3 0.287996 0.803255 0.847497
O O4 0.604540 0.935980 0.744354
O O5 0.066356 0.114930 0.522921
O O6 0.322652 0.235239 0.970504
O O7 0.970430 0.131279 0.856620
O O8 0.000000 0.000000 0.000000
O O9 0.545424 0.362831 0.360196
O O10 0.673907 0.469014 0.921852
O O11 0.801161 0.953437 0.271204
O O12 0.278319 0.931270 0.945251
O O13 0.979274 0.703919 0.893731
O O14 0.758777 0.572747 0.455654
O O15 0.635913 0.610746 0.587577
O O16 0.500000 0.500000 0.000000
#
# Coordination Sequence:
#
# PCOD9009323 Si02
#       8
#     2   2   2   1   2   2   2   2
#     4  12  29  48  73 105 147 206 244 291 355 435
#     4  10  21  39  68 106 137 176 228 311 373 418
#     4  11  23  42  72 103 147 182 246 306 364 438
#     4  10  22  38  76 106 140 174 236 308 386 414
#     4  12  30  48  74 101 151 203 248 287 353 447
#     4  10  24  45  70 107 140 188 244 303 373 429
#     4   9  21  42  73 102 140 180 235 312 380 415
#     4  11  25  47  72 108 144 185 248 306 370 434
#
# _framework density 24.297096
#
# number of rings (size 3 to 8) (size 9 to 14) (size 15 to 20)
#    0.000    1.333    2.667    1.600    9.333    6.400 
#    0.000    0.000    0.000    0.000    0.000    0.000 
#    0.000    0.000    0.000    0.000    0.000    0.000 
#
# Total GULP energy -83505.268564 kJ/mol
# GULP energy per Si atom -5567.017904 kJ/mol
# Density = 2.424179 g / cm^3
# Si number density = 24.297096 Si / 1000 Ang^3
#
#
#
# Elastic Constant Matrix: (Units=GPa)
#
#
# Indices 1 2 3 4 5 6 
#
# 1 167.9421 22.5754 50.8867 -3.8793 -5.0652 -37.8644
# 2 22.5754 89.4563 43.8707 16.4720 9.7631 -15.7835
# 3 50.8867 43.8707 133.1669 37.2907 8.6783 -8.0201
# 4 -3.8793 16.4720 37.2907 42.9900 -7.1667 5.0367
# 5 -5.0652 9.7631 8.6783 -7.1667 34.0427 8.6493
# 6 -37.8644 -15.7835 -8.0201 5.0367 8.6493 36.2714
#
#
#
# Elastic Compliance Matrix: (Units=1/GPa)
#
#
# Indices 1 2 3 4 5 6 
#
# 1 0.009080 0.000412 -0.004170 0.003506 0.000999 0.008011
# 2 0.000412 0.016001 -0.002636 -0.006178 -0.007563 0.009472
# 3 -0.004170 -0.002636 0.013971 -0.012635 -0.006301 0.000846
# 4 0.003506 -0.006178 -0.012635 0.041119 0.017122 -0.011614
# 5 0.000999 -0.007563 -0.006301 0.017122 0.040911 -0.015775
# 6 0.008011 0.009472 0.000846 -0.011614 -0.015775 0.045616
#
#
# Mechanical properties :
#
#
# Convention : Reuss Voigt Hill
#
# Bulk Modulus (GPa) = 38.07296 69.47010 53.77153
# Shear Modulus (GPa) = 26.56176 40.87630 33.71903
#
# Velocity S-wave (km/s) = 3.30996 4.10610 3.72933
# Velocity P-wave (km/s) = 5.50559 7.15081 6.38144
#
# Compressibility (1/GPa) = 0.02626536
#
# Stress axis : x y z
#
# Youngs Moduli (GPa) = 110.13470 62.49454 71.57789
#
# Poissons Ratio (x) = -0.02578 0.29848
# Poissons Ratio (y) = -0.04543 0.18866
# Poissons Ratio (z) = 0.45926 0.16472
#
# Static dielectric constant tensor:
#      x y z
#    x 2.107550 0.085880 -0.208550 
#    y 0.085880 2.002500 -0.130000 
#    z -0.208550 -0.130000 2.215760 
# 
# From -- ./inp_files/82573.got.cif
#   From: 2010.05.17/outbox.cif.g08.bks.cpg/sg2_42_cif.got.tgz:82573.got - 2010.06.03 11:33:40.
