data_PCOD9009736
_publ_section_title
;
Structure prediction by ZEFSAII (Michael W. Deem and Ramdas Pophale) SiO2 
 PCOD9009736
Probable space group: P -1
;
_chemical_formula_sum "Si O2"
_cell_formula_units_Z 16
_cell_length_a 8.719045
_cell_length_b 16.602789
_cell_length_c 11.312526
_cell_angle_alpha 46.143907
_cell_angle_beta 99.745347
_cell_angle_gamma 133.756995
_cell_volume 685.480230
_symmetry_space_group_name_H-M "P -1"
_symmetry_group_IT_number 2
_symmetry_cell_setting 'triclinic'
loop_
_space_group_symop_operation_xyz
x,y,z
-x,-y,-z
loop_
_atom_site_type_symbol
_atom_site_label
_atom_site_fract_x
_atom_site_fract_y
_atom_site_fract_z
Si Si1 0.161252 0.979403 0.063356
Si Si2 0.961186 0.146091 0.416827
Si Si3 0.717771 0.671792 0.478699
Si Si4 0.376725 0.257141 0.200783
Si Si5 0.973440 0.598449 0.973054
Si Si6 0.520828 0.350698 0.864044
Si Si7 0.034236 0.516943 0.294493
Si Si8 0.435515 0.749411 0.332563
O O1 0.377084 0.154394 0.004286
O O2 0.318208 0.036150 0.907554
O O3 0.951011 0.781361 0.303219
O O4 0.000000 0.000000 0.000000
O O5 0.129481 0.239202 0.465637
O O6 0.150226 0.193246 0.300202
O O7 0.704894 0.920149 0.629487
O O8 0.904056 0.231357 0.261806
O O9 0.501589 0.448013 0.680924
O O10 0.568868 0.704146 0.411030
O O11 0.661439 0.440282 0.106906
O O12 0.409938 0.315216 0.011930
O O13 0.063551 0.633571 0.084690
O O14 0.000000 0.500000 0.000000
O O15 0.832077 0.505143 0.739991
O O16 0.219231 0.630103 0.319964
O O17 0.735640 0.325264 0.496827
#
# Coordination Sequence:
#
# PCOD9009736 Si02
#       8
#     2   2   2   2   2   2   2   2
#     4   9  20  37  59  89 120 156 203 258 313 360
#     4  11  24  39  65  96 129 164 211 266 318 374
#     4  11  20  38  67  93 119 162 207 263 319 367
#     4  11  23  40  60  97 125 166 213 257 317 374
#     4  12  23  41  65  94 129 172 204 257 320 386
#     4  11  21  38  63  89 124 159 208 260 311 379
#     4  10  21  40  58  88 126 162 208 245 314 377
#     4   9  21  38  63  86 120 166 201 260 307 369
#
# _framework density 23.3413
#
# number of rings (size 3 to 8) (size 9 to 14) (size 15 to 20)
#    0.000    1.500    3.750    1.125    1.750    5.000 
#    0.000    1.875    0.000    4.500    0.000    0.000 
#    0.000    0.000    0.000    0.000    0.000    0.000 
#
# Total GULP energy -89215.270003 kJ/mol
# GULP energy per Si atom -5575.954375 kJ/mol
# Density = 2.328817 g / cm^3
# Si number density = 23.341300 Si / 1000 Ang^3
#
#
#
# Elastic Constant Matrix: (Units=GPa)
#
#
# Indices 1 2 3 4 5 6 
#
# 1 43.8086 -1.8497 40.6977 3.8425 -11.1667 3.1958
# 2 -1.8497 53.1527 33.7962 13.6802 9.1241 8.9608
# 3 40.6977 33.7962 177.2634 14.3764 -6.4320 5.4358
# 4 3.8425 13.6802 14.3764 33.3136 -4.6496 1.7632
# 5 -11.1667 9.1241 -6.4320 -4.6496 54.5333 7.3673
# 6 3.1958 8.9608 5.4358 1.7632 7.3673 22.4360
#
#
#
# Elastic Compliance Matrix: (Units=1/GPa)
#
#
# Indices 1 2 3 4 5 6 
#
# 1 0.032990 0.007304 -0.008386 -0.002061 0.005338 -0.007175
# 2 0.007304 0.027369 -0.005982 -0.009521 -0.003433 -0.008646
# 3 -0.008386 -0.005982 0.008697 -0.000397 0.000075 0.001483
# 4 -0.002061 -0.009521 -0.000397 0.034901 0.004085 0.000108
# 5 0.005338 -0.003433 0.000075 0.004085 0.021269 -0.006713
# 6 -0.007175 -0.008646 0.001483 0.000108 -0.006713 0.050883
#
#
# Mechanical properties :
#
#
# Convention : Reuss Voigt Hill
#
# Bulk Modulus (GPa) = 18.20590 46.61257 32.40923
# Shear Modulus (GPa) = 23.97553 35.49530 29.73542
#
# Velocity S-wave (km/s) = 3.20843 3.90386 3.57310
# Velocity P-wave (km/s) = 4.64135 6.35086 5.56218
#
# Compressibility (1/GPa) = 0.05492725
#
# Stress axis : x y z
#
# Youngs Moduli (GPa) = 30.31221 36.53768 114.98765
#
# Poissons Ratio (x) = -0.26686 0.96426
# Poissons Ratio (y) = -0.22139 0.68787
# Poissons Ratio (z) = 0.25419 0.21857
#
# Static dielectric constant tensor:
#      x y z
#    x 2.102940 -0.042020 -0.018830 
#    y -0.042020 2.186630 0.024620 
#    z -0.018830 0.024620 1.970000 
# 
# From -- ./inp_files/273032.got.cif
#   From: 2010.05.17/outbox.cif.g08.bks.cpg/sg2_137_cif.got.tgz:273032.got - 2010.06.03 11:33:40.
