data_PCOD9009551
_publ_section_title
;
Structure prediction by ZEFSAII (Michael W. Deem and Ramdas Pophale) SiO2 
 PCOD9009551
Probable space group: P -1
;
_chemical_formula_sum "Si O2"
_cell_formula_units_Z 16
_cell_length_a 15.319511
_cell_length_b 16.051818
_cell_length_c 7.281077
_cell_angle_alpha 145.415938
_cell_angle_beta 46.850483
_cell_angle_gamma 142.246981
_cell_volume 619.428807
_symmetry_space_group_name_H-M "P -1"
_symmetry_group_IT_number 2
_symmetry_cell_setting 'triclinic'
loop_
_space_group_symop_operation_xyz
x,y,z
-x,-y,-z
loop_
_atom_site_type_symbol
_atom_site_label
_atom_site_fract_x
_atom_site_fract_y
_atom_site_fract_z
Si Si1 0.633675 0.194945 0.618834
Si Si2 0.904803 0.210461 0.328670
Si Si3 0.849874 0.852700 0.767474
Si Si4 0.539786 0.651947 0.927346
Si Si5 0.121522 0.918777 0.285224
Si Si6 0.359134 0.309916 0.738577
Si Si7 0.792132 0.545701 0.563005
Si Si8 0.661988 0.167127 0.096529
O O1 0.768489 0.220569 0.578841
O O2 0.579725 0.324500 0.945320
O O3 0.670999 0.203446 0.366622
O O4 0.500000 0.000000 0.500000
O O5 0.049969 0.395169 0.493893
O O6 0.903074 0.160447 0.026350
O O7 0.898471 0.043398 0.128049
O O8 0.824034 0.692320 0.636606
O O9 0.973174 0.883875 0.509091
O O10 0.682523 0.771052 0.819707
O O11 0.583583 0.719649 0.202861
O O12 0.482212 0.448809 0.676556
O O13 0.240346 0.126296 0.492778
O O14 0.205430 0.853462 0.167027
O O15 0.283053 0.411381 0.090219
O O16 0.696343 0.345127 0.277309
O O17 0.500000 0.000000 0.000000
#
# Coordination Sequence:
#
# PCOD9009551 Si02
#       8
#     2   2   2   2   2   2   2   2
#     4  11  22  41  67 100 135 182 220 278 339 403
#     4  11  24  43  67 100 144 178 221 276 349 409
#     4  11  23  41  71 102 133 177 231 285 323 403
#     4  10  21  39  69  99 132 178 237 273 326 401
#     4  11  25  41  69 102 142 179 212 285 351 395
#     4  10  21  40  72  99 131 180 232 278 332 400
#     4  11  24  43  72 100 129 184 232 274 337 407
#     4  11  26  47  69  98 138 178 228 282 342 400
#
# _framework density 25.830245999999999
#
# number of rings (size 3 to 8) (size 9 to 14) (size 15 to 20)
#    0.000    1.250    3.750    1.500    5.250    3.500 
#    0.000    3.125    0.000    0.000    0.000    0.000 
#    0.000    0.000    0.000    0.000    0.000    0.000 
#
# Total GULP energy -89500.420812 kJ/mol
# GULP energy per Si atom -5593.776301 kJ/mol
# Density = 2.577146 g / cm^3
# Si number density = 25.830246 Si / 1000 Ang^3
#
#
#
# Elastic Constant Matrix: (Units=GPa)
#
#
# Indices 1 2 3 4 5 6 
#
# 1 101.0548 40.4044 50.2995 5.5631 -32.8940 14.8025
# 2 40.4044 156.7897 53.6788 13.4563 -16.3087 10.7945
# 3 50.2995 53.6788 98.7832 4.3897 -26.6366 6.5228
# 4 5.5631 13.4563 4.3897 47.4968 7.2465 -6.7766
# 5 -32.8940 -16.3087 -26.6366 7.2465 50.5363 -3.9647
# 6 14.8025 10.7945 6.5228 -6.7766 -3.9647 47.8702
#
#
#
# Elastic Compliance Matrix: (Units=1/GPa)
#
#
# Indices 1 2 3 4 5 6 
#
# 1 0.016052 -0.001081 -0.005202 -0.002771 0.007458 -0.003785
# 2 -0.001081 0.008203 -0.003675 -0.002073 0.000202 -0.001291
# 3 -0.005202 -0.003675 0.015779 -0.000313 0.003834 0.000560
# 4 -0.002771 -0.002073 -0.000313 0.023462 -0.005671 0.004218
# 5 0.007458 0.000202 0.003834 -0.005671 0.027431 -0.001405
# 6 -0.003785 -0.001291 0.000560 0.004218 -0.001405 0.022756
#
#
# Mechanical properties :
#
#
# Convention : Reuss Voigt Hill
#
# Bulk Modulus (GPa) = 49.70682 71.71033 60.70858
# Shear Modulus (GPa) = 35.63687 43.33032 39.48360
#
# Velocity S-wave (km/s) = 3.71840 4.10018 3.91395
# Velocity P-wave (km/s) = 6.14172 7.08786 6.63168
#
# Compressibility (1/GPa) = 0.02011796
#
# Stress axis : x y z
#
# Youngs Moduli (GPa) = 62.29888 121.91329 63.37357
#
# Poissons Ratio (x) = 0.13185 0.32965
# Poissons Ratio (y) = 0.06738 0.23288
# Poissons Ratio (z) = 0.32406 0.44800
#
# Static dielectric constant tensor:
#      x y z
#    x 2.172700 -0.043260 0.000930 
#    y -0.043260 2.069030 -0.033640 
#    z 0.000930 -0.033640 2.040630 
# 
# From -- ./inp_files/336840.got.cif
#   From: 2010.05.17/outbox.cif.g08.bks.cpg/sg2_169_cif.got.tgz:336840.got - 2010.06.03 11:33:40.
