data_PCOD9009929
_publ_section_title
;
Structure prediction by ZEFSAII (Michael W. Deem and Ramdas Pophale) SiO2 
 PCOD9009929
Probable space group: P -1
;
_chemical_formula_sum "Si O2"
_cell_formula_units_Z 14
_cell_length_a 22.840410
_cell_length_b 10.237511
_cell_length_c 12.846046
_cell_angle_alpha 32.712143
_cell_angle_beta 25.588826
_cell_angle_gamma 30.728666
_cell_volume 632.473400
_symmetry_space_group_name_H-M "P -1"
_symmetry_group_IT_number 2
_symmetry_cell_setting 'triclinic'
loop_
_space_group_symop_operation_xyz
x,y,z
-x,-y,-z
loop_
_atom_site_type_symbol
_atom_site_label
_atom_site_fract_x
_atom_site_fract_y
_atom_site_fract_z
Si Si1 0.222988 0.477472 0.217024
Si Si2 0.981054 0.792714 0.247186
Si Si3 0.836217 0.086919 0.497001
Si Si4 0.144159 0.859497 0.265894
Si Si5 0.823426 0.648771 0.152954
Si Si6 0.472818 0.761287 0.018206
Si Si7 0.625983 0.656124 0.638464
O O1 0.123619 0.350953 0.522558
O O2 0.202032 0.742317 0.136211
O O3 0.143873 0.569160 0.171505
O O4 0.397243 0.285972 0.075216
O O5 0.902358 0.934841 0.385924
O O6 0.000000 0.000000 0.000000
O O7 0.793740 0.399261 0.330596
O O8 0.689097 0.066808 0.788852
O O9 0.965475 0.981503 0.449827
O O10 0.231520 0.601643 0.369452
O O11 0.187731 0.098867 0.063720
O O12 0.704457 0.773971 0.353509
O O13 0.000000 0.500000 0.000000
O O14 0.466467 0.481385 0.181367
O O15 0.529736 0.834108 0.769070
#
# Coordination Sequence:
#
# PCOD9009929 Si02
#       7
#     2   2   2   2   2   2   2
#     4   9  20  37  57  79 105 137 179 226 264 310
#     4  10  21  40  61  75  97 142 189 223 264 314
#     4   9  19  34  53  81 112 139 176 226 261 301
#     4   9  18  34  57  81 109 143 179 214 255 315
#     4   9  18  31  51  81 111 136 174 220 254 304
#     4   9  18  34  53  80 114 138 170 217 267 320
#     4   9  18  34  54  78 112 151 173 198 265 331
#
# _framework density 22.135318000000002
#
# number of rings (size 3 to 8) (size 9 to 14) (size 15 to 20)
#    0.000    2.857    0.000    0.000    0.000   12.571 
#    0.000   27.143    0.000    0.000    0.000    0.000 
#    0.000    0.000    0.000    0.000    0.000    0.000 
#
# Total GULP energy -78033.705056 kJ/mol
# GULP energy per Si atom -5573.836075 kJ/mol
# Density = 2.208494 g / cm^3
# Si number density = 22.135318 Si / 1000 Ang^3
#
#
#
# Elastic Constant Matrix: (Units=GPa)
#
#
# Indices 1 2 3 4 5 6 
#
# 1 76.4010 27.9312 54.0081 9.5745 -12.4708 -17.9391
# 2 27.9312 59.4645 35.9473 6.4153 -2.6268 -0.7355
# 3 54.0081 35.9473 128.3026 15.3943 7.5217 -12.8097
# 4 9.5745 6.4153 15.3943 52.1179 -5.2079 -3.3455
# 5 -12.4708 -2.6268 7.5217 -5.2079 37.9155 10.6458
# 6 -17.9391 -0.7355 -12.8097 -3.3455 10.6458 31.8076
#
#
#
# Elastic Compliance Matrix: (Units=1/GPa)
#
#
# Indices 1 2 3 4 5 6 
#
# 1 0.023881 -0.005983 -0.007981 -0.000110 0.006811 0.007825
# 2 -0.005983 0.022298 -0.004298 -0.000531 0.001833 -0.005259
# 3 -0.007981 -0.004298 0.013313 -0.002428 -0.006666 0.002737
# 4 -0.000110 -0.000531 -0.002428 0.020310 0.003194 0.000015
# 5 0.006811 0.001833 -0.006666 0.003194 0.033191 -0.009573
# 6 0.007825 -0.005259 0.002737 0.000015 -0.009573 0.040038
#
#
# Mechanical properties :
#
#
# Convention : Reuss Voigt Hill
#
# Bulk Modulus (GPa) = 43.53773 55.54900 49.54337
# Shear Modulus (GPa) = 25.35355 34.12029 29.73692
#
# Velocity S-wave (km/s) = 3.38803 3.93038 3.66924
# Velocity P-wave (km/s) = 5.91748 6.76364 6.35466
#
# Compressibility (1/GPa) = 0.02296858
#
# Stress axis : x y z
#
# Youngs Moduli (GPa) = 41.87467 44.84647 75.11419
#
# Poissons Ratio (x) = 0.26831 0.59949
# Poissons Ratio (y) = 0.25053 0.32283
# Poissons Ratio (z) = 0.33420 0.19275
#
# Static dielectric constant tensor:
#      x y z
#    x 1.871290 0.013960 -0.000860 
#    y 0.013960 1.885030 0.039880 
#    z -0.000860 0.039880 1.831470 
# 
# From -- ./inp_files/270262.got.cif
#   From: 2010.05.17/outbox.cif.g08.bks.cpg/sg2_136_cif.got.tgz:270262.got - 2010.06.03 11:33:40.
