data_PCOD9009702
_publ_section_title
;
Structure prediction by ZEFSAII (Michael W. Deem and Ramdas Pophale) SiO2 
 PCOD9009702
Probable space group: P -1
;
_chemical_formula_sum "Si O2"
_cell_formula_units_Z 14
_cell_length_a 10.860209
_cell_length_b 11.392482
_cell_length_c 24.367353
_cell_angle_alpha 152.006224
_cell_angle_beta 29.341625
_cell_angle_gamma 146.275434
_cell_volume 667.754993
_symmetry_space_group_name_H-M "P -1"
_symmetry_group_IT_number 2
_symmetry_cell_setting 'triclinic'
loop_
_space_group_symop_operation_xyz
x,y,z
-x,-y,-z
loop_
_atom_site_type_symbol
_atom_site_label
_atom_site_fract_x
_atom_site_fract_y
_atom_site_fract_z
Si Si1 0.785011 0.303724 0.395905
Si Si2 0.163776 0.973860 0.842971
Si Si3 0.995565 0.041843 0.763319
Si Si4 0.781402 0.489871 0.006611
Si Si5 0.394073 0.335840 0.308723
Si Si6 0.618388 0.881088 0.067032
Si Si7 0.633942 0.600099 0.772774
O O1 0.620592 0.478816 0.558930
O O2 0.776942 0.056262 0.337145
O O3 0.093246 0.461606 0.343831
O O4 0.732674 0.201881 0.312630
O O5 0.358171 0.088964 0.864475
O O6 0.113816 0.212166 0.926168
O O7 0.886278 0.834433 0.920762
O O8 0.890393 0.866811 0.677944
O O9 0.748470 0.912221 0.846459
O O10 0.989042 0.333421 0.877403
O O11 0.622440 0.337681 0.953598
O O12 0.573330 0.463588 0.125516
O O13 0.451989 0.493755 0.294212
O O14 0.583123 0.154488 0.171200
#
# Coordination Sequence:
#
# PCOD9009702 Si02
#       7
#     2   2   2   2   2   2   2
#     4   9  17  33  51  83 102 136 173 204 261 313
#     4  11  23  32  57  78 102 138 178 215 254 299
#     4   7  16  28  54  78 105 131 164 208 257 307
#     4  11  18  34  56  81 103 135 171 216 261 305
#     4   8  17  32  59  71 104 145 166 204 266 307
#     4  10  21  40  51  75 105 138 178 217 250 302
#     4   8  16  30  56  78 105 132 166 210 263 305
#
# _framework density 20.965772999999999
#
# number of rings (size 3 to 8) (size 9 to 14) (size 15 to 20)
#    1.714    0.857    1.429    2.571    2.000    1.143 
#    0.000    0.714    6.286    0.857    0.000    0.000 
#    0.000    0.000    0.000    0.000    0.000    0.000 
#
# Total GULP energy -77944.163590 kJ/mol
# GULP energy per Si atom -5567.440256 kJ/mol
# Density = 2.091805 g / cm^3
# Si number density = 20.965773 Si / 1000 Ang^3
#
#
#
# Elastic Constant Matrix: (Units=GPa)
#
#
# Indices 1 2 3 4 5 6 
#
# 1 72.4867 4.5756 35.6010 -2.2811 30.1599 1.4690
# 2 4.5756 24.8089 3.3510 -0.9088 9.9337 -0.7873
# 3 35.6010 3.3510 81.7819 4.1514 34.1011 9.2598
# 4 -2.2811 -0.9088 4.1514 13.5863 0.4895 -0.0804
# 5 30.1599 9.9337 34.1011 0.4895 32.4157 -1.6437
# 6 1.4690 -0.7873 9.2598 -0.0804 -1.6437 19.4636
#
#
#
# Elastic Compliance Matrix: (Units=1/GPa)
#
#
# Indices 1 2 3 4 5 6 
#
# 1 0.023652 0.004994 -0.000920 0.005390 -0.022804 -0.003049
# 2 0.004994 0.049754 0.008180 0.002676 -0.028776 -0.004675
# 3 -0.000920 0.008180 0.027325 -0.006928 -0.031065 -0.015252
# 4 0.005390 0.002676 -0.006928 0.076807 0.000463 0.003354
# 5 -0.022804 -0.028776 -0.031065 0.000463 0.094742 0.023339
# 6 -0.003049 -0.004675 -0.015252 0.003354 0.023339 0.060660
#
#
# Mechanical properties :
#
#
# Convention : Reuss Voigt Hill
#
# Bulk Modulus (GPa) = 7.98480 29.57031 18.77756
# Shear Modulus (GPa) = 14.27842 22.12978 18.20410
#
# Velocity S-wave (km/s) = 2.61250 3.25240 2.94985
# Velocity P-wave (km/s) = 3.59401 5.31402 4.53629
#
# Compressibility (1/GPa) = 0.12523788
#
# Stress axis : x y z
#
# Youngs Moduli (GPa) = 42.27950 20.09888 36.59661
#
# Poissons Ratio (x) = -0.10037 0.03368
# Poissons Ratio (y) = -0.21114 -0.29935
# Poissons Ratio (z) = 0.03891 -0.16441
#
# Static dielectric constant tensor:
#      x y z
#    x 1.802640 0.001660 0.025390 
#    y 0.001660 1.789340 0.026810 
#    z 0.025390 0.026810 1.727760 
# 
# From -- ./inp_files/295721.got.cif
#   From: 2010.05.17/outbox.cif.g08.bks.cpg/sg2_148_cif.got.tgz:295721.got - 2010.06.03 11:33:40.
