data_PCOD9009893
_publ_section_title
;
Structure prediction by ZEFSAII (Michael W. Deem and Ramdas Pophale) SiO2 
 PCOD9009893
Probable space group: P -1
;
_chemical_formula_sum "Si O2"
_cell_formula_units_Z 16
_cell_length_a 19.881131
_cell_length_b 5.361188
_cell_length_c 23.640032
_cell_angle_alpha 54.149236
_cell_angle_beta 158.479611
_cell_angle_gamma 117.408030
_cell_volume 718.287024
_symmetry_space_group_name_H-M "P -1"
_symmetry_group_IT_number 2
_symmetry_cell_setting 'triclinic'
loop_
_space_group_symop_operation_xyz
x,y,z
-x,-y,-z
loop_
_atom_site_type_symbol
_atom_site_label
_atom_site_fract_x
_atom_site_fract_y
_atom_site_fract_z
Si Si1 0.486013 0.137755 0.033924
Si Si2 0.056131 0.820092 0.988598
Si Si3 0.822414 0.739908 0.045616
Si Si4 0.098069 0.312812 0.765049
Si Si5 0.731147 0.793586 0.375358
Si Si6 0.852490 0.840770 0.671720
Si Si7 0.583417 0.177823 0.324702
Si Si8 0.277160 0.601766 0.296719
O O1 0.273937 0.127948 0.888772
O O2 0.500000 0.500000 0.000000
O O3 0.500000 0.000000 0.000000
O O4 0.650986 0.959462 0.231303
O O5 0.134611 0.919753 0.978043
O O6 0.233820 0.752918 0.180542
O O7 0.870979 0.111573 0.822201
O O8 0.000000 0.500000 0.000000
O O9 0.792475 0.639933 0.098910
O O10 0.999872 0.465891 0.198790
O O11 0.640677 0.742997 0.866517
O O12 0.958310 0.620332 0.583989
O O13 0.956644 0.118928 0.706268
O O14 0.636376 0.500488 0.339290
O O15 0.668019 0.022163 0.350745
O O16 0.790511 0.718332 0.699008
O O17 0.670965 0.933862 0.475772
O O18 0.500000 0.500000 0.500000
#
# Coordination Sequence:
#
# PCOD9009893 Si02
#       8
#     2   2   2   2   2   2   2   2
#     4  12  28  46  72 102 137 176 216 269 340 406
#     4  10  22  39  58  91 130 174 229 274 342 399
#     4  11  21  38  66  91 128 177 222 282 333 390
#     4  11  24  42  69  95 134 172 223 280 328 398
#     4  11  24  44  69 100 134 168 218 270 330 401
#     4  10  22  39  64  95 132 176 230 276 339 390
#     4  11  22  40  66 102 131 169 227 277 326 390
#     4  10  21  40  60  91 135 177 226 282 337 401
#
# _framework density 22.275219
#
# number of rings (size 3 to 8) (size 9 to 14) (size 15 to 20)
#    0.000    1.250    2.500    3.000    1.750    1.500 
#    4.500    0.000    0.000    0.000    0.000    0.000 
#    0.000    0.000    0.000    0.000    0.000    0.000 
#
# Total GULP energy -89188.573910 kJ/mol
# GULP energy per Si atom -5574.285869 kJ/mol
# Density = 2.222452 g / cm^3
# Si number density = 22.275219 Si / 1000 Ang^3
#
#
#
# Elastic Constant Matrix: (Units=GPa)
#
#
# Indices 1 2 3 4 5 6 
#
# 1 86.2277 -11.8237 60.2523 -0.5582 -20.7836 -5.6856
# 2 -11.8237 64.7700 1.6129 -5.1176 -4.6738 16.2485
# 3 60.2523 1.6129 209.1650 -1.4865 -2.2764 -2.8722
# 4 -0.5582 -5.1176 -1.4865 34.7635 13.8386 -12.1489
# 5 -20.7836 -4.6738 -2.2764 13.8386 27.5394 -9.1466
# 6 -5.6856 16.2485 -2.8722 -12.1489 -9.1466 32.3244
#
#
#
# Elastic Compliance Matrix: (Units=1/GPa)
#
#
# Indices 1 2 3 4 5 6 
#
# 1 0.021809 0.003916 -0.006053 -0.006052 0.021357 0.005098
# 2 0.003916 0.018397 -0.001350 -0.001798 0.004153 -0.008180
# 3 -0.006053 -0.001350 0.006481 0.001928 -0.005437 -0.000624
# 4 -0.006052 -0.001798 0.001928 0.040387 -0.022034 0.008955
# 5 0.021357 0.004153 -0.005437 -0.022034 0.067770 0.012081
# 6 0.005098 -0.008180 -0.000624 0.008955 0.012081 0.042674
#
#
# Mechanical properties :
#
#
# Convention : Reuss Voigt Hill
#
# Bulk Modulus (GPa) = 25.18075 51.13842 38.15959
# Shear Modulus (GPa) = 22.96438 39.60019 31.28229
#
# Velocity S-wave (km/s) = 3.21431 4.22093 3.75154
# Velocity P-wave (km/s) = 5.01045 6.83831 5.99446
#
# Compressibility (1/GPa) = 0.03971288
#
# Stress axis : x y z
#
# Youngs Moduli (GPa) = 45.85367 54.35581 154.29980
#
# Poissons Ratio (x) = -0.21285 0.93397
# Poissons Ratio (y) = -0.17955 0.20827
# Poissons Ratio (z) = 0.27755 0.07337
#
# Static dielectric constant tensor:
#      x y z
#    x 1.830370 0.021050 -0.035590 
#    y 0.021050 1.940880 0.052150 
#    z -0.035590 0.052150 1.837020 
# 
# From -- ./inp_files/53868.got.cif
#   From: 2010.05.17/outbox.cif.g08.bks.cpg/sg2_27_cif.got.tgz:53868.got - 2010.06.03 11:33:40.
