data_PCOD9009038
_publ_section_title
;
Structure prediction by ZEFSAII (Michael W. Deem and Ramdas Pophale) SiO2 
 PCOD9009038
Probable space group: P -1
;
_chemical_formula_sum "Si O2"
_cell_formula_units_Z 16
_cell_length_a 11.119528
_cell_length_b 11.367037
_cell_length_c 11.214321
_cell_angle_alpha 119.509658
_cell_angle_beta 62.087664
_cell_angle_gamma 146.192103
_cell_volume 681.281935
_symmetry_space_group_name_H-M "P -1"
_symmetry_group_IT_number 2
_symmetry_cell_setting 'triclinic'
loop_
_space_group_symop_operation_xyz
x,y,z
-x,-y,-z
loop_
_atom_site_type_symbol
_atom_site_label
_atom_site_fract_x
_atom_site_fract_y
_atom_site_fract_z
Si Si1 0.704715 0.050030 0.293574
Si Si2 0.378096 0.715771 0.075173
Si Si3 0.584736 0.817152 0.469333
Si Si4 0.030697 0.071878 0.656530
Si Si5 0.107865 0.266554 0.077313
Si Si6 0.249841 0.167936 0.125009
Si Si7 0.868322 0.461491 0.431155
Si Si8 0.169561 0.825690 0.271401
O O1 0.733537 0.227181 0.332673
O O2 0.937387 0.168211 0.212335
O O3 0.522185 0.845672 0.192623
O O4 0.641221 0.971931 0.419138
O O5 0.195062 0.466887 0.072777
O O6 0.283180 0.790990 0.130597
O O7 0.546370 0.775639 0.936171
O O8 0.732238 0.802356 0.358968
O O9 0.327863 0.590211 0.471015
O O10 0.666774 0.945363 0.620403
O O11 0.988545 0.199701 0.743212
O O12 0.000000 0.000000 0.500000
O O13 0.840765 0.860324 0.719502
O O14 0.288773 0.317192 0.085943
O O15 0.961948 0.071095 0.953427
O O16 0.000000 0.500000 0.500000
O O17 0.028132 0.645492 0.351366
#
# Coordination Sequence:
#
# PCOD9009038 Si02
#       8
#     2   2   2   2   2   2   2   2
#     4  11  20  35  62  93 131 161 208 275 329 379
#     4  11  22  38  66  99 128 166 215 271 333 381
#     4  11  22  40  62  92 134 175 212 269 326 384
#     4  10  24  46  67  89 133 181 217 263 315 391
#     4  10  21  39  66  98 129 165 211 274 332 384
#     4  10  22  43  65  96 131 166 217 267 326 389
#     4  12  22  35  63  97 129 168 218 275 331 378
#     4  11  23  40  62  94 132 174 225 261 317 393
#
# _framework density 23.485139
#
# number of rings (size 3 to 8) (size 9 to 14) (size 15 to 20)
#    0.000    1.250    5.000    1.500    0.000    1.000 
#    0.000    3.125    0.000    0.000    0.000    0.000 
#    0.000    0.000    0.000    0.000    0.000    0.000 
#
# Total GULP energy -89410.279780 kJ/mol
# GULP energy per Si atom -5588.142486 kJ/mol
# Density = 2.343169 g / cm^3
# Si number density = 23.485139 Si / 1000 Ang^3
#
#
#
# Elastic Constant Matrix: (Units=GPa)
#
#
# Indices 1 2 3 4 5 6 
#
# 1 144.3426 20.4621 20.9183 -15.5713 -46.7589 5.0603
# 2 20.4621 51.1317 17.4619 -4.6555 -5.9176 9.0867
# 3 20.9183 17.4619 63.1596 -19.9051 -17.8256 5.1080
# 4 -15.5713 -4.6555 -19.9051 29.8909 3.0803 -13.2310
# 5 -46.7589 -5.9176 -17.8256 3.0803 42.3255 -10.0301
# 6 5.0603 9.0867 5.1080 -13.2310 -10.0301 29.5611
#
#
#
# Elastic Compliance Matrix: (Units=1/GPa)
#
#
# Indices 1 2 3 4 5 6 
#
# 1 0.013950 -0.005985 0.005355 0.012614 0.018378 0.010408
# 2 -0.005985 0.025669 -0.010147 -0.010718 -0.009641 -0.013181
# 3 0.005355 -0.010147 0.028662 0.024863 0.018209 0.014556
# 4 0.012614 -0.010718 0.024863 0.068298 0.026569 0.036423
# 5 0.018378 -0.009641 0.018209 0.026569 0.054747 0.027139
# 6 0.010408 -0.013181 0.014556 0.036423 0.027139 0.059093
#
#
# Mechanical properties :
#
#
# Convention : Reuss Voigt Hill
#
# Bulk Modulus (GPa) = 21.40158 41.81319 31.60739
# Shear Modulus (GPa) = 17.38830 33.67494 25.53162
#
# Velocity S-wave (km/s) = 2.72397 3.79077 3.30076
# Velocity P-wave (km/s) = 4.36188 6.08298 5.29286
#
# Compressibility (1/GPa) = 0.04672551
#
# Stress axis : x y z
#
# Youngs Moduli (GPa) = 71.68660 38.95798 34.88914
#
# Poissons Ratio (x) = 0.23318 -0.18683
# Poissons Ratio (y) = 0.42908 0.35403
# Poissons Ratio (z) = -0.38389 0.39531
#
# Static dielectric constant tensor:
#      x y z
#    x 1.989120 0.034640 -0.083030 
#    y 0.034640 1.871450 0.015930 
#    z -0.083030 0.015930 1.975140 
# 
# From -- ./inp_files/364017.got.cif
#   From: 2010.05.17/outbox.cif.g08.bks.cpg/sg2_183_cif.got.tgz:364017.got - 2010.06.03 11:33:40.
