data_PCOD9009020
_publ_section_title
;
Structure prediction by ZEFSAII (Michael W. Deem and Ramdas Pophale) SiO2 
 PCOD9009020
Probable space group: P -1
;
_chemical_formula_sum "Si O2"
_cell_formula_units_Z 12
_cell_length_a 15.163940
_cell_length_b 8.217649
_cell_length_c 8.906752
_cell_angle_alpha 99.533241
_cell_angle_beta 66.615796
_cell_angle_gamma 144.042223
_cell_volume 572.697223
_symmetry_space_group_name_H-M "P -1"
_symmetry_group_IT_number 2
_symmetry_cell_setting 'triclinic'
loop_
_space_group_symop_operation_xyz
x,y,z
-x,-y,-z
loop_
_atom_site_type_symbol
_atom_site_label
_atom_site_fract_x
_atom_site_fract_y
_atom_site_fract_z
Si Si1 0.206430 0.726875 0.491290
Si Si2 0.688522 0.308306 0.876789
Si Si3 0.026823 0.894975 0.841122
Si Si4 0.615822 0.782543 0.358027
Si Si5 0.928237 0.123209 0.517668
Si Si6 0.610737 0.544468 0.822359
O O1 0.279623 0.772686 0.291680
O O2 0.109574 0.761186 0.529521
O O3 0.084535 0.400264 0.558391
O O4 0.342548 0.984484 0.555119
O O5 0.676850 0.479134 0.854022
O O6 0.854007 0.540870 0.907325
O O7 0.500000 0.000000 0.000000
O O8 0.040319 0.953849 0.658191
O O9 0.207137 0.060626 0.775960
O O10 0.000000 0.000000 0.000000
O O11 0.500000 0.500000 0.500000
O O12 0.512473 0.674885 0.263329
O O13 0.769769 0.855285 0.683598
O O14 0.500000 0.500000 0.000000
#
# Coordination Sequence:
#
# PCOD9009020 Si02
#       6
#     2   2   2   2   2   2
#     4   9  19  38  64  86 130 168 214 259 332 376
#     4  11  25  40  62  97 134 173 218 276 326 380
#     4  10  21  39  66  97 129 172 216 264 328 385
#     4  11  22  42  67  96 128 175 215 270 328 388
#     4   9  19  39  62  93 126 175 213 260 323 393
#     4  12  24  40  66  98 132 174 221 266 329 394
#
# _framework density 20.953479000000002
#
# number of rings (size 3 to 8) (size 9 to 14) (size 15 to 20)
#    0.000    1.667    3.333    3.000    2.333    3.333 
#    0.000    5.000    0.000    0.000    0.000    0.000 
#    0.000    0.000    0.000    0.000    0.000    0.000 
#
# Total GULP energy -66808.073654 kJ/mol
# GULP energy per Si atom -5567.339471 kJ/mol
# Density = 2.090579 g / cm^3
# Si number density = 20.953479 Si / 1000 Ang^3
#
#
#
# Elastic Constant Matrix: (Units=GPa)
#
#
# Indices 1 2 3 4 5 6 
#
# 1 45.2579 6.0916 4.3067 -7.0249 -18.5068 6.1305
# 2 6.0916 171.0625 82.9930 1.1264 -9.8437 25.3948
# 3 4.3067 82.9930 128.1246 6.8164 -37.1998 0.7037
# 4 -7.0249 1.1264 6.8164 53.3585 -0.2161 -11.2986
# 5 -18.5068 -9.8437 -37.1998 -0.2161 31.1179 -4.6531
# 6 6.1305 25.3948 0.7037 -11.2986 -4.6531 27.4848
#
#
#
# Elastic Compliance Matrix: (Units=1/GPa)
#
#
# Indices 1 2 3 4 5 6 
#
# 1 0.036570 -0.006516 0.013302 0.004582 0.036456 0.005579
# 2 -0.006516 0.014221 -0.014189 -0.002726 -0.018692 -0.015609
# 3 0.013302 -0.014189 0.027677 0.002269 0.039064 0.016981
# 4 0.004582 -0.002726 0.002269 0.021549 0.006427 0.011385
# 5 0.036456 -0.018692 0.039064 0.006427 0.098760 0.027501
# 6 0.005579 -0.015609 0.016981 0.011385 0.027501 0.058463
#
#
# Mechanical properties :
#
#
# Convention : Reuss Voigt Hill
#
# Bulk Modulus (GPa) = 15.70834 59.02528 37.36681
# Shear Modulus (GPa) = 17.04932 39.12916 28.08924
#
# Velocity S-wave (km/s) = 2.85559 4.32607 3.66533
# Velocity P-wave (km/s) = 4.28784 7.29273 5.98204
#
# Compressibility (1/GPa) = 0.06366045
#
# Stress axis : x y z
#
# Youngs Moduli (GPa) = 27.34499 70.31635 36.13144
#
# Poissons Ratio (x) = 0.45821 -0.48062
# Poissons Ratio (y) = 0.17819 0.51268
# Poissons Ratio (z) = -0.36374 0.99774
#
# Static dielectric constant tensor:
#      x y z
#    x 2.665740 0.275580 -0.211280 
#    y 0.275580 1.959240 -0.079980 
#    z -0.211280 -0.079980 1.860890 
# 
# From -- ./inp_files/172707.got.cif
#   From: 2010.05.17/outbox.cif.g08.bks.cpg/sg2_87_cif.got.tgz:172707.got - 2010.06.03 11:33:40.
