data_PCOD9009021
_publ_section_title
;
Structure prediction by ZEFSAII (Michael W. Deem and Ramdas Pophale) SiO2 
 PCOD9009021
Probable space group: P -1
;
_chemical_formula_sum "Si O2"
_cell_formula_units_Z 14
_cell_length_a 5.198545
_cell_length_b 11.410695
_cell_length_c 22.141083
_cell_angle_alpha 30.700749
_cell_angle_beta 67.077864
_cell_angle_gamma 65.227886
_cell_volume 607.643109
_symmetry_space_group_name_H-M "P -1"
_symmetry_group_IT_number 2
_symmetry_cell_setting 'triclinic'
loop_
_space_group_symop_operation_xyz
x,y,z
-x,-y,-z
loop_
_atom_site_type_symbol
_atom_site_label
_atom_site_fract_x
_atom_site_fract_y
_atom_site_fract_z
Si Si1 0.678160 0.759854 0.565243
Si Si2 0.773576 0.368725 0.177656
Si Si3 0.216817 0.471134 0.702610
Si Si4 0.546615 0.198443 0.683990
Si Si5 0.824753 0.838453 0.378273
Si Si6 0.466765 0.304110 0.040907
Si Si7 0.849581 0.430774 0.856256
O O1 0.472906 0.569633 0.666552
O O2 0.762205 0.786002 0.476113
O O3 0.965772 0.677716 0.612658
O O4 0.500000 0.000000 0.500000
O O5 0.449043 0.431287 0.202811
O O6 0.998109 0.389279 0.199615
O O7 0.809453 0.118703 0.254663
O O8 0.775497 0.572836 0.037690
O O9 0.341083 0.334511 0.692576
O O10 0.063959 0.331482 0.827961
O O11 0.403601 0.223758 0.620214
O O12 0.855421 0.268330 0.623286
O O13 0.583003 0.927800 0.820207
O O14 0.500000 0.500000 0.000000
O O15 0.744432 0.262619 0.990083
#
# Coordination Sequence:
#
# PCOD9009021 Si02
#       7
#     2   2   2   2   2   2   2
#     4  12  27  46  76  96 126 175 223 277 335 384
#     4  10  21  39  66  97 131 166 221 283 310 379
#     4  12  26  47  65 101 136 173 220 269 332 398
#     4  12  27  41  68  98 139 178 212 268 333 394
#     4  12  24  43  66 100 131 171 226 273 325 384
#     4  10  22  40  68 100 131 177 219 266 330 382
#     4  10  22  39  65  92 137 167 217 277 320 384
#
# _framework density 23.039840999999999
#
# number of rings (size 3 to 8) (size 9 to 14) (size 15 to 20)
#    0.857    0.000    1.429    6.429    2.000    5.143 
#    0.000    0.714    0.000    0.000    0.000    0.000 
#    0.000    0.000    0.000    0.000    0.000    0.000 
#
# Total GULP energy -78323.356362 kJ/mol
# GULP energy per Si atom -5594.525454 kJ/mol
# Density = 2.298740 g / cm^3
# Si number density = 23.039841 Si / 1000 Ang^3
#
#
#
# Elastic Constant Matrix: (Units=GPa)
#
#
# Indices 1 2 3 4 5 6 
#
# 1 108.4966 9.9659 6.0129 8.6101 -1.4315 -0.5567
# 2 9.9659 112.8353 17.3580 30.0790 -4.0520 -14.7911
# 3 6.0129 17.3580 64.4376 13.6394 5.8764 -12.7866
# 4 8.6101 30.0790 13.6394 41.6544 -2.6122 -7.2081
# 5 -1.4315 -4.0520 5.8764 -2.6122 27.2347 10.9573
# 6 -0.5567 -14.7911 -12.7866 -7.2081 10.9573 40.9254
#
#
#
# Elastic Compliance Matrix: (Units=1/GPa)
#
#
# Indices 1 2 3 4 5 6 
#
# 1 0.009415 -0.000388 -0.000648 -0.001526 0.000701 -0.000671
# 2 -0.000388 0.011334 -0.000998 -0.007344 0.000198 0.002433
# 3 -0.000648 -0.000998 0.018821 -0.004616 -0.007370 0.006671
# 4 -0.001526 -0.007344 -0.004616 0.031424 0.002541 0.000737
# 5 0.000701 0.000198 -0.007370 0.002541 0.044080 -0.013576
# 6 -0.000671 0.002433 0.006671 0.000737 -0.013576 0.031154
#
#
# Mechanical properties :
#
#
# Convention : Reuss Voigt Hill
#
# Bulk Modulus (GPa) = 28.16655 39.16035 33.66345
# Shear Modulus (GPa) = 30.83934 38.79173 34.81553
#
# Velocity S-wave (km/s) = 3.66255 4.10772 3.89151
# Velocity P-wave (km/s) = 5.48975 6.28741 5.90207
#
# Compressibility (1/GPa) = 0.03550311
#
# Stress axis : x y z
#
# Youngs Moduli (GPa) = 106.20977 88.23027 53.13154
#
# Poissons Ratio (x) = 0.03422 0.03444
# Poissons Ratio (y) = 0.04120 0.05301
# Poissons Ratio (z) = 0.06884 0.08803
#
# Static dielectric constant tensor:
#      x y z
#    x 1.826430 -0.032670 0.005300 
#    y -0.032670 1.861530 0.041740 
#    z 0.005300 0.041740 1.886070 
# 
# From -- ./inp_files/604364.got.cif
#   From: 2010.05.17/outbox.cif.g08.bks.cpg/sg2_303_cif.got.tgz:604364.got - 2010.06.03 11:33:40.
