data_PCOD9009182
_publ_section_title
;
Structure prediction by ZEFSAII (Michael W. Deem and Ramdas Pophale) SiO2 
 PCOD9009182
Probable space group: P -1
;
_chemical_formula_sum "Si O2"
_cell_formula_units_Z 16
_cell_length_a 10.782907
_cell_length_b 12.168732
_cell_length_c 9.462574
_cell_angle_alpha 127.978313
_cell_angle_beta 98.462522
_cell_angle_gamma 47.704034
_cell_volume 643.588327
_symmetry_space_group_name_H-M "P -1"
_symmetry_group_IT_number 2
_symmetry_cell_setting 'triclinic'
loop_
_space_group_symop_operation_xyz
x,y,z
-x,-y,-z
loop_
_atom_site_type_symbol
_atom_site_label
_atom_site_fract_x
_atom_site_fract_y
_atom_site_fract_z
Si Si1 0.209851 0.299911 0.812523
Si Si2 0.675574 0.632484 0.857624
Si Si3 0.692541 0.363327 0.842406
Si Si4 0.703114 0.097405 0.459156
Si Si5 0.998695 0.874311 0.092831
Si Si6 0.588713 0.574110 0.532332
Si Si7 0.964380 0.846547 0.763117
Si Si8 0.064451 0.386173 0.573227
O O1 0.199061 0.346371 0.680119
O O2 0.255862 0.097118 0.660044
O O3 0.349754 0.256441 0.915633
O O4 0.000000 0.500000 0.000000
O O5 0.678344 0.472383 0.789797
O O6 0.547929 0.722134 0.766709
O O7 0.873336 0.517460 0.733306
O O8 0.761137 0.154981 0.637737
O O9 0.838091 0.320134 0.935166
O O10 0.500000 0.500000 0.000000
O O11 0.493429 0.305550 0.534818
O O12 0.825542 0.038642 0.296994
O O13 0.937167 0.840428 0.919341
O O14 0.078106 0.957127 0.118223
O O15 0.500000 0.500000 0.500000
O O16 0.812616 0.362917 0.390928
O O17 0.855247 0.830978 0.633024
O O18 0.000000 0.500000 0.500000
#
# Coordination Sequence:
#
# PCOD9009182 Si02
#       8
#     2   2   2   2   2   2   2   2
#     4  10  23  43  66 102 139 178 234 290 351 417
#     4  10  23  42  67  96 138 182 230 289 344 424
#     4  12  25  42  71 101 139 186 232 296 359 418
#     4  12  23  41  73  97 137 189 231 295 358 420
#     4  11  22  36  65 100 132 173 236 285 357 419
#     4  11  20  42  65  95 140 185 235 290 360 405
#     4  10  22  37  60 101 133 172 232 295 338 428
#     4  10  21  39  67  94 133 179 225 284 348 404
#
# _framework density 24.860613000000001
#
# number of rings (size 3 to 8) (size 9 to 14) (size 15 to 20)
#    0.000    1.250    2.500    4.125    5.250    0.500 
#    0.000    0.625    5.500    0.000    0.000    0.000 
#    0.000    0.000    0.000    0.000    0.000    0.000 
#
# Total GULP energy -89406.131167 kJ/mol
# GULP energy per Si atom -5587.883198 kJ/mol
# Density = 2.480403 g / cm^3
# Si number density = 24.860613 Si / 1000 Ang^3
#
#
#
# Elastic Constant Matrix: (Units=GPa)
#
#
# Indices 1 2 3 4 5 6 
#
# 1 67.5031 8.6324 42.9920 -9.0020 12.5334 2.8666
# 2 8.6324 71.8982 21.1791 -23.1847 3.7558 8.2587
# 3 42.9920 21.1791 135.0715 -40.5592 31.1891 -6.4453
# 4 -9.0020 -23.1847 -40.5592 48.3574 -6.4904 10.1003
# 5 12.5334 3.7558 31.1891 -6.4904 56.7742 -5.2268
# 6 2.8666 8.2587 -6.4453 10.1003 -5.2268 38.7427
#
#
#
# Elastic Compliance Matrix: (Units=1/GPa)
#
#
# Indices 1 2 3 4 5 6 
#
# 1 0.018972 -0.000734 -0.006334 -0.001865 -0.001054 -0.001957
# 2 -0.000734 0.017878 0.000233 0.009881 -0.000606 -0.006376
# 3 -0.006334 0.000233 0.013376 0.009601 -0.004916 -0.000522
# 4 -0.001865 0.009881 0.009601 0.034839 -0.002434 -0.009782
# 5 -0.001054 -0.000606 -0.004916 -0.002434 0.020566 0.002799
# 6 -0.001957 -0.006376 -0.000522 -0.009782 0.002799 0.030156
#
#
# Mechanical properties :
#
#
# Convention : Reuss Voigt Hill
#
# Bulk Modulus (GPa) = 27.35423 46.67554 37.01489
# Shear Modulus (GPa) = 30.93264 42.21948 36.57606
#
# Velocity S-wave (km/s) = 3.53121 4.12545 3.83984
# Velocity P-wave (km/s) = 5.25860 6.44268 5.88052
#
# Compressibility (1/GPa) = 0.03655741
#
# Stress axis : x y z
#
# Youngs Moduli (GPa) = 52.70978 55.93383 74.76048
#
# Poissons Ratio (x) = 0.04104 0.47350
# Poissons Ratio (y) = 0.03867 -0.01742
# Poissons Ratio (z) = 0.33384 -0.01303
#
# Static dielectric constant tensor:
#      x y z
#    x 1.937100 -0.002730 0.052800 
#    y -0.002730 2.019910 0.005100 
#    z 0.052800 0.005100 1.968520 
# 
# From -- ./inp_files/263059.got.cif
#   From: 2010.05.17/outbox.cif.g08.bks.cpg/sg2_132_cif.got.tgz:263059.got - 2010.06.03 11:33:40.
