data_PCOD9009703
_publ_section_title
;
Structure prediction by ZEFSAII (Michael W. Deem and Ramdas Pophale) SiO2 
 PCOD9009703
Probable space group: P -1
;
_chemical_formula_sum "Si O2"
_cell_formula_units_Z 16
_cell_length_a 11.750040
_cell_length_b 14.208714
_cell_length_c 24.287085
_cell_angle_alpha 28.555824
_cell_angle_beta 135.707930
_cell_angle_gamma 151.340145
_cell_volume 902.508015
_symmetry_space_group_name_H-M "P -1"
_symmetry_group_IT_number 2
_symmetry_cell_setting 'triclinic'
loop_
_space_group_symop_operation_xyz
x,y,z
-x,-y,-z
loop_
_atom_site_type_symbol
_atom_site_label
_atom_site_fract_x
_atom_site_fract_y
_atom_site_fract_z
Si Si1 0.403165 0.291451 0.370530
Si Si2 0.057256 0.258777 0.138942
Si Si3 0.892828 0.847192 0.482416
Si Si4 0.487647 0.812840 0.334863
Si Si5 0.809560 0.056351 0.631450
Si Si6 0.633574 0.324701 0.871478
Si Si7 0.298805 0.716606 0.439508
Si Si8 0.854183 0.332404 0.121475
O O1 0.487220 0.595445 0.239957
O O2 0.554493 0.303639 0.460398
O O3 0.387564 0.176431 0.364134
O O4 0.119592 0.041981 0.419261
O O5 0.296073 0.534724 0.115551
O O6 0.850600 0.181199 0.144636
O O7 0.059947 0.027611 0.260381
O O8 0.083800 0.396901 0.020091
O O9 0.698036 0.835901 0.402224
O O10 0.745281 0.509174 0.605722
O O11 0.000000 0.000000 0.500000
O O12 0.414663 0.821769 0.365325
O O13 0.611890 0.087707 0.198151
O O14 0.700116 0.075542 0.635126
O O15 0.020561 0.386885 0.509831
O O16 0.900798 0.518352 0.838639
O O17 0.500000 0.000000 0.000000
#
# Coordination Sequence:
#
# PCOD9009703 Si02
#       8
#     2   2   2   2   2   2   2   2
#     4  11  20  36  55  83 110 143 180 226 270 333
#     4   8  18  34  54  71 106 136 181 224 266 313
#     4  11  21  33  52  80 114 142 172 214 289 329
#     4  11  21  35  52  82 117 141 175 229 271 335
#     4  10  21  40  52  80 107 147 191 230 253 328
#     4   9  18  30  50  81 108 130 179 222 268 328
#     4  11  23  33  59  77 110 150 184 220 280 310
#     4   9  18  34  54  79 104 142 173 228 278 323
#
# _framework density 17.728375
#
# number of rings (size 3 to 8) (size 9 to 14) (size 15 to 20)
#    0.750    1.250    3.750    0.375    3.500    1.000 
#    0.000    0.625    0.000    0.000    0.000    2.625 
#    0.000    0.000    0.000    0.000    0.000    0.000 
#
# Total GULP energy -89129.585320 kJ/mol
# GULP energy per Si atom -5570.599083 kJ/mol
# Density = 1.768802 g / cm^3
# Si number density = 17.728375 Si / 1000 Ang^3
#
#
#
# Elastic Constant Matrix: (Units=GPa)
#
#
# Indices 1 2 3 4 5 6 
#
# 1 85.8411 13.8565 42.1226 -7.9468 -3.6770 -13.9722
# 2 13.8565 45.1416 10.9670 -3.9512 -2.2630 -10.8237
# 3 42.1226 10.9670 89.5809 -7.0533 -4.1789 -10.5898
# 4 -7.9468 -3.9512 -7.0533 27.9440 0.7698 1.8260
# 5 -3.6770 -2.2630 -4.1789 0.7698 22.0527 -1.5555
# 6 -13.9722 -10.8237 -10.5898 1.8260 -1.5555 21.2846
#
#
#
# Elastic Compliance Matrix: (Units=1/GPa)
#
#
# Indices 1 2 3 4 5 6 
#
# 1 0.016474 -0.001579 -0.006495 0.002336 0.001746 0.006707
# 2 -0.001579 0.026000 -0.000726 0.002186 0.003027 0.011858
# 3 -0.006495 -0.000726 0.014838 0.001567 0.001793 0.002746
# 4 0.002336 0.002186 0.001567 0.037151 -0.000371 0.000210
# 5 0.001746 0.003027 0.001793 -0.000371 0.046796 0.007029
# 6 0.006707 0.011858 0.002746 0.000210 0.007029 0.059277
#
#
# Mechanical properties :
#
#
# Convention : Reuss Voigt Hill
#
# Bulk Modulus (GPa) = 25.18065 39.38398 32.28232
# Shear Modulus (GPa) = 21.61019 24.49742 23.05380
#
# Velocity S-wave (km/s) = 3.49515 3.72132 3.61000
# Velocity P-wave (km/s) = 5.52472 6.38183 5.96868
#
# Compressibility (1/GPa) = 0.03971303
#
# Stress axis : x y z
#
# Youngs Moduli (GPa) = 60.70126 38.46206 67.39627
#
# Poissons Ratio (x) = 0.06072 0.43773
# Poissons Ratio (y) = 0.09583 0.04890
# Poissons Ratio (z) = 0.39425 0.02791
#
# Static dielectric constant tensor:
#      x y z
#    x 1.610410 -0.003260 0.005640 
#    y -0.003260 1.654290 0.001330 
#    z 0.005640 0.001330 1.627660 
# 
# From -- ./inp_files/610528.got.cif
#   From: 2010.05.17/outbox.cif.g08.bks.cpg/sg2_306_cif.got.tgz:610528.got - 2010.06.03 11:33:40.
