data_PCOD9009265
_publ_section_title
;
Structure prediction by ZEFSAII (Michael W. Deem and Ramdas Pophale) SiO2 
 PCOD9009265
Probable space group: P -1
;
_chemical_formula_sum "Si O2"
_cell_formula_units_Z 8
_cell_length_a 9.269494
_cell_length_b 8.948904
_cell_length_c 4.895481
_cell_angle_alpha 77.119551
_cell_angle_beta 76.324917
_cell_angle_gamma 125.663310
_cell_volume 285.145664
_symmetry_space_group_name_H-M "P -1"
_symmetry_group_IT_number 2
_symmetry_cell_setting 'triclinic'
loop_
_space_group_symop_operation_xyz
x,y,z
-x,-y,-z
loop_
_atom_site_type_symbol
_atom_site_label
_atom_site_fract_x
_atom_site_fract_y
_atom_site_fract_z
Si Si1 0.135425 0.275037 0.607085
Si Si2 0.000000 0.500000 0.500000
Si Si3 0.000000 0.500000 0.000000
Si Si4 0.440301 0.854011 0.839848
Si Si5 0.270663 0.202247 0.071006
O O1 0.220351 0.303629 0.259282
O O2 0.106599 0.428509 0.671665
O O3 0.287225 0.292187 0.733918
O O4 0.921144 0.041446 0.793140
O O5 0.082718 0.670319 0.645300
O O6 0.200639 0.656203 0.058246
O O7 0.557396 0.778520 0.874384
O O8 0.500000 0.000000 0.500000
O O9 0.500000 0.000000 0.000000
#
# Coordination Sequence:
#
# PCOD9009265 Si02
#       5
#     2   1   1   2   2
#     4  10  21  39  67  98 138 183 234 293 357 432
#     4  12  24  44  68 100 146 188 228 300 368 420
#     4  12  26  44  70 106 140 186 250 300 352 438
#     4  12  25  45  74 105 144 195 244 299 368 436
#     4  10  21  40  65  99 136 184 239 291 353 429
#
# _framework density 28.055838000000001
#
# number of rings (size 3 to 8) (size 9 to 14) (size 15 to 20)
#    0.000    1.000    0.000    7.500    0.000    4.000 
#    0.000    7.500    0.000    0.000    0.000    0.000 
#    0.000    0.000    0.000    0.000    0.000    0.000 
#
# Total GULP energy -44585.276762 kJ/mol
# GULP energy per Si atom -5573.159595 kJ/mol
# Density = 2.799198 g / cm^3
# Si number density = 28.055838 Si / 1000 Ang^3
#
#
#
# Elastic Constant Matrix: (Units=GPa)
#
#
# Indices 1 2 3 4 5 6 
#
# 1 221.3907 93.2231 41.8523 -7.9103 5.4838 -8.9429
# 2 93.2231 140.4469 66.6623 -16.6111 2.3444 20.5633
# 3 41.8523 66.6623 154.9593 25.7894 35.6160 32.5446
# 4 -7.9103 -16.6111 25.7894 61.5249 18.1484 2.9183
# 5 5.4838 2.3444 35.6160 18.1484 48.6640 -1.5393
# 6 -8.9429 20.5633 32.5446 2.9183 -1.5393 69.8743
#
#
#
# Elastic Compliance Matrix: (Units=1/GPa)
#
#
# Indices 1 2 3 4 5 6 
#
# 1 0.006606 -0.004708 -0.000128 -0.000420 -0.000194 0.002304
# 2 -0.004708 0.013685 -0.005392 0.004891 0.001922 -0.002280
# 3 -0.000128 -0.005392 0.011963 -0.004224 -0.007032 -0.003980
# 4 -0.000420 0.004891 -0.004224 0.020745 -0.004849 -0.000499
# 5 -0.000194 0.001922 -0.007032 -0.004849 0.027544 0.003494
# 6 0.002304 -0.002280 -0.003980 -0.000499 0.003494 0.017229
#
#
# Mechanical properties :
#
#
# Convention : Reuss Voigt Hill
#
# Bulk Modulus (GPa) = 84.76978 102.25246 93.51112
# Shear Modulus (GPa) = 40.92979 57.01660 48.97319
#
# Velocity S-wave (km/s) = 3.82366 4.51294 4.18252
# Velocity P-wave (km/s) = 7.05507 7.98002 7.53176
#
# Compressibility (1/GPa) = 0.01179666
#
# Stress axis : x y z
#
# Youngs Moduli (GPa) = 151.36679 73.07393 83.59353
#
# Poissons Ratio (x) = 0.34403 0.01073
# Poissons Ratio (y) = 0.71263 0.45076
# Poissons Ratio (z) = 0.01943 0.39404
#
# Static dielectric constant tensor:
#      x y z
#    x 2.273360 0.284770 -0.149690 
#    y 0.284770 1.764010 -0.211450 
#    z -0.149690 -0.211450 3.378260 
# 
# From -- ./inp_files/17116.got.cif
#   From: 2010.05.17/outbox.cif.g08.bks.cpg/sg2_9_cif.got.tgz:17116.got - 2010.06.03 11:33:40.
