data_PCOD9009721
_publ_section_title
;
Structure prediction by ZEFSAII (Michael W. Deem and Ramdas Pophale) SiO2 
 PCOD9009721
Probable space group: P -1
;
_chemical_formula_sum "Si O2"
_cell_formula_units_Z 14
_cell_length_a 20.318086
_cell_length_b 17.189130
_cell_length_c 17.680428
_cell_angle_alpha 157.848784
_cell_angle_beta 17.324571
_cell_angle_gamma 157.747867
_cell_volume 644.583165
_symmetry_space_group_name_H-M "P -1"
_symmetry_group_IT_number 2
_symmetry_cell_setting 'triclinic'
loop_
_space_group_symop_operation_xyz
x,y,z
-x,-y,-z
loop_
_atom_site_type_symbol
_atom_site_label
_atom_site_fract_x
_atom_site_fract_y
_atom_site_fract_z
Si Si1 0.444107 0.417535 0.670663
Si Si2 0.724417 0.471321 0.189098
Si Si3 0.225631 0.767255 0.942584
Si Si4 0.574757 0.025961 0.686498
Si Si5 0.798163 0.520644 0.874604
Si Si6 0.730606 0.141353 0.279118
Si Si7 0.643101 0.719924 0.088321
O O1 0.300323 0.150032 0.591794
O O2 0.683684 0.408785 0.361698
O O3 0.330272 0.543898 0.853088
O O4 0.435580 0.492440 0.832730
O O5 0.500000 0.500000 0.500000
O O6 0.759671 0.276342 0.023811
O O7 0.953725 0.692854 0.151559
O O8 0.407079 0.998773 0.920023
O O9 0.755934 0.264665 0.679787
O O10 0.387686 0.927744 0.735117
O O11 0.024150 0.651201 0.795338
O O12 0.809093 0.653160 0.904746
O O13 0.541094 0.207580 0.595409
O O14 0.764014 0.927594 0.087813
O O15 0.500000 0.500000 0.000000
#
# Coordination Sequence:
#
# PCOD9009721 Si02
#       7
#     2   2   2   2   2   2   2
#     4   9  20  35  58  83 121 154 192 245 295 346
#     4   9  15  32  62  86 113 166 193 232 305 339
#     4   8  17  33  58  85 121 154 194 246 289 347
#     4  10  21  40  57  91 121 151 205 243 289 363
#     4  12  23  40  63  88 116 162 197 243 305 350
#     4  11  24  41  62  87 121 155 201 249 289 361
#     4  11  23  43  62  87 121 156 199 246 301 353
#
# _framework density 21.719463000000001
#
# number of rings (size 3 to 8) (size 9 to 14) (size 15 to 20)
#    0.857    1.143    2.857    1.286    0.000    1.714 
#    2.571    0.714    0.000    4.286    0.000    0.000 
#    0.000    0.000    0.000    0.000    0.000    0.000 
#
# Total GULP energy -77965.592944 kJ/mol
# GULP energy per Si atom -5568.970925 kJ/mol
# Density = 2.167003 g / cm^3
# Si number density = 21.719463 Si / 1000 Ang^3
#
#
#
# Elastic Constant Matrix: (Units=GPa)
#
#
# Indices 1 2 3 4 5 6 
#
# 1 119.3423 40.6187 1.3578 10.4224 -2.6441 -12.8625
# 2 40.6187 95.0506 7.3945 14.2215 -10.0364 2.0612
# 3 1.3578 7.3945 21.2961 1.9757 -4.7266 -0.9587
# 4 10.4224 14.2215 1.9757 25.6775 1.7671 -2.7223
# 5 -2.6441 -10.0364 -4.7266 1.7671 12.9714 -1.7010
# 6 -12.8625 2.0612 -0.9587 -2.7223 -1.7010 34.1871
#
#
#
# Elastic Compliance Matrix: (Units=1/GPa)
#
#
# Indices 1 2 3 4 5 6 
#
# 1 0.010443 -0.004446 0.001160 -0.001419 -0.000157 0.004109
# 2 -0.004446 0.014826 -0.001986 -0.007259 0.010479 -0.002679
# 3 0.001160 -0.001986 0.052243 -0.004400 0.018677 0.002600
# 4 -0.001419 -0.007259 -0.004400 0.045082 -0.013296 0.002709
# 5 -0.000157 0.010479 0.018677 -0.013296 0.094239 0.003463
# 6 0.004109 -0.002679 0.002600 0.002709 0.003463 0.031419
#
#
# Mechanical properties :
#
#
# Convention : Reuss Voigt Hill
#
# Bulk Modulus (GPa) = 14.93267 37.15899 26.04583
# Shear Modulus (GPa) = 17.78611 26.98840 22.38726
#
# Velocity S-wave (km/s) = 2.86475 3.52886 3.21401
# Velocity P-wave (km/s) = 4.22286 5.80944 5.07849
#
# Compressibility (1/GPa) = 0.06696728
#
# Stress axis : x y z
#
# Youngs Moduli (GPa) = 95.76169 67.44981 19.14135
#
# Poissons Ratio (x) = 0.29989 -0.02220
# Poissons Ratio (y) = 0.42576 0.03801
# Poissons Ratio (z) = -0.11106 0.13394
#
# Static dielectric constant tensor:
#      x y z
#    x 1.825530 -0.032070 -0.015050 
#    y -0.032070 1.803420 -0.004170 
#    z -0.015050 -0.004170 1.827200 
# 
# From -- ./inp_files/578418.got.cif
#   From: 2010.05.17/outbox.cif.g08.bks.cpg/sg2_290_cif.got.tgz:578418.got - 2010.06.03 11:33:40.
