data_PCOD9009632
_publ_section_title
;
Structure prediction by ZEFSAII (Michael W. Deem and Ramdas Pophale) SiO2 
 PCOD9009632
Probable space group: P -1
;
_chemical_formula_sum "Si O2"
_cell_formula_units_Z 15
_cell_length_a 13.230154
_cell_length_b 8.615489
_cell_length_c 8.379183
_cell_angle_alpha 52.117745
_cell_angle_beta 60.429401
_cell_angle_gamma 69.713713
_cell_volume 654.315023
_symmetry_space_group_name_H-M "P -1"
_symmetry_group_IT_number 2
_symmetry_cell_setting 'triclinic'
loop_
_space_group_symop_operation_xyz
x,y,z
-x,-y,-z
loop_
_atom_site_type_symbol
_atom_site_label
_atom_site_fract_x
_atom_site_fract_y
_atom_site_fract_z
Si Si1 0.928675 0.572006 0.312489
Si Si2 0.807703 0.556545 0.902022
Si Si3 0.942275 0.938213 0.252549
Si Si4 0.260934 0.738199 0.325874
Si Si5 0.500000 0.000000 0.500000
Si Si6 0.388970 0.422763 0.225457
Si Si7 0.285227 0.811795 0.625828
Si Si8 0.845906 0.878597 0.914737
O O1 0.935321 0.705177 0.382489
O O2 0.855933 0.381294 0.505675
O O3 0.059365 0.525908 0.177548
O O4 0.859641 0.716417 0.146253
O O5 0.724028 0.564076 0.809961
O O6 0.813799 0.765186 0.852579
O O7 0.749884 0.405111 0.161067
O O8 0.817254 0.042524 0.313890
O O9 0.029786 0.024709 0.256569
O O10 0.000000 0.000000 0.000000
O O11 0.358649 0.578905 0.290439
O O12 0.285959 0.817127 0.431311
O O13 0.242444 0.931168 0.105485
O O14 0.584477 0.800362 0.602335
O O15 0.406323 0.861086 0.575587
O O16 0.500000 0.500000 0.000000
#
# Coordination Sequence:
#
# PCOD9009632 Si02
#       8
#     2   2   2   2   1   2   2   2
#     4  11  23  43  73 112 153 193 231 293 361 436
#     4  12  23  48  75 104 155 193 236 299 363 427
#     4  10  21  39  71 108 145 194 229 284 365 423
#     4  12  28  45  76 113 144 187 245 297 361 435
#     4  12  28  52  82  98 138 196 250 306 362 420
#     4  12  29  52  75 104 141 192 246 307 360 426
#     4  12  24  47  74 107 147 189 248 299 350 430
#     4  11  23  41  70 111 151 194 229 290 368 430
#
# _framework density 22.924735999999999
#
# number of rings (size 3 to 8) (size 9 to 14) (size 15 to 20)
#    0.000    0.533    5.333    3.600    1.867    6.933 
#    0.000    1.333    0.000    0.000    0.000    0.000 
#    0.000    0.000    0.000    0.000    0.000    0.000 
#
# Total GULP energy -83747.264953 kJ/mol
# GULP energy per Si atom -5583.150997 kJ/mol
# Density = 2.287256 g / cm^3
# Si number density = 22.924736 Si / 1000 Ang^3
#
#
#
# Elastic Constant Matrix: (Units=GPa)
#
#
# Indices 1 2 3 4 5 6 
#
# 1 76.6171 23.8382 37.6911 3.8872 -20.8787 13.3387
# 2 23.8382 100.4153 47.1953 -20.6944 5.6565 1.7055
# 3 37.6911 47.1953 83.6027 -14.0695 2.4926 -7.4133
# 4 3.8872 -20.6944 -14.0695 41.3195 -3.1960 4.3914
# 5 -20.8787 5.6565 2.4926 -3.1960 38.9408 -19.4134
# 6 13.3387 1.7055 -7.4133 4.3914 -19.4134 46.1788
#
#
#
# Elastic Compliance Matrix: (Units=1/GPa)
#
#
# Indices 1 2 3 4 5 6 
#
# 1 0.022832 -0.002192 -0.010607 -0.005672 0.011318 -0.002919
# 2 -0.002192 0.015075 -0.006766 0.005481 -0.004106 -0.003257
# 3 -0.010607 -0.006766 0.021823 0.004253 -0.003233 0.005054
# 4 -0.005672 0.005481 0.004253 0.028911 -0.002595 -0.001722
# 5 0.011318 -0.004106 -0.003233 -0.002595 0.038776 0.012911
# 6 -0.002919 -0.003257 0.005054 -0.001722 0.012911 0.029021
#
#
# Mechanical properties :
#
#
# Convention : Reuss Voigt Hill
#
# Bulk Modulus (GPa) = 48.54209 53.12049 50.83129
# Shear Modulus (GPa) = 24.69921 35.41519 30.05720
#
# Velocity S-wave (km/s) = 3.28594 3.93472 3.62487
# Velocity P-wave (km/s) = 5.96801 6.62304 6.30404
#
# Compressibility (1/GPa) = 0.02060068
#
# Stress axis : x y z
#
# Youngs Moduli (GPa) = 43.79770 66.33377 45.82268
#
# Poissons Ratio (x) = 0.14539 0.48605
# Poissons Ratio (y) = 0.09600 0.31004
# Poissons Ratio (z) = 0.46457 0.44882
#
# Static dielectric constant tensor:
#      x y z
#    x 1.864160 -0.010060 0.062720 
#    y -0.010060 1.871350 -0.001980 
#    z 0.062720 -0.001980 1.904470 
# 
# From -- ./inp_files/241876.got.cif
#   From: 2010.05.17/outbox.cif.g08.bks.cpg/sg2_121_cif.got.tgz:241876.got - 2010.06.03 11:33:40.
