data_PCOD9009839
_publ_section_title
;
Structure prediction by ZEFSAII (Michael W. Deem and Ramdas Pophale) SiO2 
 PCOD9009839
Probable space group: P -1
;
_chemical_formula_sum "Si O2"
_cell_formula_units_Z 16
_cell_length_a 14.779071
_cell_length_b 6.037899
_cell_length_c 8.674095
_cell_angle_alpha 123.282686
_cell_angle_beta 90.668462
_cell_angle_gamma 97.108132
_cell_volume 639.133447
_symmetry_space_group_name_H-M "P -1"
_symmetry_group_IT_number 2
_symmetry_cell_setting 'triclinic'
loop_
_space_group_symop_operation_xyz
x,y,z
-x,-y,-z
loop_
_atom_site_type_symbol
_atom_site_label
_atom_site_fract_x
_atom_site_fract_y
_atom_site_fract_z
Si Si1 0.391652 0.781183 0.803579
Si Si2 0.086219 0.151033 0.214238
Si Si3 0.419743 0.324825 0.188966
Si Si4 0.075040 0.064745 0.654817
Si Si5 0.692221 0.441270 0.959482
Si Si6 0.266228 0.011173 0.668433
Si Si7 0.733054 0.907633 0.651516
Si Si8 0.956400 0.392652 0.118775
O O1 0.479365 0.636340 0.721794
O O2 0.325200 0.803384 0.665847
O O3 0.344572 0.660589 0.913256
O O4 0.424199 0.091547 0.971629
O O5 0.172876 0.202422 0.347112
O O6 0.048715 0.392273 0.221019
O O7 0.990017 0.021098 0.236892
O O8 0.101946 0.903281 0.009362
O O9 0.386270 0.553885 0.171116
O O10 0.344606 0.222054 0.278663
O O11 0.159661 0.907708 0.599356
O O12 0.105816 0.384220 0.756172
O O13 0.000000 0.000000 0.500000
O O14 0.751453 0.227679 0.812377
O O15 0.734393 0.748816 0.113686
O O16 0.296937 0.117321 0.537801
O O17 0.000000 0.500000 0.000000
#
# Coordination Sequence:
#
# PCOD9009839 Si02
#       8
#     2   2   2   2   2   2   2   2
#     4   9  20  41  66  93 125 162 205 256 308 372
#     4  10  21  40  60  86 121 159 209 252 306 366
#     4   9  20  39  66  95 124 162 206 252 311 373
#     4  11  22  40  58  85 122 161 203 251 305 361
#     4  10  22  41  66  89 126 167 202 253 313 368
#     4  11  24  41  62  94 126 161 212 256 306 372
#     4  11  23  40  62  95 126 162 205 257 308 368
#     4   9  21  37  61  85 113 160 204 256 308 362
#
# _framework density 25.033897
#
# number of rings (size 3 to 8) (size 9 to 14) (size 15 to 20)
#    0.000    2.000    1.250    1.125    0.000   15.000 
#    2.250    1.250    0.000    0.000    0.000    0.000 
#    0.000    0.000    0.000    0.000    0.000    0.000 
#
# Total GULP energy -89272.622920 kJ/mol
# GULP energy per Si atom -5579.538932 kJ/mol
# Density = 2.497692 g / cm^3
# Si number density = 25.033897 Si / 1000 Ang^3
#
#
#
# Elastic Constant Matrix: (Units=GPa)
#
#
# Indices 1 2 3 4 5 6 
#
# 1 135.6486 49.3107 34.2249 -39.6976 25.7817 -41.8595
# 2 49.3107 89.8009 37.1953 -42.0262 17.2435 -36.3547
# 3 34.2249 37.1953 89.2281 -19.0188 8.7599 -17.7821
# 4 -39.6976 -42.0262 -19.0188 43.9163 -8.3478 19.9397
# 5 25.7817 17.2435 8.7599 -8.3478 31.4746 -18.2321
# 6 -41.8595 -36.3547 -17.7821 19.9397 -18.2321 44.4669
#
#
#
# Elastic Compliance Matrix: (Units=1/GPa)
#
#
# Indices 1 2 3 4 5 6 
#
# 1 0.012643 0.000987 -0.001851 0.007684 -0.004468 0.006691
# 2 0.000987 0.026178 -0.004931 0.018275 -0.002471 0.011151
# 3 -0.001851 -0.004931 0.013880 -0.000349 0.000293 0.000054
# 4 0.007684 0.018275 -0.000349 0.046500 -0.004184 -0.000532
# 5 -0.004468 -0.002471 0.000293 -0.004184 0.043465 0.013589
# 6 0.006691 0.011151 0.000054 -0.000532 0.013589 0.043736
#
#
# Mechanical properties :
#
#
# Convention : Reuss Voigt Hill
#
# Bulk Modulus (GPa) = 24.32425 61.79326 43.05876
# Shear Modulus (GPa) = 23.61897 36.90134 30.26016
#
# Velocity S-wave (km/s) = 3.07494 3.84351 3.48050
# Velocity P-wave (km/s) = 4.72701 6.66589 5.77836
#
# Compressibility (1/GPa) = 0.04111123
#
# Stress axis : x y z
#
# Youngs Moduli (GPa) = 79.09646 38.20066 72.04569
#
# Poissons Ratio (x) = -0.03771 0.13335
# Poissons Ratio (y) = -0.07807 0.35523
# Poissons Ratio (z) = 0.14640 0.18836
#
# Static dielectric constant tensor:
#      x y z
#    x 2.176690 -0.062770 -0.058770 
#    y -0.062770 2.224510 -0.097910 
#    z -0.058770 -0.097910 2.298060 
# 
# From -- ./inp_files/37555.got.cif
#   From: 2010.05.17/outbox.cif.g08.bks.cpg/sg2_19_cif.got.tgz:37555.got - 2010.06.03 11:33:40.
