data_PCOD9009587
_publ_section_title
;
Structure prediction by ZEFSAII (Michael W. Deem and Ramdas Pophale) SiO2 
 PCOD9009587
Probable space group: P -1
;
_chemical_formula_sum "Si O2"
_cell_formula_units_Z 14
_cell_length_a 6.946810
_cell_length_b 24.104145
_cell_length_c 14.879134
_cell_angle_alpha 160.165679
_cell_angle_beta 51.767516
_cell_angle_gamma 126.984749
_cell_volume 662.261266
_symmetry_space_group_name_H-M "P -1"
_symmetry_group_IT_number 2
_symmetry_cell_setting 'triclinic'
loop_
_space_group_symop_operation_xyz
x,y,z
-x,-y,-z
loop_
_atom_site_type_symbol
_atom_site_label
_atom_site_fract_x
_atom_site_fract_y
_atom_site_fract_z
Si Si1 0.862106 0.467289 0.399216
Si Si2 0.439819 0.252372 0.143805
Si Si3 0.616352 0.036011 0.620395
Si Si4 0.714804 0.444128 0.731392
Si Si5 0.834693 0.658142 0.300357
Si Si6 0.870439 0.776375 0.277005
Si Si7 0.961556 0.816066 0.695129
O O1 0.718105 0.292485 0.157699
O O2 0.654113 0.596309 0.653815
O O3 0.000000 0.500000 0.500000
O O4 0.070949 0.503364 0.320592
O O5 0.268460 0.246065 0.270721
O O6 0.428637 0.103628 0.850381
O O7 0.842290 0.175050 0.752987
O O8 0.500000 0.000000 0.500000
O O9 0.728217 0.886516 0.414962
O O10 0.445526 0.418989 0.730490
O O11 0.794991 0.275277 0.491591
O O12 0.752768 0.591773 0.015379
O O13 0.852799 0.783172 0.400683
O O14 0.902063 0.764322 0.531535
O O15 0.000000 0.500000 0.000000
O O16 0.000000 0.000000 0.000000
#
# Coordination Sequence:
#
# PCOD9009587 Si02
#       7
#     2   2   2   2   2   2   2
#     4  10  21  39  70  93 131 176 224 287 346 408
#     4  10  23  43  65  99 136 173 233 280 342 425
#     4  11  27  44  72 101 143 188 228 299 351 418
#     4  11  24  45  68 104 138 181 245 290 352 434
#     4  12  27  45  77 101 141 194 237 298 357 423
#     4  11  26  45  69 107 136 182 249 282 357 426
#     4  11  27  46  68 106 145 187 235 293 360 425
#
# _framework density 21.139692
#
# number of rings (size 3 to 8) (size 9 to 14) (size 15 to 20)
#    0.000    1.143    2.857    1.286    8.000    0.571 
#    2.571    0.000    0.000    0.000    0.000    0.000 
#    0.000    0.000    0.000    0.000    0.000    0.000 
#
# Total GULP energy -78063.056738 kJ/mol
# GULP energy per Si atom -5575.932624 kJ/mol
# Density = 2.109158 g / cm^3
# Si number density = 21.139692 Si / 1000 Ang^3
#
#
#
# Elastic Constant Matrix: (Units=GPa)
#
#
# Indices 1 2 3 4 5 6 
#
# 1 160.0256 42.6593 66.2986 -12.4192 18.0493 -8.2147
# 2 42.6593 55.6603 27.1406 -8.2382 5.7645 -11.2916
# 3 66.2986 27.1406 115.6288 -11.7251 19.0478 -10.9248
# 4 -12.4192 -8.2382 -11.7251 35.7859 -4.9569 10.8208
# 5 18.0493 5.7645 19.0478 -4.9569 31.7963 -9.5431
# 6 -8.2147 -11.2916 -10.9248 10.8208 -9.5431 44.7190
#
#
#
# Elastic Compliance Matrix: (Units=1/GPa)
#
#
# Indices 1 2 3 4 5 6 
#
# 1 0.009533 -0.005303 -0.003859 0.000871 -0.002377 -0.001249
# 2 -0.005303 0.024157 -0.002289 0.001846 0.001631 0.004468
# 3 -0.003859 -0.002289 0.012312 0.001425 -0.004417 0.000433
# 4 0.000871 0.001846 0.001425 0.031224 0.001292 -0.006305
# 5 -0.002377 0.001631 -0.004417 0.001292 0.037317 0.006547
# 6 -0.001249 0.004468 0.000433 -0.006305 0.006547 0.026289
#
#
# Mechanical properties :
#
#
# Convention : Reuss Voigt Hill
#
# Bulk Modulus (GPa) = 43.29100 67.05685 55.17393
# Shear Modulus (GPa) = 29.16581 35.47466 32.32023
#
# Velocity S-wave (km/s) = 3.71842 4.10091 3.91434
# Velocity P-wave (km/s) = 6.24168 7.36295 6.82538
#
# Compressibility (1/GPa) = 0.02309949
#
# Stress axis : x y z
#
# Youngs Moduli (GPa) = 104.89658 41.39572 81.22381
#
# Poissons Ratio (x) = 0.21951 0.31348
# Poissons Ratio (y) = 0.55623 0.18593
# Poissons Ratio (z) = 0.40484 0.09476
#
# Static dielectric constant tensor:
#      x y z
#    x 1.777510 0.010790 0.012680 
#    y 0.010790 1.776870 0.047440 
#    z 0.012680 0.047440 1.829170 
# 
# From -- ./inp_files/72238.got.cif
#   From: 2010.05.17/outbox.cif.g08.bks.cpg/sg2_37_cif.got.tgz:72238.got - 2010.06.03 11:33:40.
