data_PCOD9009206
_publ_section_title
;
Structure prediction by ZEFSAII (Michael W. Deem and Ramdas Pophale) SiO2 
 PCOD9009206
Probable space group: P -1
;
_chemical_formula_sum "Si O2"
_cell_formula_units_Z 14
_cell_length_a 5.320484
_cell_length_b 14.472640
_cell_length_c 24.484490
_cell_angle_alpha 160.284086
_cell_angle_beta 60.267993
_cell_angle_gamma 121.207001
_cell_volume 543.780253
_symmetry_space_group_name_H-M "P -1"
_symmetry_group_IT_number 2
_symmetry_cell_setting 'triclinic'
loop_
_space_group_symop_operation_xyz
x,y,z
-x,-y,-z
loop_
_atom_site_type_symbol
_atom_site_label
_atom_site_fract_x
_atom_site_fract_y
_atom_site_fract_z
Si Si1 0.651199 0.507055 0.547131
Si Si2 0.166161 0.750863 0.334107
Si Si3 0.232332 0.346381 0.200864
Si Si4 0.847538 0.757350 0.144616
Si Si5 0.741396 0.603979 0.958264
Si Si6 0.399799 0.008057 0.904185
Si Si7 0.649851 0.160368 0.453150
O O1 0.500000 0.500000 0.500000
O O2 0.583217 0.777399 0.737072
O O3 0.522305 0.250495 0.459075
O O4 0.000000 0.500000 0.500000
O O5 0.155643 0.550624 0.274947
O O6 0.046098 0.560306 0.189435
O O7 0.484856 0.918678 0.375963
O O8 0.000000 0.000000 0.500000
O O9 0.327273 0.559347 0.358269
O O10 0.940144 0.144940 0.140153
O O11 0.443247 0.164226 0.045133
O O12 0.502094 0.636700 0.123815
O O13 0.920450 0.021931 0.323394
O O14 0.882361 0.801732 0.101068
O O15 0.000000 0.500000 0.000000
O O16 0.588621 0.768148 0.020989
#
# Coordination Sequence:
#
# PCOD9009206 Si02
#       7
#     2   2   2   2   2   2   2
#     4  12  27  46  72 107 147 193 240 301 361 441
#     4  10  21  39  67  95 135 182 231 298 356 425
#     4  10  22  43  72 102 141 189 239 303 360 433
#     4  10  22  39  66  94 131 178 223 288 348 418
#     4   9  21  42  62  95 132 179 228 280 354 427
#     4  10  22  45  70  98 146 187 240 290 373 431
#     4  11  24  42  66 106 134 179 244 290 360 427
#
# _framework density 25.745691999999998
#
# number of rings (size 3 to 8) (size 9 to 14) (size 15 to 20)
#    0.000    1.714    0.000    3.000    4.000    0.571 
#    2.571    1.429    0.000    0.000    0.000    0.000 
#    0.000    0.000    0.000    0.000    0.000    0.000 
#
# Total GULP energy -78220.454327 kJ/mol
# GULP energy per Si atom -5587.175309 kJ/mol
# Density = 2.568709 g / cm^3
# Si number density = 25.745692 Si / 1000 Ang^3
#
#
#
# Elastic Constant Matrix: (Units=GPa)
#
#
# Indices 1 2 3 4 5 6 
#
# 1 65.5050 34.1207 40.0292 -23.4453 2.4666 -5.3999
# 2 34.1207 123.3923 43.5425 2.1898 15.0633 -23.4700
# 3 40.0292 43.5425 213.8587 -51.7422 -21.2053 -5.4349
# 4 -23.4453 2.1898 -51.7422 63.3618 3.5366 7.1199
# 5 2.4666 15.0633 -21.2053 3.5366 41.2163 5.0386
# 6 -5.3999 -23.4700 -5.4349 7.1199 5.0386 39.1136
#
#
#
# Elastic Compliance Matrix: (Units=1/GPa)
#
#
# Indices 1 2 3 4 5 6 
#
# 1 0.021667 -0.006233 -0.000974 0.007690 0.000101 -0.002297
# 2 -0.006233 0.013818 -0.003671 -0.006396 -0.007117 0.009002
# 3 -0.000974 -0.003671 0.007467 0.005920 0.005105 -0.003035
# 4 0.007690 -0.006396 0.005920 0.024247 0.003679 -0.006841
# 5 0.000101 -0.007117 0.005105 0.003679 0.030159 -0.008102
# 6 -0.002297 0.009002 -0.003035 -0.006841 -0.008102 0.032518
#
#
# Mechanical properties :
#
#
# Convention : Reuss Voigt Hill
#
# Bulk Modulus (GPa) = 47.18135 70.90452 59.04293
# Shear Modulus (GPa) = 31.50612 47.74257 39.62435
#
# Velocity S-wave (km/s) = 3.50200 4.31094 3.92735
# Velocity P-wave (km/s) = 5.89217 7.23733 6.59912
#
# Compressibility (1/GPa) = 0.02119482
#
# Stress axis : x y z
#
# Youngs Moduli (GPa) = 46.15225 72.36933 133.91788
#
# Poissons Ratio (x) = 0.45111 0.13048
# Poissons Ratio (y) = 0.28769 0.49163
# Poissons Ratio (z) = 0.04497 0.26568
#
# Static dielectric constant tensor:
#      x y z
#    x 2.138030 0.126980 0.047550 
#    y 0.126980 2.112600 -0.014730 
#    z 0.047550 -0.014730 2.148230 
# 
# From -- ./inp_files/369565.got.cif
#   From: 2010.05.17/outbox.cif.g08.bks.cpg/sg2_185_cif.got.tgz:369565.got - 2010.06.03 11:33:40.
