data_PCOD9009082
_publ_section_title
;
Structure prediction by ZEFSAII (Michael W. Deem and Ramdas Pophale) SiO2 
 PCOD9009082
Probable space group: P -1
;
_chemical_formula_sum "Si O2"
_cell_formula_units_Z 14
_cell_length_a 13.979213
_cell_length_b 6.262500
_cell_length_c 15.310214
_cell_angle_alpha 81.156386
_cell_angle_beta 29.357203
_cell_angle_gamma 68.136013
_cell_volume 565.212667
_symmetry_space_group_name_H-M "P -1"
_symmetry_group_IT_number 2
_symmetry_cell_setting 'triclinic'
loop_
_space_group_symop_operation_xyz
x,y,z
-x,-y,-z
loop_
_atom_site_type_symbol
_atom_site_label
_atom_site_fract_x
_atom_site_fract_y
_atom_site_fract_z
Si Si1 0.369406 0.409474 0.439101
Si Si2 0.130476 0.182713 0.718998
Si Si3 0.768106 0.340288 0.304636
Si Si4 0.767184 0.541729 0.117014
Si Si5 0.784347 0.248899 0.858993
Si Si6 0.423553 0.831866 0.125879
Si Si7 0.505945 0.059270 0.206778
O O1 0.352145 0.203348 0.527018
O O2 0.189720 0.640080 0.626636
O O3 0.581650 0.449673 0.259758
O O4 0.347704 0.316463 0.366725
O O5 0.021842 0.189638 0.711306
O O6 0.165149 0.937445 0.752872
O O7 0.939998 0.406723 0.910502
O O8 0.500000 0.500000 0.500000
O O9 0.851726 0.447112 0.153973
O O10 0.645287 0.836808 0.178849
O O11 0.774030 0.172293 0.772300
O O12 0.619848 0.545171 0.983943
O O13 0.678724 0.114245 0.010962
O O14 0.391228 0.947727 0.240599
O O15 0.500000 0.000000 0.000000
#
# Coordination Sequence:
#
# PCOD9009082 Si02
#       7
#     2   2   2   2   2   2   2
#     4  11  24  40  64  91 135 169 216 270 324 376
#     4  12  24  41  68  97 128 175 224 269 324 386
#     4  10  25  44  62  95 134 176 222 271 322 382
#     4  11  24  43  64  95 129 176 226 266 327 378
#     4  10  21  39  67 101 129 168 218 267 327 390
#     4   9  19  37  68  99 131 168 212 267 330 390
#     4  11  20  41  67  94 135 174 213 269 328 387
#
# _framework density 24.769438999999998
#
# number of rings (size 3 to 8) (size 9 to 14) (size 15 to 20)
#    0.000    1.429    2.857    2.143    2.000    5.714 
#    0.000    0.714    0.000   12.857    0.000    0.000 
#    0.000    0.000    0.000    0.000    0.000    0.000 
#
# Total GULP energy -78114.322054 kJ/mol
# GULP energy per Si atom -5579.594432 kJ/mol
# Density = 2.471306 g / cm^3
# Si number density = 24.769439 Si / 1000 Ang^3
#
#
#
# Elastic Constant Matrix: (Units=GPa)
#
#
# Indices 1 2 3 4 5 6 
#
# 1 111.0406 34.9938 10.3379 6.5963 9.4818 28.4109
# 2 34.9938 122.1515 20.6947 -9.2053 -9.1070 9.2985
# 3 10.3379 20.6947 87.0146 -7.3393 10.8126 17.2481
# 4 6.5963 -9.2053 -7.3393 28.6771 12.2927 7.7033
# 5 9.4818 -9.1070 10.8126 12.2927 31.0109 8.0050
# 6 28.4109 9.2985 17.2481 7.7033 8.0050 43.4651
#
#
#
# Elastic Compliance Matrix: (Units=1/GPa)
#
#
# Indices 1 2 3 4 5 6 
#
# 1 0.012026 -0.003363 0.001103 -0.000365 -0.003113 -0.006941
# 2 -0.003363 0.009983 -0.002343 0.001614 0.004152 -0.000058
# 3 0.001103 -0.002343 0.014701 0.007639 -0.007630 -0.006002
# 4 -0.000365 0.001614 0.007639 0.047707 -0.018895 -0.008114
# 5 -0.003113 0.004152 -0.007630 -0.018895 0.044754 -0.000719
# 6 -0.006941 -0.000058 -0.006002 -0.008114 -0.000719 0.031509
#
#
# Mechanical properties :
#
#
# Convention : Reuss Voigt Hill
#
# Bulk Modulus (GPa) = 36.35890 50.25108 43.30499
# Shear Modulus (GPa) = 27.92458 37.57598 32.75028
#
# Velocity S-wave (km/s) = 3.36129 3.89913 3.64016
# Velocity P-wave (km/s) = 5.45666 6.37201 5.93202
#
# Compressibility (1/GPa) = 0.02750358
#
# Stress axis : x y z
#
# Youngs Moduli (GPa) = 83.14984 100.17382 68.02409
#
# Poissons Ratio (x) = 0.33693 -0.07504
# Poissons Ratio (y) = 0.27967 0.15937
# Poissons Ratio (z) = -0.09172 0.23469
#
# Static dielectric constant tensor:
#      x y z
#    x 2.124470 0.055960 0.000290 
#    y 0.055960 1.998700 -0.031620 
#    z 0.000290 -0.031620 1.943220 
# 
# From -- ./inp_files/88560.got.cif
#   From: 2010.05.17/outbox.cif.g08.bks.cpg/sg2_45_cif.got.tgz:88560.got - 2010.06.03 11:33:40.
