data_PCOD9009164
_publ_section_title
;
Structure prediction by ZEFSAII (Michael W. Deem and Ramdas Pophale) SiO2 
 PCOD9009164
Probable space group: P -1
;
_chemical_formula_sum "Si O2"
_cell_formula_units_Z 14
_cell_length_a 8.188362
_cell_length_b 11.822561
_cell_length_c 8.249768
_cell_angle_alpha 55.284427
_cell_angle_beta 81.214678
_cell_angle_gamma 57.003055
_cell_volume 536.038055
_symmetry_space_group_name_H-M "P -1"
_symmetry_group_IT_number 2
_symmetry_cell_setting 'triclinic'
loop_
_space_group_symop_operation_xyz
x,y,z
-x,-y,-z
loop_
_atom_site_type_symbol
_atom_site_label
_atom_site_fract_x
_atom_site_fract_y
_atom_site_fract_z
Si Si1 0.977814 0.075037 0.217549
Si Si2 0.779214 0.786294 0.966824
Si Si3 0.629691 0.574772 0.115620
Si Si4 0.255831 0.770951 0.212732
Si Si5 0.964684 0.676929 0.371699
Si Si6 0.386200 0.732125 0.687599
Si Si7 0.575156 0.903735 0.398919
O O1 0.819490 0.102500 0.353441
O O2 0.060437 0.187059 0.161248
O O3 0.850840 0.140318 0.015106
O O4 0.167204 0.899844 0.269259
O O5 0.558144 0.946779 0.829241
O O6 0.793466 0.618380 0.060087
O O7 0.835029 0.777815 0.151888
O O8 0.485135 0.675007 0.208658
O O9 0.665700 0.395181 0.264712
O O10 0.517936 0.648938 0.899271
O O11 0.173690 0.657020 0.351090
O O12 0.813780 0.796818 0.435652
O O13 0.000000 0.500000 0.500000
O O14 0.512169 0.773203 0.520765
O O15 0.500000 0.000000 0.500000
#
# Coordination Sequence:
#
# PCOD9009164 Si02
#       7
#     2   2   2   2   2   2   2
#     4   9  20  37  63  91 129 165 220 264 322 385
#     4  11  25  43  70 101 130 176 226 275 322 396
#     4  10  21  39  67  93 132 172 219 266 333 389
#     4   9  19  37  64  90 124 174 212 266 323 388
#     4  11  25  46  68  97 136 176 223 274 331 391
#     4  10  21  41  62  94 134 176 208 270 337 392
#     4  12  24  43  71 100 134 174 223 272 331 395
#
# _framework density 26.117547999999999
#
# number of rings (size 3 to 8) (size 9 to 14) (size 15 to 20)
#    0.000    1.714    1.429    2.143    8.000    2.286 
#    5.143    1.429    0.000    0.000    0.000    0.000 
#    0.000    0.000    0.000    0.000    0.000    0.000 
#
# Total GULP energy -78374.105513 kJ/mol
# GULP energy per Si atom -5598.150394 kJ/mol
# Density = 2.605810 g / cm^3
# Si number density = 26.117548 Si / 1000 Ang^3
#
#
#
# Elastic Constant Matrix: (Units=GPa)
#
#
# Indices 1 2 3 4 5 6 
#
# 1 69.4197 14.1076 14.9235 1.5527 -15.5009 19.7232
# 2 14.1076 85.7552 21.0260 3.9491 -16.4182 11.0070
# 3 14.9235 21.0260 76.7193 -11.7141 -1.6080 -1.2586
# 4 1.5527 3.9491 -11.7141 29.3353 6.4159 -8.0113
# 5 -15.5009 -16.4182 -1.6080 6.4159 47.2646 -8.3545
# 6 19.7232 11.0070 -1.2586 -8.0113 -8.3545 44.7986
#
#
#
# Elastic Compliance Matrix: (Units=1/GPa)
#
#
# Indices 1 2 3 4 5 6 
#
# 1 0.019324 0.000598 -0.004986 -0.006787 0.005716 -0.008943
# 2 0.000598 0.014621 -0.005042 -0.006289 0.005224 -0.004148
# 3 -0.004986 -0.005042 0.016894 0.009778 -0.003246 0.005052
# 4 -0.006787 -0.006289 0.009778 0.044017 -0.008078 0.011173
# 5 0.005716 0.005224 -0.003246 -0.008078 0.025738 -0.000536
# 6 -0.008943 -0.004148 0.005052 0.011173 -0.000536 0.029318
#
#
# Mechanical properties :
#
#
# Convention : Reuss Voigt Hill
#
# Bulk Modulus (GPa) = 31.27000 36.88981 34.07990
# Shear Modulus (GPa) = 27.86551 36.40218 32.13384
#
# Velocity S-wave (km/s) = 3.26993 3.73739 3.51145
# Velocity P-wave (km/s) = 5.12400 5.72532 5.43299
#
# Compressibility (1/GPa) = 0.03197953
#
# Stress axis : x y z
#
# Youngs Moduli (GPa) = 51.74814 68.39417 59.19193
#
# Poissons Ratio (x) = -0.04092 0.29513
# Poissons Ratio (y) = -0.03096 0.29846
# Poissons Ratio (z) = 0.25802 0.34486
#
# Static dielectric constant tensor:
#      x y z
#    x 2.040200 0.017870 0.015810 
#    y 0.017870 2.017250 -0.014020 
#    z 0.015810 -0.014020 2.116510 
# 
# From -- ./inp_files/185034.got.cif
#   From: 2010.05.17/outbox.cif.g08.bks.cpg/sg2_93_cif.got.tgz:185034.got - 2010.06.03 11:33:40.
