data_PCOD9009790
_publ_section_title
;
Structure prediction by ZEFSAII (Michael W. Deem and Ramdas Pophale) SiO2 
 PCOD9009790
Probable space group: P -1
;
_chemical_formula_sum "Si O2"
_cell_formula_units_Z 12
_cell_length_a 4.930735
_cell_length_b 11.247471
_cell_length_c 9.999115
_cell_angle_alpha 112.944778
_cell_angle_beta 78.375504
_cell_angle_gamma 95.007237
_cell_volume 500.162280
_symmetry_space_group_name_H-M "P -1"
_symmetry_group_IT_number 2
_symmetry_cell_setting 'triclinic'
loop_
_space_group_symop_operation_xyz
x,y,z
-x,-y,-z
loop_
_atom_site_type_symbol
_atom_site_label
_atom_site_fract_x
_atom_site_fract_y
_atom_site_fract_z
Si Si1 0.862272 0.107033 0.412412
Si Si2 0.632669 0.070080 0.698471
Si Si3 0.114935 0.429930 0.086990
Si Si4 0.601877 0.257297 0.033936
Si Si5 0.845047 0.544544 0.403327
Si Si6 0.526414 0.286000 0.340681
O O1 0.771084 0.141783 0.588189
O O2 0.770618 0.214205 0.362416
O O3 0.666087 0.983511 0.339702
O O4 0.170594 0.053253 0.352736
O O5 0.613892 0.151446 0.870798
O O6 0.055934 0.530531 0.255514
O O7 0.421046 0.374487 0.042701
O O8 0.000000 0.500000 0.000000
O O9 0.911598 0.304420 0.061232
O O10 0.465118 0.220304 0.174986
O O11 0.617985 0.431588 0.350538
O O12 0.705590 0.679582 0.510822
O O13 0.000000 0.500000 0.500000
#
# Coordination Sequence:
#
# PCOD9009790 Si02
#       6
#     2   2   2   2   2   2
#     4  10  23  41  63  88 118 160 203 244 306 350
#     4  10  23  42  60  90 121 154 206 251 289 364
#     4  11  24  39  61  92 122 162 201 242 303 356
#     4  11  23  41  61  89 126 154 201 255 293 355
#     4  10  21  40  59  89 127 155 203 244 295 368
#     4  10  23  38  62  90 121 163 197 249 302 355
#
# _framework density 23.992214000000001
#
# number of rings (size 3 to 8) (size 9 to 14) (size 15 to 20)
#    0.000    1.667    1.667    1.500    4.667    2.667 
#    0.000    0.000    0.000    0.000    0.000    0.000 
#    0.000    0.000    0.000    0.000    0.000    0.000 
#
# Total GULP energy -67078.581732 kJ/mol
# GULP energy per Si atom -5589.881811 kJ/mol
# Density = 2.393761 g / cm^3
# Si number density = 23.992214 Si / 1000 Ang^3
#
#
#
# Elastic Constant Matrix: (Units=GPa)
#
#
# Indices 1 2 3 4 5 6 
#
# 1 73.8754 4.8732 10.8741 8.3241 4.7534 -19.3626
# 2 4.8732 88.3709 51.4067 -4.8181 -2.2583 -27.5211
# 3 10.8741 51.4067 213.9812 15.3162 13.7563 -15.4573
# 4 8.3241 -4.8181 15.3162 35.2838 -8.9862 9.7153
# 5 4.7534 -2.2583 13.7563 -8.9862 27.7545 -1.0808
# 6 -19.3626 -27.5211 -15.4573 9.7153 -1.0808 43.5127
#
#
#
# Elastic Compliance Matrix: (Units=1/GPa)
#
#
# Indices 1 2 3 4 5 6 
#
# 1 0.017447 0.001464 0.000479 -0.008426 -0.005422 0.010607
# 2 0.001464 0.016584 -0.003771 0.001962 0.003971 0.009462
# 3 0.000479 -0.003771 0.006311 -0.004950 -0.005079 0.001050
# 4 -0.008426 0.001962 -0.004950 0.040549 0.016682 -0.012906
# 5 -0.005422 0.003971 -0.005079 0.016682 0.045033 -0.004311
# 6 0.010607 0.009462 0.001050 -0.012906 -0.004311 0.036833
#
#
# Mechanical properties :
#
#
# Convention : Reuss Voigt Hill
#
# Bulk Modulus (GPa) = 27.25637 56.72618 41.99127
# Shear Modulus (GPa) = 27.98912 41.91510 34.95211
#
# Velocity S-wave (km/s) = 3.41925 4.18428 3.82096
# Velocity P-wave (km/s) = 5.19360 6.85851 6.08328
#
# Compressibility (1/GPa) = 0.03668867
#
# Stress axis : x y z
#
# Youngs Moduli (GPa) = 57.31502 60.29990 158.44097
#
# Poissons Ratio (x) = -0.08830 -0.07596
# Poissons Ratio (y) = -0.08393 0.59744
# Poissons Ratio (z) = -0.02748 0.22738
#
# Static dielectric constant tensor:
#      x y z
#    x 1.960640 0.108740 -0.054990 
#    y 0.108740 1.946980 -0.018680 
#    z -0.054990 -0.018680 1.928600 
# 
# From -- ./inp_files/19110.got.cif
#   From: 2010.05.17/outbox.cif.g08.bks.cpg/sg2_10_cif.got.tgz:19110.got - 2010.06.03 11:33:40.
