data_PCOD9009394
_publ_section_title
;
Structure prediction by ZEFSAII (Michael W. Deem and Ramdas Pophale) SiO2 
 PCOD9009394
Probable space group: P -1
;
_chemical_formula_sum "Si O2"
_cell_formula_units_Z 16
_cell_length_a 5.682275
_cell_length_b 11.541360
_cell_length_c 13.614262
_cell_angle_alpha 62.150622
_cell_angle_beta 120.727050
_cell_angle_gamma 124.337137
_cell_volume 613.276488
_symmetry_space_group_name_H-M "P -1"
_symmetry_group_IT_number 2
_symmetry_cell_setting 'triclinic'
loop_
_space_group_symop_operation_xyz
x,y,z
-x,-y,-z
loop_
_atom_site_type_symbol
_atom_site_label
_atom_site_fract_x
_atom_site_fract_y
_atom_site_fract_z
Si Si1 0.005969 0.648016 0.671377
Si Si2 0.003898 0.914853 0.897779
Si Si3 0.376068 0.927953 0.255817
Si Si4 0.287023 0.578730 0.953758
Si Si5 0.547490 0.338150 0.684654
Si Si6 0.091538 0.121611 0.331573
Si Si7 0.136588 0.841629 0.457528
Si Si8 0.438460 0.779590 0.076028
O O1 0.773049 0.496240 0.636662
O O2 0.224626 0.752402 0.592471
O O3 0.168170 0.614872 0.811932
O O4 0.827802 0.736959 0.642796
O O5 0.852530 0.857783 0.781141
O O6 0.310437 0.065461 0.895530
O O7 0.124888 0.798505 0.003593
O O8 0.794967 0.988169 0.866581
O O9 0.313027 0.777122 0.251895
O O10 0.265920 0.875434 0.363078
O O11 0.725337 0.037620 0.289097
O O12 0.500000 0.500000 0.000000
O O13 0.474742 0.725423 0.997195
O O14 0.000000 0.500000 0.000000
O O15 0.221571 0.261673 0.595037
O O16 0.524540 0.337730 0.797842
O O17 0.188538 0.000706 0.442385
#
# Coordination Sequence:
#
# PCOD9009394 Si02
#       8
#     2   2   2   2   2   2   2   2
#     4  12  25  45  70 102 144 190 233 304 378 439
#     4  10  21  39  68  96 130 184 243 294 354 430
#     4  10  21  41  67  96 138 181 244 304 352 435
#     4  12  29  50  71 108 154 195 239 299 380 451
#     4  11  23  43  69 103 139 184 239 304 368 440
#     4  10  21  44  63 101 135 179 243 300 363 433
#     4  10  23  46  69  98 135 187 249 298 359 440
#     4  11  21  43  69  99 136 183 243 299 361 433
#
# _framework density 26.089376000000001
#
# number of rings (size 3 to 8) (size 9 to 14) (size 15 to 20)
#    0.000    1.250    6.250    0.750    1.750    2.500 
#    4.500    0.000    0.000    0.000    0.000    0.000 
#    0.000    0.000    0.000    0.000    0.000    0.000 
#
# Total GULP energy -89515.480742 kJ/mol
# GULP energy per Si atom -5594.717546 kJ/mol
# Density = 2.603000 g / cm^3
# Si number density = 26.089376 Si / 1000 Ang^3
#
#
#
# Elastic Constant Matrix: (Units=GPa)
#
#
# Indices 1 2 3 4 5 6 
#
# 1 78.5812 34.8060 30.5461 -13.0416 14.3709 -16.3650
# 2 34.8060 128.1459 25.6543 -7.9612 1.4192 -9.9499
# 3 30.5461 25.6543 163.9022 -8.5442 3.8124 3.8469
# 4 -13.0416 -7.9612 -8.5442 42.7055 0.8520 -7.8708
# 5 14.3709 1.4192 3.8124 0.8520 31.0354 -3.1708
# 6 -16.3650 -9.9499 3.8469 -7.8708 -3.1708 34.0938
#
#
#
# Elastic Compliance Matrix: (Units=1/GPa)
#
#
# Indices 1 2 3 4 5 6 
#
# 1 0.020050 -0.003605 -0.002860 0.006831 -0.007962 0.009731
# 2 -0.003605 0.009062 -0.000777 0.000641 0.001464 0.001286
# 3 -0.002860 -0.000777 0.006799 -0.000099 0.000286 -0.002363
# 4 0.006831 0.000641 -0.000099 0.027418 -0.002959 0.009531
# 5 -0.007962 0.001464 0.000286 -0.002959 0.035807 -0.000779
# 6 0.009731 0.001286 -0.002363 0.009531 -0.000779 0.036772
#
#
# Mechanical properties :
#
#
# Convention : Reuss Voigt Hill
#
# Bulk Modulus (GPa) = 46.66916 61.40466 54.03691
# Shear Modulus (GPa) = 31.73891 40.20848 35.97370
#
# Velocity S-wave (km/s) = 3.49169 3.93005 3.71733
# Velocity P-wave (km/s) = 5.84661 6.64688 6.25955
#
# Compressibility (1/GPa) = 0.02142743
#
# Stress axis : x y z
#
# Youngs Moduli (GPa) = 49.87410 110.35230 147.07073
#
# Poissons Ratio (x) = 0.39786 0.42056
# Poissons Ratio (y) = 0.17981 0.11432
# Poissons Ratio (z) = 0.14262 0.08578
#
# Static dielectric constant tensor:
#      x y z
#    x 2.161810 0.023770 -0.007650 
#    y 0.023770 2.037730 0.028190 
#    z -0.007650 0.028190 2.060380 
# 
# From -- ./inp_files/482771.got.cif
#   From: 2010.05.17/outbox.cif.g08.bks.cpg/sg2_242_cif.got.tgz:482771.got - 2010.06.03 11:33:40.
