data_PCOD9009090
_publ_section_title
;
Structure prediction by ZEFSAII (Michael W. Deem and Ramdas Pophale) SiO2 
 PCOD9009090
Probable space group: P -1
;
_chemical_formula_sum "Si O2"
_cell_formula_units_Z 16
_cell_length_a 11.803623
_cell_length_b 10.569260
_cell_length_c 8.742726
_cell_angle_alpha 127.525753
_cell_angle_beta 49.630082
_cell_angle_gamma 109.836877
_cell_volume 656.280895
_symmetry_space_group_name_H-M "P -1"
_symmetry_group_IT_number 2
_symmetry_cell_setting 'triclinic'
loop_
_space_group_symop_operation_xyz
x,y,z
-x,-y,-z
loop_
_atom_site_type_symbol
_atom_site_label
_atom_site_fract_x
_atom_site_fract_y
_atom_site_fract_z
Si Si1 0.427652 0.693218 0.045657
Si Si2 0.723559 0.019090 0.488439
Si Si3 0.862568 0.688638 0.261656
Si Si4 0.987259 0.869206 0.545948
Si Si5 0.105118 0.690499 0.786658
Si Si6 0.735417 0.540662 0.759357
Si Si7 0.852625 0.872554 0.979497
Si Si8 0.658646 0.401536 0.264723
O O1 0.421697 0.867485 0.256983
O O2 0.337574 0.573305 0.138792
O O3 0.596800 0.613929 0.831227
O O4 0.356526 0.706325 0.950057
O O5 0.854020 0.130391 0.508980
O O6 0.760010 0.851067 0.421966
O O7 0.741573 0.977091 0.264177
O O8 0.937311 0.720198 0.384091
O O9 0.765548 0.540922 0.240912
O O10 0.991553 0.661312 0.002207
O O11 0.870659 0.914224 0.816782
O O12 0.000000 0.000000 0.500000
O O13 0.143350 0.559668 0.525267
O O14 0.264674 0.699021 0.736191
O O15 0.015176 0.842582 0.898069
O O16 0.801195 0.691389 0.890686
O O17 0.500000 0.500000 0.500000
#
# Coordination Sequence:
#
# PCOD9009090 Si02
#       8
#     2   2   2   2   2   2   2   2
#     4  11  24  43  67  98 146 184 232 283 356 412
#     4  10  22  42  66  97 139 185 229 288 345 415
#     4  10  23  42  72 102 138 183 235 289 349 412
#     4  10  21  39  67 101 138 174 224 286 346 412
#     4  11  22  40  69 105 130 180 231 292 345 401
#     4  11  24  42  68 103 137 187 232 292 342 422
#     4  11  23  41  69 100 138 175 241 283 354 407
#     4  12  24  44  70 103 143 183 235 286 353 419
#
# _framework density 24.379804
#
# number of rings (size 3 to 8) (size 9 to 14) (size 15 to 20)
#    0.000    1.250    1.250    4.875    0.000    5.500 
#    0.000    0.625    8.250    0.000    0.000    0.000 
#    0.000    0.000    0.000    0.000    0.000    0.000 
#
# Total GULP energy -89535.229760 kJ/mol
# GULP energy per Si atom -5595.951860 kJ/mol
# Density = 2.432431 g / cm^3
# Si number density = 24.379804 Si / 1000 Ang^3
#
#
#
# Elastic Constant Matrix: (Units=GPa)
#
#
# Indices 1 2 3 4 5 6 
#
# 1 97.2768 24.4397 39.8980 1.5065 16.0293 -9.2926
# 2 24.4397 67.3688 34.2029 9.5331 -10.8296 -17.4472
# 3 39.8980 34.2029 177.5983 17.2721 19.7307 -2.8570
# 4 1.5065 9.5331 17.2721 28.3829 -8.4249 3.0366
# 5 16.0293 -10.8296 19.7307 -8.4249 46.4892 1.5533
# 6 -9.2926 -17.4472 -2.8570 3.0366 1.5533 18.3514
#
#
#
# Elastic Compliance Matrix: (Units=1/GPa)
#
#
# Indices 1 2 3 4 5 6 
#
# 1 0.012994 -0.003866 -0.001564 -0.000215 -0.004860 0.003108
# 2 -0.003866 0.026272 -0.003992 -0.006497 0.007206 0.022863
# 3 -0.001564 -0.003992 0.007603 -0.004231 -0.004306 -0.002339
# 4 -0.000215 -0.006497 -0.004231 0.044242 0.008876 -0.015016
# 5 -0.004860 0.007206 -0.004306 0.008876 0.028305 -0.000145
# 6 0.003108 0.022863 -0.002339 -0.015016 -0.000145 0.079935
#
#
# Mechanical properties :
#
#
# Convention : Reuss Voigt Hill
#
# Bulk Modulus (GPa) = 35.68234 59.92499 47.80367
# Shear Modulus (GPa) = 21.97459 34.89157 28.43308
#
# Velocity S-wave (km/s) = 3.00550 3.78718 3.41875
# Velocity P-wave (km/s) = 5.16835 6.61489 5.93585
#
# Compressibility (1/GPa) = 0.02802507
#
# Stress axis : x y z
#
# Youngs Moduli (GPa) = 76.96131 38.06386 131.52633
#
# Poissons Ratio (x) = 0.14715 0.20568
# Poissons Ratio (y) = 0.29752 0.52505
# Poissons Ratio (z) = 0.12035 0.15195
#
# Static dielectric constant tensor:
#      x y z
#    x 1.989960 0.004760 -0.001780 
#    y 0.004760 1.989260 0.029690 
#    z -0.001780 0.029690 1.929120 
# 
# From -- ./inp_files/263289.got.cif
#   From: 2010.05.17/outbox.cif.g08.bks.cpg/sg2_132_cif.got.tgz:263289.got - 2010.06.03 11:33:40.
