data_PCOD9009625
_publ_section_title
;
Structure prediction by ZEFSAII (Michael W. Deem and Ramdas Pophale) SiO2 
 PCOD9009625
Probable space group: P -1
;
_chemical_formula_sum "Si O2"
_cell_formula_units_Z 14
_cell_length_a 11.793222
_cell_length_b 8.004815
_cell_length_c 11.445227
_cell_angle_alpha 132.249457
_cell_angle_beta 41.244076
_cell_angle_gamma 124.273117
_cell_volume 523.586909
_symmetry_space_group_name_H-M "P -1"
_symmetry_group_IT_number 2
_symmetry_cell_setting 'triclinic'
loop_
_space_group_symop_operation_xyz
x,y,z
-x,-y,-z
loop_
_atom_site_type_symbol
_atom_site_label
_atom_site_fract_x
_atom_site_fract_y
_atom_site_fract_z
Si Si1 0.690826 0.734213 0.213885
Si Si2 0.398871 0.039154 0.294985
Si Si3 0.184259 0.719039 0.184159
Si Si4 0.169009 0.369249 0.486400
Si Si5 0.021745 0.233762 0.848928
Si Si6 0.387362 0.592881 0.237937
Si Si7 0.247037 0.832145 0.790204
O O1 0.495987 0.635549 0.294732
O O2 0.774194 0.771477 0.294191
O O3 0.712582 0.965870 0.236423
O O4 0.790021 0.538717 0.986986
O O5 0.274828 0.206881 0.409179
O O6 0.585242 0.163097 0.250539
O O7 0.373306 0.852090 0.120755
O O8 0.351098 0.841891 0.339226
O O9 0.086274 0.839326 0.215004
O O10 0.962817 0.290587 0.607519
O O11 0.233652 0.417685 0.326044
O O12 0.192386 0.600811 0.654674
O O13 0.917091 0.115051 0.981405
O O14 0.000000 0.500000 0.000000
O O15 0.500000 0.500000 0.000000
#
# Coordination Sequence:
#
# PCOD9009625 Si02
#       7
#     2   2   2   2   2   2   2
#     4  10  22  44  75 100 145 183 246 290 342 430
#     4  11  27  47  71 106 148 184 238 297 356 422
#     4  11  24  47  70 107 143 190 235 294 353 416
#     4  12  27  45  71 105 148 187 238 286 365 428
#     4  10  21  39  71 104 139 183 235 290 343 419
#     4  11  26  48  73 104 138 189 236 302 356 417
#     4  11  24  43  72 110 136 197 230 296 355 414
#
# _framework density 26.738636
#
# number of rings (size 3 to 8) (size 9 to 14) (size 15 to 20)
#    0.000    1.143    4.286    1.286    4.000    8.571 
#    0.000    0.000    0.000    0.000    0.000    0.000 
#    0.000    0.000    0.000    0.000    0.000    0.000 
#
# Total GULP energy -78119.375650 kJ/mol
# GULP energy per Si atom -5579.955404 kJ/mol
# Density = 2.667778 g / cm^3
# Si number density = 26.738636 Si / 1000 Ang^3
#
#
#
# Elastic Constant Matrix: (Units=GPa)
#
#
# Indices 1 2 3 4 5 6 
#
# 1 151.6566 -2.5104 -4.9038 5.9171 6.9819 21.1876
# 2 -2.5104 68.0946 34.2865 5.6108 -0.1602 -9.4226
# 3 -4.9038 34.2865 94.5502 3.8627 -3.0736 -14.6424
# 4 5.9171 5.6108 3.8627 62.1803 -10.4812 -0.3151
# 5 6.9819 -0.1602 -3.0736 -10.4812 31.1672 3.4572
# 6 21.1876 -9.4226 -14.6424 -0.3151 3.4572 46.4880
#
#
#
# Elastic Compliance Matrix: (Units=1/GPa)
#
#
# Indices 1 2 3 4 5 6 
#
# 1 0.007145 -0.000043 -0.000121 -0.000951 -0.001578 -0.003192
# 2 -0.000043 0.018228 -0.006313 -0.001442 -0.001205 0.001806
# 3 -0.000121 -0.006313 0.013344 -0.000070 0.000964 0.002906
# 4 -0.000951 -0.001442 -0.000070 0.017326 0.006049 -0.000214
# 5 -0.001578 -0.001205 0.000964 0.006049 0.034757 -0.001765
# 6 -0.003192 0.001806 0.002906 -0.000214 -0.001765 0.024377
#
#
# Mechanical properties :
#
#
# Convention : Reuss Voigt Hill
#
# Bulk Modulus (GPa) = 38.81395 40.89400 39.85397
# Shear Modulus (GPa) = 36.57153 47.12902 41.85028
#
# Velocity S-wave (km/s) = 3.70231 4.20287 3.96050
# Velocity P-wave (km/s) = 5.72920 6.23532 5.98761
#
# Compressibility (1/GPa) = 0.02576393
#
# Stress axis : x y z
#
# Youngs Moduli (GPa) = 139.95863 54.85948 74.94194
#
# Poissons Ratio (x) = 0.00235 0.00905
# Poissons Ratio (y) = 0.00601 0.47310
# Poissons Ratio (z) = 0.01689 0.34632
#
# Static dielectric constant tensor:
#      x y z
#    x 2.177460 0.029760 0.050280 
#    y 0.029760 2.079440 -0.038510 
#    z 0.050280 -0.038510 2.206660 
# 
# From -- ./inp_files/419910.got.cif
#   From: 2010.05.17/outbox.cif.g08.bks.cpg/sg2_210_cif.got.tgz:419910.got - 2010.06.03 11:33:40.
