data_PCOD9009737
_publ_section_title
;
Structure prediction by ZEFSAII (Michael W. Deem and Ramdas Pophale) SiO2 
 PCOD9009737
Probable space group: P -1
;
_chemical_formula_sum "Si O2"
_cell_formula_units_Z 14
_cell_length_a 9.924871
_cell_length_b 8.003502
_cell_length_c 13.280037
_cell_angle_alpha 86.072522
_cell_angle_beta 66.505233
_cell_angle_gamma 133.215946
_cell_volume 606.072532
_symmetry_space_group_name_H-M "P -1"
_symmetry_group_IT_number 2
_symmetry_cell_setting 'triclinic'
loop_
_space_group_symop_operation_xyz
x,y,z
-x,-y,-z
loop_
_atom_site_type_symbol
_atom_site_label
_atom_site_fract_x
_atom_site_fract_y
_atom_site_fract_z
Si Si1 0.166257 0.098531 0.352716
Si Si2 0.805075 0.947170 0.193262
Si Si3 0.063491 0.294946 0.738393
Si Si4 0.004404 0.730186 0.689526
Si Si5 0.447704 0.134123 0.399014
Si Si6 0.396838 0.794755 0.273847
Si Si7 0.154394 0.780155 0.995343
O O1 0.052879 0.854479 0.326756
O O2 0.166326 0.261457 0.276967
O O3 0.400823 0.236419 0.325392
O O4 0.000000 0.000000 0.500000
O O5 0.923810 0.194695 0.219489
O O6 0.861830 0.818769 0.229396
O O7 0.527683 0.743346 0.278911
O O8 0.893258 0.083049 0.051695
O O9 0.295880 0.612565 0.644329
O O10 0.901079 0.242630 0.870742
O O11 0.854782 0.455900 0.690141
O O12 0.248234 0.972155 0.548746
O O13 0.405994 0.928499 0.358457
O O14 0.577521 0.016490 0.124392
O O15 0.000000 0.500000 0.000000
#
# Coordination Sequence:
#
# PCOD9009737 Si02
#       7
#     2   2   2   2   2   2   2
#     4   9  22  39  60  90 120 155 201 243 291 359
#     4   9  22  38  62  87 117 159 200 249 292 354
#     4  11  20  41  63  90 119 161 199 242 304 344
#     4  10  21  40  58  89 120 158 202 242 302 348
#     4  11  22  36  63  90 123 159 195 247 298 359
#     4  10  22  38  57  88 124 156 199 247 292 352
#     4  10  21  42  60  87 123 155 205 244 294 359
#
# _framework density 23.099547000000001
#
# number of rings (size 3 to 8) (size 9 to 14) (size 15 to 20)
#    0.857    1.143    1.429    1.714    0.000   10.286 
#    2.571    2.857    0.000    0.000    0.000    0.000 
#    0.000    0.000    0.000    0.000    0.000    0.000 
#
# Total GULP energy -78132.823048 kJ/mol
# GULP energy per Si atom -5580.915932 kJ/mol
# Density = 2.304697 g / cm^3
# Si number density = 23.099547 Si / 1000 Ang^3
#
#
#
# Elastic Constant Matrix: (Units=GPa)
#
#
# Indices 1 2 3 4 5 6 
#
# 1 50.3205 -3.5745 1.0412 2.7559 9.0185 6.4582
# 2 -3.5745 121.2136 12.7745 17.9986 6.1521 14.3241
# 3 1.0412 12.7745 53.7562 17.8123 5.4026 9.3099
# 4 2.7559 17.9986 17.8123 37.9300 -1.3663 1.7540
# 5 9.0185 6.1521 5.4026 -1.3663 17.9528 4.3853
# 6 6.4582 14.3241 9.3099 1.7540 4.3853 32.4630
#
#
#
# Elastic Compliance Matrix: (Units=1/GPa)
#
#
# Indices 1 2 3 4 5 6 
#
# 1 0.022945 0.002159 0.002359 -0.004040 -0.012227 -0.004324
# 2 0.002159 0.009670 0.000360 -0.004870 -0.003898 -0.004010
# 3 0.002359 0.000360 0.024173 -0.011714 -0.008048 -0.005841
# 4 -0.004040 -0.004870 -0.011714 0.034648 0.009075 0.003214
# 5 -0.012227 -0.003898 -0.008048 0.009075 0.067046 -0.003087
# 6 -0.004324 -0.004010 -0.005841 0.003214 -0.003087 0.035352
#
#
# Mechanical properties :
#
#
# Convention : Reuss Voigt Hill
#
# Bulk Modulus (GPa) = 15.02749 27.30810 21.16780
# Shear Modulus (GPa) = 24.24127 32.00575 28.12351
#
# Velocity S-wave (km/s) = 3.24300 3.72635 3.49304
# Velocity P-wave (km/s) = 4.53237 5.51015 5.04501
#
# Compressibility (1/GPa) = 0.06654471
#
# Stress axis : x y z
#
# Youngs Moduli (GPa) = 43.58293 103.40754 41.36845
#
# Poissons Ratio (x) = -0.22331 -0.09758
# Poissons Ratio (y) = -0.09412 -0.01489
# Poissons Ratio (z) = -0.10280 -0.03723
#
# Static dielectric constant tensor:
#      x y z
#    x 1.978160 -0.058000 0.033420 
#    y -0.058000 1.888570 -0.012740 
#    z 0.033420 -0.012740 1.819680 
# 
# From -- ./inp_files/514428.got.cif
#   From: 2010.05.17/outbox.cif.g08.bks.cpg/sg2_258_cif.got.tgz:514428.got - 2010.06.03 11:33:40.
