data_PCOD9009279
_publ_section_title
;
Structure prediction by ZEFSAII (Michael W. Deem and Ramdas Pophale) SiO2 
 PCOD9009279
Probable space group: P -1
;
_chemical_formula_sum "Si O2"
_cell_formula_units_Z 12
_cell_length_a 9.229178
_cell_length_b 8.742000
_cell_length_c 8.603177
_cell_angle_alpha 51.240931
_cell_angle_beta 75.721015
_cell_angle_gamma 95.757665
_cell_volume 493.841981
_symmetry_space_group_name_H-M "P -1"
_symmetry_group_IT_number 2
_symmetry_cell_setting 'triclinic'
loop_
_space_group_symop_operation_xyz
x,y,z
-x,-y,-z
loop_
_atom_site_type_symbol
_atom_site_label
_atom_site_fract_x
_atom_site_fract_y
_atom_site_fract_z
Si Si1 0.021863 0.173391 0.712822
Si Si2 0.063419 0.412468 0.229975
Si Si3 0.796757 0.103459 0.082736
Si Si4 0.352041 0.334309 0.054066
Si Si5 0.449211 0.941481 0.228066
Si Si6 0.762893 0.491514 0.312166
O O1 0.022388 0.301958 0.478566
O O2 0.136518 0.330906 0.708253
O O3 0.090947 0.987191 0.787970
O O4 0.854443 0.084813 0.902197
O O5 0.178087 0.308869 0.183511
O O6 0.891854 0.424250 0.217865
O O7 0.172031 0.653748 0.063361
O O8 0.616536 0.976525 0.246152
O O9 0.376506 0.113213 0.195347
O O10 0.500000 0.500000 0.000000
O O11 0.343593 0.422031 0.827006
O O12 0.338842 0.708178 0.437083
O O13 0.500000 0.000000 0.000000
#
# Coordination Sequence:
#
# PCOD9009279 Si02
#       6
#     2   2   2   2   2   2
#     4  10  22  42  72 100 133 183 229 276 340 406
#     4  11  23  46  69  98 139 180 227 283 336 408
#     4  10  21  39  67  99 136 175 225 272 342 400
#     4  12  28  46  68 102 143 182 225 281 348 400
#     4  12  25  43  71 103 137 176 231 283 340 406
#     4  11  26  43  71 102 138 181 230 280 339 404
#
# _framework density 24.299271000000001
#
# number of rings (size 3 to 8) (size 9 to 14) (size 15 to 20)
#    0.000    1.000    1.667    5.500    2.333    6.667 
#    0.000    0.000    0.000    0.000    0.000    0.000 
#    0.000    0.000    0.000    0.000    0.000    0.000 
#
# Total GULP energy -67226.088544 kJ/mol
# GULP energy per Si atom -5602.174045 kJ/mol
# Density = 2.424396 g / cm^3
# Si number density = 24.299271 Si / 1000 Ang^3
#
#
#
# Elastic Constant Matrix: (Units=GPa)
#
#
# Indices 1 2 3 4 5 6 
#
# 1 130.6690 33.4388 31.6428 -6.8687 -2.6100 -11.5180
# 2 33.4388 50.5048 24.6874 -14.7273 3.4820 -17.8333
# 3 31.6428 24.6874 107.2631 -25.0768 -7.2938 8.1318
# 4 -6.8687 -14.7273 -25.0768 31.0022 5.7998 3.3234
# 5 -2.6100 3.4820 -7.2938 5.7998 44.9202 0.3424
# 6 -11.5180 -17.8333 8.1318 3.3234 0.3424 44.0077
#
#
#
# Elastic Compliance Matrix: (Units=1/GPa)
#
#
# Indices 1 2 3 4 5 6 
#
# 1 0.009619 -0.005960 -0.002063 -0.002632 0.001021 0.000674
# 2 -0.005960 0.033905 -0.004882 0.010491 -0.005216 0.012330
# 3 -0.002063 -0.004882 0.013582 0.008557 0.001402 -0.005685
# 4 -0.002632 0.010491 0.008557 0.044722 -0.005341 -0.001355
# 5 0.001021 -0.005216 0.001402 -0.005341 0.023657 -0.001886
# 6 0.000674 0.012330 -0.005685 -0.001355 -0.001886 0.029064
#
#
# Mechanical properties :
#
#
# Convention : Reuss Voigt Hill
#
# Bulk Modulus (GPa) = 31.95307 51.99723 41.97515
# Shear Modulus (GPa) = 26.20669 37.23055 31.71862
#
# Velocity S-wave (km/s) = 3.28761 3.91854 3.61686
# Velocity P-wave (km/s) = 5.25257 6.47444 5.89525
#
# Compressibility (1/GPa) = 0.03129590
#
# Stress axis : x y z
#
# Youngs Moduli (GPa) = 103.95882 29.49413 73.62716
#
# Poissons Ratio (x) = 0.17579 0.15189
# Poissons Ratio (y) = 0.61961 0.35945
# Poissons Ratio (z) = 0.21446 0.14399
#
# Static dielectric constant tensor:
#      x y z
#    x 1.964040 0.006540 0.005090 
#    y 0.006540 1.977670 0.055420 
#    z 0.005090 0.055420 1.861630 
# 
# From -- ./inp_files/149793.got.cif
#   From: 2010.05.17/outbox.cif.g08.bks.cpg/sg2_75_cif.got.tgz:149793.got - 2010.06.03 11:33:40.
