data_PCOD9009445
_publ_section_title
;
Structure prediction by ZEFSAII (Michael W. Deem and Ramdas Pophale) SiO2 
 PCOD9009445
Probable space group: P -1
;
_chemical_formula_sum "Si O2"
_cell_formula_units_Z 14
_cell_length_a 8.437806
_cell_length_b 20.615656
_cell_length_c 9.083962
_cell_angle_alpha 148.572275
_cell_angle_beta 50.943625
_cell_angle_gamma 137.498880
_cell_volume 556.650737
_symmetry_space_group_name_H-M "P -1"
_symmetry_group_IT_number 2
_symmetry_cell_setting 'triclinic'
loop_
_space_group_symop_operation_xyz
x,y,z
-x,-y,-z
loop_
_atom_site_type_symbol
_atom_site_label
_atom_site_fract_x
_atom_site_fract_y
_atom_site_fract_z
Si Si1 0.306979 0.915564 0.075037
Si Si2 0.377799 0.634712 0.148060
Si Si3 0.334071 0.649176 0.520799
Si Si4 0.802557 0.770203 0.936326
Si Si5 0.936618 0.325207 0.790747
Si Si6 0.751831 0.027237 0.452593
Si Si7 0.195018 0.495788 0.581143
O O1 0.057019 0.841245 0.998113
O O2 0.265717 0.981549 0.375780
O O3 0.370979 0.794722 0.851325
O O4 0.500000 0.000000 0.000000
O O5 0.469034 0.668183 0.327256
O O6 0.601846 0.705812 0.052178
O O7 0.210182 0.701950 0.327695
O O8 0.192974 0.465267 0.910467
O O9 0.352519 0.557017 0.461885
O O10 0.067874 0.572302 0.463475
O O11 0.791667 0.901419 0.122244
O O12 0.768906 0.626328 0.599905
O O13 0.927413 0.185698 0.594712
O O14 0.789475 0.378859 0.083244
O O15 0.500000 0.000000 0.500000
#
# Coordination Sequence:
#
# PCOD9009445 Si02
#       7
#     2   2   2   2   2   2   2
#     4  11  24  44  69  94 136 180 219 276 341 394
#     4  10  21  39  68  99 131 172 221 273 325 398
#     4   9  18  37  64  90 123 174 216 263 326 386
#     4  11  24  42  68 104 132 169 227 284 325 396
#     4  10  21  42  68  94 134 184 213 264 342 391
#     4  12  24  45  69  97 138 180 218 275 336 398
#     4   9  19  38  64  91 127 169 220 269 319 387
#
# _framework density 25.150418999999999
#
# number of rings (size 3 to 8) (size 9 to 14) (size 15 to 20)
#    0.000    1.714    2.857    1.286    2.000    1.143 
#    2.571    0.714    0.000    0.000    0.000    0.000 
#    0.000    0.000    0.000    0.000    0.000    0.000 
#
# Total GULP energy -78227.404086 kJ/mol
# GULP energy per Si atom -5587.671720 kJ/mol
# Density = 2.509318 g / cm^3
# Si number density = 25.150419 Si / 1000 Ang^3
#
#
#
# Elastic Constant Matrix: (Units=GPa)
#
#
# Indices 1 2 3 4 5 6 
#
# 1 79.3718 34.5342 27.9250 8.2134 -7.0131 1.3904
# 2 34.5342 142.2189 37.8985 12.3389 -14.0160 4.0648
# 3 27.9250 37.8985 104.8287 25.5942 -19.6016 -26.2919
# 4 8.2134 12.3389 25.5942 48.8726 -16.0769 -9.0232
# 5 -7.0131 -14.0160 -19.6016 -16.0769 32.9863 4.6756
# 6 1.3904 4.0648 -26.2919 -9.0232 4.6756 43.6388
#
#
#
# Elastic Compliance Matrix: (Units=1/GPa)
#
#
# Indices 1 2 3 4 5 6 
#
# 1 0.015084 -0.002587 -0.003582 -0.000426 0.000126 -0.002499
# 2 -0.002587 0.008647 -0.002698 -0.000229 0.001776 -0.002586
# 3 -0.003582 -0.002698 0.015260 -0.003815 0.004120 0.008329
# 4 -0.000426 -0.000229 -0.003815 0.026284 0.010059 0.002093
# 5 0.000126 0.001776 0.004120 0.010059 0.038408 0.000278
# 6 -0.002499 -0.002586 0.008329 0.002093 0.000278 0.028657
#
#
# Mechanical properties :
#
#
# Convention : Reuss Voigt Hill
#
# Bulk Modulus (GPa) = 47.04380 58.57053 52.80717
# Shear Modulus (GPa) = 31.81464 40.17031 35.99247
#
# Velocity S-wave (km/s) = 3.56051 4.00084 3.78708
# Velocity P-wave (km/s) = 5.97064 6.68438 6.33756
#
# Compressibility (1/GPa) = 0.02125679
#
# Stress axis : x y z
#
# Youngs Moduli (GPa) = 66.29569 115.64215 65.53198
#
# Poissons Ratio (x) = 0.29921 0.23474
# Poissons Ratio (y) = 0.17153 0.17678
# Poissons Ratio (z) = 0.23748 0.31196
#
# Static dielectric constant tensor:
#      x y z
#    x 1.967830 -0.013720 0.023770 
#    y -0.013720 2.071360 -0.005730 
#    z 0.023770 -0.005730 2.126790 
# 
# From -- ./inp_files/216138.got.cif
#   From: 2010.05.17/outbox.cif.g08.bks.cpg/sg2_109_cif.got.tgz:216138.got - 2010.06.03 11:33:40.
