data_PCOD9009299
_publ_section_title
;
Structure prediction by ZEFSAII (Michael W. Deem and Ramdas Pophale) SiO2 
 PCOD9009299
Probable space group: P -1
;
_chemical_formula_sum "Si O2"
_cell_formula_units_Z 16
_cell_length_a 8.493767
_cell_length_b 13.103133
_cell_length_c 9.563662
_cell_angle_alpha 68.624227
_cell_angle_beta 126.160270
_cell_angle_gamma 134.891520
_cell_volume 606.288026
_symmetry_space_group_name_H-M "P -1"
_symmetry_group_IT_number 2
_symmetry_cell_setting 'triclinic'
loop_
_space_group_symop_operation_xyz
x,y,z
-x,-y,-z
loop_
_atom_site_type_symbol
_atom_site_label
_atom_site_fract_x
_atom_site_fract_y
_atom_site_fract_z
Si Si1 0.332445 0.835793 0.433186
Si Si2 0.942624 0.189300 0.161552
Si Si3 0.418213 0.071447 0.059649
Si Si4 0.250574 0.142234 0.494229
Si Si5 0.568219 0.302222 0.211541
Si Si6 0.907376 0.555726 0.718005
Si Si7 0.506053 0.300354 0.793464
Si Si8 0.743816 0.584161 0.303907
O O1 0.517303 0.856509 0.399429
O O2 0.346345 0.737732 0.592329
O O3 0.021877 0.728967 0.315539
O O4 0.500000 0.000000 0.500000
O O5 0.146693 0.165293 0.292857
O O6 0.099610 0.351876 0.214207
O O7 0.793127 0.100453 0.986714
O O8 0.698181 0.113935 0.180265
O O9 0.431015 0.156483 0.888865
O O10 0.363218 0.141406 0.115653
O O11 0.325446 0.260948 0.585601
O O12 0.000000 0.000000 0.500000
O O13 0.596860 0.436502 0.212308
O O14 0.800439 0.372278 0.187754
O O15 0.775232 0.406660 0.803457
O O16 0.796265 0.552597 0.507176
O O17 0.434044 0.373671 0.817827
#
# Coordination Sequence:
#
# PCOD9009299 Si02
#       8
#     2   2   2   2   2   2   2   2
#     4  11  25  40  68 100 130 169 215 274 329 381
#     4  10  22  41  66  94 130 168 218 270 327 370
#     4  10  24  43  64  93 137 179 207 267 325 394
#     4  12  23  40  72 101 122 162 228 282 310 376
#     4  10  23  43  62  88 144 178 207 254 340 392
#     4  10  21  39  68 101 123 168 222 280 314 369
#     4  12  23  38  72 102 126 167 230 266 318 380
#     4  11  22  42  64 100 136 168 212 276 326 379
#
# _framework density 26.390097000000001
#
# number of rings (size 3 to 8) (size 9 to 14) (size 15 to 20)
#    0.000    1.250    2.500    4.125    5.250    2.500 
#    0.000    1.875    5.500    0.000    0.000    0.000 
#    0.000    0.000    0.000    0.000    0.000    0.000 
#
# Total GULP energy -89104.221395 kJ/mol
# GULP energy per Si atom -5569.013837 kJ/mol
# Density = 2.633003 g / cm^3
# Si number density = 26.390097 Si / 1000 Ang^3
#
#
#
# Elastic Constant Matrix: (Units=GPa)
#
#
# Indices 1 2 3 4 5 6 
#
# 1 110.2625 53.7270 23.1950 -1.3697 -0.7647 -17.5351
# 2 53.7270 107.6215 16.1968 14.1265 -12.5367 -24.0370
# 3 23.1950 16.1968 63.9003 6.2098 7.6474 -8.0498
# 4 -1.3697 14.1265 6.2098 43.0673 -14.4922 -14.1196
# 5 -0.7647 -12.5367 7.6474 -14.4922 27.6654 5.0767
# 6 -17.5351 -24.0370 -8.0498 -14.1196 5.0767 59.6992
#
#
#
# Elastic Compliance Matrix: (Units=1/GPa)
#
#
# Indices 1 2 3 4 5 6 
#
# 1 0.013050 -0.006077 -0.003314 0.003469 0.000018 0.001758
# 2 -0.006077 0.013999 -0.001401 -0.001989 0.005013 0.002766
# 3 -0.003314 -0.001401 0.018813 -0.005113 -0.008702 0.000530
# 4 0.003469 -0.001989 -0.005113 0.032109 0.016376 0.005730
# 5 0.000018 0.005013 -0.008702 0.016376 0.049305 0.000531
# 6 0.001758 0.002766 0.000530 0.005730 0.000531 0.019762
#
#
# Mechanical properties :
#
#
# Convention : Reuss Voigt Hill
#
# Bulk Modulus (GPa) = 41.18936 52.00243 46.59589
# Shear Modulus (GPa) = 28.29417 38.66407 33.47912
#
# Velocity S-wave (km/s) = 3.27792 3.83181 3.56564
# Velocity P-wave (km/s) = 5.47432 6.27097 5.88614
#
# Compressibility (1/GPa) = 0.02427812
#
# Stress axis : x y z
#
# Youngs Moduli (GPa) = 76.62647 71.43285 53.15568
#
# Poissons Ratio (x) = 0.43407 0.17618
# Poissons Ratio (y) = 0.46563 0.07446
# Poissons Ratio (z) = 0.25398 0.10007
#
# Static dielectric constant tensor:
#      x y z
#    x 2.119940 -0.006970 -0.104970 
#    y -0.006970 2.017690 -0.027110 
#    z -0.104970 -0.027110 2.102230 
# 
# From -- ./inp_files/390082.got.cif
#   From: 2010.05.17/outbox.cif.g08.bks.cpg/sg2_196_cif.got.tgz:390082.got - 2010.06.03 11:33:40.
