data_PCOD9009517
_publ_section_title
;
Structure prediction by ZEFSAII (Michael W. Deem and Ramdas Pophale) SiO2 
 PCOD9009517
Probable space group: P -1
;
_chemical_formula_sum "Si O2"
_cell_formula_units_Z 16
_cell_length_a 9.553414
_cell_length_b 9.410827
_cell_length_c 20.740767
_cell_angle_alpha 119.626801
_cell_angle_beta 154.115053
_cell_angle_gamma 61.720384
_cell_volume 705.567061
_symmetry_space_group_name_H-M "P -1"
_symmetry_group_IT_number 2
_symmetry_cell_setting 'triclinic'
loop_
_space_group_symop_operation_xyz
x,y,z
-x,-y,-z
loop_
_atom_site_type_symbol
_atom_site_label
_atom_site_fract_x
_atom_site_fract_y
_atom_site_fract_z
Si Si1 0.795883 0.426131 0.025272
Si Si2 0.095907 0.360112 0.759218
Si Si3 0.878575 0.655533 0.640586
Si Si4 0.614133 0.071764 0.496419
Si Si5 0.226971 0.133740 0.100930
Si Si6 0.581921 0.632353 0.861910
Si Si7 0.915509 0.117136 0.432778
Si Si8 0.686735 0.472569 0.404392
O O1 0.462523 0.341395 0.880454
O O2 0.753665 0.512260 0.957821
O O3 0.855454 0.565161 0.133034
O O4 0.083996 0.287217 0.119089
O O5 0.929088 0.506671 0.678624
O O6 0.897051 0.199371 0.641694
O O7 0.699591 0.817558 0.634032
O O8 0.646446 0.602769 0.474009
O O9 0.226146 0.679373 0.756469
O O10 0.500000 0.000000 0.500000
O O11 0.770014 0.912944 0.487496
O O12 0.237018 0.208134 0.049150
O O13 0.594646 0.074800 0.253489
O O14 0.000000 0.000000 0.000000
O O15 0.540723 0.543907 0.755590
O O16 0.803028 0.300591 0.448402
O O17 0.000000 0.000000 0.500000
O O18 0.000000 0.500000 0.500000
#
# Coordination Sequence:
#
# PCOD9009517 Si02
#       8
#     2   2   2   2   2   2   2   2
#     4  10  22  42  66  94 122 179 222 275 314 395
#     4  10  23  41  65  92 133 166 228 266 328 395
#     4  10  21  39  69  95 128 173 217 270 331 393
#     4  12  24  40  63  98 136 171 212 276 340 396
#     4  11  23  40  64  91 133 171 216 268 334 392
#     4   9  20  40  64  97 130 160 226 273 320 389
#     4  11  25  42  62  94 134 168 217 272 330 393
#     4   9  18  36  63  92 121 161 210 267 316 377
#
# _framework density 22.676794000000001
#
# number of rings (size 3 to 8) (size 9 to 14) (size 15 to 20)
#    0.000    1.750    0.000    4.500    5.250    2.000 
#    2.250    0.000    0.000    7.500    0.000    0.000 
#    0.000    0.000    0.000    0.000    0.000    0.000 
#
# Total GULP energy -89199.585210 kJ/mol
# GULP energy per Si atom -5574.974076 kJ/mol
# Density = 2.262518 g / cm^3
# Si number density = 22.676794 Si / 1000 Ang^3
#
#
#
# Elastic Constant Matrix: (Units=GPa)
#
#
# Indices 1 2 3 4 5 6 
#
# 1 100.8246 32.9461 22.0957 -11.9551 2.8341 19.8138
# 2 32.9461 90.2147 21.8161 -20.7399 4.2999 9.4312
# 3 22.0957 21.8161 49.8864 -20.4910 11.2469 3.8234
# 4 -11.9551 -20.7399 -20.4910 41.4372 6.3741 15.9339
# 5 2.8341 4.2999 11.2469 6.3741 40.6320 -5.2791
# 6 19.8138 9.4312 3.8234 15.9339 -5.2791 47.3045
#
#
#
# Elastic Compliance Matrix: (Units=1/GPa)
#
#
# Indices 1 2 3 4 5 6 
#
# 1 0.012983 -0.002564 -0.002152 0.004043 -0.001489 -0.006281
# 2 -0.002564 0.014933 -0.000533 0.009013 -0.003353 -0.005270
# 3 -0.002152 -0.000533 0.034646 0.022705 -0.014380 -0.011046
# 4 0.004043 0.009013 0.022705 0.053859 -0.019298 -0.025621
# 5 -0.001489 -0.003353 -0.014380 -0.019298 0.033730 0.012719
# 6 -0.006281 -0.005270 -0.011046 -0.025621 0.012719 0.035763
#
#
# Mechanical properties :
#
#
# Convention : Reuss Voigt Hill
#
# Bulk Modulus (GPa) = 19.20662 43.84906 31.52784
# Shear Modulus (GPa) = 23.39004 36.81260 30.10132
#
# Velocity S-wave (km/s) = 3.21511 4.03347 3.64731
# Velocity P-wave (km/s) = 4.71918 6.40861 5.62765
#
# Compressibility (1/GPa) = 0.05206537
#
# Stress axis : x y z
#
# Youngs Moduli (GPa) = 77.02329 66.96694 28.86320
#
# Poissons Ratio (x) = 0.17171 0.06210
# Poissons Ratio (y) = 0.19750 0.01537
# Poissons Ratio (z) = 0.16572 0.03567
#
# Static dielectric constant tensor:
#      x y z
#    x 2.004250 -0.132690 0.023350 
#    y -0.132690 2.004970 0.089190 
#    z 0.023350 0.089190 1.941270 
# 
# From -- ./inp_files/588086.got.cif
#   From: 2010.05.17/outbox.cif.g08.bks.cpg/sg2_295_cif.got.tgz:588086.got - 2010.06.03 11:33:40.
