data_PCOD9009433
_publ_section_title
;
Structure prediction by ZEFSAII (Michael W. Deem and Ramdas Pophale) SiO2 
 PCOD9009433
Probable space group: P -1
;
_chemical_formula_sum "Si O2"
_cell_formula_units_Z 16
_cell_length_a 16.345506
_cell_length_b 8.275747
_cell_length_c 13.957880
_cell_angle_alpha 135.488126
_cell_angle_beta 144.694481
_cell_angle_gamma 40.418593
_cell_volume 685.939476
_symmetry_space_group_name_H-M "P -1"
_symmetry_group_IT_number 2
_symmetry_cell_setting 'triclinic'
loop_
_space_group_symop_operation_xyz
x,y,z
-x,-y,-z
loop_
_atom_site_type_symbol
_atom_site_label
_atom_site_fract_x
_atom_site_fract_y
_atom_site_fract_z
Si Si1 0.909057 0.292178 0.439740
Si Si2 0.137750 0.498648 0.309969
Si Si3 0.830585 0.879720 0.086029
Si Si4 0.215866 0.302999 0.663699
Si Si5 0.520117 0.582948 0.447944
Si Si6 0.867495 0.173841 0.080881
Si Si7 0.479912 0.123974 0.138060
Si Si8 0.195458 0.970539 0.236950
O O1 0.899304 0.315599 0.553998
O O2 0.815509 0.574762 0.420568
O O3 0.085691 0.208973 0.532367
O O4 0.837751 0.106986 0.253994
O O5 0.309762 0.427229 0.403918
O O6 0.998788 0.638432 0.160877
O O7 0.140918 0.243606 0.249744
O O8 0.801974 0.005259 0.006757
O O9 0.691799 0.815394 0.960585
O O10 0.183844 0.550071 0.804016
O O11 0.388330 0.084776 0.755723
O O12 0.500000 0.500000 0.500000
O O13 0.510082 0.373939 0.277412
O O14 0.370130 0.850559 0.394606
O O15 0.815084 0.204013 0.933829
O O16 0.057761 0.014462 0.199164
O O17 0.500000 0.000000 0.000000
#
# Coordination Sequence:
#
# PCOD9009433 Si02
#       8
#     2   2   2   2   2   2   2   2
#     4  10  21  39  68  98 131 172 223 274 334 394
#     4  12  24  43  70  96 134 177 227 268 336 405
#     4  11  25  41  68 101 132 177 222 279 332 396
#     4  10  21  41  69  98 133 174 219 280 333 391
#     4  12  29  46  68 100 141 175 223 283 335 399
#     4  10  23  43  68 100 134 174 224 275 331 401
#     4  12  26  43  70  99 139 176 227 278 336 395
#     4  11  25  43  70  96 135 177 222 274 337 402
#
# _framework density 23.325672999999998
#
# number of rings (size 3 to 8) (size 9 to 14) (size 15 to 20)
#    0.000    1.000    1.250    4.500    7.000    3.500 
#    0.000    0.000    0.000    0.000    0.000    0.000 
#    0.000    0.000    0.000    0.000    0.000    0.000 
#
# Total GULP energy -89658.754380 kJ/mol
# GULP energy per Si atom -5603.672149 kJ/mol
# Density = 2.327258 g / cm^3
# Si number density = 23.325673 Si / 1000 Ang^3
#
#
#
# Elastic Constant Matrix: (Units=GPa)
#
#
# Indices 1 2 3 4 5 6 
#
# 1 66.5883 -0.7961 4.8109 -8.3841 15.5421 -1.9774
# 2 -0.7961 89.3751 17.4389 -27.7270 8.6504 -3.7269
# 3 4.8109 17.4389 61.9072 -11.4868 13.2218 -8.7763
# 4 -8.3841 -27.7270 -11.4868 46.8474 -15.0833 5.4280
# 5 15.5421 8.6504 13.2218 -15.0833 49.0515 -0.7577
# 6 -1.9774 -3.7269 -8.7763 5.4280 -0.7577 26.1746
#
#
#
# Elastic Compliance Matrix: (Units=1/GPa)
#
#
# Indices 1 2 3 4 5 6 
#
# 1 0.016436 0.001304 -0.000131 0.002054 -0.004758 0.000820
# 2 0.001304 0.014204 -0.002727 0.008125 0.000308 -0.000470
# 3 -0.000131 -0.002727 0.018793 0.000987 -0.004153 0.005578
# 4 0.002054 0.008125 0.000987 0.029390 0.006622 -0.004260
# 5 -0.004758 0.000308 -0.004153 0.006622 0.024959 -0.002359
# 6 0.000820 -0.000470 0.005578 -0.004260 -0.002359 0.040886
#
#
# Mechanical properties :
#
#
# Convention : Reuss Voigt Hill
#
# Bulk Modulus (GPa) = 21.58707 28.97531 25.28119
# Shear Modulus (GPa) = 30.63398 37.50916 34.07157
#
# Velocity S-wave (km/s) = 3.62790 4.01442 3.82604
# Velocity P-wave (km/s) = 5.17915 5.82550 5.51181
#
# Compressibility (1/GPa) = 0.04632402
#
# Stress axis : x y z
#
# Youngs Moduli (GPa) = 60.84101 70.40385 53.21250
#
# Poissons Ratio (x) = -0.09180 0.00697
# Poissons Ratio (y) = -0.07934 0.14513
# Poissons Ratio (z) = 0.00797 0.19201
#
# Static dielectric constant tensor:
#      x y z
#    x 1.844840 -0.014350 -0.042480 
#    y -0.014350 1.868700 0.031630 
#    z -0.042480 0.031630 1.892410 
# 
# From -- ./inp_files/519837.got.cif
#   From: 2010.05.17/outbox.cif.g08.bks.cpg/sg2_260_cif.got.tgz:519837.got - 2010.06.03 11:33:40.
