data_PCOD9009664
_publ_section_title
;
Structure prediction by ZEFSAII (Michael W. Deem and Ramdas Pophale) SiO2 
 PCOD9009664
Probable space group: P -1
;
_chemical_formula_sum "Si O2"
_cell_formula_units_Z 15
_cell_length_a 12.398248
_cell_length_b 5.107553
_cell_length_c 13.168410
_cell_angle_alpha 86.811390
_cell_angle_beta 128.028292
_cell_angle_gamma 78.683159
_cell_volume 627.041788
_symmetry_space_group_name_H-M "P -1"
_symmetry_group_IT_number 2
_symmetry_cell_setting 'triclinic'
loop_
_space_group_symop_operation_xyz
x,y,z
-x,-y,-z
loop_
_atom_site_type_symbol
_atom_site_label
_atom_site_fract_x
_atom_site_fract_y
_atom_site_fract_z
Si Si1 0.175847 0.900613 0.990601
Si Si2 0.672583 0.842400 0.088177
Si Si3 0.399751 0.803734 0.454994
Si Si4 0.757997 0.819519 0.804013
Si Si5 0.000000 0.500000 0.000000
Si Si6 0.414517 0.421168 0.147512
Si Si7 0.842178 0.708185 0.399112
Si Si8 0.281441 0.723067 0.603023
O O1 0.130898 0.162429 0.037452
O O2 0.336120 0.731471 0.126535
O O3 0.079927 0.703907 0.960996
O O4 0.221808 0.001322 0.907946
O O5 0.755388 0.728744 0.241973
O O6 0.657599 0.626015 0.998405
O O7 0.500000 0.000000 0.000000
O O8 0.500000 0.500000 0.500000
O O9 0.279632 0.935542 0.299316
O O10 0.328474 0.810683 0.521651
O O11 0.500000 0.000000 0.500000
O O12 0.866161 0.537267 0.836645
O O13 0.625407 0.763179 0.784425
O O14 0.582653 0.346090 0.241012
O O15 0.758269 0.556447 0.427636
O O16 0.000000 0.500000 0.500000
O O17 0.832722 0.013995 0.421308
#
# Coordination Sequence:
#
# PCOD9009664 Si02
#       8
#     2   2   2   2   1   2   2   2
#     4  10  22  40  66 103 137 179 234 294 355 432
#     4  11  23  42  73 102 133 182 242 300 358 416
#     4  12  25  43  73 107 141 183 232 295 366 430
#     4  10  22  41  65  99 142 178 233 289 359 431
#     4  10  22  42  64  96 142 188 222 294 360 442
#     4  10  21  39  72 105 131 175 238 304 351 420
#     4  12  29  50  70 100 149 193 242 300 361 436
#     4  12  25  47  73 104 144 189 242 298 366 426
#
# _framework density 23.921848000000001
#
# number of rings (size 3 to 8) (size 9 to 14) (size 15 to 20)
#    0.000    1.067    2.667    3.200    5.600    2.133 
#    7.200    0.000    0.000    0.000    0.000    0.000 
#    0.000    0.000    0.000    0.000    0.000    0.000 
#
# Total GULP energy -83508.266178 kJ/mol
# GULP energy per Si atom -5567.217745 kJ/mol
# Density = 2.386740 g / cm^3
# Si number density = 23.921848 Si / 1000 Ang^3
#
#
#
# Elastic Constant Matrix: (Units=GPa)
#
#
# Indices 1 2 3 4 5 6 
#
# 1 123.2611 32.0398 43.2527 -14.1572 2.2511 11.6736
# 2 32.0398 113.9739 29.1581 -18.5403 2.0308 11.7117
# 3 43.2527 29.1581 119.2723 -27.2628 -4.6937 -11.7896
# 4 -14.1572 -18.5403 -27.2628 27.6749 -2.2704 2.8076
# 5 2.2511 2.0308 -4.6937 -2.2704 45.1580 -9.4476
# 6 11.6736 11.7117 -11.7896 2.8076 -9.4476 44.8934
#
#
#
# Elastic Compliance Matrix: (Units=1/GPa)
#
#
# Indices 1 2 3 4 5 6 
#
# 1 0.010206 -0.001398 -0.003537 0.001041 -0.001515 -0.003602
# 2 -0.001398 0.010735 -0.001216 0.005536 -0.000952 -0.003303
# 3 -0.003537 -0.001216 0.012762 0.009727 0.003012 0.004614
# 4 0.001041 0.005536 0.009727 0.050367 0.002886 -0.001703
# 5 -0.001515 -0.000952 0.003012 0.002886 0.024042 0.006312
# 6 -0.003602 -0.003303 0.004614 -0.001703 0.006312 0.026720
#
#
# Mechanical properties :
#
#
# Convention : Reuss Voigt Hill
#
# Bulk Modulus (GPa) = 46.72631 62.82315 54.77473
# Shear Modulus (GPa) = 32.41165 40.34904 36.38034
#
# Velocity S-wave (km/s) = 3.68489 4.11140 3.90397
# Velocity P-wave (km/s) = 6.13839 6.98978 6.57787
#
# Compressibility (1/GPa) = 0.02140122
#
# Stress axis : x y z
#
# Youngs Moduli (GPa) = 97.98496 93.15489 78.35722
#
# Poissons Ratio (x) = 0.13019 0.27714
# Poissons Ratio (y) = 0.13694 0.09529
# Poissons Ratio (z) = 0.34656 0.11329
#
# Static dielectric constant tensor:
#      x y z
#    x 2.054990 -0.166550 0.065960 
#    y -0.166550 2.211640 -0.045420 
#    z 0.065960 -0.045420 2.018850 
# 
# From -- ./inp_files/510835.got.cif
#   From: 2010.05.17/outbox.cif.g08.bks.cpg/sg2_256_cif.got.tgz:510835.got - 2010.06.03 11:33:40.
