data_PCOD9009154
_publ_section_title
;
Structure prediction by ZEFSAII (Michael W. Deem and Ramdas Pophale) SiO2 
 PCOD9009154
Probable space group: P -1
;
_chemical_formula_sum "Si O2"
_cell_formula_units_Z 16
_cell_length_a 8.812951
_cell_length_b 14.312613
_cell_length_c 11.869058
_cell_angle_alpha 65.029758
_cell_angle_beta 114.567332
_cell_angle_gamma 146.389370
_cell_volume 745.089650
_symmetry_space_group_name_H-M "P -1"
_symmetry_group_IT_number 2
_symmetry_cell_setting 'triclinic'
loop_
_space_group_symop_operation_xyz
x,y,z
-x,-y,-z
loop_
_atom_site_type_symbol
_atom_site_label
_atom_site_fract_x
_atom_site_fract_y
_atom_site_fract_z
Si Si1 0.535949 0.821007 0.010882
Si Si2 0.780876 0.667634 0.559925
Si Si3 0.496325 0.141752 0.762120
Si Si4 0.070769 0.744722 0.812230
Si Si5 0.319017 0.172512 0.475918
Si Si6 0.892508 0.152776 0.832577
Si Si7 0.285619 0.980285 0.402917
Si Si8 0.498704 0.566265 0.078401
O O1 0.282707 0.763944 0.913360
O O2 0.807910 0.022138 0.961745
O O3 0.515318 0.806563 0.148029
O O4 0.523896 0.703054 0.011608
O O5 0.500000 0.500000 0.500000
O O6 0.964322 0.679892 0.684038
O O7 0.673160 0.702070 0.595883
O O8 0.991649 0.813813 0.456709
O O9 0.487774 0.211807 0.615304
O O10 0.757295 0.193217 0.810664
O O11 0.235939 0.934478 0.776160
O O12 0.792553 0.601349 0.869852
O O13 0.380253 0.136401 0.402904
O O14 0.000000 0.000000 0.500000
O O15 0.748924 0.046625 0.726572
O O16 0.217120 0.323302 0.827325
O O17 0.500000 0.000000 0.500000
O O18 0.500000 0.500000 0.000000
#
# Coordination Sequence:
#
# PCOD9009154 Si02
#       8
#     2   2   2   2   2   2   2   2
#     4  11  25  42  67  95 122 177 214 254 316 388
#     4  11  24  41  63  96 128 168 215 255 315 381
#     4  11  21  43  69  94 124 167 222 255 309 388
#     4  11  22  43  65  92 129 169 209 264 314 381
#     4  10  21  39  67  93 124 171 213 257 308 379
#     4  11  23  41  67  95 129 165 208 270 315 375
#     4  11  20  41  65  95 126 163 212 260 317 364
#     4  12  26  42  60  96 134 163 209 266 322 370
#
# _framework density 21.473925000000001
#
# number of rings (size 3 to 8) (size 9 to 14) (size 15 to 20)
#    0.000    1.000    3.750    5.250    5.250    1.000 
#    0.000    0.625    0.000    0.000    0.000    0.000 
#    0.000    0.000    0.000    0.000    0.000    0.000 
#
# Total GULP energy -89369.873155 kJ/mol
# GULP energy per Si atom -5585.617072 kJ/mol
# Density = 2.142505 g / cm^3
# Si number density = 21.473925 Si / 1000 Ang^3
#
#
#
# Elastic Constant Matrix: (Units=GPa)
#
#
# Indices 1 2 3 4 5 6 
#
# 1 99.8325 26.9819 9.2539 9.4261 -5.0408 -8.0510
# 2 26.9819 72.7703 0.4902 18.9762 10.7131 24.3323
# 3 9.2539 0.4902 66.3315 20.7021 -8.6653 -4.9256
# 4 9.4261 18.9762 20.7021 34.0937 0.0672 -12.7300
# 5 -5.0408 10.7131 -8.6653 0.0672 34.3177 6.7241
# 6 -8.0510 24.3323 -4.9256 -12.7300 6.7241 31.1649
#
#
#
# Elastic Compliance Matrix: (Units=1/GPa)
#
#
# Indices 1 2 3 4 5 6 
#
# 1 0.017283 -0.023250 -0.007215 0.024081 0.001871 0.030910
# 2 -0.023250 0.078955 0.022488 -0.088359 -0.002695 -0.099608
# 3 -0.007215 0.022488 0.026148 -0.038360 0.004869 -0.032009
# 4 0.024081 -0.088359 -0.038360 0.143123 -0.004019 0.128474
# 5 0.001871 -0.002695 0.004869 -0.004019 0.032532 -0.005304
# 6 0.030910 -0.099608 -0.032009 0.128474 -0.005304 0.166406
#
#
# Mechanical properties :
#
#
# Convention : Reuss Voigt Hill
#
# Bulk Modulus (GPa) = 9.39570 34.70959 22.05264
# Shear Modulus (GPa) = 9.69221 33.39580 21.54400
#
# Velocity S-wave (km/s) = 2.12680 3.94785 3.17087
# Velocity P-wave (km/s) = 3.22737 6.08107 4.86803
#
# Compressibility (1/GPa) = 0.10643171
#
# Stress axis : x y z
#
# Youngs Moduli (GPa) = 57.86058 12.66543 38.24439
#
# Poissons Ratio (x) = 0.29447 0.27594
# Poissons Ratio (y) = 1.34526 -0.86005
# Poissons Ratio (z) = 0.41748 -0.28482
#
# Static dielectric constant tensor:
#      x y z
#    x 1.803820 0.004460 -0.012810 
#    y 0.004460 1.734740 -0.041930 
#    z -0.012810 -0.041930 1.824800 
# 
# From -- ./inp_files/206270.got.cif
#   From: 2010.05.17/outbox.cif.g08.bks.cpg/sg2_104_cif.got.tgz:206270.got - 2010.06.03 11:33:40.
