data_PCOD9009989
_publ_section_title
;
Structure prediction by ZEFSAII (Michael W. Deem and Ramdas Pophale) SiO2 
 PCOD9009989
Probable space group: P -1
;
_chemical_formula_sum "Si O2"
_cell_formula_units_Z 14
_cell_length_a 5.189176
_cell_length_b 10.302127
_cell_length_c 20.671408
_cell_angle_alpha 40.146794
_cell_angle_beta 103.907318
_cell_angle_gamma 87.747636
_cell_volume 646.210106
_symmetry_space_group_name_H-M "P -1"
_symmetry_group_IT_number 2
_symmetry_cell_setting 'triclinic'
loop_
_space_group_symop_operation_xyz
x,y,z
-x,-y,-z
loop_
_atom_site_type_symbol
_atom_site_label
_atom_site_fract_x
_atom_site_fract_y
_atom_site_fract_z
Si Si1 0.622751 0.785063 0.899819
Si Si2 0.612182 0.374475 0.475960
Si Si3 0.597381 0.790227 0.354879
Si Si4 0.430349 0.560269 0.747843
Si Si5 0.855652 0.597621 0.649963
Si Si6 0.265961 0.614954 0.036572
Si Si7 0.890793 0.948209 0.428582
O O1 0.656310 0.615940 0.907260
O O2 0.541408 0.020817 0.775492
O O3 0.387131 0.757414 0.943673
O O4 0.925931 0.713077 0.981127
O O5 0.742464 0.561810 0.415294
O O6 0.613601 0.270028 0.585706
O O7 0.295658 0.483346 0.386372
O O8 0.775446 0.178222 0.513120
O O9 0.774443 0.873995 0.384620
O O10 0.673752 0.583409 0.706909
O O11 0.583486 0.420007 0.871795
O O12 0.192362 0.486953 0.726039
O O13 0.239676 0.797894 0.671696
O O14 0.816569 0.836389 0.529690
#
# Coordination Sequence:
#
# PCOD9009989 Si02
#       7
#     2   2   2   2   2   2   2
#     4  10  21  40  61  89 121 152 201 256 307 352
#     4  10  23  40  60  95 125 166 205 240 303 375
#     4  10  22  39  64  92 125 163 200 257 302 363
#     4  12  23  38  64  89 127 160 198 253 306 359
#     4  11  24  39  59  90 128 162 201 243 302 369
#     4  10  22  38  61  91 118 155 202 252 308 357
#     4  11  22  37  62  93 125 159 201 249 306 371
#
# _framework density 21.664778999999999
#
# number of rings (size 3 to 8) (size 9 to 14) (size 15 to 20)
#    0.000    1.429    2.857    2.143    6.000    1.143 
#    0.000    0.000    0.000    5.143    0.000    0.000 
#    0.000    0.000    0.000    0.000    0.000    0.000 
#
# Total GULP energy -78157.815079 kJ/mol
# GULP energy per Si atom -5582.701077 kJ/mol
# Density = 2.161547 g / cm^3
# Si number density = 21.664779 Si / 1000 Ang^3
#
#
#
# Elastic Constant Matrix: (Units=GPa)
#
#
# Indices 1 2 3 4 5 6 
#
# 1 98.3469 14.6863 20.5332 4.7799 3.0299 1.3111
# 2 14.6863 44.0611 24.8808 12.3191 -1.6699 5.5037
# 3 20.5332 24.8808 114.8183 11.5270 -6.0085 11.7586
# 4 4.7799 12.3191 11.5270 30.4240 11.7076 3.2843
# 5 3.0299 -1.6699 -6.0085 11.7076 26.6530 11.7300
# 6 1.3111 5.5037 11.7586 3.2843 11.7300 29.4163
#
#
#
# Elastic Compliance Matrix: (Units=1/GPa)
#
#
# Indices 1 2 3 4 5 6 
#
# 1 0.011063 -0.003480 -0.001756 0.001423 -0.003402 0.002058
# 2 -0.003480 0.031024 -0.003384 -0.014169 0.010910 -0.007065
# 3 -0.001756 -0.003384 0.011254 -0.004776 0.007343 -0.006182
# 4 0.001423 -0.014169 -0.004776 0.050117 -0.028692 0.010343
# 5 -0.003402 0.010910 0.007343 -0.028692 0.064962 -0.027526
# 6 0.002058 -0.007065 -0.006182 0.010343 -0.027526 0.047518
#
#
# Mechanical properties :
#
#
# Convention : Reuss Voigt Hill
#
# Bulk Modulus (GPa) = 27.69971 41.93631 34.81801
# Shear Modulus (GPa) = 20.39079 30.44040 25.41560
#
# Velocity S-wave (km/s) = 3.07122 3.75248 3.42881
# Velocity P-wave (km/s) = 5.03884 6.17849 5.63754
#
# Compressibility (1/GPa) = 0.03610146
#
# Stress axis : x y z
#
# Youngs Moduli (GPa) = 90.39513 32.23331 88.86113
#
# Poissons Ratio (x) = 0.11216 0.15604
# Poissons Ratio (y) = 0.31455 0.30067
# Poissons Ratio (z) = 0.15873 0.10906
#
# Static dielectric constant tensor:
#      x y z
#    x 1.845410 0.019590 0.028130 
#    y 0.019590 1.877760 0.029430 
#    z 0.028130 0.029430 1.742830 
# 
# From -- ./inp_files/83790.got.cif
#   From: 2010.05.17/outbox.cif.g08.bks.cpg/sg2_42_cif.got.tgz:83790.got - 2010.06.03 11:33:40.
