data_PCOD9009174
_publ_section_title
;
Structure prediction by ZEFSAII (Michael W. Deem and Ramdas Pophale) SiO2 
 PCOD9009174
Probable space group: P -1
;
_chemical_formula_sum "Si O2"
_cell_formula_units_Z 14
_cell_length_a 15.168490
_cell_length_b 8.254721
_cell_length_c 8.414458
_cell_angle_alpha 124.235799
_cell_angle_beta 135.048708
_cell_angle_gamma 47.150407
_cell_volume 538.960355
_symmetry_space_group_name_H-M "P -1"
_symmetry_group_IT_number 2
_symmetry_cell_setting 'triclinic'
loop_
_space_group_symop_operation_xyz
x,y,z
-x,-y,-z
loop_
_atom_site_type_symbol
_atom_site_label
_atom_site_fract_x
_atom_site_fract_y
_atom_site_fract_z
Si Si1 0.180018 0.745508 0.019761
Si Si2 0.110220 0.653457 0.380558
Si Si3 0.055389 0.238694 0.453073
Si Si4 0.586742 0.913844 0.817790
Si Si5 0.329921 0.262147 0.823747
Si Si6 0.637780 0.474197 0.563976
Si Si7 0.152799 0.173919 0.086503
O O1 0.240921 0.636340 0.206098
O O2 0.211267 0.945344 0.131369
O O3 0.256166 0.530224 0.878998
O O4 0.014140 0.829319 0.816116
O O5 0.258943 0.652022 0.526443
O O6 0.142556 0.392229 0.282641
O O7 0.018479 0.778561 0.488184
O O8 0.998675 0.752900 0.147591
O O9 0.223417 0.155065 0.621173
O O10 0.000000 0.500000 0.500000
O O11 0.579616 0.734880 0.593773
O O12 0.736735 0.891685 0.954151
O O13 0.449989 0.152021 0.783624
O O14 0.599554 0.809294 0.951670
O O15 0.500000 0.500000 0.500000
#
# Coordination Sequence:
#
# PCOD9009174 Si02
#       7
#     2   2   2   2   2   2   2
#     4  10  23  41  63  98 126 159 220 269 307 370
#     4  10  22  43  67  88 132 174 206 256 326 380
#     4  10  21  41  64  98 128 162 213 265 315 373
#     4   9  18  38  64  87 123 177 201 252 317 380
#     4   9  18  38  61  87 130 165 206 252 320 367
#     4  10  23  46  64  92 126 170 216 260 320 384
#     4  10  21  39  67  94 128 166 219 254 315 378
#
# _framework density 25.975936999999998
#
# number of rings (size 3 to 8) (size 9 to 14) (size 15 to 20)
#    0.000    2.286    1.429    0.000    6.000    2.857 
#   18.000    1.429    0.000    0.000    0.000    0.000 
#    0.000    0.000    0.000    0.000    0.000    0.000 
#
# Total GULP energy -78105.157315 kJ/mol
# GULP energy per Si atom -5578.939808 kJ/mol
# Density = 2.591681 g / cm^3
# Si number density = 25.975937 Si / 1000 Ang^3
#
#
#
# Elastic Constant Matrix: (Units=GPa)
#
#
# Indices 1 2 3 4 5 6 
#
# 1 158.3082 46.5828 18.4798 -0.4015 18.2657 -49.6784
# 2 46.5828 108.9538 5.6418 14.5063 0.2856 -3.6927
# 3 18.4798 5.6418 70.4066 0.8836 -1.1983 -12.8533
# 4 -0.4015 14.5063 0.8836 20.8920 -0.1452 9.0541
# 5 18.2657 0.2856 -1.1983 -0.1452 30.9527 -12.7194
# 6 -49.6784 -3.6927 -12.8533 9.0541 -12.7194 43.8943
#
#
#
# Elastic Compliance Matrix: (Units=1/GPa)
#
#
# Indices 1 2 3 4 5 6 
#
# 1 0.011892 -0.004297 -0.000403 -0.002414 -0.001665 0.012996
# 2 -0.004297 0.011961 -0.000042 -0.007580 0.001635 -0.001832
# 3 -0.000403 -0.000042 0.015423 -0.003029 0.003116 0.005585
# 4 -0.002414 -0.007580 -0.003029 0.061240 -0.005989 -0.018624
# 5 -0.001665 0.001635 0.003116 -0.005989 0.038065 0.011431
# 6 0.012996 -0.001832 0.005585 -0.018624 0.011431 0.046125
#
#
# Mechanical properties :
#
#
# Convention : Reuss Voigt Hill
#
# Bulk Modulus (GPa) = 33.56651 53.23081 43.39866
# Shear Modulus (GPa) = 24.49532 36.94541 30.72037
#
# Velocity S-wave (km/s) = 3.07416 3.77542 3.44269
# Velocity P-wave (km/s) = 5.05478 6.28824 5.70494
#
# Compressibility (1/GPa) = 0.02979160
#
# Stress axis : x y z
#
# Youngs Moduli (GPa) = 84.08693 83.60796 64.83887
#
# Poissons Ratio (x) = 0.35930 0.02611
# Poissons Ratio (y) = 0.36136 0.00272
# Poissons Ratio (z) = 0.03386 0.00351
#
# Static dielectric constant tensor:
#      x y z
#    x 2.120430 -0.023780 0.014060 
#    y -0.023780 2.082970 0.042520 
#    z 0.014060 0.042520 2.113940 
# 
# From -- ./inp_files/296497.got.cif
#   From: 2010.05.17/outbox.cif.g08.bks.cpg/sg2_149_cif.got.tgz:296497.got - 2010.06.03 11:33:40.
