data_PCOD9009917
_publ_section_title
;
Structure prediction by ZEFSAII (Michael W. Deem and Ramdas Pophale) SiO2 
 PCOD9009917
Probable space group: P -1
;
_chemical_formula_sum "Si O2"
_cell_formula_units_Z 14
_cell_length_a 25.771095
_cell_length_b 8.970899
_cell_length_c 13.395882
_cell_angle_alpha 34.332774
_cell_angle_beta 23.270795
_cell_angle_gamma 29.885780
_cell_volume 602.876278
_symmetry_space_group_name_H-M "P -1"
_symmetry_group_IT_number 2
_symmetry_cell_setting 'triclinic'
loop_
_space_group_symop_operation_xyz
x,y,z
-x,-y,-z
loop_
_atom_site_type_symbol
_atom_site_label
_atom_site_fract_x
_atom_site_fract_y
_atom_site_fract_z
Si Si1 0.550777 0.872183 0.750131
Si Si2 0.838597 0.864656 0.313965
Si Si3 0.528179 0.197148 0.422924
Si Si4 0.111141 0.132382 0.007044
Si Si5 0.100407 0.230575 0.182715
Si Si6 0.774477 0.319666 0.346523
Si Si7 0.721555 0.221928 0.704365
O O1 0.670190 0.911942 0.582267
O O2 0.649212 0.566954 0.679506
O O3 0.481718 0.145470 0.643096
O O4 0.414798 0.837946 0.052842
O O5 0.883455 0.933792 0.085986
O O6 0.947584 0.510886 0.336707
O O7 0.846658 0.072281 0.270665
O O8 0.406856 0.533939 0.421257
O O9 0.500000 0.000000 0.500000
O O10 0.706371 0.061125 0.190796
O O11 0.068616 0.079751 0.224804
O O12 0.000000 0.500000 0.000000
O O13 0.196589 0.994445 0.227783
O O14 0.188607 0.409252 0.889593
O O15 0.818913 0.190468 0.451626
#
# Coordination Sequence:
#
# PCOD9009917 Si02
#       7
#     2   2   2   2   2   2   2
#     4  10  21  40  60  96 121 163 215 262 307 368
#     4  10  24  41  63  93 137 161 205 265 321 374
#     4  11  17  36  66  88 118 162 214 252 300 374
#     4   9  19  36  60  88 117 158 204 252 300 358
#     4  11  22  44  67  91 123 174 214 255 310 376
#     4  12  23  39  67  96 127 168 208 257 322 375
#     4  11  23  39  70  89 124 165 218 261 301 381
#
# _framework density 23.222011999999999
#
# number of rings (size 3 to 8) (size 9 to 14) (size 15 to 20)
#    0.000    1.429    4.286    1.286    2.000    4.000 
#    0.000    1.429    0.000    0.000    0.000    0.000 
#    0.000    0.000    0.000    0.000    0.000    0.000 
#
# Total GULP energy -78056.724267 kJ/mol
# GULP energy per Si atom -5575.480305 kJ/mol
# Density = 2.316916 g / cm^3
# Si number density = 23.222012 Si / 1000 Ang^3
#
#
#
# Elastic Constant Matrix: (Units=GPa)
#
#
# Indices 1 2 3 4 5 6 
#
# 1 140.6142 56.8560 42.2873 -3.8389 25.3368 -9.6327
# 2 56.8560 62.7874 17.2536 1.8219 23.8486 -19.3767
# 3 42.2873 17.2536 85.9182 -7.6307 9.9277 5.4334
# 4 -3.8389 1.8219 -7.6307 27.8925 -6.4429 4.5350
# 5 25.3368 23.8486 9.9277 -6.4429 40.6525 0.0864
# 6 -9.6327 -19.3767 5.4334 4.5350 0.0864 48.5423
#
#
#
# Elastic Compliance Matrix: (Units=1/GPa)
#
#
# Indices 1 2 3 4 5 6 
#
# 1 0.012592 -0.010735 -0.003763 0.001562 -0.000380 -0.001511
# 2 -0.010735 0.036926 -0.002068 -0.010437 -0.016150 0.013845
# 3 -0.003763 -0.002068 0.014433 0.004317 0.000726 -0.003592
# 4 0.001562 -0.010437 0.004317 0.041751 0.010729 -0.008259
# 5 -0.000380 -0.016150 0.000726 0.010729 0.035849 -0.007669
# 6 -0.001511 0.013845 -0.003592 -0.008259 -0.007669 0.027015
#
#
# Mechanical properties :
#
#
# Convention : Reuss Voigt Hill
#
# Bulk Modulus (GPa) = 32.44876 58.01261 45.23069
# Shear Modulus (GPa) = 23.58808 34.94567 29.26688
#
# Velocity S-wave (km/s) = 3.19056 3.88345 3.55393
# Velocity P-wave (km/s) = 5.25134 6.71894 6.02996
#
# Compressibility (1/GPa) = 0.03081781
#
# Stress axis : x y z
#
# Youngs Moduli (GPa) = 79.41660 27.08136 69.28426
#
# Poissons Ratio (x) = 0.29072 0.26075
# Poissons Ratio (y) = 0.85255 0.14327
# Poissons Ratio (z) = 0.29888 0.05600
#
# Static dielectric constant tensor:
#      x y z
#    x 1.927980 -0.032060 -0.062390 
#    y -0.032060 1.842060 0.013210 
#    z -0.062390 0.013210 1.969940 
# 
# From -- ./inp_files/238356.got.cif
#   From: 2010.05.17/outbox.cif.g08.bks.cpg/sg2_120_cif.got.tgz:238356.got - 2010.06.03 11:33:40.
