data_PCOD9009539
_publ_section_title
;
Structure prediction by ZEFSAII (Michael W. Deem and Ramdas Pophale) SiO2 
 PCOD9009539
Probable space group: P -1
;
_chemical_formula_sum "Si O2"
_cell_formula_units_Z 16
_cell_length_a 9.127757
_cell_length_b 14.504614
_cell_length_c 9.934782
_cell_angle_alpha 108.147244
_cell_angle_beta 61.713483
_cell_angle_gamma 139.612556
_cell_volume 747.662785
_symmetry_space_group_name_H-M "P -1"
_symmetry_group_IT_number 2
_symmetry_cell_setting 'triclinic'
loop_
_space_group_symop_operation_xyz
x,y,z
-x,-y,-z
loop_
_atom_site_type_symbol
_atom_site_label
_atom_site_fract_x
_atom_site_fract_y
_atom_site_fract_z
Si Si1 0.072089 0.434768 0.855081
Si Si2 0.390324 0.550383 0.012346
Si Si3 0.517452 0.172567 0.573141
Si Si4 0.304503 0.910099 0.704463
Si Si5 0.882228 0.866500 0.897672
Si Si6 0.920104 0.450659 0.667375
Si Si7 0.029203 0.048326 0.661375
Si Si8 0.294687 0.899185 0.156261
O O1 0.108008 0.480660 0.704078
O O2 0.853192 0.263331 0.872376
O O3 0.290766 0.488994 0.876742
O O4 0.000000 0.500000 0.000000
O O5 0.185819 0.503462 0.182998
O O6 0.500000 0.500000 0.000000
O O7 0.605458 0.722092 0.986429
O O8 0.688522 0.198054 0.395729
O O9 0.687454 0.280451 0.668048
O O10 0.321119 0.170085 0.619275
O O11 0.352445 0.009530 0.611356
O O12 0.047485 0.840686 0.838975
O O13 0.538060 0.023243 0.749097
O O14 0.901486 0.919549 0.763595
O O15 0.000000 0.000000 0.000000
O O16 0.000000 0.500000 0.500000
O O17 0.900163 0.096541 0.757526
O O18 0.000000 0.000000 0.500000
O O19 0.500000 0.000000 0.000000
#
# Coordination Sequence:
#
# PCOD9009539 Si02
#       8
#     2   2   2   2   2   2   2   2
#     4  10  26  47  69 100 146 187 234 291 354 428
#     4  11  27  48  70 102 145 186 235 290 358 429
#     4  10  21  41  66  95 136 171 226 293 349 403
#     4  10  21  39  69  98 129 175 228 284 346 415
#     4  11  25  43  73  99 140 185 232 290 356 420
#     4  11  25  45  72  95 137 190 236 284 351 423
#     4  11  24  42  67 109 141 176 231 305 357 411
#     4  12  25  40  73 105 138 183 241 288 354 425
#
# _framework density 21.400020000000001
#
# number of rings (size 3 to 8) (size 9 to 14) (size 15 to 20)
#    0.000    1.250    2.500    2.250   12.250    2.000 
#    0.000    0.625    0.000    0.000    0.000    0.000 
#    0.000    0.000    0.000    0.000    0.000    0.000 
#
# Total GULP energy -89270.796985 kJ/mol
# GULP energy per Si atom -5579.424812 kJ/mol
# Density = 2.135131 g / cm^3
# Si number density = 21.400020 Si / 1000 Ang^3
#
#
#
# Elastic Constant Matrix: (Units=GPa)
#
#
# Indices 1 2 3 4 5 6 
#
# 1 145.6233 30.2387 69.4224 10.1676 5.9757 6.6724
# 2 30.2387 84.7334 45.5210 10.4744 9.9816 2.2492
# 3 69.4224 45.5210 130.2019 4.5459 12.8849 -0.0778
# 4 10.1676 10.4744 4.5459 34.1470 1.7551 4.2144
# 5 5.9757 9.9816 12.8849 1.7551 46.3161 8.1368
# 6 6.6724 2.2492 -0.0778 4.2144 8.1368 31.6019
#
#
#
# Elastic Compliance Matrix: (Units=1/GPa)
#
#
# Indices 1 2 3 4 5 6 
#
# 1 0.009491 -0.000580 -0.004861 -0.001800 0.000655 -0.001903
# 2 -0.000580 0.015208 -0.004703 -0.003774 -0.001748 -0.000018
# 3 -0.004861 -0.004703 0.012082 0.001170 -0.002076 0.001769
# 4 -0.001800 -0.003774 0.001170 0.031254 0.000161 -0.003558
# 5 0.000655 -0.001748 -0.002076 0.000161 0.023526 -0.006098
# 6 -0.001903 -0.000018 0.001769 -0.003558 -0.006098 0.034096
#
#
# Mechanical properties :
#
#
# Convention : Reuss Voigt Hill
#
# Bulk Modulus (GPa) = 60.63010 72.32477 66.47743
# Shear Modulus (GPa) = 33.01604 36.77141 34.89373
#
# Velocity S-wave (km/s) = 3.93212 4.14972 4.04238
# Velocity P-wave (km/s) = 7.00062 7.53858 7.27458
#
# Compressibility (1/GPa) = 0.01649346
#
# Stress axis : x y z
#
# Youngs Moduli (GPa) = 105.36679 65.75366 82.76744
#
# Poissons Ratio (x) = 0.03812 0.40231
# Poissons Ratio (y) = 0.06109 0.38927
# Poissons Ratio (z) = 0.51216 0.30925
#
# Static dielectric constant tensor:
#      x y z
#    x 1.914900 -0.022820 0.078660 
#    y -0.022820 1.777350 -0.050340 
#    z 0.078660 -0.050340 1.887790 
# 
# From -- ./inp_files/207712.got.cif
#   From: 2010.05.17/outbox.cif.g08.bks.cpg/sg2_104_cif.got.tgz:207712.got - 2010.06.03 11:33:40.
