data_PCOD9009251
_publ_section_title
;
Structure prediction by ZEFSAII (Michael W. Deem and Ramdas Pophale) SiO2 
 PCOD9009251
Probable space group: P -1
;
_chemical_formula_sum "Si O2"
_cell_formula_units_Z 14
_cell_length_a 15.959285
_cell_length_b 7.872524
_cell_length_c 9.503928
_cell_angle_alpha 133.692362
_cell_angle_beta 130.182107
_cell_angle_gamma 81.439237
_cell_volume 556.292639
_symmetry_space_group_name_H-M "P -1"
_symmetry_group_IT_number 2
_symmetry_cell_setting 'triclinic'
loop_
_space_group_symop_operation_xyz
x,y,z
-x,-y,-z
loop_
_atom_site_type_symbol
_atom_site_label
_atom_site_fract_x
_atom_site_fract_y
_atom_site_fract_z
Si Si1 0.673139 0.563842 0.227837
Si Si2 0.399592 0.524579 0.227023
Si Si3 0.855114 0.395239 0.239262
Si Si4 0.692439 0.740974 0.730485
Si Si5 0.817328 0.419654 0.654423
Si Si6 0.399021 0.029293 0.640513
Si Si7 0.973544 0.697751 0.265704
O O1 0.799028 0.547587 0.355000
O O2 0.670410 0.828333 0.427847
O O3 0.648289 0.570657 0.036212
O O4 0.545002 0.279609 0.978616
O O5 0.542061 0.578782 0.432263
O O6 0.311119 0.324161 0.143183
O O7 0.412528 0.817285 0.437027
O O8 0.869291 0.486911 0.144846
O O9 0.000000 0.500000 0.500000
O O10 0.762691 0.067413 0.971990
O O11 0.765392 0.612038 0.655991
O O12 0.689829 0.149249 0.427000
O O13 0.899463 0.324928 0.601205
O O14 0.913698 0.599900 0.990311
O O15 0.000000 0.000000 0.500000
#
# Coordination Sequence:
#
# PCOD9009251 Si02
#       7
#     2   2   2   2   2   2   2
#     4  11  23  41  67  97 127 174 221 265 328 386
#     4  10  21  43  68  91 135 170 211 271 331 387
#     4  12  25  41  66  98 137 173 217 271 327 393
#     4  10  22  40  63  99 131 167 214 271 330 385
#     4  10  23  43  67  95 129 175 226 265 326 393
#     4  10  21  39  67  98 122 163 226 274 313 389
#     4  11  24  45  68  92 132 183 222 265 320 398
#
# _framework density 25.166608
#
# number of rings (size 3 to 8) (size 9 to 14) (size 15 to 20)
#    0.000    1.429    1.429    3.857    2.000    2.857 
#    5.143    6.429    0.000    0.000    0.000    0.000 
#    0.000    0.000    0.000    0.000    0.000    0.000 
#
# Total GULP energy -78504.758956 kJ/mol
# GULP energy per Si atom -5607.482783 kJ/mol
# Density = 2.510933 g / cm^3
# Si number density = 25.166608 Si / 1000 Ang^3
#
#
#
# Elastic Constant Matrix: (Units=GPa)
#
#
# Indices 1 2 3 4 5 6 
#
# 1 162.8580 54.4304 26.7582 3.6552 5.2975 -27.1161
# 2 54.4304 117.0351 30.6854 20.6848 2.0665 -34.6478
# 3 26.7582 30.6854 58.6183 0.7611 -4.6102 -1.8541
# 4 3.6552 20.6848 0.7611 47.9874 -12.0992 16.8250
# 5 5.2975 2.0665 -4.6102 -12.0992 42.1413 -6.3186
# 6 -27.1161 -34.6478 -1.8541 16.8250 -6.3186 61.9515
#
#
#
# Elastic Compliance Matrix: (Units=1/GPa)
#
#
# Indices 1 2 3 4 5 6 
#
# 1 0.007657 -0.002204 -0.002343 -0.000577 -0.000961 0.002108
# 2 -0.002204 0.017022 -0.007640 -0.011755 -0.003089 0.011204
# 3 -0.002343 -0.007640 0.022175 0.006198 0.003988 -0.005911
# 4 -0.000577 -0.011755 0.006198 0.033214 0.008647 -0.014780
# 5 -0.000961 -0.003089 0.003988 0.008647 0.026672 -0.001656
# 6 0.002108 0.011204 -0.005911 -0.014780 -0.001656 0.026998
#
#
# Mechanical properties :
#
#
# Convention : Reuss Voigt Hill
#
# Bulk Modulus (GPa) = 44.48588 62.47329 53.47959
# Shear Modulus (GPa) = 30.19234 45.52521 37.85877
#
# Velocity S-wave (km/s) = 3.46742 4.25779 3.88277
# Velocity P-wave (km/s) = 5.80910 7.00354 6.43409
#
# Compressibility (1/GPa) = 0.02247904
#
# Stress axis : x y z
#
# Youngs Moduli (GPa) = 130.60001 58.74885 45.09626
#
# Poissons Ratio (x) = 0.12947 0.10566
# Poissons Ratio (y) = 0.28782 0.34455
# Poissons Ratio (z) = 0.30599 0.44886
#
# Static dielectric constant tensor:
#      x y z
#    x 2.005870 0.021480 -0.040310 
#    y 0.021480 2.042630 -0.072780 
#    z -0.040310 -0.072780 1.958400 
# 
# From -- ./inp_files/462601.got.cif
#   From: 2010.05.17/outbox.cif.g08.bks.cpg/sg2_232_cif.got.tgz:462601.got - 2010.06.03 11:33:40.
