data_PCOD9009772
_publ_section_title
;
Structure prediction by ZEFSAII (Michael W. Deem and Ramdas Pophale) SiO2 
 PCOD9009772
Probable space group: P -1
;
_chemical_formula_sum "Si O2"
_cell_formula_units_Z 16
_cell_length_a 11.190217
_cell_length_b 9.159613
_cell_length_c 16.173502
_cell_angle_alpha 134.010392
_cell_angle_beta 35.013089
_cell_angle_gamma 125.586112
_cell_volume 683.752682
_symmetry_space_group_name_H-M "P -1"
_symmetry_group_IT_number 2
_symmetry_cell_setting 'triclinic'
loop_
_space_group_symop_operation_xyz
x,y,z
-x,-y,-z
loop_
_atom_site_type_symbol
_atom_site_label
_atom_site_fract_x
_atom_site_fract_y
_atom_site_fract_z
Si Si1 0.625153 0.678183 0.297920
Si Si2 0.242340 0.072754 0.374355
Si Si3 0.227205 0.634460 0.186961
Si Si4 0.990013 0.673812 0.505742
Si Si5 0.808727 0.178327 0.228768
Si Si6 0.761800 0.602035 0.368131
Si Si7 0.763946 0.731272 0.063774
Si Si8 0.201492 0.867711 0.601465
O O1 0.700163 0.570263 0.295337
O O2 0.726652 0.627695 0.132918
O O3 0.379023 0.699550 0.432087
O O4 0.698506 0.909912 0.364152
O O5 0.317292 0.198064 0.461269
O O6 0.219569 0.246272 0.385673
O O7 0.336398 0.859434 0.209719
O O8 0.000000 0.000000 0.500000
O O9 0.143203 0.616282 0.321520
O O10 0.013318 0.632129 0.251496
O O11 0.325553 0.428752 0.015813
O O12 0.072337 0.859778 0.588258
O O13 0.000000 0.500000 0.500000
O O14 0.698937 0.393566 0.369836
O O15 0.904407 0.166793 0.262731
O O16 0.684337 0.963378 0.202591
O O17 0.994532 0.212441 0.071318
#
# Coordination Sequence:
#
# PCOD9009772 Si02
#       8
#     2   2   2   2   2   2   2   2
#     4  10  20  31  50  72 103 130 161 202 241 298
#     4   8  15  27  46  70  95 121 159 207 240 275
#     4   9  17  29  47  68  97 126 159 200 240 287
#     4  10  17  29  50  72  95 125 166 208 237 278
#     4   9  18  31  50  69 100 128 160 203 241 292
#     4   9  16  30  48  74  96 125 162 202 248 281
#     4   9  18  33  47  71  99 132 161 193 247 294
#     4  10  19  33  49  74  98 130 167 202 243 284
#
# _framework density 23.400274
#
# number of rings (size 3 to 8) (size 9 to 14) (size 15 to 20)
#    0.000    3.000    0.000    4.500    0.000    2.500 
#    0.000    3.125    0.000    0.000    0.000    4.375 
#    0.000    0.000    0.000    1.250    0.000    0.000 
#
# Total GULP energy -89122.042802 kJ/mol
# GULP energy per Si atom -5570.127675 kJ/mol
# Density = 2.334701 g / cm^3
# Si number density = 23.400274 Si / 1000 Ang^3
#
#
#
# Elastic Constant Matrix: (Units=GPa)
#
#
# Indices 1 2 3 4 5 6 
#
# 1 76.0453 21.9436 38.3877 -4.7187 25.6323 -14.2700
# 2 21.9436 101.5541 32.7195 28.0668 19.6460 -20.9916
# 3 38.3877 32.7195 97.7299 14.3260 38.3616 -9.2802
# 4 -4.7187 28.0668 14.3260 51.1193 3.5117 14.3986
# 5 25.6323 19.6460 38.3616 3.5117 36.8926 0.9654
# 6 -14.2700 -20.9916 -9.2802 14.3986 0.9654 43.6045
#
#
#
# Elastic Compliance Matrix: (Units=1/GPa)
#
#
# Indices 1 2 3 4 5 6 
#
# 1 0.019497 -0.001058 -0.003453 0.002769 -0.009772 0.004438
# 2 -0.001058 0.017815 0.001202 -0.013273 -0.009080 0.013070
# 3 -0.003453 0.001202 0.020227 -0.007203 -0.018760 0.006548
# 4 0.002769 -0.013273 -0.007203 0.033607 0.009915 -0.018333
# 5 -0.009772 -0.009080 -0.018760 0.009915 0.057715 -0.016114
# 6 0.004438 0.013070 0.006548 -0.018333 -0.016114 0.038482
#
#
# Mechanical properties :
#
#
# Convention : Reuss Voigt Hill
#
# Bulk Modulus (GPa) = 19.63776 51.27012 35.45394
# Shear Modulus (GPa) = 23.70417 38.47519 31.08968
#
# Velocity S-wave (km/s) = 3.18620 4.05930 3.64896
# Velocity P-wave (km/s) = 4.68467 6.62783 5.73909
#
# Compressibility (1/GPa) = 0.05092232
#
# Stress axis : x y z
#
# Youngs Moduli (GPa) = 51.29038 56.13324 49.43827
#
# Poissons Ratio (x) = 0.05938 0.17069
# Poissons Ratio (y) = 0.05426 -0.05944
# Poissons Ratio (z) = 0.17709 -0.06749
#
# Static dielectric constant tensor:
#      x y z
#    x 1.986160 0.020540 -0.041760 
#    y 0.020540 1.976730 0.075560 
#    z -0.041760 0.075560 2.012740 
# 
# From -- ./inp_files/513655.got.cif
#   From: 2010.05.17/outbox.cif.g08.bks.cpg/sg2_257_cif.got.tgz:513655.got - 2010.06.03 11:33:40.
