data_PCOD9009409
_publ_section_title
;
Structure prediction by ZEFSAII (Michael W. Deem and Ramdas Pophale) SiO2 
 PCOD9009409
Probable space group: P -1
;
_chemical_formula_sum "Si O2"
_cell_formula_units_Z 16
_cell_length_a 13.761532
_cell_length_b 10.670152
_cell_length_c 8.546963
_cell_angle_alpha 125.454608
_cell_angle_beta 103.816791
_cell_angle_gamma 42.855348
_cell_volume 654.783191
_symmetry_space_group_name_H-M "P -1"
_symmetry_group_IT_number 2
_symmetry_cell_setting 'triclinic'
loop_
_space_group_symop_operation_xyz
x,y,z
-x,-y,-z
loop_
_atom_site_type_symbol
_atom_site_label
_atom_site_fract_x
_atom_site_fract_y
_atom_site_fract_z
Si Si1 0.529209 0.277788 0.156402
Si Si2 0.084878 0.739623 0.816304
Si Si3 0.397356 0.988042 0.523398
Si Si4 0.165831 0.057871 0.325341
Si Si5 0.367608 0.510013 0.590615
Si Si6 0.252771 0.615556 0.084221
Si Si7 0.774925 0.810119 0.072911
Si Si8 0.018248 0.721472 0.266697
O O1 0.418658 0.433658 0.376051
O O2 0.627039 0.320919 0.226309
O O3 0.418273 0.384603 0.045216
O O4 0.643858 0.008987 0.046350
O O5 0.204611 0.625591 0.641200
O O6 0.950607 0.782574 0.745639
O O7 0.188042 0.589394 0.897424
O O8 0.000000 0.000000 0.000000
O O9 0.505569 0.724058 0.429203
O O10 0.500000 0.000000 0.500000
O O11 0.281201 0.060642 0.401981
O O12 0.305454 0.135459 0.752645
O O13 0.067412 0.154256 0.515088
O O14 0.250659 0.795361 0.158953
O O15 0.125421 0.732551 0.252676
O O16 0.888145 0.821565 0.164019
O O17 0.873546 0.551952 0.872763
#
# Coordination Sequence:
#
# PCOD9009409 Si02
#       8
#     2   2   2   2   2   2   2   2
#     4  10  21  39  68  97 130 170 228 274 327 393
#     4  10  24  40  60  97 136 167 222 273 328 391
#     4  10  21  41  70  95 138 177 213 273 338 404
#     4  10  21  43  65 101 126 175 230 265 333 394
#     4  10  21  40  65  96 131 173 217 277 330 394
#     4  11  22  38  66 100 131 174 220 280 328 387
#     4   9  22  40  64 102 129 173 225 271 332 395
#     4  10  21  39  69  94 133 172 217 279 330 394
#
# _framework density 24.435570999999999
#
# number of rings (size 3 to 8) (size 9 to 14) (size 15 to 20)
#    0.000    2.000    1.250    1.125    7.000    1.000 
#    0.000    0.625   11.000    0.000    0.000    0.000 
#    0.000    0.000    0.000    0.000    0.000    0.000 
#
# Total GULP energy -89633.174835 kJ/mol
# GULP energy per Si atom -5602.073427 kJ/mol
# Density = 2.437995 g / cm^3
# Si number density = 24.435571 Si / 1000 Ang^3
#
#
#
# Elastic Constant Matrix: (Units=GPa)
#
#
# Indices 1 2 3 4 5 6 
#
# 1 98.7871 43.2048 17.8667 -11.1465 2.3503 -22.8025
# 2 43.2048 175.6937 46.3808 -21.9186 22.2474 -30.7592
# 3 17.8667 46.3808 54.6300 -0.7057 -6.3041 -6.9772
# 4 -11.1465 -21.9186 -0.7057 35.8560 -12.6490 8.1321
# 5 2.3503 22.2474 -6.3041 -12.6490 30.4763 -3.8193
# 6 -22.8025 -30.7592 -6.9772 8.1321 -3.8193 32.5138
#
#
#
# Elastic Compliance Matrix: (Units=1/GPa)
#
#
# Indices 1 2 3 4 5 6 
#
# 1 0.012877 -0.001313 -0.002032 0.002018 0.001260 0.006996
# 2 -0.001313 0.010548 -0.008675 0.001747 -0.007938 0.005827
# 3 -0.002032 -0.008675 0.027374 -0.000830 0.011532 -0.002195
# 4 0.002018 0.001747 -0.000830 0.034918 0.012339 -0.004394
# 5 0.001260 -0.007938 0.011532 0.012339 0.045783 -0.001859
# 6 0.006996 0.005827 -0.002195 -0.004394 -0.001859 0.041584
#
#
# Mechanical properties :
#
#
# Convention : Reuss Voigt Hill
#
# Bulk Modulus (GPa) = 37.36974 60.44617 48.90796
# Shear Modulus (GPa) = 24.26668 34.54644 29.40656
#
# Velocity S-wave (km/s) = 3.15475 3.76410 3.47282
# Velocity P-wave (km/s) = 5.34755 6.60923 6.01158
#
# Compressibility (1/GPa) = 0.02675962
#
# Stress axis : x y z
#
# Youngs Moduli (GPa) = 77.65709 94.80553 36.53095
#
# Poissons Ratio (x) = 0.12451 0.07422
# Poissons Ratio (y) = 0.10198 0.31690
# Poissons Ratio (z) = 0.15777 0.82243
#
# Static dielectric constant tensor:
#      x y z
#    x 1.920860 0.003050 -0.017900 
#    y 0.003050 1.906750 -0.039680 
#    z -0.017900 -0.039680 1.953960 
# 
# From -- ./inp_files/308563.got.cif
#   From: 2010.05.17/outbox.cif.g08.bks.cpg/sg2_155_cif.got.tgz:308563.got - 2010.06.03 11:33:40.
