data_PCOD9009778
_publ_section_title
;
Structure prediction by ZEFSAII (Michael W. Deem and Ramdas Pophale) SiO2 
 PCOD9009778
Probable space group: P -1
;
_chemical_formula_sum "Si O2"
_cell_formula_units_Z 14
_cell_length_a 11.971261
_cell_length_b 15.041820
_cell_length_c 5.179461
_cell_angle_alpha 97.986397
_cell_angle_beta 100.557827
_cell_angle_gamma 131.647120
_cell_volume 640.539535
_symmetry_space_group_name_H-M "P -1"
_symmetry_group_IT_number 2
_symmetry_cell_setting 'triclinic'
loop_
_space_group_symop_operation_xyz
x,y,z
-x,-y,-z
loop_
_atom_site_type_symbol
_atom_site_label
_atom_site_fract_x
_atom_site_fract_y
_atom_site_fract_z
Si Si1 0.118815 0.478809 0.313736
Si Si2 0.782756 0.884192 0.621688
Si Si3 0.870870 0.830838 0.127473
Si Si4 0.918024 0.656039 0.241083
Si Si5 0.486293 0.140899 0.635458
Si Si6 0.709334 0.130052 0.407722
Si Si7 0.757314 0.314541 0.180688
O O1 0.230882 0.621039 0.525871
O O2 0.117454 0.404235 0.514967
O O3 0.938531 0.419494 0.192952
O O4 0.152030 0.449394 0.047915
O O5 0.794972 0.849824 0.327024
O O6 0.623389 0.853695 0.571040
O O7 0.793782 0.813240 0.813641
O O8 0.941162 0.035908 0.772582
O O9 0.859251 0.722625 0.175995
O O10 0.113273 0.768633 0.352304
O O11 0.587668 0.126542 0.507092
O O12 0.361522 0.008849 0.691802
O O13 0.611886 0.262067 0.919731
O O14 0.727574 0.192209 0.171121
#
# Coordination Sequence:
#
# PCOD9009778 Si02
#       7
#     2   2   2   2   2   2   2
#     4  10  23  36  64  86 121 162 202 240 294 343
#     4  10  22  37  61  86 119 159 193 242 298 353
#     4  10  21  40  59  87 117 155 203 244 288 350
#     4  11  20  41  62  90 118 155 202 255 285 354
#     4  11  21  38  57  92 125 159 187 246 306 370
#     4  10  22  35  59  92 123 157 186 247 312 362
#     4  10  22  37  56  88 126 158 199 239 293 369
#
# _framework density 21.856574999999999
#
# number of rings (size 3 to 8) (size 9 to 14) (size 15 to 20)
#    0.000    1.714    2.857    1.286    4.000    1.714 
#    0.000    0.000    0.000    5.143    0.000    0.000 
#    0.000    0.000    0.000    0.000    0.000    0.000 
#
# Total GULP energy -78259.538517 kJ/mol
# GULP energy per Si atom -5589.967037 kJ/mol
# Density = 2.180683 g / cm^3
# Si number density = 21.856575 Si / 1000 Ang^3
#
#
#
# Elastic Constant Matrix: (Units=GPa)
#
#
# Indices 1 2 3 4 5 6 
#
# 1 50.0992 16.5835 23.1372 1.4246 20.3079 -10.7770
# 2 16.5835 112.8172 21.0456 -13.8440 11.1930 -13.9137
# 3 23.1372 21.0456 88.4742 -5.0177 7.8826 5.3507
# 4 1.4246 -13.8440 -5.0177 32.1526 -3.4746 0.0509
# 5 20.3079 11.1930 7.8826 -3.4746 20.3331 -5.8861
# 6 -10.7770 -13.9137 5.3507 0.0509 -5.8861 24.7650
#
#
#
# Elastic Compliance Matrix: (Units=1/GPa)
#
#
# Indices 1 2 3 4 5 6 
#
# 1 0.040975 -0.000440 -0.008530 -0.007180 -0.035411 0.011025
# 2 -0.000440 0.010813 -0.002386 0.004056 -0.002196 0.005869
# 3 -0.008530 -0.002386 0.014460 0.001872 0.002340 -0.007625
# 4 -0.007180 0.004056 0.001872 0.034587 0.010460 0.001165
# 5 -0.035411 -0.002196 0.002340 0.010460 0.087700 0.003674
# 6 0.011025 0.005869 -0.007625 0.001165 0.003674 0.050993
#
#
# Mechanical properties :
#
#
# Convention : Reuss Voigt Hill
#
# Bulk Modulus (GPa) = 22.96975 41.43591 32.20283
# Shear Modulus (GPa) = 18.06664 28.15842 23.11253
#
# Velocity S-wave (km/s) = 2.87818 3.59322 3.25539
# Velocity P-wave (km/s) = 4.64515 6.01783 5.37548
#
# Compressibility (1/GPa) = 0.04353551
#
# Stress axis : x y z
#
# Youngs Moduli (GPa) = 24.40507 92.47969 69.15698
#
# Poissons Ratio (x) = 0.04069 0.58990
# Poissons Ratio (y) = 0.01074 0.16503
# Poissons Ratio (z) = 0.20817 0.22069
#
# Static dielectric constant tensor:
#      x y z
#    x 1.773750 0.027810 -0.008340 
#    y 0.027810 1.864210 -0.032640 
#    z -0.008340 -0.032640 1.807450 
# 
# From -- ./inp_files/75083.got.cif
#   From: 2010.05.17/outbox.cif.g08.bks.cpg/sg2_38_cif.got.tgz:75083.got - 2010.06.03 11:33:40.
