data_PCOD9009934
_publ_section_title
;
Structure prediction by ZEFSAII (Michael W. Deem and Ramdas Pophale) SiO2 
 PCOD9009934
Probable space group: P -1
;
_chemical_formula_sum "Si O2"
_cell_formula_units_Z 16
_cell_length_a 8.331649
_cell_length_b 19.246933
_cell_length_c 13.975733
_cell_angle_alpha 142.939456
_cell_angle_beta 103.092553
_cell_angle_gamma 49.242336
_cell_volume 781.789005
_symmetry_space_group_name_H-M "P -1"
_symmetry_group_IT_number 2
_symmetry_cell_setting 'triclinic'
loop_
_space_group_symop_operation_xyz
x,y,z
-x,-y,-z
loop_
_atom_site_type_symbol
_atom_site_label
_atom_site_fract_x
_atom_site_fract_y
_atom_site_fract_z
Si Si1 0.130415 0.763554 0.818784
Si Si2 0.909911 0.049102 0.260264
Si Si3 0.154247 0.262193 0.840550
Si Si4 0.580855 0.628163 0.596488
Si Si5 0.834083 0.006476 0.417868
Si Si6 0.695033 0.951908 0.688436
Si Si7 0.811708 0.667837 0.290314
Si Si8 0.529039 0.084031 0.018805
O O1 0.386295 0.675984 0.701929
O O2 0.189459 0.594082 0.645694
O O3 0.079284 0.856320 0.013284
O O4 0.850030 0.943463 0.919228
O O5 0.085899 0.068074 0.303900
O O6 0.862083 0.032546 0.341973
O O7 0.619871 0.231215 0.365594
O O8 0.065465 0.181971 0.763380
O O9 0.477116 0.089528 0.723785
O O10 0.112929 0.313520 0.779673
O O11 0.994107 0.450970 0.084675
O O12 0.661955 0.702451 0.739247
O O13 0.509372 0.187319 0.598827
O O14 0.000000 0.000000 0.500000
O O15 0.838669 0.747683 0.465141
O O16 0.516184 0.052281 0.872550
O O17 0.500000 0.000000 0.000000
#
# Coordination Sequence:
#
# PCOD9009934 Si02
#       8
#     2   2   2   2   2   2   2   2
#     4  10  21  40  61  84 119 159 199 242 288 342
#     4  11  21  38  61  88 119 155 198 244 288 352
#     4  10  23  42  62  88 120 153 193 240 293 355
#     4  10  21  40  61  84 119 159 199 242 288 342
#     4  11  23  40  64  90 118 152 194 242 298 343
#     4  11  21  39  62  87 120 158 198 233 299 348
#     4  10  23  42  62  88 120 153 193 240 293 355
#     4  11  23  38  59  88 121 157 200 243 287 348
#
# _framework density 20.465879000000001
#
# number of rings (size 3 to 8) (size 9 to 14) (size 15 to 20)
#    0.000    1.500    2.500    3.750    7.000    4.000 
#    0.000    0.000    0.000    0.000    0.000    0.000 
#    0.000    0.000    0.000    0.000    0.000    0.000 
#
# Total GULP energy -89395.309639 kJ/mol
# GULP energy per Si atom -5587.206852 kJ/mol
# Density = 2.041930 g / cm^3
# Si number density = 20.465879 Si / 1000 Ang^3
#
#
#
# Elastic Constant Matrix: (Units=GPa)
#
#
# Indices 1 2 3 4 5 6 
#
# 1 71.2785 6.3806 37.6478 -3.8179 17.7136 16.5420
# 2 6.3806 54.9579 33.3924 -13.6411 7.7069 20.1131
# 3 37.6478 33.3924 153.2360 10.1756 42.8278 9.0200
# 4 -3.8179 -13.6411 10.1756 32.2429 2.9629 1.2259
# 5 17.7136 7.7069 42.8278 2.9629 30.9284 -0.1368
# 6 16.5420 20.1131 9.0200 1.2259 -0.1368 30.5052
#
#
#
# Elastic Compliance Matrix: (Units=1/GPa)
#
#
# Indices 1 2 3 4 5 6 
#
# 1 0.023211 0.011414 -0.004822 0.010800 -0.010580 -0.019168
# 2 0.011414 0.040902 -0.009948 0.023472 -0.005341 -0.031184
# 3 -0.004822 -0.009948 0.013723 -0.008124 -0.012961 0.005384
# 4 0.010800 0.023472 -0.008124 0.046065 -0.005290 -0.020805
# 5 -0.010580 -0.005341 -0.012961 -0.005290 0.058237 0.013565
# 6 -0.019168 -0.031184 0.005384 -0.020805 0.013565 0.063041
#
#
# Mechanical properties :
#
#
# Convention : Reuss Voigt Hill
#
# Bulk Modulus (GPa) = 14.05959 48.25710 31.15834
# Shear Modulus (GPa) = 18.14234 32.20543 25.17388
#
# Velocity S-wave (km/s) = 2.98059 3.97119 3.51100
# Velocity P-wave (km/s) = 4.32781 6.68263 5.62972
#
# Compressibility (1/GPa) = 0.07112585
#
# Stress axis : x y z
#
# Youngs Moduli (GPa) = 43.08351 24.44844 72.86932
#
# Poissons Ratio (x) = -0.27906 0.35135
# Poissons Ratio (y) = -0.49177 0.72490
# Poissons Ratio (z) = 0.20773 0.24321
#
# Static dielectric constant tensor:
#      x y z
#    x 1.748130 -0.003040 0.022230 
#    y -0.003040 1.716660 -0.002810 
#    z 0.022230 -0.002810 1.757550 
# 
# From -- ./inp_files/267280.got.cif
#   From: 2010.05.17/outbox.cif.g08.bks.cpg/sg2_134_cif.got.tgz:267280.got - 2010.06.03 11:33:40.
