data_PCOD9009751
_publ_section_title
;
Structure prediction by ZEFSAII (Michael W. Deem and Ramdas Pophale) SiO2 
 PCOD9009751
Probable space group: P -1
;
_chemical_formula_sum "Si O2"
_cell_formula_units_Z 14
_cell_length_a 22.527567
_cell_length_b 15.707228
_cell_length_c 11.340117
_cell_angle_alpha 27.987072
_cell_angle_beta 29.488492
_cell_angle_gamma 18.999910
_cell_volume 596.260851
_symmetry_space_group_name_H-M "P -1"
_symmetry_group_IT_number 2
_symmetry_cell_setting 'triclinic'
loop_
_space_group_symop_operation_xyz
x,y,z
-x,-y,-z
loop_
_atom_site_type_symbol
_atom_site_label
_atom_site_fract_x
_atom_site_fract_y
_atom_site_fract_z
Si Si1 0.659626 0.400470 0.765226
Si Si2 0.587411 0.889824 0.352299
Si Si3 0.029589 0.473625 0.786055
Si Si4 0.945350 0.233217 0.088862
Si Si5 0.442952 0.534608 0.752313
Si Si6 0.736466 0.095587 0.600373
Si Si7 0.794139 0.526298 0.744659
O O1 0.669398 0.601098 0.530094
O O2 0.587494 0.447217 0.701587
O O3 0.500000 0.500000 0.000000
O O4 0.847765 0.080254 0.863637
O O5 0.774900 0.795589 0.155834
O O6 0.500000 0.000000 0.500000
O O7 0.396454 0.143066 0.300062
O O8 0.920868 0.419264 0.999724
O O9 0.095429 0.504537 0.514675
O O10 0.894790 0.761643 0.738920
O O11 0.914693 0.352495 0.865784
O O12 0.816522 0.204255 0.355296
O O13 0.560428 0.281547 0.763493
O O14 0.337831 0.807042 0.524630
O O15 0.290887 0.572657 0.025490
#
# Coordination Sequence:
#
# PCOD9009751 Si02
#       7
#     2   2   2   2   2   2   2
#     4  12  23  39  67  97 134 170 216 274 332 379
#     4  10  21  40  58  97 133 165 213 269 325 386
#     4  11  21  41  68  93 134 169 225 268 329 380
#     4  11  24  40  67 100 129 171 224 268 324 394
#     4  10  24  44  66  92 140 171 218 270 331 385
#     4  10  24  46  64  98 133 178 217 269 322 397
#     4  10  22  41  65  97 131 167 223 273 321 386
#
# _framework density 23.479658000000001
#
# number of rings (size 3 to 8) (size 9 to 14) (size 15 to 20)
#    0.000    1.429    1.429    4.714    4.000    1.714 
#    2.571    3.571    0.000    0.000    0.000    0.000 
#    0.000    0.000    0.000    0.000    0.000    0.000 
#
# Total GULP energy -78296.382995 kJ/mol
# GULP energy per Si atom -5592.598785 kJ/mol
# Density = 2.342622 g / cm^3
# Si number density = 23.479658 Si / 1000 Ang^3
#
#
#
# Elastic Constant Matrix: (Units=GPa)
#
#
# Indices 1 2 3 4 5 6 
#
# 1 105.8781 40.9732 36.7544 -10.9732 -13.8288 -24.3996
# 2 40.9732 100.2965 13.6708 -7.3065 1.5219 -13.1653
# 3 36.7544 13.6708 62.3099 0.2034 -6.5029 6.2056
# 4 -10.9732 -7.3065 0.2034 27.9260 2.7342 -1.9926
# 5 -13.8288 1.5219 -6.5029 2.7342 29.1268 -2.8827
# 6 -24.3996 -13.1653 6.2056 -1.9926 -2.8827 40.4438
#
#
#
# Elastic Compliance Matrix: (Units=1/GPa)
#
#
# Indices 1 2 3 4 5 6 
#
# 1 0.019827 -0.004463 -0.011232 0.006879 0.007792 0.013126
# 2 -0.004463 0.012197 -0.000476 0.001814 -0.002911 0.001233
# 3 -0.011232 -0.000476 0.023823 -0.005434 -0.000557 -0.010894
# 4 0.006879 0.001814 -0.005434 0.039658 -0.001027 0.007455
# 5 0.007792 -0.002911 -0.000557 -0.001027 0.038805 0.006554
# 6 0.013126 0.001233 -0.010894 0.007455 0.006554 0.035552
#
#
# Mechanical properties :
#
#
# Convention : Reuss Voigt Hill
#
# Bulk Modulus (GPa) = 42.54533 50.14238 46.34385
# Shear Modulus (GPa) = 23.80507 31.30506 27.55506
#
# Velocity S-wave (km/s) = 3.18757 3.65538 3.42946
# Velocity P-wave (km/s) = 5.63089 6.26241 5.95502
#
# Compressibility (1/GPa) = 0.02350434
#
# Stress axis : x y z
#
# Youngs Moduli (GPa) = 50.43722 81.99043 41.97541
#
# Poissons Ratio (x) = 0.36590 0.47149
# Poissons Ratio (y) = 0.22509 0.01998
# Poissons Ratio (z) = 0.56653 0.03903
#
# Static dielectric constant tensor:
#      x y z
#    x 1.975770 -0.057550 0.016010 
#    y -0.057550 1.860530 -0.020840 
#    z 0.016010 -0.020840 1.929140 
# 
# From -- ./inp_files/279645.got.cif
#   From: 2010.05.17/outbox.cif.g08.bks.cpg/sg2_140_cif.got.tgz:279645.got - 2010.06.03 11:33:40.
