data_PCOD9009692
_publ_section_title
;
Structure prediction by ZEFSAII (Michael W. Deem and Ramdas Pophale) SiO2 
 PCOD9009692
Probable space group: P -1
;
_chemical_formula_sum "Si O2"
_cell_formula_units_Z 12
_cell_length_a 9.400821
_cell_length_b 7.690354
_cell_length_c 10.332057
_cell_angle_alpha 105.774601
_cell_angle_beta 126.824579
_cell_angle_gamma 97.110435
_cell_volume 534.062398
_symmetry_space_group_name_H-M "P -1"
_symmetry_group_IT_number 2
_symmetry_cell_setting 'triclinic'
loop_
_space_group_symop_operation_xyz
x,y,z
-x,-y,-z
loop_
_atom_site_type_symbol
_atom_site_label
_atom_site_fract_x
_atom_site_fract_y
_atom_site_fract_z
Si Si1 0.688485 0.551931 0.198661
Si Si2 0.086406 0.947032 0.910787
Si Si3 0.573366 0.198612 0.500043
Si Si4 0.240323 0.267112 0.470704
Si Si5 0.489209 0.851178 0.847238
Si Si6 0.964122 0.505656 0.738300
O O1 0.703588 0.715735 0.346230
O O2 0.646625 0.353012 0.213663
O O3 0.885719 0.589384 0.239812
O O4 0.500000 0.500000 0.000000
O O5 0.288192 0.115043 0.032773
O O6 0.940405 0.921626 0.707582
O O7 0.086821 0.729008 0.896136
O O8 0.000000 0.000000 0.000000
O O9 0.415351 0.288970 0.474441
O O10 0.567647 0.140111 0.332726
O O11 0.785450 0.349350 0.684904
O O12 0.500000 0.000000 0.500000
O O13 0.153397 0.432472 0.425553
O O14 0.500000 0.000000 0.000000
#
# Coordination Sequence:
#
# PCOD9009692 Si02
#       6
#     2   2   2   2   2   2
#     4  12  27  45  71 107 141 187 240 296 352 420
#     4  10  21  39  74 103 134 184 231 281 355 420
#     4  12  27  44  73 107 144 188 240 292 354 424
#     4  10  23  45  72  99 141 190 229 286 359 417
#     4  12  23  44  70 103 145 185 233 290 354 423
#     4  10  23  47  70  99 143 190 230 291 358 418
#
# _framework density 22.469283999999998
#
# number of rings (size 3 to 8) (size 9 to 14) (size 15 to 20)
#    1.000    0.000    5.000    1.000    7.000    1.333 
#    0.000    3.333    0.000    0.000    0.000    0.000 
#    0.000    0.000    0.000    0.000    0.000    0.000 
#
# Total GULP energy -66818.892015 kJ/mol
# GULP energy per Si atom -5568.241001 kJ/mol
# Density = 2.241814 g / cm^3
# Si number density = 22.469284 Si / 1000 Ang^3
#
#
#
# Elastic Constant Matrix: (Units=GPa)
#
#
# Indices 1 2 3 4 5 6 
#
# 1 117.7704 -2.6868 12.3857 -2.9193 8.4901 -3.3404
# 2 -2.6868 40.5764 7.7147 1.6511 10.4682 6.1656
# 3 12.3857 7.7147 60.3457 -0.9180 -18.0617 -15.0677
# 4 -2.9193 1.6511 -0.9180 30.9429 7.9673 5.3380
# 5 8.4901 10.4682 -18.0617 7.9673 43.5797 16.2123
# 6 -3.3404 6.1656 -15.0677 5.3380 16.2123 24.6606
#
#
#
# Elastic Compliance Matrix: (Units=1/GPa)
#
#
# Indices 1 2 3 4 5 6 
#
# 1 0.009259 0.002062 -0.003107 0.001562 -0.004389 0.001387
# 2 0.002062 0.029672 -0.008570 0.001831 -0.008822 -0.006972
# 3 -0.003107 -0.008570 0.023696 -0.003350 0.009003 0.011007
# 4 0.001562 0.001831 -0.003350 0.034891 -0.006418 -0.005626
# 5 -0.004389 -0.008822 0.009003 -0.006418 0.036618 -0.015572
# 6 0.001387 -0.006972 0.011007 -0.005626 -0.015572 0.060662
#
#
# Mechanical properties :
#
#
# Convention : Reuss Voigt Hill
#
# Bulk Modulus (GPa) = 23.04342 28.16888 25.60615
# Shear Modulus (GPa) = 21.88229 33.25524 27.56876
#
# Velocity S-wave (km/s) = 3.12408 3.85129 3.50659
# Velocity P-wave (km/s) = 4.82607 5.68686 5.27406
#
# Compressibility (1/GPa) = 0.04339634
#
# Stress axis : x y z
#
# Youngs Moduli (GPa) = 107.99856 33.70226 42.20041
#
# Poissons Ratio (x) = -0.06949 0.13114
# Poissons Ratio (y) = -0.22267 0.36165
# Poissons Ratio (z) = 0.33560 0.28882
#
# Static dielectric constant tensor:
#      x y z
#    x 1.712150 -0.103760 0.003850 
#    y -0.103760 1.892630 0.002800 
#    z 0.003850 0.002800 1.894330 
# 
# From -- ./inp_files/151773.got.cif
#   From: 2010.05.17/outbox.cif.g08.bks.cpg/sg2_76_cif.got.tgz:151773.got - 2010.06.03 11:33:40.
