data_PCOD9009043
_publ_section_title
;
Structure prediction by ZEFSAII (Michael W. Deem and Ramdas Pophale) SiO2 
 PCOD9009043
Probable space group: P -1
;
_chemical_formula_sum "Si O2"
_cell_formula_units_Z 16
_cell_length_a 11.709709
_cell_length_b 12.107375
_cell_length_c 14.582720
_cell_angle_alpha 53.805804
_cell_angle_beta 106.129051
_cell_angle_gamma 149.745042
_cell_volume 689.979363
_symmetry_space_group_name_H-M "P -1"
_symmetry_group_IT_number 2
_symmetry_cell_setting 'triclinic'
loop_
_space_group_symop_operation_xyz
x,y,z
-x,-y,-z
loop_
_atom_site_type_symbol
_atom_site_label
_atom_site_fract_x
_atom_site_fract_y
_atom_site_fract_z
Si Si1 0.668524 0.627922 0.197047
Si Si2 0.930983 0.448102 0.304279
Si Si3 0.250634 0.424184 0.154574
Si Si4 0.960948 0.386449 0.143242
Si Si5 0.728464 0.627350 0.012360
Si Si6 0.596316 0.286938 0.430533
Si Si7 0.815870 0.787763 0.467075
Si Si8 0.337746 0.676525 0.366774
O O1 0.510422 0.606474 0.158087
O O2 0.558734 0.411045 0.356017
O O3 0.653078 0.520580 0.153171
O O4 0.979878 0.993196 0.105997
O O5 0.948303 0.471668 0.186867
O O6 0.822897 0.470536 0.318612
O O7 0.216653 0.683537 0.287438
O O8 0.697178 0.093806 0.456240
O O9 0.269481 0.470289 0.026560
O O10 0.188191 0.503311 0.149809
O O11 0.003724 0.062437 0.300175
O O12 0.663695 0.004299 0.262308
O O13 0.000000 0.500000 0.000000
O O14 0.500000 0.500000 0.000000
O O15 0.707472 0.356251 0.519236
O O16 0.500000 0.500000 0.500000
O O17 0.804822 0.612346 0.550178
O O18 0.000000 0.000000 0.500000
#
# Coordination Sequence:
#
# PCOD9009043 Si02
#       8
#     2   2   2   2   2   2   2   2
#     4  10  21  39  66  98 132 170 226 290 355 423
#     4  10  23  44  65  98 135 179 234 292 349 427
#     4  11  23  40  67  97 139 178 230 292 363 424
#     4  11  26  45  65  99 139 189 242 286 350 435
#     4   9  21  40  58  94 130 173 222 280 347 424
#     4  10  22  41  70 100 131 175 232 294 358 421
#     4  12  26  42  72 109 146 187 236 305 373 437
#     4  11  23  44  68 100 141 179 242 290 367 426
#
# _framework density 23.1891
#
# number of rings (size 3 to 8) (size 9 to 14) (size 15 to 20)
#    0.000    1.500    1.250    2.625    7.000    2.500 
#    6.750    0.000    0.000    0.000    0.000    0.000 
#    0.000    0.000    0.000    0.000    0.000    0.000 
#
# Total GULP energy -89275.707479 kJ/mol
# GULP energy per Si atom -5579.731717 kJ/mol
# Density = 2.313632 g / cm^3
# Si number density = 23.189100 Si / 1000 Ang^3
#
#
#
# Elastic Constant Matrix: (Units=GPa)
#
#
# Indices 1 2 3 4 5 6 
#
# 1 106.6613 45.6818 32.7213 11.9073 -11.3015 14.0049
# 2 45.6818 94.1018 14.8290 3.9552 -13.5024 22.7124
# 3 32.7213 14.8290 56.8170 26.4381 -11.3345 10.7945
# 4 11.9073 3.9552 26.4381 29.9523 4.2443 -4.9749
# 5 -11.3015 -13.5024 -11.3345 4.2443 33.2405 7.1073
# 6 14.0049 22.7124 10.7945 -4.9749 7.1073 37.2757
#
#
#
# Elastic Compliance Matrix: (Units=1/GPa)
#
#
# Indices 1 2 3 4 5 6 
#
# 1 0.013889 -0.006189 -0.008651 0.003457 -0.001572 0.001819
# 2 -0.006189 0.019128 0.013591 -0.017522 0.016548 -0.018759
# 3 -0.008651 0.013591 0.072541 -0.076509 0.046739 -0.045160
# 4 0.003457 -0.017522 -0.076509 0.120160 -0.059990 0.059009
# 5 -0.001572 0.016548 0.046739 -0.059990 0.069330 -0.044253
# 6 0.001819 -0.018759 -0.045160 0.059009 -0.044253 0.066964
#
#
# Mechanical properties :
#
#
# Convention : Reuss Voigt Hill
#
# Bulk Modulus (GPa) = 9.70327 49.33827 29.52077
# Shear Modulus (GPa) = 12.53558 31.05023 21.79290
#
# Velocity S-wave (km/s) = 2.32756 3.66321 3.06893
# Velocity P-wave (km/s) = 3.37889 6.26217 5.03148
#
# Compressibility (1/GPa) = 0.10305804
#
# Stress axis : x y z
#
# Youngs Moduli (GPa) = 72.00061 52.27876 13.78537
#
# Poissons Ratio (x) = 0.32355 0.11926
# Poissons Ratio (y) = 0.44561 -0.18735
# Poissons Ratio (z) = 0.62290 -0.71050
#
# Static dielectric constant tensor:
#      x y z
#    x 1.880420 0.012350 -0.064630 
#    y 0.012350 1.930470 0.048330 
#    z -0.064630 0.048330 1.918760 
# 
# From -- ./inp_files/519611.got.cif
#   From: 2010.05.17/outbox.cif.g08.bks.cpg/sg2_260_cif.got.tgz:519611.got - 2010.06.03 11:33:40.
