data_PCOD9009810
_publ_section_title
;
Structure prediction by ZEFSAII (Michael W. Deem and Ramdas Pophale) SiO2 
 PCOD9009810
Probable space group: P -1
;
_chemical_formula_sum "Si O2"
_cell_formula_units_Z 16
_cell_length_a 10.683100
_cell_length_b 8.143852
_cell_length_c 9.729454
_cell_angle_alpha 66.758090
_cell_angle_beta 71.642176
_cell_angle_gamma 65.902040
_cell_volume 697.956029
_symmetry_space_group_name_H-M "P -1"
_symmetry_group_IT_number 2
_symmetry_cell_setting 'triclinic'
loop_
_space_group_symop_operation_xyz
x,y,z
-x,-y,-z
loop_
_atom_site_type_symbol
_atom_site_label
_atom_site_fract_x
_atom_site_fract_y
_atom_site_fract_z
Si Si1 0.791510 0.994336 0.572365
Si Si2 0.386337 0.950316 0.147940
Si Si3 0.256529 0.573294 0.048251
Si Si4 0.595686 0.104287 0.363104
Si Si5 0.501489 0.466205 0.795335
Si Si6 0.774728 0.009727 0.080035
Si Si7 0.080568 0.699248 0.497734
Si Si8 0.015965 0.371885 0.747525
O O1 0.680162 0.944628 0.724959
O O2 0.738211 0.032642 0.423328
O O3 0.813868 0.185094 0.557948
O O4 0.937650 0.831083 0.571960
O O5 0.453055 0.729156 0.236280
O O6 0.500000 0.000000 0.000000
O O7 0.260499 0.987475 0.069225
O O8 0.369792 0.551053 0.138777
O O9 0.121223 0.519091 0.151404
O O10 0.358643 0.475702 0.921467
O O11 0.191786 0.797883 0.966417
O O12 0.530813 0.329624 0.328365
O O13 0.500000 0.000000 0.500000
O O14 0.635671 0.047530 0.210203
O O15 0.888800 0.818413 0.151110
O O16 0.049828 0.672697 0.357692
O O17 0.110227 0.499757 0.629458
#
# Coordination Sequence:
#
# PCOD9009810 Si02
#       8
#     2   2   2   2   2   2   2   2
#     4  11  24  44  60  95 138 165 206 270 334 372
#     4  11  24  41  65  89 131 172 208 265 332 382
#     4   9  19  35  63  87 127 156 205 270 312 365
#     4  11  23  39  69  93 126 169 218 267 314 388
#     4   9  21  38  56  94 123 162 212 262 320 376
#     4  10  21  40  59  98 121 161 220 264 307 389
#     4  10  24  40  63  94 133 173 205 267 328 383
#     4  11  21  39  69  95 119 174 227 256 310 397
#
# _framework density 22.924081000000001
#
# number of rings (size 3 to 8) (size 9 to 14) (size 15 to 20)
#    0.000    1.750    1.250    3.375    3.500    2.500 
#    2.250    0.625    0.000    0.000    0.000    0.000 
#    0.000    0.000    0.000    0.000    0.000    0.000 
#
# Total GULP energy -89384.318329 kJ/mol
# GULP energy per Si atom -5586.519896 kJ/mol
# Density = 2.287191 g / cm^3
# Si number density = 22.924081 Si / 1000 Ang^3
#
#
#
# Elastic Constant Matrix: (Units=GPa)
#
#
# Indices 1 2 3 4 5 6 
#
# 1 41.0445 12.5816 16.3850 -6.9139 -17.4623 -13.0799
# 2 12.5816 66.3677 14.9902 -6.5317 -5.2886 -24.5105
# 3 16.3850 14.9902 78.3473 1.5727 -14.1988 -9.3226
# 4 -6.9139 -6.5317 1.5727 26.7179 -1.7825 3.6650
# 5 -17.4623 -5.2886 -14.1988 -1.7825 34.6890 3.9269
# 6 -13.0799 -24.5105 -9.3226 3.6650 3.9269 23.4422
#
#
#
# Elastic Compliance Matrix: (Units=1/GPa)
#
#
# Indices 1 2 3 4 5 6 
#
# 1 0.040265 0.002710 -0.003659 0.009806 0.017494 0.019381
# 2 0.002710 0.025159 -0.002048 0.003484 0.001575 0.026194
# 3 -0.003659 -0.002048 0.014795 -0.002276 0.003620 0.001450
# 4 0.009806 0.003484 -0.002276 0.041302 0.006585 0.000649
# 5 0.017494 0.001575 0.003620 0.006585 0.039098 0.005269
# 6 0.019381 0.026194 0.001450 0.000649 0.005269 0.080452
#
#
# Mechanical properties :
#
#
# Convention : Reuss Voigt Hill
#
# Bulk Modulus (GPa) = 13.47265 30.40811 21.94038
# Shear Modulus (GPa) = 18.39539 26.42332 22.40936
#
# Velocity S-wave (km/s) = 2.83583 3.39875 3.12997
# Velocity P-wave (km/s) = 4.07583 5.35681 4.75961
#
# Compressibility (1/GPa) = 0.07422444
#
# Stress axis : x y z
#
# Youngs Moduli (GPa) = 24.83549 39.74768 67.58951
#
# Poissons Ratio (x) = -0.10772 0.24734
# Poissons Ratio (y) = -0.06731 0.13842
# Poissons Ratio (z) = 0.09088 0.08140
#
# Static dielectric constant tensor:
#      x y z
#    x 1.877030 0.016520 -0.048110 
#    y 0.016520 1.836430 0.000180 
#    z -0.048110 0.000180 1.863790 
# 
# From -- ./inp_files/242513.got.cif
#   From: 2010.05.17/outbox.cif.g08.bks.cpg/sg2_122_cif.got.tgz:242513.got - 2010.06.03 11:33:40.
