data_PCOD9009824
_publ_section_title
;
Structure prediction by ZEFSAII (Michael W. Deem and Ramdas Pophale) SiO2 
 PCOD9009824
Probable space group: P -1
;
_chemical_formula_sum "Si O2"
_cell_formula_units_Z 10
_cell_length_a 9.347361
_cell_length_b 8.805069
_cell_length_c 7.367340
_cell_angle_alpha 102.462373
_cell_angle_beta 54.526760
_cell_angle_gamma 64.117134
_cell_volume 341.269341
_symmetry_space_group_name_H-M "P -1"
_symmetry_group_IT_number 2
_symmetry_cell_setting 'triclinic'
loop_
_space_group_symop_operation_xyz
x,y,z
-x,-y,-z
loop_
_atom_site_type_symbol
_atom_site_label
_atom_site_fract_x
_atom_site_fract_y
_atom_site_fract_z
Si Si1 0.253488 0.455092 0.685889
Si Si2 0.794598 0.192211 0.062005
Si Si3 0.423132 0.727710 0.119953
Si Si4 0.811518 0.746816 0.808562
Si Si5 0.684572 0.907601 0.553017
O O1 0.524078 0.329677 0.381389
O O2 0.185409 0.631733 0.925105
O O3 0.054589 0.602500 0.710779
O O4 0.253349 0.269468 0.679109
O O5 0.778138 0.134003 0.857592
O O6 0.000000 0.000000 0.000000
O O7 0.673422 0.666724 0.875367
O O8 0.500000 0.500000 0.000000
O O9 0.328718 0.895183 0.403516
O O10 0.838145 0.786966 0.594007
O O11 0.591576 0.968263 0.139892
#
# Coordination Sequence:
#
# PCOD9009824 Si02
#       5
#     2   2   2   2   2
#     4  11  19  34  63  87 112 146 203 243 274 335
#     4  11  23  36  59  93 118 144 192 247 291 325
#     4  10  21  40  60  83 120 155 188 236 290 344
#     4   9  18  34  63  84 111 152 202 227 282 339
#     4   9  17  33  59  85 109 151 195 230 277 339
#
# _framework density 29.302367
#
# number of rings (size 3 to 8) (size 9 to 14) (size 15 to 20)
#    1.200    0.800    2.000    3.000    0.000    0.000 
#    0.000    3.000    0.000    0.000    0.000    0.000 
#    0.000    0.000    0.000    0.000    0.000    0.000 
#
# Total GULP energy -55918.051575 kJ/mol
# GULP energy per Si atom -5591.805157 kJ/mol
# Density = 2.923567 g / cm^3
# Si number density = 29.302367 Si / 1000 Ang^3
#
#
#
# Elastic Constant Matrix: (Units=GPa)
#
#
# Indices 1 2 3 4 5 6 
#
# 1 235.9729 83.8270 75.5155 26.4562 27.4950 2.3451
# 2 83.8270 124.1228 51.0427 14.1069 16.6986 0.6731
# 3 75.5155 51.0427 80.6468 37.1955 25.3558 -1.9517
# 4 26.4562 14.1069 37.1955 53.1619 16.0253 11.5032
# 5 27.4950 16.6986 25.3558 16.0253 98.5529 32.9739
# 6 2.3451 0.6731 -1.9517 11.5032 32.9739 93.3806
#
#
#
# Elastic Compliance Matrix: (Units=1/GPa)
#
#
# Indices 1 2 3 4 5 6 
#
# 1 0.006660 -0.002501 -0.005074 0.001025 -0.000190 -0.000314
# 2 -0.002501 0.012169 -0.006682 0.002782 0.000082 -0.000536
# 3 -0.005074 -0.006682 0.030461 -0.016735 -0.004002 0.004287
# 4 0.001025 0.002782 -0.016735 0.030156 0.000023 -0.004118
# 5 -0.000190 0.000082 -0.004002 0.000023 0.012745 -0.004583
# 6 -0.000314 -0.000536 0.004287 -0.004118 -0.004583 0.012936
#
#
# Mechanical properties :
#
#
# Convention : Reuss Voigt Hill
#
# Bulk Modulus (GPa) = 48.13209 95.72366 71.92788
# Shear Modulus (GPa) = 35.57022 64.37624 49.97323
#
# Velocity S-wave (km/s) = 3.48789 4.69226 4.13417
# Velocity P-wave (km/s) = 5.71683 7.88003 6.88393
#
# Compressibility (1/GPa) = 0.02077616
#
# Stress axis : x y z
#
# Youngs Moduli (GPa) = 150.14219 82.17630 32.82868
#
# Poissons Ratio (x) = 0.20549 0.16658
# Poissons Ratio (y) = 0.37544 0.21937
# Poissons Ratio (z) = 0.76186 0.54913
#
# Static dielectric constant tensor:
#      x y z
#    x 2.210050 0.082230 0.026030 
#    y 0.082230 2.353320 0.082480 
#    z 0.026030 0.082480 2.366300 
# 
# From -- ./inp_files/155851.got.cif
#   From: 2010.05.17/outbox.cif.g08.bks.cpg/sg2_78_cif.got.tgz:155851.got - 2010.06.03 11:33:40.
