data_PCOD9009577
_publ_section_title
;
Structure prediction by ZEFSAII (Michael W. Deem and Ramdas Pophale) SiO2 
 PCOD9009577
Probable space group: P -1
;
_chemical_formula_sum "Si O2"
_cell_formula_units_Z 10
_cell_length_a 5.167815
_cell_length_b 10.480210
_cell_length_c 10.394237
_cell_angle_alpha 125.424887
_cell_angle_beta 74.556233
_cell_angle_gamma 106.929365
_cell_volume 435.408304
_symmetry_space_group_name_H-M "P -1"
_symmetry_group_IT_number 2
_symmetry_cell_setting 'triclinic'
loop_
_space_group_symop_operation_xyz
x,y,z
-x,-y,-z
loop_
_atom_site_type_symbol
_atom_site_label
_atom_site_fract_x
_atom_site_fract_y
_atom_site_fract_z
Si Si1 0.383147 0.983649 0.363800
Si Si2 0.723946 0.064814 0.114439
Si Si3 0.843279 0.746723 0.334434
Si Si4 0.238476 0.630863 0.847583
Si Si5 0.650924 0.672925 0.044968
O O1 0.147839 0.828043 0.298607
O O2 0.500000 0.000000 0.500000
O O3 0.604123 0.004792 0.233293
O O4 0.232916 0.140269 0.475645
O O5 0.746870 0.256546 0.213810
O O6 0.500000 0.000000 0.000000
O O7 0.000000 0.000000 0.000000
O O8 0.798945 0.560847 0.272019
O O9 0.669841 0.754731 0.230794
O O10 0.490263 0.696621 0.948353
O O11 0.962191 0.665453 0.968365
O O12 0.500000 0.500000 0.000000
#
# Coordination Sequence:
#
# PCOD9009577 Si02
#       5
#     2   2   2   2   2
#     4  11  28  46  72 104 149 194 234 300 359 425
#     4  12  29  49  72 106 148 188 239 297 364 424
#     4  10  24  44  72 106 145 187 246 288 358 430
#     4  11  24  42  74 106 139 189 236 297 352 423
#     4  10  21  39  70 109 138 179 239 295 347 420
#
# _framework density 22.966946
#
# number of rings (size 3 to 8) (size 9 to 14) (size 15 to 20)
#    0.000    1.200    0.000    4.800   19.600    0.800 
#    0.000    1.000    0.000    0.000    0.000    0.000 
#    0.000    0.000    0.000    0.000    0.000    0.000 
#
# Total GULP energy -55798.941674 kJ/mol
# GULP energy per Si atom -5579.894167 kJ/mol
# Density = 2.291467 g / cm^3
# Si number density = 22.966946 Si / 1000 Ang^3
#
#
#
# Elastic Constant Matrix: (Units=GPa)
#
#
# Indices 1 2 3 4 5 6 
#
# 1 144.3599 49.7542 43.3058 -1.6148 4.5407 17.7790
# 2 49.7542 181.6941 65.3090 -0.0463 12.1743 -27.2140
# 3 43.3058 65.3090 103.9011 -12.4461 -6.6921 9.4583
# 4 -1.6148 -0.0463 -12.4461 45.8529 2.5872 5.7441
# 5 4.5407 12.1743 -6.6921 2.5872 38.8293 -2.3914
# 6 17.7790 -27.2140 9.4583 5.7441 -2.3914 56.1599
#
#
#
# Elastic Compliance Matrix: (Units=1/GPa)
#
#
# Indices 1 2 3 4 5 6 
#
# 1 0.008731 -0.002136 -0.002005 0.000256 -0.000931 -0.003528
# 2 -0.002136 0.009467 -0.006132 -0.002350 -0.003224 0.006399
# 3 -0.002005 -0.006132 0.015613 0.004581 0.004219 -0.005255
# 4 0.000256 -0.002350 0.004581 0.023633 -0.000351 -0.004423
# 5 -0.000931 -0.003224 0.004219 -0.000351 0.027577 -0.000768
# 6 -0.003528 0.006399 -0.005255 -0.004423 -0.000768 0.023329
#
#
# Mechanical properties :
#
#
# Convention : Reuss Voigt Hill
#
# Bulk Modulus (GPa) = 75.38126 82.96590 79.17358
# Shear Modulus (GPa) = 37.50446 46.27417 41.88931
#
# Velocity S-wave (km/s) = 4.04539 4.49354 4.27534
# Velocity P-wave (km/s) = 7.39683 7.94512 7.67588
#
# Compressibility (1/GPa) = 0.01326590
#
# Stress axis : x y z
#
# Youngs Moduli (GPa) = 114.52960 105.63268 64.04814
#
# Poissons Ratio (x) = 0.22566 0.12839
# Poissons Ratio (y) = 0.24467 0.39273
# Poissons Ratio (z) = 0.22959 0.64772
#
# Static dielectric constant tensor:
#      x y z
#    x 1.940670 -0.173970 -0.079020 
#    y -0.173970 2.008220 0.004510 
#    z -0.079020 0.004510 1.871890 
# 
# From -- ./inp_files/133555.got.cif
#   From: 2010.05.17/outbox.cif.g08.bks.cpg/sg2_67_cif.got.tgz:133555.got - 2010.06.03 11:33:40.
