data_PCOD9009638
_publ_section_title
;
Structure prediction by ZEFSAII (Michael W. Deem and Ramdas Pophale) SiO2 
 PCOD9009638
Probable space group: P -1
;
_chemical_formula_sum "Si O2"
_cell_formula_units_Z 14
_cell_length_a 20.649147
_cell_length_b 5.488399
_cell_length_c 11.001439
_cell_angle_alpha 117.179243
_cell_angle_beta 30.651733
_cell_angle_gamma 105.360327
_cell_volume 542.442948
_symmetry_space_group_name_H-M "P -1"
_symmetry_group_IT_number 2
_symmetry_cell_setting 'triclinic'
loop_
_space_group_symop_operation_xyz
x,y,z
-x,-y,-z
loop_
_atom_site_type_symbol
_atom_site_label
_atom_site_fract_x
_atom_site_fract_y
_atom_site_fract_z
Si Si1 0.343953 0.874116 0.389767
Si Si2 0.118720 0.748658 0.872314
Si Si3 0.610415 0.615611 0.993257
Si Si4 0.570046 0.660282 0.329507
Si Si5 0.847898 0.388297 0.932626
Si Si6 0.867007 0.808413 0.643962
Si Si7 0.851675 0.834909 0.406059
O O1 0.232447 0.880806 0.672504
O O2 0.483812 0.874212 0.218041
O O3 0.282553 0.099667 0.437141
O O4 0.363334 0.588476 0.212007
O O5 0.105693 0.506921 0.743257
O O6 0.153799 0.604709 0.916681
O O7 0.967032 0.937679 0.177518
O O8 0.567275 0.515169 0.168597
O O9 0.746051 0.679011 0.822606
O O10 0.500000 0.500000 0.500000
O O11 0.500000 0.000000 0.500000
O O12 0.719310 0.594961 0.125520
O O13 0.986089 0.407207 0.654533
O O14 0.855621 0.059230 0.814357
O O15 0.841089 0.951718 0.584282
#
# Coordination Sequence:
#
# PCOD9009638 Si02
#       7
#     2   2   2   2   2   2   2
#     4  11  23  41  65 100 135 182 226 289 353 421
#     4  10  21  42  65 102 132 176 232 283 346 424
#     4  11  25  43  66 100 137 181 238 289 354 427
#     4  12  27  48  72 105 145 192 240 299 365 440
#     4  10  23  43  74 101 143 186 235 297 363 419
#     4  10  21  46  71 106 138 186 240 294 357 433
#     4  10  21  39  71  94 136 180 226 285 346 417
#
# _framework density 25.809169000000001
#
# number of rings (size 3 to 8) (size 9 to 14) (size 15 to 20)
#    0.000    1.429    1.429    3.000    2.000    1.143 
#    2.571    1.429    0.000    0.000    0.000    0.000 
#    0.000    0.000    0.000    0.000    0.000    0.000 
#
# Total GULP energy -78319.672583 kJ/mol
# GULP energy per Si atom -5594.262327 kJ/mol
# Density = 2.575043 g / cm^3
# Si number density = 25.809169 Si / 1000 Ang^3
#
#
#
# Elastic Constant Matrix: (Units=GPa)
#
#
# Indices 1 2 3 4 5 6 
#
# 1 128.3696 16.4421 53.9134 0.5335 -22.5721 -5.3577
# 2 16.4421 67.9935 38.2824 -9.2412 -9.2133 -4.0978
# 3 53.9134 38.2824 118.6508 -12.1101 -19.0364 -14.0150
# 4 0.5335 -9.2412 -12.1101 31.5901 -7.5439 -0.3977
# 5 -22.5721 -9.2133 -19.0364 -7.5439 48.4195 6.0262
# 6 -5.3577 -4.0978 -14.0150 -0.3977 6.0262 39.0627
#
#
#
# Elastic Compliance Matrix: (Units=1/GPa)
#
#
# Indices 1 2 3 4 5 6 
#
# 1 0.010092 0.000236 -0.004375 -0.001085 0.002938 -0.000625
# 2 0.000236 0.018466 -0.005356 0.003855 0.002149 -0.000244
# 3 -0.004375 -0.005356 0.013360 0.004255 0.002447 0.003297
# 4 -0.001085 0.003855 0.004255 0.036217 0.007418 0.001006
# 5 0.002938 0.002149 0.002447 0.007418 0.024829 -0.002249
# 6 -0.000625 -0.000244 0.003297 0.001006 -0.002249 0.027029
#
#
# Mechanical properties :
#
#
# Convention : Reuss Voigt Hill
#
# Bulk Modulus (GPa) = 43.61327 59.14331 51.37829
# Shear Modulus (GPa) = 31.92310 37.57284 34.74797
#
# Velocity S-wave (km/s) = 3.52076 3.81963 3.67323
# Velocity P-wave (km/s) = 5.78470 6.51292 6.15958
#
# Compressibility (1/GPa) = 0.02292880
#
# Stress axis : x y z
#
# Youngs Moduli (GPa) = 99.08495 54.15299 74.84832
#
# Poissons Ratio (x) = -0.01277 0.32746
# Poissons Ratio (y) = -0.02337 0.40088
# Poissons Ratio (z) = 0.43350 0.29003
#
# Static dielectric constant tensor:
#      x y z
#    x 2.001240 -0.051300 -0.034860 
#    y -0.051300 2.087800 0.031690 
#    z -0.034860 0.031690 2.119270 
# 
# From -- ./inp_files/69458.got.cif
#   From: 2010.05.17/outbox.cif.g08.bks.cpg/sg2_35_cif.got.tgz:69458.got - 2010.06.03 11:33:40.
