data_PCOD9009138
_publ_section_title
;
Structure prediction by ZEFSAII (Michael W. Deem and Ramdas Pophale) SiO2 
 PCOD9009138
Probable space group: P -1
;
_chemical_formula_sum "Si O2"
_cell_formula_units_Z 16
_cell_length_a 8.522448
_cell_length_b 19.474481
_cell_length_c 5.615039
_cell_angle_alpha 125.813919
_cell_angle_beta 80.146970
_cell_angle_gamma 112.487334
_cell_volume 696.531267
_symmetry_space_group_name_H-M "P -1"
_symmetry_group_IT_number 2
_symmetry_cell_setting 'triclinic'
loop_
_space_group_symop_operation_xyz
x,y,z
-x,-y,-z
loop_
_atom_site_type_symbol
_atom_site_label
_atom_site_fract_x
_atom_site_fract_y
_atom_site_fract_z
Si Si1 0.701378 0.052955 0.030701
Si Si2 0.214421 0.682592 0.836887
Si Si3 0.420779 0.654139 0.346051
Si Si4 0.633300 0.594846 0.560688
Si Si5 0.844628 0.485646 0.185599
Si Si6 0.139557 0.074992 0.465507
Si Si7 0.587875 0.762697 0.133667
Si Si8 0.856692 0.151486 0.675791
O O1 0.754612 0.114736 0.380838
O O2 0.762178 0.102171 0.851341
O O3 0.500000 0.000000 0.000000
O O4 0.791018 0.976959 0.853057
O O5 0.261557 0.675432 0.538816
O O6 0.144036 0.580056 0.738980
O O7 0.405940 0.734434 0.996103
O O8 0.112442 0.743936 0.070713
O O9 0.533649 0.615901 0.405262
O O10 0.544170 0.746629 0.390149
O O11 0.329488 0.576252 0.024864
O O12 0.500000 0.500000 0.500000
O O13 0.807316 0.575562 0.442166
O O14 0.663108 0.685157 0.889424
O O15 0.000000 0.500000 0.000000
O O16 0.291334 0.135362 0.719451
O O17 0.035780 0.138889 0.551979
O O18 0.000000 0.000000 0.500000
#
# Coordination Sequence:
#
# PCOD9009138 Si02
#       8
#     2   2   2   2   2   2   2   2
#     4  11  24  45  74  99 133 181 228 281 343 420
#     4  10  23  41  63  98 131 175 228 274 333 415
#     4  10  21  39  67  90 130 173 225 277 321 412
#     4  11  20  42  64  94 128 173 228 268 323 408
#     4  11  24  39  62  96 135 173 218 280 344 396
#     4  10  24  47  67 100 138 172 222 290 346 405
#     4  10  22  41  69  95 127 178 229 269 341 406
#     4  11  25  44  68 101 142 175 222 289 347 405
#
# _framework density 22.970973999999998
#
# number of rings (size 3 to 8) (size 9 to 14) (size 15 to 20)
#    0.000    1.500    3.750    1.875    5.250    3.500 
#   15.750    0.000    0.000    0.000    0.000    0.000 
#    0.000    0.000    0.000    0.000    0.000    0.000 
#
# Total GULP energy -89232.563573 kJ/mol
# GULP energy per Si atom -5577.035223 kJ/mol
# Density = 2.291869 g / cm^3
# Si number density = 22.970974 Si / 1000 Ang^3
#
#
#
# Elastic Constant Matrix: (Units=GPa)
#
#
# Indices 1 2 3 4 5 6 
#
# 1 66.3176 13.0367 21.4659 0.5176 -27.8411 1.6554
# 2 13.0367 54.3530 28.6125 2.5739 1.6649 12.9668
# 3 21.4659 28.6125 121.9856 4.0838 -27.0016 -5.1205
# 4 0.5176 2.5739 4.0838 33.1261 0.5555 -4.1009
# 5 -27.8411 1.6649 -27.0016 0.5555 57.4804 6.0250
# 6 1.6554 12.9668 -5.1205 -4.1009 6.0250 31.9500
#
#
#
# Elastic Compliance Matrix: (Units=1/GPa)
#
#
# Indices 1 2 3 4 5 6 
#
# 1 0.020317 -0.004757 -0.000294 -0.000211 0.009955 -0.001073
# 2 -0.004757 0.025899 -0.006731 -0.002346 -0.005073 -0.010688
# 3 -0.000294 -0.006731 0.011075 -0.000482 0.004889 0.003538
# 4 -0.000211 -0.002346 -0.000482 0.031080 -0.001094 0.005081
# 5 0.009955 -0.005073 0.004889 -0.001094 0.024937 -0.002516
# 6 -0.001073 -0.010688 0.003538 0.005081 -0.002516 0.037386
#
#
# Mechanical properties :
#
#
# Convention : Reuss Voigt Hill
#
# Bulk Modulus (GPa) = 29.64963 40.98736 35.31849
# Shear Modulus (GPa) = 26.95437 36.48072 31.71754
#
# Velocity S-wave (km/s) = 3.42922 3.98945 3.71990
# Velocity P-wave (km/s) = 5.34929 6.25322 5.81883
#
# Compressibility (1/GPa) = 0.03372724
#
# Stress axis : x y z
#
# Youngs Moduli (GPa) = 49.22005 38.61218 90.29433
#
# Poissons Ratio (x) = 0.18369 0.02653
# Poissons Ratio (y) = 0.23415 0.60773
# Poissons Ratio (z) = 0.01446 0.25988
#
# Static dielectric constant tensor:
#      x y z
#    x 1.911280 -0.033280 -0.002760 
#    y -0.033280 1.916680 -0.020990 
#    z -0.002760 -0.020990 1.942790 
# 
# From -- ./inp_files/53922.got.cif
#   From: 2010.05.17/outbox.cif.g08.bks.cpg/sg2_27_cif.got.tgz:53922.got - 2010.06.03 11:33:40.
