data_PCOD9009273
_publ_section_title
;
Structure prediction by ZEFSAII (Michael W. Deem and Ramdas Pophale) SiO2 
 PCOD9009273
Probable space group: P -1
;
_chemical_formula_sum "Si O2"
_cell_formula_units_Z 14
_cell_length_a 5.507241
_cell_length_b 5.143278
_cell_length_c 21.214803
_cell_angle_alpha 110.421250
_cell_angle_beta 106.446424
_cell_angle_gamma 95.791031
_cell_volume 526.609717
_symmetry_space_group_name_H-M "P -1"
_symmetry_group_IT_number 2
_symmetry_cell_setting 'triclinic'
loop_
_space_group_symop_operation_xyz
x,y,z
-x,-y,-z
loop_
_atom_site_type_symbol
_atom_site_label
_atom_site_fract_x
_atom_site_fract_y
_atom_site_fract_z
Si Si1 0.233270 0.409232 0.545192
Si Si2 0.802228 0.045903 0.915829
Si Si3 0.016157 0.298070 0.209291
Si Si4 0.712860 0.922776 0.589813
Si Si5 0.160751 0.118326 0.736512
Si Si6 0.331934 0.407823 0.042887
Si Si7 0.484985 0.392385 0.676785
O O1 0.493658 0.648786 0.570566
O O2 0.240000 0.118713 0.484006
O O3 0.228330 0.414624 0.621185
O O4 0.000000 0.500000 0.500000
O O5 0.679668 0.295874 0.899328
O O6 0.934747 0.857395 0.863712
O O7 0.594378 0.824838 0.924395
O O8 0.042969 0.237408 0.988393
O O9 0.943975 0.604900 0.224367
O O10 0.292325 0.336586 0.269304
O O11 0.818404 0.092163 0.223217
O O12 0.963484 0.952941 0.654916
O O13 0.604689 0.195420 0.622264
O O14 0.415775 0.241458 0.725479
O O15 0.500000 0.500000 0.000000
#
# Coordination Sequence:
#
# PCOD9009273 Si02
#       7
#     2   2   2   2   2   2   2
#     4  11  23  39  67  90 121 163 216 275 342 394
#     4  10  22  40  64  97 136 171 214 263 315 372
#     4  11  25  44  64  96 132 174 216 268 319 388
#     4  10  23  41  61  90 125 161 214 277 335 393
#     4  11  25  41  68  90 128 170 220 266 327 390
#     4  10  21  39  67  99 134 171 215 262 310 376
#     4  11  25  42  65  89 130 166 218 273 333 393
#
# _framework density 26.585152999999998
#
# number of rings (size 3 to 8) (size 9 to 14) (size 15 to 20)
#    0.000    1.429    1.429    2.571    4.000    5.714 
#    0.000    0.000    0.000    0.000    0.000    0.000 
#    0.000    0.000    0.000    0.000    0.000    0.000 
#
# Total GULP energy -78394.744703 kJ/mol
# GULP energy per Si atom -5599.624622 kJ/mol
# Density = 2.652464 g / cm^3
# Si number density = 26.585153 Si / 1000 Ang^3
#
#
#
# Elastic Constant Matrix: (Units=GPa)
#
#
# Indices 1 2 3 4 5 6 
#
# 1 56.2679 21.3278 11.0213 12.1788 -9.2591 13.2413
# 2 21.3278 141.5142 34.8233 5.1713 -10.4838 14.5243
# 3 11.0213 34.8233 99.3646 22.1780 -4.3061 1.6434
# 4 12.1788 5.1713 22.1780 41.5277 7.1693 -16.2556
# 5 -9.2591 -10.4838 -4.3061 7.1693 36.0438 3.2462
# 6 13.2413 14.5243 1.6434 -16.2556 3.2462 48.4802
#
#
#
# Elastic Compliance Matrix: (Units=1/GPa)
#
#
# Indices 1 2 3 4 5 6 
#
# 1 0.025955 -0.001751 0.001728 -0.014949 0.010449 -0.012335
# 2 -0.001751 0.008333 -0.002524 -0.000368 0.001943 -0.002186
# 3 0.001728 -0.002524 0.012977 -0.009039 0.003365 -0.003412
# 4 -0.014949 -0.000368 -0.009039 0.043973 -0.015601 0.020288
# 5 0.010449 0.001943 0.003365 -0.015601 0.035503 -0.011158
# 6 -0.012335 -0.002186 -0.003412 0.020288 -0.011158 0.032317
#
#
# Mechanical properties :
#
#
# Convention : Reuss Voigt Hill
#
# Bulk Modulus (GPa) = 23.71227 47.94349 35.82788
# Shear Modulus (GPa) = 28.05717 40.54196 34.29956
#
# Velocity S-wave (km/s) = 3.25217 3.90934 3.59580
# Velocity P-wave (km/s) = 4.80009 6.20084 5.54487
#
# Compressibility (1/GPa) = 0.04217227
#
# Stress axis : x y z
#
# Youngs Moduli (GPa) = 38.52801 120.00430 77.06172
#
# Poissons Ratio (x) = 0.21007 -0.13317
# Poissons Ratio (y) = 0.06744 0.19449
# Poissons Ratio (z) = -0.06658 0.30287
#
# Static dielectric constant tensor:
#      x y z
#    x 2.134000 -0.077140 0.018810 
#    y -0.077140 2.132360 -0.086240 
#    z 0.018810 -0.086240 2.068780 
# 
# From -- ./inp_files/7799.got.cif
#   From: 2010.05.17/outbox.cif.g08.bks.cpg/sg2_4_cif.got.tgz:7799.got - 2010.06.03 11:33:40.
