data_PCOD9009316
_publ_section_title
;
Structure prediction by ZEFSAII (Michael W. Deem and Ramdas Pophale) SiO2 
 PCOD9009316
Probable space group: P -1
;
_chemical_formula_sum "Si O2"
_cell_formula_units_Z 14
_cell_length_a 8.642249
_cell_length_b 8.246691
_cell_length_c 11.529899
_cell_angle_alpha 137.215077
_cell_angle_beta 80.729460
_cell_angle_gamma 94.702468
_cell_volume 550.066058
_symmetry_space_group_name_H-M "P -1"
_symmetry_group_IT_number 2
_symmetry_cell_setting 'triclinic'
loop_
_space_group_symop_operation_xyz
x,y,z
-x,-y,-z
loop_
_atom_site_type_symbol
_atom_site_label
_atom_site_fract_x
_atom_site_fract_y
_atom_site_fract_z
Si Si1 0.860836 0.328303 0.394197
Si Si2 0.781714 0.363554 0.676967
Si Si3 0.622056 0.627888 0.416816
Si Si4 0.896211 0.638915 0.237695
Si Si5 0.371068 0.894891 0.230594
Si Si6 0.553439 0.742906 0.910036
Si Si7 0.048008 0.868297 0.123073
O O1 0.782681 0.273231 0.498418
O O2 0.734541 0.466027 0.401675
O O3 0.000000 0.500000 0.500000
O O4 0.946093 0.092724 0.205194
O O5 0.667919 0.247931 0.723424
O O6 0.735291 0.649327 0.839821
O O7 0.957236 0.309232 0.672643
O O8 0.736435 0.737460 0.364945
O O9 0.513164 0.455933 0.271178
O O10 0.555836 0.854559 0.616175
O O11 0.934158 0.744937 0.164393
O O12 0.890429 0.351704 0.078928
O O13 0.202291 0.949162 0.215612
O O14 0.479778 0.747362 0.049283
O O15 0.500000 0.000000 0.000000
#
# Coordination Sequence:
#
# PCOD9009316 Si02
#       7
#     2   2   2   2   2   2   2
#     4  12  23  39  67 103 136 171 219 274 336 396
#     4  11  25  45  68 101 135 177 226 275 331 396
#     4  12  25  44  71  98 136 179 223 271 341 395
#     4  10  21  41  70 100 129 175 223 280 327 393
#     4  11  23  47  73  96 135 178 227 277 327 398
#     4  12  29  47  66  99 140 178 223 277 335 401
#     4  10  21  39  68 104 134 166 226 279 332 388
#
# _framework density 25.451488999999999
#
# number of rings (size 3 to 8) (size 9 to 14) (size 15 to 20)
#    0.000    0.857    4.286    2.143    2.000    5.714 
#    0.000    0.000    0.000    0.000    0.000    0.000 
#    0.000    0.000    0.000    0.000    0.000    0.000 
#
# Total GULP energy -78468.080285 kJ/mol
# GULP energy per Si atom -5604.862878 kJ/mol
# Density = 2.539356 g / cm^3
# Si number density = 25.451489 Si / 1000 Ang^3
#
#
#
# Elastic Constant Matrix: (Units=GPa)
#
#
# Indices 1 2 3 4 5 6 
#
# 1 45.9954 5.6110 19.4917 8.7656 4.7759 5.4281
# 2 5.6110 71.6988 24.4450 -4.3228 3.6492 1.6144
# 3 19.4917 24.4450 148.9693 16.1846 0.2590 2.1418
# 4 8.7656 -4.3228 16.1846 47.2802 -2.7282 -10.5138
# 5 4.7759 3.6492 0.2590 -2.7282 39.8857 1.1386
# 6 5.4281 1.6144 2.1418 -10.5138 1.1386 27.9167
#
#
#
# Elastic Compliance Matrix: (Units=1/GPa)
#
#
# Indices 1 2 3 4 5 6 
#
# 1 0.025055 -0.001182 -0.002377 -0.005584 -0.003070 -0.006599
# 2 -0.001182 0.015126 -0.002612 0.002560 -0.001066 0.000563
# 3 -0.002377 -0.002612 0.007755 -0.002655 0.000320 -0.000995
# 4 -0.005584 0.002560 -0.002655 0.025839 0.001911 0.010795
# 5 -0.003070 -0.001066 0.000320 0.001911 0.025657 0.000307
# 6 -0.006599 0.000563 -0.000995 0.010795 0.000307 0.041201
#
#
# Mechanical properties :
#
#
# Convention : Reuss Voigt Hill
#
# Bulk Modulus (GPa) = 28.09544 40.63986 34.36765
# Shear Modulus (GPa) = 30.33266 37.49092 33.91179
#
# Velocity S-wave (km/s) = 3.45597 3.84218 3.65418
# Velocity P-wave (km/s) = 5.19497 5.97372 5.59790
#
# Compressibility (1/GPa) = 0.03559297
#
# Stress axis : x y z
#
# Youngs Moduli (GPa) = 39.91281 66.11070 128.95449
#
# Poissons Ratio (x) = 0.07814 0.30658
# Poissons Ratio (y) = 0.04718 0.33680
# Poissons Ratio (z) = 0.09489 0.17267
#
# Static dielectric constant tensor:
#      x y z
#    x 2.073080 0.011830 -0.022330 
#    y 0.011830 2.034130 0.018660 
#    z -0.022330 0.018660 1.970980 
# 
# From -- ./inp_files/186852.got.cif
#   From: 2010.05.17/outbox.cif.g08.bks.cpg/sg2_94_cif.got.tgz:186852.got - 2010.06.03 11:33:40.
