data_PCOD9009403
_publ_section_title
;
Structure prediction by ZEFSAII (Michael W. Deem and Ramdas Pophale) SiO2 
 PCOD9009403
Probable space group: P -1
;
_chemical_formula_sum "Si O2"
_cell_formula_units_Z 16
_cell_length_a 13.009816
_cell_length_b 25.667923
_cell_length_c 8.778146
_cell_angle_alpha 143.217403
_cell_angle_beta 45.826853
_cell_angle_gamma 158.241045
_cell_volume 635.899315
_symmetry_space_group_name_H-M "P -1"
_symmetry_group_IT_number 2
_symmetry_cell_setting 'triclinic'
loop_
_space_group_symop_operation_xyz
x,y,z
-x,-y,-z
loop_
_atom_site_type_symbol
_atom_site_label
_atom_site_fract_x
_atom_site_fract_y
_atom_site_fract_z
Si Si1 0.071010 0.277064 0.324126
Si Si2 0.797664 0.351613 0.234397
Si Si3 0.173345 0.685844 0.193179
Si Si4 0.153308 0.835366 0.387516
Si Si5 0.449561 0.062792 0.115430
Si Si6 0.586049 0.559835 0.227285
Si Si7 0.196331 0.127523 0.244837
Si Si8 0.656536 0.901382 0.395513
O O1 0.993677 0.198935 0.388033
O O2 0.360643 0.421481 0.269805
O O3 0.004773 0.346462 0.583143
O O4 0.846383 0.109081 0.060818
O O5 0.699624 0.211327 0.088577
O O6 0.479221 0.222890 0.222151
O O7 0.000000 0.500000 0.500000
O O8 0.946768 0.428529 0.095186
O O9 0.321090 0.842631 0.309826
O O10 0.395263 0.740861 0.179384
O O11 0.861146 0.645259 0.171912
O O12 0.265462 0.964316 0.452697
O O13 0.440968 0.132812 0.414059
O O14 0.500000 0.000000 0.000000
O O15 0.680274 0.709614 0.501111
O O16 0.500000 0.500000 0.000000
O O17 0.939365 0.992931 0.316999
O O18 0.000000 0.000000 0.000000
#
# Coordination Sequence:
#
# PCOD9009403 Si02
#       8
#     2   2   2   2   2   2   2   2
#     4  10  22  38  70 108 132 183 242 299 365 419
#     4  12  29  48  70 104 149 196 242 302 377 439
#     4  10  21  39  68  96 139 180 239 293 355 430
#     4   9  20  36  66  96 138 177 237 294 358 416
#     4  12  24  42  75 106 141 179 251 305 364 436
#     4  11  24  43  70 103 148 188 246 309 366 431
#     4  11  26  46  73  97 147 203 238 293 378 448
#     4  11  20  42  65 105 133 189 233 297 360 428
#
# _framework density 25.161214999999999
#
# number of rings (size 3 to 8) (size 9 to 14) (size 15 to 20)
#    0.750    0.500    2.500    3.750    5.250    0.500 
#    2.250    1.250    0.000    0.000    0.000    0.000 
#    0.000    0.000    0.000    0.000    0.000    0.000 
#
# Total GULP energy -89113.356188 kJ/mol
# GULP energy per Si atom -5569.584762 kJ/mol
# Density = 2.510395 g / cm^3
# Si number density = 25.161215 Si / 1000 Ang^3
#
#
#
# Elastic Constant Matrix: (Units=GPa)
#
#
# Indices 1 2 3 4 5 6 
#
# 1 81.2500 32.4596 25.7001 8.6433 8.7353 15.6591
# 2 32.4596 136.2899 31.5625 -20.6930 4.1816 -8.7547
# 3 25.7001 31.5625 125.8241 -0.4531 35.2061 6.6529
# 4 8.6433 -20.6930 -0.4531 36.5477 -8.8771 -2.4178
# 5 8.7353 4.1816 35.2061 -8.8771 45.7056 4.1320
# 6 15.6591 -8.7547 6.6529 -2.4178 4.1320 36.4318
#
#
#
# Elastic Compliance Matrix: (Units=1/GPa)
#
#
# Indices 1 2 3 4 5 6 
#
# 1 0.018056 -0.005978 -0.000842 -0.009051 -0.003174 -0.009284
# 2 -0.005978 0.011028 -0.002799 0.008859 0.003475 0.005925
# 3 -0.000842 -0.002799 0.011380 -0.003509 -0.008885 -0.001614
# 4 -0.009051 0.008859 -0.003509 0.037475 0.010178 0.007992
# 5 -0.003174 0.003475 -0.008885 0.010178 0.030899 0.000993
# 6 -0.009284 0.005925 -0.001614 0.007992 0.000993 0.033575
#
#
# Mechanical properties :
#
#
# Convention : Reuss Voigt Hill
#
# Bulk Modulus (GPa) = 47.11204 58.08981 52.60093
# Shear Modulus (GPa) = 29.63352 40.64648 35.14000
#
# Velocity S-wave (km/s) = 3.43555 4.02362 3.74116
# Velocity P-wave (km/s) = 5.87385 6.68754 6.29386
#
# Compressibility (1/GPa) = 0.02122600
#
# Stress axis : x y z
#
# Youngs Moduli (GPa) = 55.38402 90.67494 87.87082
#
# Poissons Ratio (x) = 0.54209 0.07398
# Poissons Ratio (y) = 0.33111 0.24594
# Poissons Ratio (z) = 0.04663 0.25379
#
# Static dielectric constant tensor:
#      x y z
#    x 1.969520 0.016570 -0.059290 
#    y 0.016570 2.056890 0.015690 
#    z -0.059290 0.015690 2.191830 
# 
# From -- ./inp_files/321078.got.cif
#   From: 2010.05.17/outbox.cif.g08.bks.cpg/sg2_161_cif.got.tgz:321078.got - 2010.06.03 11:33:40.
