data_PCOD9009572
_publ_section_title
;
Structure prediction by ZEFSAII (Michael W. Deem and Ramdas Pophale) SiO2 
 PCOD9009572
Probable space group: P -1
;
_chemical_formula_sum "Si O2"
_cell_formula_units_Z 13
_cell_length_a 9.243674
_cell_length_b 5.350625
_cell_length_c 11.882461
_cell_angle_alpha 67.606515
_cell_angle_beta 66.876432
_cell_angle_gamma 93.927597
_cell_volume 483.006616
_symmetry_space_group_name_H-M "P -1"
_symmetry_group_IT_number 2
_symmetry_cell_setting 'triclinic'
loop_
_space_group_symop_operation_xyz
x,y,z
-x,-y,-z
loop_
_atom_site_type_symbol
_atom_site_label
_atom_site_fract_x
_atom_site_fract_y
_atom_site_fract_z
Si Si1 0.391923 0.691743 0.550621
Si Si2 0.000000 0.000000 0.000000
Si Si3 0.754277 0.302540 0.637773
Si Si4 0.831160 0.373534 0.172862
Si Si5 0.657451 0.511044 0.836962
Si Si6 0.933080 0.967485 0.776410
Si Si7 0.581019 0.147430 0.117487
O O1 0.500000 0.500000 0.500000
O O2 0.262171 0.684234 0.491909
O O3 0.303674 0.568009 0.712165
O O4 0.500000 0.000000 0.500000
O O5 0.036388 0.893425 0.134650
O O6 0.081174 0.327888 0.956292
O O7 0.749673 0.550827 0.682966
O O8 0.903467 0.185548 0.654980
O O9 0.571867 0.107141 0.762550
O O10 0.742859 0.157360 0.137631
O O11 0.926963 0.195043 0.248169
O O12 0.766640 0.729667 0.852041
O O13 0.487884 0.591935 0.865521
O O14 0.630731 0.218514 0.961226
#
# Coordination Sequence:
#
# PCOD9009572 Si02
#       7
#     2   1   2   2   2   2   2
#     4  12  29  54  83 117 157 210 270 329 391 475
#     4  12  26  46  72 112 156 210 252 320 396 470
#     4  11  24  45  75 106 154 197 261 320 396 466
#     4  12  26  47  76 112 155 205 260 323 396 468
#     4  10  21  42  64 109 145 191 250 319 387 457
#     4  11  26  43  71 111 156 198 256 324 395 475
#     4  10  21  39  70 105 143 191 253 322 379 458
#
# _framework density 26.914745
#
# number of rings (size 3 to 8) (size 9 to 14) (size 15 to 20)
#    0.000    0.923    3.077    2.769    6.462    1.846 
#    0.000    3.077    0.000    0.000    0.000    0.000 
#    0.000    0.000    0.000    0.000    0.000    0.000 
#
# Total GULP energy -72541.779539 kJ/mol
# GULP energy per Si atom -5580.136888 kJ/mol
# Density = 2.685349 g / cm^3
# Si number density = 26.914745 Si / 1000 Ang^3
#
#
#
# Elastic Constant Matrix: (Units=GPa)
#
#
# Indices 1 2 3 4 5 6 
#
# 1 150.6171 18.5829 20.2288 2.9781 42.1966 -0.2774
# 2 18.5829 93.5832 3.9118 9.9885 7.9549 4.8583
# 3 20.2288 3.9118 68.8531 25.9082 30.2771 6.5690
# 4 2.9781 9.9885 25.9082 30.0498 8.5135 6.2325
# 5 42.1966 7.9549 30.2771 8.5135 57.5126 11.0735
# 6 -0.2774 4.8583 6.5690 6.2325 11.0735 45.1072
#
#
#
# Elastic Compliance Matrix: (Units=1/GPa)
#
#
# Indices 1 2 3 4 5 6 
#
# 1 0.008653 -0.001379 -0.000239 0.001317 -0.006547 0.001662
# 2 -0.001379 0.011522 0.002100 -0.005142 -0.000802 -0.000648
# 3 -0.000239 0.002100 0.027558 -0.021436 -0.011759 0.001608
# 4 0.001317 -0.005142 -0.021436 0.053155 0.004058 -0.004657
# 5 -0.006547 -0.000802 -0.011759 0.004058 0.029033 -0.005930
# 6 0.001662 -0.000648 0.001608 -0.004657 -0.005930 0.024114
#
#
# Mechanical properties :
#
#
# Convention : Reuss Voigt Hill
#
# Bulk Modulus (GPa) = 20.53500 44.27782 32.40641
# Shear Modulus (GPa) = 29.53274 44.55592 37.04433
#
# Velocity S-wave (km/s) = 3.31610 4.07313 3.71395
# Velocity P-wave (km/s) = 4.72316 6.21348 5.51886
#
# Compressibility (1/GPa) = 0.04869734
#
# Stress axis : x y z
#
# Youngs Moduli (GPa) = 115.57092 86.78842 36.28687
#
# Poissons Ratio (x) = 0.11964 0.00867
# Poissons Ratio (y) = 0.15932 -0.07619
# Poissons Ratio (z) = 0.02762 -0.18222
#
# Static dielectric constant tensor:
#      x y z
#    x 2.197330 -0.011670 -0.023040 
#    y -0.011670 2.166130 -0.013490 
#    z -0.023040 -0.013490 2.083830 
# 
# From -- ./inp_files/24673.got.cif
#   From: 2010.05.17/outbox.cif.g08.bks.cpg/sg2_13_cif.got.tgz:24673.got - 2010.06.03 11:33:40.
