data_PCOD9009569
_publ_section_title
;
Structure prediction by ZEFSAII (Michael W. Deem and Ramdas Pophale) SiO2 
 PCOD9009569
Probable space group: P -1
;
_chemical_formula_sum "Si O2"
_cell_formula_units_Z 14
_cell_length_a 12.397018
_cell_length_b 9.663568
_cell_length_c 9.014183
_cell_angle_alpha 68.050195
_cell_angle_beta 60.286531
_cell_angle_gamma 37.848777
_cell_volume 575.164892
_symmetry_space_group_name_H-M "P -1"
_symmetry_group_IT_number 2
_symmetry_cell_setting 'triclinic'
loop_
_space_group_symop_operation_xyz
x,y,z
-x,-y,-z
loop_
_atom_site_type_symbol
_atom_site_label
_atom_site_fract_x
_atom_site_fract_y
_atom_site_fract_z
Si Si1 0.123453 0.168599 0.621702
Si Si2 0.220242 0.266020 0.946580
Si Si3 0.785223 0.682709 0.733625
Si Si4 0.561576 0.450660 0.728371
Si Si5 0.420374 0.862045 0.783811
Si Si6 0.699595 0.503779 0.322183
Si Si7 0.035918 0.997701 0.302746
O O1 0.154742 0.214980 0.421490
O O2 0.965166 0.411713 0.711067
O O3 0.053755 0.062267 0.698045
O O4 0.315528 0.001132 0.648245
O O5 0.311169 0.309995 0.760766
O O6 0.284244 0.050632 0.926481
O O7 0.280023 0.236176 0.087196
O O8 0.000000 0.500000 0.000000
O O9 0.622103 0.754198 0.719302
O O10 0.452171 0.656942 0.831697
O O11 0.635368 0.494919 0.527554
O O12 0.740955 0.212446 0.775356
O O13 0.569666 0.548158 0.266425
O O14 0.911806 0.254101 0.248871
O O15 0.000000 0.000000 0.500000
#
# Coordination Sequence:
#
# PCOD9009569 Si02
#       7
#     2   2   2   2   2   2   2
#     4  11  23  42  74 105 134 179 242 295 336 412
#     4  12  28  47  67 103 151 188 224 286 366 417
#     4  11  26  44  67 103 143 183 230 288 357 417
#     4  10  22  42  73 106 129 179 243 285 340 410
#     4  12  24  44  72 101 139 184 239 294 339 411
#     4  10  24  44  69 102 143 179 228 289 347 414
#     4  10  21  39  70 104 134 174 230 291 344 398
#
# _framework density 24.340847
#
# number of rings (size 3 to 8) (size 9 to 14) (size 15 to 20)
#    0.000    1.143    4.286    0.857    8.000    0.000 
#    2.571    3.571    0.000    0.000    0.000    0.000 
#    0.000    0.000    0.000    0.000    0.000    0.000 
#
# Total GULP energy -78454.316716 kJ/mol
# GULP energy per Si atom -5603.879765 kJ/mol
# Density = 2.428545 g / cm^3
# Si number density = 24.340847 Si / 1000 Ang^3
#
#
#
# Elastic Constant Matrix: (Units=GPa)
#
#
# Indices 1 2 3 4 5 6 
#
# 1 85.2638 55.0738 27.1484 -1.6896 17.8524 -13.7792
# 2 55.0738 143.7456 40.9298 12.5269 7.1205 -9.3227
# 3 27.1484 40.9298 60.8103 1.5419 -1.7445 11.2135
# 4 -1.6896 12.5269 1.5419 32.0989 -0.9719 -2.9815
# 5 17.8524 7.1205 -1.7445 -0.9719 23.2902 1.3240
# 6 -13.7792 -9.3227 11.2135 -2.9815 1.3240 43.3676
#
#
#
# Elastic Compliance Matrix: (Units=1/GPa)
#
#
# Indices 1 2 3 4 5 6 
#
# 1 0.023231 -0.005146 -0.009253 0.004032 -0.017297 0.009472
# 2 -0.005146 0.010906 -0.005271 -0.004109 -0.000058 0.001792
# 3 -0.009253 -0.005271 0.026544 -0.000413 0.011318 -0.011310
# 4 0.004032 -0.004109 -0.000413 0.033231 -0.000638 0.002808
# 5 -0.017297 -0.000058 0.011318 -0.000638 0.057616 -0.010237
# 6 0.009472 0.001792 -0.011310 0.002808 -0.010237 0.029884
#
#
# Mechanical properties :
#
#
# Convention : Reuss Voigt Hill
#
# Bulk Modulus (GPa) = 46.85769 59.56928 53.21349
# Shear Modulus (GPa) = 21.94280 30.86253 26.40267
#
# Velocity S-wave (km/s) = 3.00572 3.56467 3.29706
# Velocity P-wave (km/s) = 5.59806 6.43961 6.03352
#
# Compressibility (1/GPa) = 0.02134121
#
# Stress axis : x y z
#
# Youngs Moduli (GPa) = 43.04674 91.68847 37.67308
#
# Poissons Ratio (x) = 0.47183 0.34858
# Poissons Ratio (y) = 0.22152 0.19859
# Poissons Ratio (z) = 0.39830 0.48332
#
# Static dielectric constant tensor:
#      x y z
#    x 1.895200 -0.014420 -0.012820 
#    y -0.014420 1.906420 0.013290 
#    z -0.012820 0.013290 1.921080 
# 
# From -- ./inp_files/330866.got.cif
#   From: 2010.05.17/outbox.cif.g08.bks.cpg/sg2_166_cif.got.tgz:330866.got - 2010.06.03 11:33:40.
