data_PCOD9009294
_publ_section_title
;
Structure prediction by ZEFSAII (Michael W. Deem and Ramdas Pophale) SiO2 
 PCOD9009294
Probable space group: P -1
;
_chemical_formula_sum "Si O2"
_cell_formula_units_Z 14
_cell_length_a 7.422985
_cell_length_b 12.388189
_cell_length_c 8.750161
_cell_angle_alpha 75.915073
_cell_angle_beta 76.055325
_cell_angle_gamma 48.598351
_cell_volume 581.856276
_symmetry_space_group_name_H-M "P -1"
_symmetry_group_IT_number 2
_symmetry_cell_setting 'triclinic'
loop_
_space_group_symop_operation_xyz
x,y,z
-x,-y,-z
loop_
_atom_site_type_symbol
_atom_site_label
_atom_site_fract_x
_atom_site_fract_y
_atom_site_fract_z
Si Si1 0.523586 0.449209 0.334117
Si Si2 0.698431 0.707544 0.500647
Si Si3 0.314390 0.338647 0.992997
Si Si4 0.005402 0.491137 0.261762
Si Si5 0.792562 0.060513 0.645066
Si Si6 0.024846 0.220294 0.117062
Si Si7 0.214753 0.761266 0.143377
O O1 0.500000 0.500000 0.500000
O O2 0.411400 0.369025 0.399958
O O3 0.777957 0.335480 0.228273
O O4 0.354187 0.596546 0.221848
O O5 0.867743 0.664544 0.629799
O O6 0.466973 0.851466 0.419202
O O7 0.906056 0.612916 0.365205
O O8 0.596819 0.231444 0.987644
O O9 0.236290 0.425667 0.819712
O O10 0.195331 0.457109 0.109076
O O11 0.189682 0.267150 0.055097
O O12 0.825326 0.151922 0.724420
O O13 0.000000 0.000000 0.500000
O O14 0.837475 0.931558 0.773869
O O15 0.975652 0.199491 0.959724
#
# Coordination Sequence:
#
# PCOD9009294 Si02
#       7
#     2   2   2   2   2   2   2
#     4  12  20  39  69 100 130 177 231 280 332 393
#     4  11  21  40  67  99 136 178 228 279 345 395
#     4  11  22  43  67 101 138 168 226 286 340 397
#     4  10  21  39  68 100 137 169 224 297 332 393
#     4  12  25  47  67  98 143 183 227 280 341 416
#     4  12  26  42  70 102 136 187 225 274 351 409
#     4  12  25  45  71 101 137 181 231 285 339 401
#
# _framework density 24.060925999999998
#
# number of rings (size 3 to 8) (size 9 to 14) (size 15 to 20)
#    0.000    0.571    4.286    5.143    0.000    0.571 
#    0.000    0.714    0.000    0.000    0.000    0.000 
#    0.000    0.000    0.000    0.000    0.000    0.000 
#
# Total GULP energy -78111.615368 kJ/mol
# GULP energy per Si atom -5579.401098 kJ/mol
# Density = 2.400616 g / cm^3
# Si number density = 24.060926 Si / 1000 Ang^3
#
#
#
# Elastic Constant Matrix: (Units=GPa)
#
#
# Indices 1 2 3 4 5 6 
#
# 1 114.0059 31.7971 35.4289 -5.4982 -3.0445 5.4729
# 2 31.7971 115.4537 34.9437 -41.1856 4.1561 -1.1304
# 3 35.4289 34.9437 96.6150 -33.3772 21.6205 -6.3170
# 4 -5.4982 -41.1856 -33.3772 61.8190 -11.3300 1.4244
# 5 -3.0445 4.1561 21.6205 -11.3300 43.8027 -3.1829
# 6 5.4729 -1.1304 -6.3170 1.4244 -3.1829 31.3536
#
#
#
# Elastic Compliance Matrix: (Units=1/GPa)
#
#
# Indices 1 2 3 4 5 6 
#
# 1 0.011083 -0.002761 -0.004799 -0.002935 0.002452 -0.002619
# 2 -0.002761 0.012445 -0.001069 0.007672 0.001175 0.000486
# 3 -0.004799 -0.001069 0.016366 0.006449 -0.006413 0.003153
# 4 -0.002935 0.007672 0.006449 0.024924 0.002419 0.001202
# 5 0.002452 0.001175 -0.006413 0.002419 0.026747 0.000928
# 6 -0.002619 0.000486 0.003153 0.001202 0.000928 0.033044
#
#
# Mechanical properties :
#
#
# Convention : Reuss Voigt Hill
#
# Bulk Modulus (GPa) = 44.17929 58.93487 51.55708
# Shear Modulus (GPa) = 33.46439 42.32203 37.89321
#
# Velocity S-wave (km/s) = 3.73341 4.19854 3.97279
# Velocity P-wave (km/s) = 6.08159 6.93187 6.52061
#
# Compressibility (1/GPa) = 0.02263504
#
# Stress axis : x y z
#
# Youngs Moduli (GPa) = 90.23225 80.35458 61.10123
#
# Poissons Ratio (x) = 0.22182 0.29325
# Poissons Ratio (y) = 0.24909 0.06534
# Poissons Ratio (z) = 0.43306 0.08593
#
# Static dielectric constant tensor:
#      x y z
#    x 2.042950 -0.013400 0.079600 
#    y -0.013400 1.951630 -0.018900 
#    z 0.079600 -0.018900 1.990500 
# 
# From -- ./inp_files/206229.got.cif
#   From: 2010.05.17/outbox.cif.g08.bks.cpg/sg2_104_cif.got.tgz:206229.got - 2010.06.03 11:33:40.
