data_PCOD9009075
_publ_section_title
;
Structure prediction by ZEFSAII (Michael W. Deem and Ramdas Pophale) SiO2 
 PCOD9009075
Probable space group: P -1
;
_chemical_formula_sum "Si O2"
_cell_formula_units_Z 12
_cell_length_a 9.305389
_cell_length_b 8.555117
_cell_length_c 7.003034
_cell_angle_alpha 110.876392
_cell_angle_beta 65.173598
_cell_angle_gamma 85.995212
_cell_volume 456.656943
_symmetry_space_group_name_H-M "P -1"
_symmetry_group_IT_number 2
_symmetry_cell_setting 'triclinic'
loop_
_space_group_symop_operation_xyz
x,y,z
-x,-y,-z
loop_
_atom_site_type_symbol
_atom_site_label
_atom_site_fract_x
_atom_site_fract_y
_atom_site_fract_z
Si Si1 0.423103 0.769469 0.477647
Si Si2 0.424600 0.834676 0.950811
Si Si3 0.901639 0.947737 0.852634
Si Si4 0.281338 0.462660 0.275239
Si Si5 0.246167 0.164370 0.763232
Si Si6 0.972788 0.673480 0.380048
O O1 0.428380 0.772419 0.704307
O O2 0.338834 0.626729 0.390899
O O3 0.610319 0.743296 0.304151
O O4 0.323728 0.965494 0.562122
O O5 0.547609 0.678489 0.921298
O O6 0.500000 0.000000 0.000000
O O7 0.229817 0.901733 0.120594
O O8 0.992889 0.819084 0.584454
O O9 0.796085 0.847586 0.996942
O O10 0.000000 0.000000 0.000000
O O11 0.172547 0.399015 0.473476
O O12 0.145173 0.531208 0.217712
O O13 0.092814 0.248005 0.752043
#
# Coordination Sequence:
#
# PCOD9009075 Si02
#       6
#     2   2   2   2   2   2
#     4  10  21  39  67 100 132 175 229 268 333 400
#     4  11  20  40  69  95 133 179 218 270 334 396
#     4  11  24  42  70 100 128 176 227 271 332 402
#     4  11  23  40  70  99 133 182 217 274 338 391
#     4  10  22  42  70  95 134 177 221 274 333 397
#     4  11  23  44  70  96 140 173 220 277 334 391
#
# _framework density 26.277932
#
# number of rings (size 3 to 8) (size 9 to 14) (size 15 to 20)
#    0.000    1.333    3.333    2.500    0.000    2.667 
#    0.000    4.167    0.000    0.000    0.000    0.000 
#    0.000    0.000    0.000    0.000    0.000    0.000 
#
# Total GULP energy -67229.906242 kJ/mol
# GULP energy per Si atom -5602.492187 kJ/mol
# Density = 2.621812 g / cm^3
# Si number density = 26.277932 Si / 1000 Ang^3
#
#
#
# Elastic Constant Matrix: (Units=GPa)
#
#
# Indices 1 2 3 4 5 6 
#
# 1 201.5808 79.2970 40.1868 31.9891 -9.0430 -25.8291
# 2 79.2970 85.2159 31.0676 28.8184 -1.6458 -21.3321
# 3 40.1868 31.0676 81.3219 15.9616 -10.0464 -13.9156
# 4 31.9891 28.8184 15.9616 40.4164 -12.9880 -6.2642
# 5 -9.0430 -1.6458 -10.0464 -12.9880 42.6702 8.5739
# 6 -25.8291 -21.3321 -13.9156 -6.2642 8.5739 70.4154
#
#
#
# Elastic Compliance Matrix: (Units=1/GPa)
#
#
# Indices 1 2 3 4 5 6 
#
# 1 0.008028 -0.006642 -0.001068 -0.000846 0.000827 0.000545
# 2 -0.006642 0.024029 -0.003661 -0.011662 -0.005650 0.003770
# 3 -0.001068 -0.003661 0.015004 -0.001507 0.002500 0.001026
# 4 -0.000846 -0.011662 -0.001507 0.037480 0.010852 -0.002128
# 5 0.000827 -0.005650 0.002500 0.010852 0.027958 -0.003353
# 6 0.000545 0.003770 0.001026 -0.002128 -0.003353 0.015965
#
#
# Mechanical properties :
#
#
# Convention : Reuss Voigt Hill
#
# Bulk Modulus (GPa) = 41.12384 74.35795 57.74089
# Shear Modulus (GPa) = 31.38475 45.20490 38.29483
#
# Velocity S-wave (km/s) = 3.45967 4.15210 3.82160
# Velocity P-wave (km/s) = 5.62518 7.16553 6.44156
#
# Compressibility (1/GPa) = 0.02431680
#
# Stress axis : x y z
#
# Youngs Moduli (GPa) = 124.56669 41.61610 66.65105
#
# Poissons Ratio (x) = 0.27643 0.07119
# Poissons Ratio (y) = 0.82741 0.24404
# Poissons Ratio (z) = 0.13305 0.15238
#
# Static dielectric constant tensor:
#      x y z
#    x 2.037250 0.040630 -0.046090 
#    y 0.040630 2.168420 0.054290 
#    z -0.046090 0.054290 2.065630 
# 
# From -- ./inp_files/155767.got.cif
#   From: 2010.05.17/outbox.cif.g08.bks.cpg/sg2_78_cif.got.tgz:155767.got - 2010.06.03 11:33:40.
