data_PCOD9009966
_publ_section_title
;
Structure prediction by ZEFSAII (Michael W. Deem and Ramdas Pophale) SiO2 
 PCOD9009966
Probable space group: P -1
;
_chemical_formula_sum "Si O2"
_cell_formula_units_Z 16
_cell_length_a 6.652228
_cell_length_b 11.592699
_cell_length_c 22.880951
_cell_angle_alpha 143.779366
_cell_angle_beta 138.020206
_cell_angle_gamma 60.819582
_cell_volume 668.722754
_symmetry_space_group_name_H-M "P -1"
_symmetry_group_IT_number 2
_symmetry_cell_setting 'triclinic'
loop_
_space_group_symop_operation_xyz
x,y,z
-x,-y,-z
loop_
_atom_site_type_symbol
_atom_site_label
_atom_site_fract_x
_atom_site_fract_y
_atom_site_fract_z
Si Si1 0.205074 0.650085 0.992991
Si Si2 0.261467 0.281455 0.781319
Si Si3 0.342730 0.239261 0.231808
Si Si4 0.680434 0.327201 0.459342
Si Si5 0.799550 0.917870 0.031340
Si Si6 0.261633 0.002505 0.820221
Si Si7 0.784245 0.325696 0.613441
Si Si8 0.136902 0.149227 0.438543
O O1 0.376690 0.675797 0.104061
O O2 0.471493 0.808938 0.074837
O O3 0.154090 0.426803 0.864428
O O4 0.882724 0.710912 0.948488
O O5 0.132294 0.339211 0.715788
O O6 0.075690 0.045554 0.652844
O O7 0.485152 0.206932 0.313369
O O8 0.280824 0.455480 0.304994
O O9 0.015275 0.073725 0.096562
O O10 0.567594 0.176314 0.208654
O O11 0.500000 0.500000 0.500000
O O12 0.717151 0.256211 0.503808
O O13 0.028089 0.346456 0.515927
O O14 0.871294 0.939993 0.125302
O O15 0.500000 0.000000 0.000000
O O16 0.978962 0.907420 0.675955
O O17 0.506295 0.185916 0.535560
#
# Coordination Sequence:
#
# PCOD9009966 Si02
#       8
#     2   2   2   2   2   2   2   2
#     4   9  22  45  61  86 124 162 203 249 304 355
#     4  10  22  42  63  83 125 170 203 245 293 358
#     4   9  21  37  59  92 128 157 190 252 313 361
#     4   9  20  39  59  90 124 155 196 250 305 360
#     4  11  23  37  65  96 118 148 208 259 303 363
#     4   9  20  39  65  86 122 161 190 251 316 353
#     4  11  22  36  63  88 122 160 204 247 297 355
#     4  10  21  40  61  88 119 162 205 242 297 360
#
# _framework density 23.926207999999999
#
# number of rings (size 3 to 8) (size 9 to 14) (size 15 to 20)
#    0.000    2.250    0.000    1.875    3.500    8.000 
#    0.000    9.375    0.000    0.000    0.000    0.000 
#    0.000    0.000    0.000    0.000    0.000    0.000 
#
# Total GULP energy -89135.011414 kJ/mol
# GULP energy per Si atom -5570.938213 kJ/mol
# Density = 2.387175 g / cm^3
# Si number density = 23.926208 Si / 1000 Ang^3
#
#
#
# Elastic Constant Matrix: (Units=GPa)
#
#
# Indices 1 2 3 4 5 6 
#
# 1 49.4539 13.6098 19.0986 -0.6923 -22.6128 -13.5485
# 2 13.6098 111.2532 33.5247 -7.7130 -2.6162 -16.2462
# 3 19.0986 33.5247 52.5838 -2.3391 -13.5281 -7.2982
# 4 -0.6923 -7.7130 -2.3391 45.5147 -8.3474 -5.4984
# 5 -22.6128 -2.6162 -13.5281 -8.3474 24.3129 -2.7373
# 6 -13.5485 -16.2462 -7.2982 -5.4984 -2.7373 30.2772
#
#
#
# Elastic Compliance Matrix: (Units=1/GPa)
#
#
# Indices 1 2 3 4 5 6 
#
# 1 0.061283 0.000546 0.000854 0.018037 0.067929 0.037339
# 2 0.000546 0.012002 -0.007266 0.002133 -0.000921 0.005237
# 3 0.000854 -0.007266 0.029082 0.004362 0.018362 0.005946
# 4 0.018037 0.002133 0.004362 0.031008 0.032197 0.018809
# 5 0.067929 -0.000921 0.018362 0.032197 0.131341 0.052050
# 6 0.037339 0.005237 0.005946 0.018809 0.052050 0.062102
#
#
# Mechanical properties :
#
#
# Convention : Reuss Voigt Hill
#
# Bulk Modulus (GPa) = 11.03301 38.41744 24.72522
# Shear Modulus (GPa) = 13.55891 29.82481 21.69186
#
# Velocity S-wave (km/s) = 2.38312 3.53446 3.01427
# Velocity P-wave (km/s) = 3.49194 5.72259 4.74034
#
# Compressibility (1/GPa) = 0.09063710
#
# Stress axis : x y z
#
# Youngs Moduli (GPa) = 16.31771 83.31929 34.38512
#
# Poissons Ratio (x) = -0.04551 -0.02937
# Poissons Ratio (y) = -0.00891 0.24983
# Poissons Ratio (z) = -0.01394 0.60536
#
# Static dielectric constant tensor:
#      x y z
#    x 1.919390 0.004390 0.013900 
#    y 0.004390 2.053680 -0.026880 
#    z 0.013900 -0.026880 1.943220 
# 
# From -- ./inp_files/583334.got.cif
#   From: 2010.05.17/outbox.cif.g08.bks.cpg/sg2_292_cif.got.tgz:583334.got - 2010.06.03 11:33:40.
