data_PCOD9009329
_publ_section_title
;
Structure prediction by ZEFSAII (Michael W. Deem and Ramdas Pophale) SiO2 
 PCOD9009329
Probable space group: P -1
;
_chemical_formula_sum "Si O2"
_cell_formula_units_Z 14
_cell_length_a 18.779447
_cell_length_b 9.712837
_cell_length_c 13.875535
_cell_angle_alpha 143.503614
_cell_angle_beta 27.163987
_cell_angle_gamma 130.910682
_cell_volume 670.051345
_symmetry_space_group_name_H-M "P -1"
_symmetry_group_IT_number 2
_symmetry_cell_setting 'triclinic'
loop_
_space_group_symop_operation_xyz
x,y,z
-x,-y,-z
loop_
_atom_site_type_symbol
_atom_site_label
_atom_site_fract_x
_atom_site_fract_y
_atom_site_fract_z
Si Si1 0.050714 0.306740 0.559370
Si Si2 0.683892 0.960229 0.526421
Si Si3 0.663543 0.083211 0.076937
Si Si4 0.302780 0.511028 0.884203
Si Si5 0.364373 0.665081 0.544417
Si Si6 0.161144 0.797410 0.680097
Si Si7 0.861206 0.683644 0.326942
O O1 0.111049 0.547075 0.602775
O O2 0.068667 0.248584 0.619342
O O3 0.828725 0.900778 0.756065
O O4 0.863147 0.365118 0.797557
O O5 0.494175 0.020678 0.808154
O O6 0.715957 0.720098 0.285454
O O7 0.783350 0.891381 0.465292
O O8 0.748603 0.153389 0.496851
O O9 0.650237 0.306731 0.147023
O O10 0.660748 0.170388 0.238662
O O11 0.445919 0.434026 0.744021
O O12 0.280703 0.796458 0.625434
O O13 0.276554 0.452802 0.554705
O O14 0.000000 0.000000 0.000000
O O15 0.000000 0.500000 0.000000
#
# Coordination Sequence:
#
# PCOD9009329 Si02
#       7
#     2   2   2   2   2   2   2
#     4  11  24  38  65  93 128 153 205 256 310 353
#     4  11  20  38  67  85 124 159 212 247 296 364
#     4  11  22  38  63  98 125 153 198 268 309 348
#     4  11  19  39  63  94 118 160 205 251 297 366
#     4  10  21  39  68  87 119 162 212 238 307 364
#     4  11  23  43  65  89 118 169 212 245 289 379
#     4  11  18  37  65  93 111 165 212 247 290 362
#
# _framework density 20.893920999999999
#
# number of rings (size 3 to 8) (size 9 to 14) (size 15 to 20)
#    0.000    1.143    5.714    2.143    0.000    3.429 
#    0.000    0.714    3.143    0.000    0.000    0.000 
#    0.000    0.000    0.000    0.000    0.000    0.000 
#
# Total GULP energy -78333.130539 kJ/mol
# GULP energy per Si atom -5595.223610 kJ/mol
# Density = 2.084637 g / cm^3
# Si number density = 20.893921 Si / 1000 Ang^3
#
#
#
# Elastic Constant Matrix: (Units=GPa)
#
#
# Indices 1 2 3 4 5 6 
#
# 1 58.0453 29.2837 54.4468 5.7445 -31.9932 -21.6325
# 2 29.2837 104.0721 30.6346 -6.6766 -16.0930 -22.6230
# 3 54.4468 30.6346 176.9213 -8.5104 -26.7556 -10.2283
# 4 5.7445 -6.6766 -8.5104 30.7723 -2.4286 -3.7571
# 5 -31.9932 -16.0930 -26.7556 -2.4286 32.3700 6.6626
# 6 -21.6325 -22.6230 -10.2283 -3.7571 6.6626 28.4301
#
#
#
# Elastic Compliance Matrix: (Units=1/GPa)
#
#
# Indices 1 2 3 4 5 6 
#
# 1 0.074263 -0.001321 -0.012760 -0.008900 0.053900 0.037058
# 2 -0.001321 0.012821 -0.000645 0.004164 0.003036 0.008804
# 3 -0.012760 -0.000645 0.008922 0.003705 -0.004136 -0.005553
# 4 -0.008900 0.004164 0.003705 0.036334 -0.001564 0.003043
# 5 0.053900 0.003036 -0.004136 -0.001564 0.077276 0.023624
# 6 0.037058 0.008804 -0.005553 0.003043 0.023624 0.063245
#
#
# Mechanical properties :
#
#
# Convention : Reuss Voigt Hill
#
# Bulk Modulus (GPa) = 15.02532 63.08543 39.05537
# Shear Modulus (GPa) = 15.40844 33.29272 24.35058
#
# Velocity S-wave (km/s) = 2.71857 3.99609 3.41756
# Velocity P-wave (km/s) = 4.13050 7.17986 5.85711
#
# Compressibility (1/GPa) = 0.06655433
#
# Stress axis : x y z
#
# Youngs Moduli (GPa) = 13.46566 77.99964 112.07757
#
# Poissons Ratio (x) = 0.10302 1.43010
# Poissons Ratio (y) = 0.01779 0.07230
# Poissons Ratio (z) = 0.17182 0.05032
#
# Static dielectric constant tensor:
#      x y z
#    x 1.748090 0.025020 -0.009520 
#    y 0.025020 1.737630 -0.007700 
#    z -0.009520 -0.007700 1.758030 
# 
# From -- ./inp_files/578945.got.cif
#   From: 2010.05.17/outbox.cif.g08.bks.cpg/sg2_290_cif.got.tgz:578945.got - 2010.06.03 11:33:40.
