data_PCOD9009370
_publ_section_title
;
Structure prediction by ZEFSAII (Michael W. Deem and Ramdas Pophale) SiO2 
 PCOD9009370
Probable space group: P -1
;
_chemical_formula_sum "Si O2"
_cell_formula_units_Z 14
_cell_length_a 17.167547
_cell_length_b 14.697246
_cell_length_c 23.370909
_cell_angle_alpha 159.319956
_cell_angle_beta 18.046778
_cell_angle_gamma 151.464915
_cell_volume 641.855141
_symmetry_space_group_name_H-M "P -1"
_symmetry_group_IT_number 2
_symmetry_cell_setting 'triclinic'
loop_
_space_group_symop_operation_xyz
x,y,z
-x,-y,-z
loop_
_atom_site_type_symbol
_atom_site_label
_atom_site_fract_x
_atom_site_fract_y
_atom_site_fract_z
Si Si1 0.882878 0.010493 0.507185
Si Si2 0.719880 0.696743 0.532016
Si Si3 0.156580 0.933299 0.060263
Si Si4 0.263150 0.835794 0.730582
Si Si5 0.351420 0.219496 0.989149
Si Si6 0.395558 0.081695 0.558767
Si Si7 0.872502 0.217927 0.515367
O O1 0.633534 0.213161 0.814423
O O2 0.915028 0.022751 0.423986
O O3 0.129735 0.107025 0.420398
O O4 0.811434 0.749704 0.434566
O O5 0.780228 0.415863 0.350952
O O6 0.418624 0.761328 0.783512
O O7 0.897187 0.794831 0.160768
O O8 0.117577 0.153527 0.266504
O O9 0.177171 0.083681 0.075106
O O10 0.398083 0.027841 0.790505
O O11 0.417373 0.775749 0.528646
O O12 0.000000 0.000000 0.000000
O O13 0.209108 0.496330 0.236519
O O14 0.344975 0.832834 0.408767
O O15 0.500000 0.000000 0.500000
#
# Coordination Sequence:
#
# PCOD9009370 Si02
#       7
#     2   2   2   2   2   2   2
#     4  10  21  41  65  96 131 177 216 270 332 383
#     4  10  24  42  65  95 137 171 222 270 330 402
#     4   9  22  40  62  94 132 179 216 263 334 385
#     4  12  25  41  68 100 128 174 222 278 329 394
#     4  11  20  40  67  97 130 170 220 275 325 383
#     4  10  23  43  62  98 136 170 219 271 338 381
#     4  10  21  39  68  94 132 171 223 271 322 394
#
# _framework density 21.811774
#
# number of rings (size 3 to 8) (size 9 to 14) (size 15 to 20)
#    0.857    0.857    1.429    2.571    2.000    3.429 
#    0.000    1.429    0.000    0.000    0.000    0.000 
#    0.000    0.000    0.000    0.000    0.000    0.000 
#
# Total GULP energy -78004.832277 kJ/mol
# GULP energy per Si atom -5571.773734 kJ/mol
# Density = 2.176213 g / cm^3
# Si number density = 21.811774 Si / 1000 Ang^3
#
#
#
# Elastic Constant Matrix: (Units=GPa)
#
#
# Indices 1 2 3 4 5 6 
#
# 1 128.0158 55.5263 36.4585 -9.6305 -2.0614 -30.8162
# 2 55.5263 84.7990 57.9219 -11.1077 -13.8422 -23.2533
# 3 36.4585 57.9219 73.4212 -8.9746 -18.6478 -19.8510
# 4 -9.6305 -11.1077 -8.9746 35.8720 -2.8613 -6.4436
# 5 -2.0614 -13.8422 -18.6478 -2.8613 39.4289 -7.6645
# 6 -30.8162 -23.2533 -19.8510 -6.4436 -7.6645 42.4726
#
#
#
# Elastic Compliance Matrix: (Units=1/GPa)
#
#
# Indices 1 2 3 4 5 6 
#
# 1 0.012020 -0.006773 0.001432 0.002615 0.000310 0.006135
# 2 -0.006773 0.031483 -0.018948 0.004259 0.002949 0.004645
# 3 0.001432 -0.018948 0.034195 0.005757 0.011892 0.009666
# 4 0.002615 0.004259 0.005757 0.034597 0.009566 0.013895
# 5 0.000310 0.002949 0.011892 0.009566 0.035705 0.015292
# 6 0.006135 0.004645 0.009666 0.013895 0.015292 0.039924
#
#
# Mechanical properties :
#
#
# Convention : Reuss Voigt Hill
#
# Bulk Modulus (GPa) = 34.34272 65.11658 49.72965
# Shear Modulus (GPa) = 20.30783 32.64332 26.47557
#
# Velocity S-wave (km/s) = 3.05462 3.87278 3.48777
# Velocity P-wave (km/s) = 5.31226 7.06516 6.25047
#
# Compressibility (1/GPa) = 0.02911825
#
# Stress axis : x y z
#
# Youngs Moduli (GPa) = 83.19360 31.76273 29.24398
#
# Poissons Ratio (x) = 0.21514 -0.04187
# Poissons Ratio (y) = 0.56350 0.55413
# Poissons Ratio (z) = -0.11910 0.60185
#
# Static dielectric constant tensor:
#      x y z
#    x 1.896190 0.071920 -0.004820 
#    y 0.071920 1.903130 -0.032990 
#    z -0.004820 -0.032990 1.780780 
# 
# From -- ./inp_files/613260.got.cif
#   From: 2010.05.17/outbox.cif.g08.bks.cpg/sg2_307_cif.got.tgz:613260.got - 2010.06.03 11:33:40.
