data_PCOD9009553
_publ_section_title
;
Structure prediction by ZEFSAII (Michael W. Deem and Ramdas Pophale) SiO2 
 PCOD9009553
Probable space group: P -1
;
_chemical_formula_sum "Si O2"
_cell_formula_units_Z 13
_cell_length_a 19.208184
_cell_length_b 9.094993
_cell_length_c 5.119755
_cell_angle_alpha 76.552913
_cell_angle_beta 120.054201
_cell_angle_gamma 136.621515
_cell_volume 518.540389
_symmetry_space_group_name_H-M "P -1"
_symmetry_group_IT_number 2
_symmetry_cell_setting 'triclinic'
loop_
_space_group_symop_operation_xyz
x,y,z
-x,-y,-z
loop_
_atom_site_type_symbol
_atom_site_label
_atom_site_fract_x
_atom_site_fract_y
_atom_site_fract_z
Si Si1 0.138363 0.202730 0.611204
Si Si2 0.500000 0.500000 0.500000
Si Si3 0.965123 0.646383 0.657850
Si Si4 0.632957 0.155220 0.772886
Si Si5 0.283027 0.386659 0.295989
Si Si6 0.348245 0.021691 0.602613
Si Si7 0.895662 0.202396 0.643512
O O1 0.143647 0.392889 0.565854
O O2 0.223502 0.253331 0.968559
O O3 0.000000 0.000000 0.500000
O O4 0.022262 0.756905 0.998791
O O5 0.403878 0.461860 0.517190
O O6 0.457342 0.278253 0.640617
O O7 0.925490 0.421185 0.639352
O O8 0.064318 0.800350 0.560596
O O9 0.692257 0.399983 0.765297
O O10 0.500000 0.000000 0.500000
O O11 0.685008 0.112024 0.671256
O O12 0.634108 0.072488 0.089021
O O13 0.188647 0.232800 0.410825
O O14 0.240764 0.983946 0.489266
#
# Coordination Sequence:
#
# PCOD9009553 Si02
#       7
#     2   1   2   2   2   2   2
#     4  12  28  47  77 108 153 203 245 313 382 465
#     4  12  32  48  78 118 154 204 248 328 392 452
#     4  10  21  40  66 103 134 181 245 283 369 425
#     4  12  25  49  76 107 146 210 259 314 364 463
#     4  12  28  51  78 110 155 197 266 309 382 460
#     4  12  27  46  76 109 154 196 255 310 394 440
#     4  10  21  39  69  99 139 181 232 309 348 445
#
# _framework density 25.070368999999999
#
# number of rings (size 3 to 8) (size 9 to 14) (size 15 to 20)
#    0.000    0.615    1.538    5.538    6.462    4.923 
#    0.000    0.000    0.000    0.000    0.000    0.000 
#    0.000    0.000    0.000    0.000    0.000    0.000 
#
# Total GULP energy -72572.294642 kJ/mol
# GULP energy per Si atom -5582.484203 kJ/mol
# Density = 2.501331 g / cm^3
# Si number density = 25.070369 Si / 1000 Ang^3
#
#
#
# Elastic Constant Matrix: (Units=GPa)
#
#
# Indices 1 2 3 4 5 6 
#
# 1 136.3547 19.8289 2.2678 -10.4692 -8.3922 7.7677
# 2 19.8289 150.3286 29.0962 -29.6626 -15.6788 13.3810
# 3 2.2678 29.0962 72.6186 -8.0019 -20.5099 2.1328
# 4 -10.4692 -29.6626 -8.0019 34.1338 0.9419 2.5950
# 5 -8.3922 -15.6788 -20.5099 0.9419 40.5722 -6.4676
# 6 7.7677 13.3810 2.1328 2.5950 -6.4676 52.2943
#
#
#
# Elastic Compliance Matrix: (Units=1/GPa)
#
#
# Indices 1 2 3 4 5 6 
#
# 1 0.007705 -0.000475 0.000646 0.002133 0.001534 -0.000966
# 2 -0.000475 0.008955 -0.002227 0.007241 0.001705 -0.002278
# 3 0.000646 -0.002227 0.017096 0.002000 0.007975 0.000664
# 4 0.002133 0.007241 0.002000 0.036919 0.002798 -0.003737
# 5 0.001534 0.001705 0.007975 0.002798 0.030002 0.002582
# 6 -0.000966 -0.002278 0.000664 -0.003737 0.002582 0.020327
#
#
# Mechanical properties :
#
#
# Convention : Reuss Voigt Hill
#
# Bulk Modulus (GPa) = 33.73159 51.29862 42.51511
# Shear Modulus (GPa) = 37.03816 45.94067 41.48941
#
# Velocity S-wave (km/s) = 3.84782 4.28538 4.07248
# Velocity P-wave (km/s) = 5.76411 6.70762 6.25369
#
# Compressibility (1/GPa) = 0.02964580
#
# Stress axis : x y z
#
# Youngs Moduli (GPa) = 129.78119 111.66851 58.49371
#
# Poissons Ratio (x) = 0.05299 -0.03779
# Poissons Ratio (y) = 0.06158 0.13025
# Poissons Ratio (z) = -0.08385 0.24866
#
# Static dielectric constant tensor:
#      x y z
#    x 1.898180 -0.022600 -0.013210 
#    y -0.022600 2.095060 -0.005910 
#    z -0.013210 -0.005910 1.957700 
# 
# From -- ./inp_files/116862.got.cif
#   From: 2010.05.17/outbox.cif.g08.bks.cpg/sg2_59_cif.got.tgz:116862.got - 2010.06.03 11:33:40.
