data_PCOD9009918
_publ_section_title
;
Structure prediction by ZEFSAII (Michael W. Deem and Ramdas Pophale) SiO2 
 PCOD9009918
Probable space group: P -1
;
_chemical_formula_sum "Si O2"
_cell_formula_units_Z 16
_cell_length_a 11.967304
_cell_length_b 7.310575
_cell_length_c 10.054393
_cell_angle_alpha 98.969106
_cell_angle_beta 93.401225
_cell_angle_gamma 134.361136
_cell_volume 603.299438
_symmetry_space_group_name_H-M "P -1"
_symmetry_group_IT_number 2
_symmetry_cell_setting 'triclinic'
loop_
_space_group_symop_operation_xyz
x,y,z
-x,-y,-z
loop_
_atom_site_type_symbol
_atom_site_label
_atom_site_fract_x
_atom_site_fract_y
_atom_site_fract_z
Si Si1 0.919116 0.632906 0.040742
Si Si2 0.154113 0.641323 0.704558
Si Si3 0.643507 0.527391 0.034170
Si Si4 0.149500 0.280513 0.478238
Si Si5 0.509854 0.082494 0.775189
Si Si6 0.825391 0.346378 0.725892
Si Si7 0.433260 0.557300 0.702121
Si Si8 0.217648 0.110315 0.250267
O O1 0.857083 0.469612 0.160335
O O2 0.821507 0.705553 0.013307
O O3 0.877954 0.455021 0.893423
O O4 0.104917 0.902184 0.102167
O O5 0.150222 0.479920 0.572059
O O6 0.328209 0.940831 0.725240
O O7 0.991999 0.570899 0.682542
O O8 0.679658 0.606815 0.199786
O O9 0.500000 0.500000 0.000000
O O10 0.567941 0.249622 0.933164
O O11 0.325435 0.408323 0.548588
O O12 0.141386 0.202703 0.317443
O O13 0.000000 0.000000 0.500000
O O14 0.486397 0.834034 0.759121
O O15 0.654332 0.252819 0.693905
O O16 0.788690 0.081865 0.676536
O O17 0.596150 0.636113 0.738298
#
# Coordination Sequence:
#
# PCOD9009918 Si02
#       8
#     2   2   2   2   2   2   2   2
#     4  10  18  31  47  75 107 132 171 211 260 308
#     4  10  17  29  50  75 105 134 168 205 267 304
#     4  11  21  34  51  75 106 141 171 210 267 312
#     4  11  17  29  46  78 113 133 164 214 269 306
#     4   9  19  31  52  74 103 132 171 214 253 313
#     4   9  18  26  46  78 103 133 165 207 260 308
#     4  10  20  32  51  78 102 137 176 211 261 308
#     4  10  18  29  49  76 110 134 168 218 262 304
#
# _framework density 26.520827000000001
#
# number of rings (size 3 to 8) (size 9 to 14) (size 15 to 20)
#    0.000    2.000    5.000    2.250    5.250    0.000 
#    0.000    0.625    0.000    0.000    0.000   35.875 
#    0.000    0.000    0.000    0.000    0.000    0.000 
#
# Total GULP energy -89151.727883 kJ/mol
# GULP energy per Si atom -5571.982993 kJ/mol
# Density = 2.646046 g / cm^3
# Si number density = 26.520827 Si / 1000 Ang^3
#
#
#
# Elastic Constant Matrix: (Units=GPa)
#
#
# Indices 1 2 3 4 5 6 
#
# 1 161.3292 52.0154 30.8545 0.2105 -25.9217 42.2835
# 2 52.0154 74.3439 18.2370 9.7688 -1.7974 32.6195
# 3 30.8545 18.2370 104.5787 21.7800 -20.9884 1.7829
# 4 0.2105 9.7688 21.7800 24.6592 6.9242 1.5785
# 5 -25.9217 -1.7974 -20.9884 6.9242 45.2993 0.3504
# 6 42.2835 32.6195 1.7829 1.5785 0.3504 51.4853
#
#
#
# Elastic Compliance Matrix: (Units=1/GPa)
#
#
# Indices 1 2 3 4 5 6 
#
# 1 0.010128 -0.004418 -0.001672 0.002219 0.004549 -0.005560
# 2 -0.004418 0.022146 -0.001211 -0.006705 -0.001107 -0.010147
# 3 -0.001672 -0.001211 0.015083 -0.015290 0.008305 0.002030
# 4 0.002219 -0.006705 -0.015290 0.060944 -0.015405 0.001192
# 5 0.004549 -0.001107 0.008305 -0.015405 0.030861 -0.003060
# 6 -0.005560 -0.010147 0.002030 0.001192 -0.003060 0.030332
#
#
# Mechanical properties :
#
#
# Convention : Reuss Voigt Hill
#
# Bulk Modulus (GPa) = 30.53012 60.27396 45.40204
# Shear Modulus (GPa) = 25.63894 40.23176 32.93535
#
# Velocity S-wave (km/s) = 3.11263 3.89908 3.52784
# Velocity P-wave (km/s) = 4.94517 6.56100 5.80954
#
# Compressibility (1/GPa) = 0.03275454
#
# Stress axis : x y z
#
# Youngs Moduli (GPa) = 98.73571 45.15499 66.29883
#
# Poissons Ratio (x) = 0.19950 0.11085
# Poissons Ratio (y) = 0.43623 0.08030
# Poissons Ratio (z) = 0.16508 0.05469
#
# Static dielectric constant tensor:
#      x y z
#    x 2.202980 -0.038950 0.108730 
#    y -0.038950 2.184250 -0.125370 
#    z 0.108730 -0.125370 2.059580 
# 
# From -- ./inp_files/255330.got.cif
#   From: 2010.05.17/outbox.cif.g08.bks.cpg/sg2_128_cif.got.tgz:255330.got - 2010.06.03 11:33:40.
