data_PCOD9009532
_publ_section_title
;
Structure prediction by ZEFSAII (Michael W. Deem and Ramdas Pophale) SiO2 
 PCOD9009532
Probable space group: P -1
;
_chemical_formula_sum "Si O2"
_cell_formula_units_Z 14
_cell_length_a 8.239940
_cell_length_b 9.077760
_cell_length_c 8.538884
_cell_angle_alpha 69.548113
_cell_angle_beta 66.074607
_cell_angle_gamma 90.190824
_cell_volume 539.126666
_symmetry_space_group_name_H-M "P -1"
_symmetry_group_IT_number 2
_symmetry_cell_setting 'triclinic'
loop_
_space_group_symop_operation_xyz
x,y,z
-x,-y,-z
loop_
_atom_site_type_symbol
_atom_site_label
_atom_site_fract_x
_atom_site_fract_y
_atom_site_fract_z
Si Si1 0.305599 0.570368 0.209885
Si Si2 0.105388 0.642539 0.799149
Si Si3 0.912806 0.232553 0.565015
Si Si4 0.538903 0.342151 0.212645
Si Si5 0.603443 0.857370 0.068988
Si Si6 0.454645 0.981851 0.343919
Si Si7 0.003280 0.959012 0.831256
O O1 0.151413 0.654353 0.317037
O O2 0.355717 0.403527 0.306406
O O3 0.484588 0.689038 0.154091
O O4 0.336143 0.571829 0.010526
O O5 0.021254 0.658847 0.652971
O O6 0.317917 0.633160 0.710883
O O7 0.110675 0.815705 0.812933
O O8 0.000000 0.500000 0.000000
O O9 0.735262 0.118038 0.602760
O O10 0.027646 0.111510 0.648597
O O11 0.478820 0.168208 0.226374
O O12 0.607924 0.896732 0.237239
O O13 0.797057 0.875190 0.913464
O O14 0.500000 0.000000 0.000000
O O15 0.500000 0.000000 0.500000
O O16 0.000000 0.000000 0.000000
#
# Coordination Sequence:
#
# PCOD9009532 Si02
#       7
#     2   2   2   2   2   2   2
#     4  10  21  39  69  97 131 168 222 291 335 390
#     4  12  27  44  62  93 145 185 222 270 344 409
#     4  11  23  45  69  99 135 179 235 275 337 400
#     4  11  21  40  66 101 131 170 222 281 346 393
#     4  11  19  39  66  93 130 168 223 275 335 385
#     4  11  20  37  67  98 126 162 221 291 322 392
#     4  12  24  43  70  98 134 184 227 274 339 414
#
# _framework density 25.967922000000002
#
# number of rings (size 3 to 8) (size 9 to 14) (size 15 to 20)
#    0.000    0.857    5.714    3.000    0.000    1.714 
#    2.571    2.857    0.000    0.000    0.000    0.000 
#    0.000    0.000    0.000    0.000    0.000    0.000 
#
# Total GULP energy -78221.442136 kJ/mol
# GULP energy per Si atom -5587.245867 kJ/mol
# Density = 2.590882 g / cm^3
# Si number density = 25.967922 Si / 1000 Ang^3
#
#
#
# Elastic Constant Matrix: (Units=GPa)
#
#
# Indices 1 2 3 4 5 6 
#
# 1 80.6705 18.4299 2.4840 -14.4685 14.9621 -2.7855
# 2 18.4299 113.2338 23.2337 -1.0190 9.2006 -14.9299
# 3 2.4840 23.2337 119.1436 -14.5828 25.1469 -5.4977
# 4 -14.4685 -1.0190 -14.5828 41.5634 8.0072 2.7266
# 5 14.9621 9.2006 25.1469 8.0072 40.5644 -1.4715
# 6 -2.7855 -14.9299 -5.4977 2.7266 -1.4715 35.9932
#
#
#
# Elastic Compliance Matrix: (Units=1/GPa)
#
#
# Indices 1 2 3 4 5 6 
#
# 1 0.015985 -0.002468 0.003017 0.008289 -0.008854 -0.000316
# 2 -0.002468 0.010110 -0.002012 -0.001631 0.000325 0.003832
# 3 0.003017 -0.002012 0.011484 0.006766 -0.009102 0.000269
# 4 0.008289 -0.001631 0.006766 0.031963 -0.013262 -0.001965
# 5 -0.008854 0.000325 -0.009102 -0.013262 0.036124 0.000541
# 6 -0.000316 0.003832 0.000269 -0.001965 0.000541 0.029560
#
#
# Mechanical properties :
#
#
# Convention : Reuss Voigt Hill
#
# Bulk Modulus (GPa) = 28.85760 44.59367 36.72564
# Shear Modulus (GPa) = 33.39940 41.55088 37.47514
#
# Velocity S-wave (km/s) = 3.59022 4.00445 3.80298
# Velocity P-wave (km/s) = 5.32195 6.21214 5.78420
#
# Compressibility (1/GPa) = 0.03465292
#
# Stress axis : x y z
#
# Youngs Moduli (GPa) = 62.55848 98.91268 87.07654
#
# Poissons Ratio (x) = 0.24415 -0.26269
# Poissons Ratio (y) = 0.15442 0.17516
# Poissons Ratio (z) = -0.18873 0.19897
#
# Static dielectric constant tensor:
#      x y z
#    x 2.206660 -0.013700 0.108730 
#    y -0.013700 2.017270 -0.080140 
#    z 0.108730 -0.080140 2.304700 
# 
# From -- ./inp_files/157271.got.cif
#   From: 2010.05.17/outbox.cif.g08.bks.cpg/sg2_79_cif.got.tgz:157271.got - 2010.06.03 11:33:40.
