data_PCOD9009967
_publ_section_title
;
Structure prediction by ZEFSAII (Michael W. Deem and Ramdas Pophale) SiO2 
 PCOD9009967
Probable space group: P -1
;
_chemical_formula_sum "Si O2"
_cell_formula_units_Z 14
_cell_length_a 4.933001
_cell_length_b 5.520093
_cell_length_c 25.124593
_cell_angle_alpha 126.803555
_cell_angle_beta 96.440234
_cell_angle_gamma 96.683536
_cell_volume 529.656554
_symmetry_space_group_name_H-M "P -1"
_symmetry_group_IT_number 2
_symmetry_cell_setting 'triclinic'
loop_
_space_group_symop_operation_xyz
x,y,z
-x,-y,-z
loop_
_atom_site_type_symbol
_atom_site_label
_atom_site_fract_x
_atom_site_fract_y
_atom_site_fract_z
Si Si1 0.838935 0.282668 0.330331
Si Si2 0.777631 0.552509 0.818947
Si Si3 0.838252 0.970827 0.785385
Si Si4 0.623647 0.148175 0.088689
Si Si5 0.558236 0.358019 0.594052
Si Si6 0.726285 0.268978 0.440431
Si Si7 0.826501 0.577614 0.055991
O O1 0.570327 0.428529 0.339500
O O2 0.807412 0.120129 0.366525
O O3 0.110114 0.572406 0.383183
O O4 0.932236 0.104982 0.259689
O O5 0.674224 0.188055 0.778400
O O6 0.651042 0.741788 0.885533
O O7 0.115090 0.647271 0.844104
O O8 0.698052 0.670471 0.776564
O O9 0.976737 0.204057 0.867359
O O10 0.700717 0.268640 0.046538
O O11 0.627840 0.799606 0.060374
O O12 0.473388 0.514428 0.558714
O O13 0.408137 0.007173 0.558807
O O14 0.000000 0.500000 0.500000
O O15 0.000000 0.500000 0.000000
#
# Coordination Sequence:
#
# PCOD9009967 Si02
#       7
#     2   2   2   2   2   2   2
#     4  10  26  42  67  97 138 174 226 273 332 395
#     4  10  22  39  62  89 119 163 207 257 321 378
#     4  10  23  41  63  92 128 170 214 270 326 386
#     4  10  21  40  61  88 120 157 206 262 317 382
#     4  10  25  41  68  99 133 177 223 268 332 391
#     4  10  24  45  70 101 137 176 222 272 329 394
#     4  10  21  41  65  93 126 168 216 268 326 387
#
# _framework density 26.432221999999999
#
# number of rings (size 3 to 8) (size 9 to 14) (size 15 to 20)
#    0.857    1.143    0.000    1.714    4.000    5.714 
#    2.571   17.143    0.000    0.000    0.000    0.000 
#    0.000    0.000    0.000    0.000    0.000    0.000 
#
# Total GULP energy -78346.534740 kJ/mol
# GULP energy per Si atom -5596.181053 kJ/mol
# Density = 2.637206 g / cm^3
# Si number density = 26.432222 Si / 1000 Ang^3
#
#
#
# Elastic Constant Matrix: (Units=GPa)
#
#
# Indices 1 2 3 4 5 6 
#
# 1 44.6750 18.3930 -0.3867 -10.5562 -8.6297 2.2655
# 2 18.3930 254.3938 41.8883 -15.7139 -5.8717 -5.4602
# 3 -0.3867 41.8883 127.6703 -19.8845 -23.0362 -9.0600
# 4 -10.5562 -15.7139 -19.8845 47.4900 -2.7690 -5.7055
# 5 -8.6297 -5.8717 -23.0362 -2.7690 56.8554 3.3044
# 6 2.2655 -5.4602 -9.0600 -5.7055 3.3044 38.1034
#
#
#
# Elastic Compliance Matrix: (Units=1/GPa)
#
#
# Indices 1 2 3 4 5 6 
#
# 1 0.025662 -0.001773 0.002525 0.006392 0.005085 -0.000663
# 2 -0.001773 0.004319 -0.001379 0.000495 -0.000387 0.000504
# 3 0.002525 -0.001379 0.010007 0.004837 0.004393 0.002375
# 4 0.006392 0.000495 0.004837 0.025415 0.003969 0.004302
# 5 0.005085 -0.000387 0.004393 0.003969 0.020322 -0.000481
# 6 -0.000663 0.000504 0.002375 0.004302 -0.000481 0.027607
#
#
# Mechanical properties :
#
#
# Convention : Reuss Voigt Hill
#
# Bulk Modulus (GPa) = 25.81719 60.72539 43.27129
# Shear Modulus (GPa) = 39.21664 52.94607 46.08135
#
# Velocity S-wave (km/s) = 3.85602 4.48044 4.17991
# Velocity P-wave (km/s) = 5.44185 7.05618 6.30093
#
# Compressibility (1/GPa) = 0.03873388
#
# Stress axis : x y z
#
# Youngs Moduli (GPa) = 38.96815 231.55040 99.92651
#
# Poissons Ratio (x) = 0.41061 -0.25236
# Poissons Ratio (y) = 0.06910 0.13783
# Poissons Ratio (z) = -0.09841 0.31937
#
# Static dielectric constant tensor:
#      x y z
#    x 2.041020 0.014600 0.075800 
#    y 0.014600 2.060040 0.034020 
#    z 0.075800 0.034020 2.191650 
# 
# From -- ./inp_files/603423.got.cif
#   From: 2010.05.17/outbox.cif.g08.bks.cpg/sg2_302_cif.got.tgz:603423.got - 2010.06.03 11:33:40.
