data_PCOD9009334
_publ_section_title
;
Structure prediction by ZEFSAII (Michael W. Deem and Ramdas Pophale) SiO2 
 PCOD9009334
Probable space group: P -1
;
_chemical_formula_sum "Si O2"
_cell_formula_units_Z 16
_cell_length_a 27.090767
_cell_length_b 5.314436
_cell_length_c 9.112132
_cell_angle_alpha 118.421676
_cell_angle_beta 135.665518
_cell_angle_gamma 44.247187
_cell_volume 637.923214
_symmetry_space_group_name_H-M "P -1"
_symmetry_group_IT_number 2
_symmetry_cell_setting 'triclinic'
loop_
_space_group_symop_operation_xyz
x,y,z
-x,-y,-z
loop_
_atom_site_type_symbol
_atom_site_label
_atom_site_fract_x
_atom_site_fract_y
_atom_site_fract_z
Si Si1 0.147993 0.581290 0.977825
Si Si2 0.758275 0.738113 0.406798
Si Si3 0.455681 0.504510 0.555024
Si Si4 0.951773 0.586332 0.078490
Si Si5 0.421698 0.714263 0.011881
Si Si6 0.698782 0.408995 0.643809
Si Si7 0.631742 0.724244 0.288793
Si Si8 0.921007 0.427646 0.460554
O O1 0.103057 0.556181 0.021144
O O2 0.126191 0.416426 0.753693
O O3 0.109964 0.976493 0.941274
O O4 0.249781 0.423280 0.175865
O O5 0.732662 0.538526 0.401346
O O6 0.846603 0.502659 0.435998
O O7 0.672128 0.965641 0.175588
O O8 0.761890 0.004360 0.596858
O O9 0.500000 0.500000 0.500000
O O10 0.365228 0.547019 0.353256
O O11 0.416916 0.858965 0.671339
O O12 0.538960 0.196694 0.747322
O O13 0.029806 0.424831 0.321602
O O14 0.000000 0.500000 0.000000
O O15 0.405662 0.420316 0.939658
O O16 0.500000 0.500000 0.000000
O O17 0.631783 0.605748 0.419730
O O18 0.000000 0.000000 0.500000
#
# Coordination Sequence:
#
# PCOD9009334 Si02
#       8
#     2   2   2   2   2   2   2   2
#     4  11  25  44  68 101 143 176 226 293 353 416
#     4  10  22  41  69  96 129 180 232 279 341 419
#     4  11  24  39  63  97 139 176 224 284 348 401
#     4  11  24  45  74  99 133 182 230 286 351 428
#     4  11  20  42  63  95 127 175 231 269 331 411
#     4  10  23  41  63 100 132 181 233 276 342 419
#     4  10  21  39  68  89 133 176 228 282 326 416
#     4  10  24  47  68 102 139 173 229 291 359 411
#
# _framework density 25.081389000000001
#
# number of rings (size 3 to 8) (size 9 to 14) (size 15 to 20)
#    0.000    1.500    3.750    1.875    5.250    2.500 
#   15.750    0.000    0.000    0.000    0.000    0.000 
#    0.000    0.000    0.000    0.000    0.000    0.000 
#
# Total GULP energy -89262.523731 kJ/mol
# GULP energy per Si atom -5578.907733 kJ/mol
# Density = 2.502430 g / cm^3
# Si number density = 25.081389 Si / 1000 Ang^3
#
#
#
# Elastic Constant Matrix: (Units=GPa)
#
#
# Indices 1 2 3 4 5 6 
#
# 1 198.5898 27.5730 56.4686 1.3851 32.9206 -22.5962
# 2 27.5730 55.2050 -4.8799 -3.7526 9.6603 -16.1921
# 3 56.4686 -4.8799 137.4955 -4.3838 20.9594 -9.2933
# 4 1.3851 -3.7526 -4.3838 15.9349 -0.6529 0.9747
# 5 32.9206 9.6603 20.9594 -0.6529 47.1250 -1.4437
# 6 -22.5962 -16.1921 -9.2933 0.9747 -1.4437 38.8723
#
#
#
# Elastic Compliance Matrix: (Units=1/GPa)
#
#
# Indices 1 2 3 4 5 6 
#
# 1 0.006857 -0.002540 -0.002331 -0.002107 -0.003191 0.002305
# 2 -0.002540 0.023359 0.003280 0.005921 -0.004123 0.008736
# 3 -0.002331 0.003280 0.009034 0.003218 -0.002957 0.001980
# 4 -0.002107 0.005921 0.003218 0.065185 -0.000259 0.000367
# 5 -0.003191 -0.004123 -0.002957 -0.000259 0.025504 -0.003326
# 6 0.002305 0.008736 0.001980 0.000367 -0.003326 0.031045
#
#
# Mechanical properties :
#
#
# Convention : Reuss Voigt Hill
#
# Bulk Modulus (GPa) = 27.72521 61.06820 44.39670
# Shear Modulus (GPa) = 28.37864 41.19502 34.78683
#
# Velocity S-wave (km/s) = 3.36737 4.05712 3.72823
# Velocity P-wave (km/s) = 5.11830 6.80792 6.02266
#
# Compressibility (1/GPa) = 0.03606826
#
# Stress axis : x y z
#
# Youngs Moduli (GPa) = 145.83689 42.80980 110.69402
#
# Poissons Ratio (x) = 0.10872 0.25805
# Poissons Ratio (y) = 0.37037 -0.36306
# Poissons Ratio (z) = 0.33997 -0.14041
#
# Static dielectric constant tensor:
#      x y z
#    x 2.189900 -0.055250 0.344750 
#    y -0.055250 2.268420 -0.340280 
#    z 0.344750 -0.340280 2.782410 
# 
# From -- ./inp_files/47113.got.cif
#   From: 2010.05.17/outbox.cif.g08.bks.cpg/sg2_24_cif.got.tgz:47113.got - 2010.06.03 11:33:40.
