data_PCOD9009867
_publ_section_title
;
Structure prediction by ZEFSAII (Michael W. Deem and Ramdas Pophale) SiO2 
 PCOD9009867
Probable space group: P -1
;
_chemical_formula_sum "Si O2"
_cell_formula_units_Z 16
_cell_length_a 12.155474
_cell_length_b 11.644534
_cell_length_c 20.501857
_cell_angle_alpha 38.103835
_cell_angle_beta 31.304698
_cell_angle_gamma 57.753367
_cell_volume 838.794451
_symmetry_space_group_name_H-M "P -1"
_symmetry_group_IT_number 2
_symmetry_cell_setting 'triclinic'
loop_
_space_group_symop_operation_xyz
x,y,z
-x,-y,-z
loop_
_atom_site_type_symbol
_atom_site_label
_atom_site_fract_x
_atom_site_fract_y
_atom_site_fract_z
Si Si1 0.329554 0.531334 0.369486
Si Si2 0.534110 0.097321 0.618982
Si Si3 0.503323 0.645882 0.373119
Si Si4 0.166135 0.241244 0.043226
Si Si5 0.918505 0.174433 0.659266
Si Si6 0.015211 0.818445 0.981088
Si Si7 0.074532 0.005649 0.533548
Si Si8 0.046831 0.631388 0.787598
O O1 0.366420 0.530595 0.429197
O O2 0.131548 0.326718 0.529110
O O3 0.253836 0.716450 0.310914
O O4 0.578459 0.589219 0.182933
O O5 0.603617 0.211792 0.602238
O O6 0.646945 0.935479 0.629786
O O7 0.257204 0.003594 0.795959
O O8 0.673090 0.258561 0.418890
O O9 0.500000 0.500000 0.500000
O O10 0.772440 0.785052 0.153084
O O11 0.029089 0.329572 0.120493
O O12 0.187896 0.049936 0.153041
O O13 0.022374 0.164421 0.084025
O O14 0.008027 0.139690 0.558452
O O15 0.039507 0.606861 0.076056
O O16 0.963682 0.767503 0.721944
O O17 0.000000 0.000000 0.500000
#
# Coordination Sequence:
#
# PCOD9009867 Si02
#       8
#     2   2   2   2   2   2   2   2
#     4  10  23  38  64  84 119 156 198 244 292 345
#     4  10  22  37  58  85 117 152 194 240 289 348
#     4  11  21  40  60  83 123 157 192 248 291 343
#     4  10  22  36  60  86 121 152 194 242 290 351
#     4  10  21  40  60  90 113 157 199 240 293 349
#     4  11  22  36  59  87 116 156 197 235 295 353
#     4   9  19  39  64  82 120 155 191 242 296 342
#     4   9  21  37  56  86 119 152 186 244 288 344
#
# _framework density 19.074994
#
# number of rings (size 3 to 8) (size 9 to 14) (size 15 to 20)
#    0.750    1.250    1.250    1.875    3.500    0.500 
#    0.000    0.625    8.250    0.000    0.000    0.000 
#    0.000    0.000    0.000    0.000    0.000    0.000 
#
# Total GULP energy -89135.204681 kJ/mol
# GULP energy per Si atom -5570.950293 kJ/mol
# Density = 1.903158 g / cm^3
# Si number density = 19.074994 Si / 1000 Ang^3
#
#
#
# Elastic Constant Matrix: (Units=GPa)
#
#
# Indices 1 2 3 4 5 6 
#
# 1 94.2366 11.2165 34.2744 12.1869 5.1758 19.5458
# 2 11.2165 80.6846 18.0346 18.1247 10.2342 18.0307
# 3 34.2744 18.0346 52.8128 10.8430 3.3845 18.8860
# 4 12.1869 18.1247 10.8430 26.4177 0.9233 13.2373
# 5 5.1758 10.2342 3.3845 0.9233 24.8725 2.7180
# 6 19.5458 18.0307 18.8860 13.2373 2.7180 25.7102
#
#
#
# Elastic Compliance Matrix: (Units=1/GPa)
#
#
# Indices 1 2 3 4 5 6 
#
# 1 0.014677 0.001563 -0.007573 -0.001911 -0.001995 -0.005496
# 2 0.001563 0.016638 -0.002417 -0.007678 -0.005846 -0.006510
# 3 -0.007573 -0.002417 0.029842 0.000209 0.000096 -0.014587
# 4 -0.001911 -0.007678 0.000209 0.054767 0.003891 -0.021925
# 5 -0.001995 -0.005846 0.000096 0.003891 0.042978 -0.001001
# 6 -0.005496 -0.006510 -0.014587 -0.021925 -0.001001 0.069748
#
#
# Mechanical properties :
#
#
# Convention : Reuss Voigt Hill
#
# Bulk Modulus (GPa) = 22.57198 39.42056 30.99627
# Shear Modulus (GPa) = 19.21083 26.34732 22.77907
#
# Velocity S-wave (km/s) = 3.17696 3.72055 3.45945
# Velocity P-wave (km/s) = 5.03154 6.25840 5.67820
#
# Compressibility (1/GPa) = 0.04430272
#
# Stress axis : x y z
#
# Youngs Moduli (GPa) = 68.13607 60.10380 33.50987
#
# Poissons Ratio (x) = -0.09394 0.25377
# Poissons Ratio (y) = -0.10649 0.08099
# Poissons Ratio (z) = 0.51599 0.14526
#
# Static dielectric constant tensor:
#      x y z
#    x 1.657520 -0.023010 0.012460 
#    y -0.023010 1.681400 0.012170 
#    z 0.012460 0.012170 1.663320 
# 
# From -- ./inp_files/595094.got.cif
#   From: 2010.05.17/outbox.cif.g08.bks.cpg/sg2_298_cif.got.tgz:595094.got - 2010.06.03 11:33:40.
