data_PCOD9009486
_publ_section_title
;
Structure prediction by ZEFSAII (Michael W. Deem and Ramdas Pophale) SiO2 
 PCOD9009486
Probable space group: P -1
;
_chemical_formula_sum "Si O2"
_cell_formula_units_Z 16
_cell_length_a 9.264435
_cell_length_b 16.028125
_cell_length_c 9.297383
_cell_angle_alpha 35.090799
_cell_angle_beta 99.221364
_cell_angle_gamma 107.848186
_cell_volume 745.051053
_symmetry_space_group_name_H-M "P -1"
_symmetry_group_IT_number 2
_symmetry_cell_setting 'triclinic'
loop_
_space_group_symop_operation_xyz
x,y,z
-x,-y,-z
loop_
_atom_site_type_symbol
_atom_site_label
_atom_site_fract_x
_atom_site_fract_y
_atom_site_fract_z
Si Si1 0.637704 0.626015 0.431711
Si Si2 0.156997 0.792456 0.980529
Si Si3 0.505955 0.360437 0.300004
Si Si4 0.607801 0.920852 0.538534
Si Si5 0.763613 0.256385 0.625697
Si Si6 0.165566 0.022164 0.074508
Si Si7 0.104988 0.080136 0.270924
Si Si8 0.068381 0.480093 0.380936
O O1 0.500000 0.500000 0.500000
O O2 0.595566 0.638091 0.576115
O O3 0.717025 0.804426 0.145942
O O4 0.777484 0.559637 0.530651
O O5 0.995549 0.820986 0.953516
O O6 0.272271 0.937738 0.721776
O O7 0.242140 0.753446 0.188254
O O8 0.106604 0.644312 0.081433
O O9 0.465148 0.208293 0.408713
O O10 0.663980 0.354274 0.406466
O O11 0.500000 0.500000 0.000000
O O12 0.719449 0.848741 0.751469
O O13 0.500000 0.000000 0.500000
O O14 0.937198 0.344044 0.482603
O O15 0.737731 0.082311 0.823828
O O16 0.117258 0.967650 0.305746
O O17 0.000000 0.000000 0.000000
O O18 0.000000 0.000000 0.500000
O O19 0.000000 0.500000 0.500000
#
# Coordination Sequence:
#
# PCOD9009486 Si02
#       8
#     2   2   2   2   2   2   2   2
#     4  12  27  46  77 113 151 201 249 316 388 444
#     4  10  21  41  71 102 136 182 253 303 364 447
#     4  12  31  49  71 109 161 197 252 322 388 454
#     4  11  26  46  71 105 151 202 246 300 392 451
#     4  11  23  45  73 104 140 194 247 313 370 448
#     4  12  22  44  77 109 144 187 264 311 363 459
#     4  10  23  40  71 105 143 184 240 309 376 437
#     4  10  21  39  69 107 142 182 244 301 372 438
#
# _framework density 21.475041000000001
#
# number of rings (size 3 to 8) (size 9 to 14) (size 15 to 20)
#    0.000    1.000    2.500    3.750    7.000    4.000 
#    0.000    0.625    0.000    0.000    0.000    0.000 
#    0.000    0.000    0.000    0.000    0.000    0.000 
#
# Total GULP energy -89093.647524 kJ/mol
# GULP energy per Si atom -5568.352970 kJ/mol
# Density = 2.142616 g / cm^3
# Si number density = 21.475041 Si / 1000 Ang^3
#
#
#
# Elastic Constant Matrix: (Units=GPa)
#
#
# Indices 1 2 3 4 5 6 
#
# 1 157.4470 42.1263 41.3160 1.4142 11.9362 -2.4593
# 2 42.1263 103.5611 35.8232 -3.3775 -10.3151 -12.9435
# 3 41.3160 35.8232 104.9833 -11.1027 -0.5741 2.4457
# 4 1.4142 -3.3775 -11.1027 49.1003 0.8853 4.0624
# 5 11.9362 -10.3151 -0.5741 0.8853 31.7899 1.7393
# 6 -2.4593 -12.9435 2.4457 4.0624 1.7393 39.8711
#
#
#
# Elastic Compliance Matrix: (Units=1/GPa)
#
#
# Indices 1 2 3 4 5 6 
#
# 1 0.008038 -0.002910 -0.002283 -0.000872 -0.003977 -0.000047
# 2 -0.002910 0.013012 -0.003384 -0.000213 0.005038 0.004054
# 3 -0.002283 -0.003384 0.011918 0.002714 0.000022 -0.002248
# 4 -0.000872 -0.000213 0.002714 0.021195 -0.000149 -0.002442
# 5 -0.003977 0.005038 0.000022 -0.000149 0.034595 -0.000105
# 6 -0.000047 0.004054 -0.002248 -0.002442 -0.000105 0.026785
#
#
# Mechanical properties :
#
#
# Convention : Reuss Voigt Hill
#
# Bulk Modulus (GPa) = 63.23922 67.16916 65.20419
# Shear Modulus (GPa) = 36.24002 40.60066 38.42034
#
# Velocity S-wave (km/s) = 4.11243 4.35282 4.23433
# Velocity P-wave (km/s) = 7.21534 7.52385 7.37121
#
# Compressibility (1/GPa) = 0.01581297
#
# Stress axis : x y z
#
# Youngs Moduli (GPa) = 124.41419 76.85142 83.90615
#
# Poissons Ratio (x) = 0.22365 0.19157
# Poissons Ratio (y) = 0.36206 0.28396
# Poissons Ratio (z) = 0.28405 0.26008
#
# Static dielectric constant tensor:
#      x y z
#    x 1.810090 0.092310 0.007450 
#    y 0.092310 0.611140 0.426420 
#    z 0.007450 0.426420 1.691630 
# 
# From -- ./inp_files/205271.got.cif
#   From: 2010.05.17/outbox.cif.g08.bks.cpg/sg2_103_cif.got.tgz:205271.got - 2010.06.03 11:33:40.
