data_PCOD9009878
_publ_section_title
;
Structure prediction by ZEFSAII (Michael W. Deem and Ramdas Pophale) SiO2 
 PCOD9009878
Probable space group: P -1
;
_chemical_formula_sum "Si O2"
_cell_formula_units_Z 16
_cell_length_a 24.761531
_cell_length_b 9.414918
_cell_length_c 25.150663
_cell_angle_alpha 152.834403
_cell_angle_beta 162.160823
_cell_angle_gamma 26.855206
_cell_volume 776.005914
_symmetry_space_group_name_H-M "P -1"
_symmetry_group_IT_number 2
_symmetry_cell_setting 'triclinic'
loop_
_space_group_symop_operation_xyz
x,y,z
-x,-y,-z
loop_
_atom_site_type_symbol
_atom_site_label
_atom_site_fract_x
_atom_site_fract_y
_atom_site_fract_z
Si Si1 0.186243 0.324688 0.355603
Si Si2 0.131553 0.814260 0.924767
Si Si3 0.192382 0.300056 0.062343
Si Si4 0.547520 0.691995 0.157794
Si Si5 0.643420 0.156232 0.335946
Si Si6 0.548669 0.773766 0.021245
Si Si7 0.840886 0.734194 0.812512
Si Si8 0.536782 0.340505 0.579496
O O1 0.203327 0.685849 0.487034
O O2 0.143039 0.231761 0.224348
O O3 0.039660 0.287318 0.248359
O O4 0.376833 0.046088 0.458300
O O5 0.264674 0.515061 0.916610
O O6 0.097726 0.139849 0.965288
O O7 0.211666 0.925643 0.090830
O O8 0.315421 0.532467 0.271429
O O9 0.356562 0.984838 0.088744
O O10 0.036588 0.497190 0.940099
O O11 0.690390 0.872868 0.331262
O O12 0.500000 0.500000 0.000000
O O13 0.588432 0.429974 0.156706
O O14 0.493474 0.464676 0.327637
O O15 0.572465 0.998011 0.167093
O O16 0.500000 0.000000 0.000000
O O17 0.670726 0.589225 0.613698
#
# Coordination Sequence:
#
# PCOD9009878 Si02
#       8
#     2   2   2   2   2   2   2   2
#     4  11  23  38  60  90 124 161 201 258 298 356
#     4  11  24  39  59  90 130 155 202 251 311 363
#     4  10  21  40  60  90 128 160 196 256 306 360
#     4   8  17  37  61  83 115 161 202 246 291 354
#     4   9  19  38  59  80 121 154 203 245 293 351
#     4  10  22  36  62  90 116 161 202 249 308 362
#     4  11  22  38  63  89 121 164 205 244 308 362
#     4  10  22  38  65  90 121 161 208 252 299 355
#
# _framework density 20.618399
#
# number of rings (size 3 to 8) (size 9 to 14) (size 15 to 20)
#    0.000    2.000    1.250    2.250    3.500    3.000 
#    0.000    2.500    0.000   37.500    0.000    0.000 
#    0.000    0.000    0.000    0.000    0.000    0.000 
#
# Total GULP energy -89100.657301 kJ/mol
# GULP energy per Si atom -5568.791081 kJ/mol
# Density = 2.057147 g / cm^3
# Si number density = 20.618399 Si / 1000 Ang^3
#
#
#
# Elastic Constant Matrix: (Units=GPa)
#
#
# Indices 1 2 3 4 5 6 
#
# 1 70.8096 10.1567 22.8596 20.4090 30.9426 17.9117
# 2 10.1567 59.9715 27.2982 23.1669 10.8357 13.9696
# 3 22.8596 27.2982 82.2389 21.2269 29.5135 7.6739
# 4 20.4090 23.1669 21.2269 33.2005 8.3658 1.3182
# 5 30.9426 10.8357 29.5135 8.3658 41.9432 18.8218
# 6 17.9117 13.9696 7.6739 1.3182 18.8218 35.1547
#
#
#
# Elastic Compliance Matrix: (Units=1/GPa)
#
#
# Indices 1 2 3 4 5 6 
#
# 1 0.026187 0.005991 0.001191 -0.016958 -0.015052 -0.007289
# 2 0.005991 0.028789 -0.005505 -0.020265 0.002214 -0.013716
# 3 0.001191 -0.005505 0.020039 -0.006209 -0.014702 0.005311
# 4 -0.016958 -0.020265 -0.006209 0.056924 0.004764 0.013363
# 5 -0.015052 0.002214 -0.014702 0.004764 0.051810 -0.017919
# 6 -0.007289 -0.013716 0.005311 0.013363 -0.017919 0.045543
#
#
# Mechanical properties :
#
#
# Convention : Reuss Voigt Hill
#
# Bulk Modulus (GPa) = 12.76018 37.07208 24.91613
# Shear Modulus (GPa) = 19.83638 32.24006 26.03822
#
# Velocity S-wave (km/s) = 3.10509 3.95860 3.55753
# Velocity P-wave (km/s) = 4.36551 6.23804 5.38381
#
# Compressibility (1/GPa) = 0.07836878
#
# Stress axis : x y z
#
# Youngs Moduli (GPa) = 38.18649 34.73518 49.90201
#
# Poissons Ratio (x) = -0.20810 -0.05943
# Poissons Ratio (y) = -0.22877 0.27473
# Poissons Ratio (z) = -0.04548 0.19123
#
# Static dielectric constant tensor:
#      x y z
#    x 1.805400 0.016040 0.048070 
#    y 0.016040 1.805140 0.020960 
#    z 0.048070 0.020960 1.763190 
# 
# From -- ./inp_files/388784.got.cif
#   From: 2010.05.17/outbox.cif.g08.bks.cpg/sg2_195_cif.got.tgz:388784.got - 2010.06.03 11:33:40.
