data_PCOD9009654
_publ_section_title
;
Structure prediction by ZEFSAII (Michael W. Deem and Ramdas Pophale) SiO2 
 PCOD9009654
Probable space group: P -1
;
_chemical_formula_sum "Si O2"
_cell_formula_units_Z 16
_cell_length_a 12.065094
_cell_length_b 8.848180
_cell_length_c 15.211929
_cell_angle_alpha 108.237482
_cell_angle_beta 37.633365
_cell_angle_gamma 126.522694
_cell_volume 754.223696
_symmetry_space_group_name_H-M "P -1"
_symmetry_group_IT_number 2
_symmetry_cell_setting 'triclinic'
loop_
_space_group_symop_operation_xyz
x,y,z
-x,-y,-z
loop_
_atom_site_type_symbol
_atom_site_label
_atom_site_fract_x
_atom_site_fract_y
_atom_site_fract_z
Si Si1 0.155434 0.284023 0.607089
Si Si2 0.866881 0.765874 0.025388
Si Si3 0.006664 0.852312 0.597906
Si Si4 0.080665 0.646021 0.364452
Si Si5 0.289205 0.794799 0.711002
Si Si6 0.699046 0.214183 0.501741
Si Si7 0.572841 0.458578 0.855583
Si Si8 0.332402 0.479150 0.715649
O O1 0.205038 0.327788 0.686686
O O2 0.403695 0.432030 0.434247
O O3 0.976244 0.316488 0.689106
O O4 0.060752 0.063981 0.599047
O O5 0.648651 0.684907 0.088741
O O6 0.784166 0.638655 0.143855
O O7 0.039553 0.733547 0.865298
O O8 0.000000 0.000000 0.000000
O O9 0.744888 0.670491 0.738061
O O10 0.104482 0.804232 0.445382
O O11 0.134582 0.849969 0.603150
O O12 0.283126 0.626979 0.235002
O O13 0.845864 0.428249 0.494832
O O14 0.335694 0.767042 0.575708
O O15 0.325767 0.663942 0.728409
O O16 0.466487 0.032663 0.657382
O O17 0.500000 0.500000 0.000000
#
# Coordination Sequence:
#
# PCOD9009654 Si02
#       8
#     2   2   2   2   2   2   2   2
#     4  11  24  43  71 108 134 185 232 305 351 413
#     4  12  29  42  72 101 143 188 236 283 353 429
#     4  11  23  41  71 101 141 178 238 292 350 412
#     4  11  23  43  71 100 143 176 240 292 346 414
#     4  11  23  43  68  99 139 184 223 290 352 420
#     4  10  21  39  72 100 128 178 236 280 349 406
#     4  11  26  47  70 101 142 189 234 287 350 429
#     4  11  25  44  69 101 149 175 235 291 358 417
#
# _framework density 21.213867
#
# number of rings (size 3 to 8) (size 9 to 14) (size 15 to 20)
#    0.000    1.000    2.500    4.500    8.750    0.000 
#    0.000    1.875    0.000    0.000    0.000    0.000 
#    0.000    0.000    0.000    0.000    0.000    0.000 
#
# Total GULP energy -89480.973608 kJ/mol
# GULP energy per Si atom -5592.560850 kJ/mol
# Density = 2.116558 g / cm^3
# Si number density = 21.213867 Si / 1000 Ang^3
#
#
#
# Elastic Constant Matrix: (Units=GPa)
#
#
# Indices 1 2 3 4 5 6 
#
# 1 140.1181 65.7162 62.1260 -13.2592 -16.2954 -3.4181
# 2 65.7162 134.0446 59.2304 -3.5765 -8.3345 1.1205
# 3 62.1260 59.2304 112.2503 -2.4375 -10.2206 5.4269
# 4 -13.2592 -3.5765 -2.4375 26.4727 0.6680 -6.2520
# 5 -16.2954 -8.3345 -10.2206 0.6680 39.4333 -3.7760
# 6 -3.4181 1.1205 5.4269 -6.2520 -3.7760 32.9504
#
#
#
# Elastic Compliance Matrix: (Units=1/GPa)
#
#
# Indices 1 2 3 4 5 6 
#
# 1 0.011724 -0.003477 -0.004408 0.005747 0.003207 0.003518
# 2 -0.003477 0.010819 -0.003801 -0.000685 -0.000148 -0.000250
# 3 -0.004408 -0.003801 0.013504 -0.002177 0.000635 -0.002892
# 4 0.005747 -0.000685 -0.002177 0.042499 0.001832 0.009252
# 5 0.003207 -0.000148 0.000635 0.001832 0.027141 0.003691
# 6 0.003518 -0.000250 -0.002892 0.009252 0.003691 0.033377
#
#
# Mechanical properties :
#
#
# Convention : Reuss Voigt Hill
#
# Bulk Modulus (GPa) = 78.88405 84.50646 81.69525
# Shear Modulus (GPa) = 30.00129 33.06063 31.53096
#
# Velocity S-wave (km/s) = 3.76471 3.95200 3.85949
# Velocity P-wave (km/s) = 7.49421 7.79399 7.64557
#
# Compressibility (1/GPa) = 0.01267683
#
# Stress axis : x y z
#
# Youngs Moduli (GPa) = 85.29151 92.43129 74.05271
#
# Poissons Ratio (x) = 0.32139 0.32639
# Poissons Ratio (y) = 0.29657 0.28144
# Poissons Ratio (z) = 0.37593 0.35129
#
# Static dielectric constant tensor:
#      x y z
#    x 1.802860 -0.006210 0.020570 
#    y -0.006210 1.792040 -0.002610 
#    z 0.020570 -0.002610 1.756120 
# 
# From -- ./inp_files/419423.got.cif
#   From: 2010.05.17/outbox.cif.g08.bks.cpg/sg2_210_cif.got.tgz:419423.got - 2010.06.03 11:33:40.
