data_PCOD9009040
_publ_section_title
;
Structure prediction by ZEFSAII (Michael W. Deem and Ramdas Pophale) SiO2 
 PCOD9009040
Probable space group: P -1
;
_chemical_formula_sum "Si O2"
_cell_formula_units_Z 16
_cell_length_a 8.113646
_cell_length_b 21.597528
_cell_length_c 8.670694
_cell_angle_alpha 39.556228
_cell_angle_beta 81.657051
_cell_angle_gamma 54.535695
_cell_volume 640.483719
_symmetry_space_group_name_H-M "P -1"
_symmetry_group_IT_number 2
_symmetry_cell_setting 'triclinic'
loop_
_space_group_symop_operation_xyz
x,y,z
-x,-y,-z
loop_
_atom_site_type_symbol
_atom_site_label
_atom_site_fract_x
_atom_site_fract_y
_atom_site_fract_z
Si Si1 0.787764 0.796764 0.169426
Si Si2 0.415884 0.320304 0.653882
Si Si3 0.920633 0.683895 0.713360
Si Si4 0.760986 0.134196 0.668834
Si Si5 0.253380 0.545922 0.455140
Si Si6 0.329639 0.054680 0.568331
Si Si7 0.092802 0.946528 0.758958
Si Si8 0.639076 0.601090 0.949642
O O1 0.743542 0.708561 0.268605
O O2 0.843112 0.764891 0.403867
O O3 0.030244 0.718516 0.189101
O O4 0.533867 0.961302 0.855736
O O5 0.555152 0.244149 0.617125
O O6 0.245663 0.482116 0.425602
O O7 0.652496 0.221181 0.927428
O O8 0.860688 0.779165 0.679800
O O9 0.756782 0.657865 0.807179
O O10 0.206212 0.531133 0.939123
O O11 0.650250 0.264785 0.314480
O O12 0.847481 0.019137 0.747407
O O13 0.000000 0.000000 0.000000
O O14 0.500000 0.500000 0.500000
O O15 0.288202 0.467307 0.758854
O O16 0.184518 0.015406 0.665626
O O17 0.500000 0.000000 0.500000
O O18 0.000000 0.000000 0.500000
#
# Coordination Sequence:
#
# PCOD9009040 Si02
#       8
#     2   2   2   2   2   2   2   2
#     4  10  22  43  68  96 135 185 226 283 344 410
#     4  10  21  40  66  93 129 179 234 273 342 414
#     4  10  22  43  70 100 134 175 237 285 337 405
#     4  10  21  39  66  98 129 176 230 278 336 408
#     4  11  25  42  65 100 139 181 229 286 350 406
#     4  11  26  40  65 106 136 180 233 287 339 408
#     4  10  23  41  63  93 138 182 227 279 345 406
#     4  10  22  42  72  96 132 186 227 281 347 407
#
# _framework density 24.981120000000001
#
# number of rings (size 3 to 8) (size 9 to 14) (size 15 to 20)
#    0.000    1.750    1.250    1.500    5.250    5.000 
#    2.250    1.250    0.000    0.000    0.000    0.000 
#    0.000    0.000    0.000    0.000    0.000    0.000 
#
# Total GULP energy -89120.784328 kJ/mol
# GULP energy per Si atom -5570.049020 kJ/mol
# Density = 2.492426 g / cm^3
# Si number density = 24.981120 Si / 1000 Ang^3
#
#
#
# Elastic Constant Matrix: (Units=GPa)
#
#
# Indices 1 2 3 4 5 6 
#
# 1 55.8241 17.9135 1.5804 -12.9207 5.4167 -0.2079
# 2 17.9135 141.0901 14.9099 -27.1263 -0.1914 -1.6279
# 3 1.5804 14.9099 108.8569 -18.1155 30.2046 -1.7954
# 4 -12.9207 -27.1263 -18.1155 47.0153 2.5502 -0.9421
# 5 5.4167 -0.1914 30.2046 2.5502 28.1963 -9.7234
# 6 -0.2079 -1.6279 -1.7954 -0.9421 -9.7234 26.6118
#
#
#
# Elastic Compliance Matrix: (Units=1/GPa)
#
#
# Indices 1 2 3 4 5 6 
#
# 1 0.020813 -0.001818 0.003616 0.006520 -0.009488 -0.002940
# 2 -0.001818 0.008156 -0.000775 0.003861 0.001237 0.001021
# 3 0.003616 -0.000775 0.016271 0.007829 -0.021018 -0.006324
# 4 0.006520 0.003861 0.007829 0.028965 -0.013270 -0.003008
# 5 -0.009488 0.001237 -0.021018 -0.013270 0.069064 0.023348
# 6 -0.002940 0.001021 -0.006324 -0.003008 0.023348 0.045615
#
#
# Mechanical properties :
#
#
# Convention : Reuss Voigt Hill
#
# Bulk Modulus (GPa) = 21.14765 41.61986 31.38376
# Shear Modulus (GPa) = 24.67928 38.45584 31.56756
#
# Velocity S-wave (km/s) = 3.14653 3.92777 3.55865
# Velocity P-wave (km/s) = 4.65668 6.10463 5.42914
#
# Compressibility (1/GPa) = 0.04728657
#
# Stress axis : x y z
#
# Youngs Moduli (GPa) = 48.04654 122.60680 61.46074
#
# Poissons Ratio (x) = 0.22289 -0.22224
# Poissons Ratio (y) = 0.08735 0.04761
# Poissons Ratio (z) = -0.17374 0.09498
#
# Static dielectric constant tensor:
#      x y z
#    x 2.047630 -0.126340 -0.010850 
#    y -0.126340 2.057330 0.023810 
#    z -0.010850 0.023810 2.008190 
# 
# From -- ./inp_files/225957.got.cif
#   From: 2010.05.17/outbox.cif.g08.bks.cpg/sg2_113_cif.got.tgz:225957.got - 2010.06.03 11:33:40.
