data_PCOD9009685
_publ_section_title
;
Structure prediction by ZEFSAII (Michael W. Deem and Ramdas Pophale) SiO2 
 PCOD9009685
Probable space group: P -1
;
_chemical_formula_sum "Si O2"
_cell_formula_units_Z 16
_cell_length_a 9.926519
_cell_length_b 12.434425
_cell_length_c 8.078302
_cell_angle_alpha 54.293489
_cell_angle_beta 75.957974
_cell_angle_gamma 90.433255
_cell_volume 771.263978
_symmetry_space_group_name_H-M "P -1"
_symmetry_group_IT_number 2
_symmetry_cell_setting 'triclinic'
loop_
_space_group_symop_operation_xyz
x,y,z
-x,-y,-z
loop_
_atom_site_type_symbol
_atom_site_label
_atom_site_fract_x
_atom_site_fract_y
_atom_site_fract_z
Si Si1 0.584377 0.362890 0.109146
Si Si2 0.382066 0.896469 0.533468
Si Si3 0.547659 0.871594 0.181124
Si Si4 0.133757 0.115137 0.809839
Si Si5 0.874337 0.580572 0.487827
Si Si6 0.270688 0.362600 0.182587
Si Si7 0.152551 0.074869 0.444599
Si Si8 0.579344 0.412055 0.675233
O O1 0.658673 0.235786 0.222380
O O2 0.418923 0.328132 0.241477
O O3 0.675172 0.494394 0.052298
O O4 0.574306 0.406660 0.881931
O O5 0.459141 0.848017 0.397541
O O6 0.500000 0.000000 0.500000
O O7 0.260310 0.977650 0.453233
O O8 0.716070 0.894459 0.141592
O O9 0.488293 0.740504 0.210839
O O10 0.500000 0.000000 0.000000
O O11 0.103352 0.265047 0.722254
O O12 0.155597 0.096712 0.622684
O O13 0.000000 0.000000 0.000000
O O14 0.831956 0.604102 0.671249
O O15 0.741598 0.481738 0.534569
O O16 0.000000 0.500000 0.500000
O O17 0.200001 0.228418 0.226430
O O18 0.000000 0.000000 0.500000
O O19 0.500000 0.500000 0.500000
#
# Coordination Sequence:
#
# PCOD9009685 Si02
#       8
#     2   2   2   2   2   2   2   2
#     4  10  21  39  73  97 124 171 221 273 326 384
#     4  12  22  43  69  96 130 174 224 269 323 395
#     4  12  27  42  68 106 134 168 228 281 329 399
#     4  11  25  43  65  94 136 175 217 272 340 392
#     4  10  22  42  65  92 134 176 211 267 335 397
#     4   9  20  39  68  89 124 168 218 262 326 382
#     4  11  25  43  65  93 134 177 218 269 331 393
#     4  11  24  42  68 100 133 169 223 275 331 391
#
# _framework density 20.745166999999999
#
# number of rings (size 3 to 8) (size 9 to 14) (size 15 to 20)
#    0.000    1.250    3.750    1.500    7.000    2.000 
#    0.000    0.625    0.000    0.000    0.000    0.000 
#    0.000    0.000    0.000    0.000    0.000    0.000 
#
# Total GULP energy -89221.295688 kJ/mol
# GULP energy per Si atom -5576.330980 kJ/mol
# Density = 2.069795 g / cm^3
# Si number density = 20.745167 Si / 1000 Ang^3
#
#
#
# Elastic Constant Matrix: (Units=GPa)
#
#
# Indices 1 2 3 4 5 6 
#
# 1 181.6999 64.8708 43.2362 -35.5400 -11.0445 -4.4558
# 2 64.8708 89.9924 35.9439 -40.9720 -3.7503 2.1062
# 3 43.2362 35.9439 87.7474 -34.6297 -1.1134 -0.6599
# 4 -35.5400 -40.9720 -34.6297 54.2236 2.5721 -7.4680
# 5 -11.0445 -3.7503 -1.1134 2.5721 33.8195 -7.5888
# 6 -4.4558 2.1062 -0.6599 -7.4680 -7.5888 41.0062
#
#
#
# Elastic Compliance Matrix: (Units=1/GPa)
#
#
# Indices 1 2 3 4 5 6 
#
# 1 0.007871 -0.004626 -0.001658 0.000719 0.002313 0.001625
# 2 -0.004626 0.020197 -0.001521 0.011328 -0.000074 0.000485
# 3 -0.001658 -0.001521 0.016117 0.008297 -0.000455 0.001584
# 4 0.000719 0.011328 0.008297 0.033551 0.000522 0.005837
# 5 0.002313 -0.000074 -0.000455 0.000522 0.031653 0.006201
# 6 0.001625 0.000485 0.001584 0.005837 0.006201 0.026774
#
#
# Mechanical properties :
#
#
# Convention : Reuss Voigt Hill
#
# Bulk Modulus (GPa) = 34.99496 71.94908 53.47202
# Shear Modulus (GPa) = 30.99890 40.16911 35.58401
#
# Velocity S-wave (km/s) = 3.86977 4.40513 4.14610
# Velocity P-wave (km/s) = 6.07227 7.78660 6.98225
#
# Compressibility (1/GPa) = 0.02857555
#
# Stress axis : x y z
#
# Youngs Moduli (GPa) = 127.05499 49.51224 62.04722
#
# Poissons Ratio (x) = 0.22903 0.10288
# Poissons Ratio (y) = 0.58772 0.09435
# Poissons Ratio (z) = 0.21067 0.07529
#
# Static dielectric constant tensor:
#      x y z
#    x 1.783380 -0.003450 0.026080 
#    y -0.003450 1.730190 0.053060 
#    z 0.026080 0.053060 1.910680 
# 
# From -- ./inp_files/184146.got.cif
#   From: 2010.05.17/outbox.cif.g08.bks.cpg/sg2_93_cif.got.tgz:184146.got - 2010.06.03 11:33:40.
