data_PCOD9009717
_publ_section_title
;
Structure prediction by ZEFSAII (Michael W. Deem and Ramdas Pophale) SiO2 
 PCOD9009717
Probable space group: P -1
;
_chemical_formula_sum "Si O2"
_cell_formula_units_Z 16
_cell_length_a 13.615096
_cell_length_b 8.796918
_cell_length_c 14.199123
_cell_angle_alpha 115.525628
_cell_angle_beta 30.512421
_cell_angle_gamma 113.200265
_cell_volume 778.221206
_symmetry_space_group_name_H-M "P -1"
_symmetry_group_IT_number 2
_symmetry_cell_setting 'triclinic'
loop_
_space_group_symop_operation_xyz
x,y,z
-x,-y,-z
loop_
_atom_site_type_symbol
_atom_site_label
_atom_site_fract_x
_atom_site_fract_y
_atom_site_fract_z
Si Si1 0.419281 0.104048 0.009189
Si Si2 0.599606 0.535035 0.826177
Si Si3 0.899216 0.315088 0.020328
Si Si4 0.029516 0.014861 0.205545
Si Si5 0.492135 0.824772 0.401795
Si Si6 0.722956 0.526074 0.082871
Si Si7 0.706831 0.184341 0.627526
Si Si8 0.091221 0.728214 0.785097
O O1 0.603269 0.143630 0.800147
O O2 0.331420 0.272072 0.170747
O O3 0.500000 0.000000 0.000000
O O4 0.248160 0.024665 0.064780
O O5 0.434716 0.512177 0.876984
O O6 0.744860 0.387355 0.648178
O O7 0.500000 0.500000 0.000000
O O8 0.725351 0.370615 0.111740
O O9 0.864249 0.237926 0.132164
O O10 0.020086 0.179502 0.829669
O O11 0.000000 0.500000 0.000000
O O12 0.891956 0.086897 0.418043
O O13 0.998901 0.127023 0.166598
O O14 0.669532 0.701801 0.224994
O O15 0.450185 0.862157 0.337298
O O16 0.302570 0.712682 0.561911
O O17 0.500000 0.000000 0.500000
O O18 0.933443 0.571277 0.874436
#
# Coordination Sequence:
#
# PCOD9009717 Si02
#       8
#     2   2   2   2   2   2   2   2
#     4  11  23  40  65  92 118 160 201 255 317 357
#     4   9  18  39  62  85 117 156 204 251 303 351
#     4  10  23  37  58  88 125 166 200 249 311 362
#     4  11  22  40  62  87 120 160 211 250 297 371
#     4  10  22  35  61  92 118 162 208 248 294 362
#     4  10  21  40  57  86 129 156 201 262 303 358
#     4   9  22  39  59  89 121 155 205 253 293 365
#     4  10  22  37  62  85 116 168 208 238 303 369
#
# _framework density 20.559708000000001
#
# number of rings (size 3 to 8) (size 9 to 14) (size 15 to 20)
#    0.000    2.000    0.000    3.375   10.500    1.500 
#    0.000   13.750    0.000    0.000    0.000    0.000 
#    0.000    0.000    0.000    0.000    0.000    0.000 
#
# Total GULP energy -89156.164444 kJ/mol
# GULP energy per Si atom -5572.260278 kJ/mol
# Density = 2.051291 g / cm^3
# Si number density = 20.559708 Si / 1000 Ang^3
#
#
#
# Elastic Constant Matrix: (Units=GPa)
#
#
# Indices 1 2 3 4 5 6 
#
# 1 95.7947 34.6009 28.2436 2.3242 7.2670 -24.1336
# 2 34.6009 80.8794 43.8228 17.6895 10.1332 -2.6935
# 3 28.2436 43.8228 91.9940 6.8468 11.6240 -12.2571
# 4 2.3242 17.6895 6.8468 32.9981 8.3439 3.2469
# 5 7.2670 10.1332 11.6240 8.3439 29.3593 2.3608
# 6 -24.1336 -2.6935 -12.2571 3.2469 2.3608 34.2589
#
#
#
# Elastic Compliance Matrix: (Units=1/GPa)
#
#
# Indices 1 2 3 4 5 6 
#
# 1 0.015568 -0.006294 -0.000160 0.002053 -0.003040 0.010429
# 2 -0.006294 0.021239 -0.008228 -0.008853 0.000395 -0.004896
# 3 -0.000160 -0.008228 0.015935 0.001710 -0.004323 0.005077
# 4 0.002053 -0.008853 0.001710 0.036847 -0.008477 -0.001546
# 5 -0.003040 0.000395 -0.004323 -0.008477 0.039245 -0.005558
# 6 0.010429 -0.004896 0.005077 -0.001546 -0.005558 0.038498
#
#
# Mechanical properties :
#
#
# Convention : Reuss Voigt Hill
#
# Bulk Modulus (GPa) = 42.77956 53.55585 48.16771
# Shear Modulus (GPa) = 24.45122 30.12331 27.28727
#
# Velocity S-wave (km/s) = 3.45233 3.83190 3.64706
# Velocity P-wave (km/s) = 6.06169 6.75895 6.41979
#
# Compressibility (1/GPa) = 0.02337565
#
# Stress axis : x y z
#
# Youngs Moduli (GPa) = 64.23434 47.08331 62.75576
#
# Poissons Ratio (x) = 0.29635 0.01007
# Poissons Ratio (y) = 0.40430 0.51638
# Poissons Ratio (z) = 0.01031 0.38742
#
# Static dielectric constant tensor:
#      x y z
#    x 1.794520 0.004410 -0.022340 
#    y 0.004410 1.767190 0.012540 
#    z -0.022340 0.012540 1.758420 
# 
# From -- ./inp_files/528899.got.cif
#   From: 2010.05.17/outbox.cif.g08.bks.cpg/sg2_265_cif.got.tgz:528899.got - 2010.06.03 11:33:40.
