data_PCOD9009104
_publ_section_title
;
Structure prediction by ZEFSAII (Michael W. Deem and Ramdas Pophale) SiO2 
 PCOD9009104
Probable space group: P -1
;
_chemical_formula_sum "Si O2"
_cell_formula_units_Z 12
_cell_length_a 12.154600
_cell_length_b 12.153205
_cell_length_c 12.576140
_cell_angle_alpha 45.426488
_cell_angle_beta 37.451720
_cell_angle_gamma 24.102527
_cell_volume 459.367333
_symmetry_space_group_name_H-M "P -1"
_symmetry_group_IT_number 2
_symmetry_cell_setting 'triclinic'
loop_
_space_group_symop_operation_xyz
x,y,z
-x,-y,-z
loop_
_atom_site_type_symbol
_atom_site_label
_atom_site_fract_x
_atom_site_fract_y
_atom_site_fract_z
Si Si1 0.683987 0.735056 0.213518
Si Si2 0.630697 0.739485 0.887186
Si Si3 0.374002 0.238276 0.376901
Si Si4 0.582127 0.451578 0.845456
Si Si5 0.121851 0.980263 0.616413
Si Si6 0.470177 0.438912 0.678527
O O1 0.400905 0.880342 0.412920
O O2 0.669918 0.630368 0.194171
O O3 0.010586 0.486113 0.196134
O O4 0.599301 0.968911 0.086182
O O5 0.570041 0.801468 0.765426
O O6 0.558916 0.609669 0.051665
O O7 0.000000 0.500000 0.500000
O O8 0.500000 0.000000 0.500000
O O9 0.504904 0.683659 0.721721
O O10 0.948529 0.178701 0.715360
O O11 0.500000 0.500000 0.000000
O O12 0.246310 0.720324 0.717175
O O13 0.825540 0.182747 0.624261
O O14 0.500000 0.500000 0.500000
#
# Coordination Sequence:
#
# PCOD9009104 Si02
#       6
#     2   2   2   2   2   2
#     4  11  21  41  69 103 137 180 233 285 338 413
#     4  11  24  42  67 100 143 182 220 286 355 405
#     4  11  24  43  69  98 126 174 236 283 330 402
#     4  10  26  49  69 100 144 183 226 285 350 414
#     4  11  22  42  71 100 134 185 233 281 339 406
#     4  10  21  39  67 103 136 174 231 292 338 394
#
# _framework density 26.122883999999999
#
# number of rings (size 3 to 8) (size 9 to 14) (size 15 to 20)
#    0.000    1.333    0.000    7.000    0.000    6.667 
#    0.000   16.667    0.000    0.000    0.000    0.000 
#    0.000    0.000    0.000    0.000    0.000    0.000 
#
# Total GULP energy -67218.885628 kJ/mol
# GULP energy per Si atom -5601.573802 kJ/mol
# Density = 2.606343 g / cm^3
# Si number density = 26.122884 Si / 1000 Ang^3
#
#
#
# Elastic Constant Matrix: (Units=GPa)
#
#
# Indices 1 2 3 4 5 6 
#
# 1 188.3226 111.9516 36.0008 -14.5363 -33.7491 23.5552
# 2 111.9516 201.3111 50.4514 -57.2861 -8.6595 10.7164
# 3 36.0008 50.4514 109.9317 -25.5666 -12.2517 6.8793
# 4 -14.5363 -57.2861 -25.5666 56.5078 18.0482 -6.0073
# 5 -33.7491 -8.6595 -12.2517 18.0482 39.0602 -1.6123
# 6 23.5552 10.7164 6.8793 -6.0073 -1.6123 62.8669
#
#
#
# Elastic Compliance Matrix: (Units=1/GPa)
#
#
# Indices 1 2 3 4 5 6 
#
# 1 0.013583 -0.009938 -0.000802 -0.012069 0.014689 -0.004084
# 2 -0.009938 0.014762 -0.001364 0.016265 -0.013151 0.002573
# 3 -0.000802 -0.001364 0.010803 0.002936 0.001023 -0.000343
# 4 -0.012069 0.016265 0.002936 0.040744 -0.024534 0.004692
# 5 0.014689 -0.013151 0.001023 -0.024534 0.046848 -0.004517
# 6 -0.004084 0.002573 -0.000343 0.004692 -0.004517 0.017368
#
#
# Mechanical properties :
#
#
# Convention : Reuss Voigt Hill
#
# Bulk Modulus (GPa) = 66.93079 99.59699 83.26389
# Shear Modulus (GPa) = 28.85253 51.76442 40.30847
#
# Velocity S-wave (km/s) = 3.32700 4.45632 3.93241
# Velocity P-wave (km/s) = 6.35891 8.04285 7.24994
#
# Compressibility (1/GPa) = 0.01494081
#
# Stress axis : x y z
#
# Youngs Moduli (GPa) = 73.62379 67.74340 92.56472
#
# Poissons Ratio (x) = 0.67321 0.07419
# Poissons Ratio (y) = 0.73165 0.12627
# Poissons Ratio (z) = 0.05901 0.09241
#
# Static dielectric constant tensor:
#      x y z
#    x 2.112010 -0.016670 -0.033790 
#    y -0.016670 1.931610 -0.059730 
#    z -0.033790 -0.059730 2.016810 
# 
# From -- ./inp_files/427757.got.cif
#   From: 2010.05.17/outbox.cif.g08.bks.cpg/sg2_214_cif.got.tgz:427757.got - 2010.06.03 11:33:40.
