data_PCOD9009912
_publ_section_title
;
Structure prediction by ZEFSAII (Michael W. Deem and Ramdas Pophale) SiO2 
 PCOD9009912
Probable space group: P -1
;
_chemical_formula_sum "Si O2"
_cell_formula_units_Z 16
_cell_length_a 18.223085
_cell_length_b 8.060931
_cell_length_c 16.927555
_cell_angle_alpha 133.729581
_cell_angle_beta 22.314718
_cell_angle_gamma 133.989807
_cell_volume 668.373779
_symmetry_space_group_name_H-M "P -1"
_symmetry_group_IT_number 2
_symmetry_cell_setting 'triclinic'
loop_
_space_group_symop_operation_xyz
x,y,z
-x,-y,-z
loop_
_atom_site_type_symbol
_atom_site_label
_atom_site_fract_x
_atom_site_fract_y
_atom_site_fract_z
Si Si1 0.600985 0.227984 0.892553
Si Si2 0.389503 0.315031 0.275536
Si Si3 0.287764 0.935339 0.531116
Si Si4 0.169884 0.625604 0.686186
Si Si5 0.723528 0.429288 0.100518
Si Si6 0.048257 0.409033 0.336542
Si Si7 0.628867 0.904243 0.070920
Si Si8 0.217455 0.447991 0.747386
O O1 0.808414 0.362314 0.765186
O O2 0.534096 0.241445 0.873739
O O3 0.614002 0.957109 0.796202
O O4 0.439616 0.326728 0.137395
O O5 0.207970 0.412022 0.522359
O O6 0.569460 0.456475 0.195328
O O7 0.257101 0.864166 0.630442
O O8 0.508270 0.943428 0.282471
O O9 0.139939 0.722487 0.565564
O O10 0.220851 0.172661 0.647880
O O11 0.265184 0.585797 0.663019
O O12 0.935748 0.585467 0.920552
O O13 0.663531 0.480933 0.266863
O O14 0.721604 0.151725 0.018383
O O15 0.000000 0.500000 0.500000
O O16 0.196103 0.229461 0.135104
O O17 0.000000 0.500000 0.000000
#
# Coordination Sequence:
#
# PCOD9009912 Si02
#       8
#     2   2   2   2   2   2   2   2
#     4  10  21  40  60  94 135 180 221 276 331 399
#     4  10  22  40  63  94 136 170 226 280 327 399
#     4  12  26  45  70 104 137 178 230 280 337 409
#     4  11  24  42  70  98 134 179 224 280 337 400
#     4  10  23  44  69  95 132 180 224 282 344 404
#     4  12  24  37  64  94 134 183 222 269 333 396
#     4  11  24  42  65  99 140 180 228 277 337 404
#     4  10  23  46  73  99 136 177 224 286 346 400
#
# _framework density 23.938700000000001
#
# number of rings (size 3 to 8) (size 9 to 14) (size 15 to 20)
#    0.000    1.250    1.250    4.875    3.500    4.000 
#    0.000    6.250    0.000    0.000    0.000    0.000 
#    0.000    0.000    0.000    0.000    0.000    0.000 
#
# Total GULP energy -89387.862031 kJ/mol
# GULP energy per Si atom -5586.741377 kJ/mol
# Density = 2.388421 g / cm^3
# Si number density = 23.938700 Si / 1000 Ang^3
#
#
#
# Elastic Constant Matrix: (Units=GPa)
#
#
# Indices 1 2 3 4 5 6 
#
# 1 87.5781 16.9673 16.0881 0.9374 15.6671 -19.6506
# 2 16.9673 36.2881 3.7221 2.0405 1.8210 -11.6551
# 3 16.0881 3.7221 104.2210 5.1757 9.5152 -21.2206
# 4 0.9374 2.0405 5.1757 32.4658 -1.3415 6.9466
# 5 15.6671 1.8210 9.5152 -1.3415 33.3820 -2.5056
# 6 -19.6506 -11.6551 -21.2206 6.9466 -2.5056 38.8914
#
#
#
# Elastic Compliance Matrix: (Units=1/GPa)
#
#
# Indices 1 2 3 4 5 6 
#
# 1 0.014807 -0.004620 -0.000286 -0.001596 -0.006243 0.005824
# 2 -0.004620 0.032677 0.001553 -0.004089 0.000459 0.009066
# 3 -0.000286 0.001553 0.011446 -0.003532 -0.002829 0.007015
# 4 -0.001596 -0.004089 -0.003532 0.033881 0.002601 -0.009843
# 5 -0.006243 0.000459 -0.002829 0.002601 0.033557 -0.002863
# 6 0.005824 0.009066 0.007015 -0.009843 -0.002863 0.036773
#
#
# Mechanical properties :
#
#
# Convention : Reuss Voigt Hill
#
# Bulk Modulus (GPa) = 19.14860 33.51580 26.33220
# Shear Modulus (GPa) = 26.70174 33.70183 30.20179
#
# Velocity S-wave (km/s) = 3.34342 3.75619 3.55580
# Velocity P-wave (km/s) = 4.78758 5.73088 5.28034
#
# Compressibility (1/GPa) = 0.05222314
#
# Stress axis : x y z
#
# Youngs Moduli (GPa) = 67.53775 30.60276 87.36998
#
# Poissons Ratio (x) = 0.14140 0.02496
# Poissons Ratio (y) = 0.31205 -0.13570
# Poissons Ratio (z) = 0.01929 -0.04753
#
# Static dielectric constant tensor:
#      x y z
#    x 1.943450 -0.011600 0.009830 
#    y -0.011600 1.968930 -0.063010 
#    z 0.009830 -0.063010 2.057190 
# 
# From -- ./inp_files/577622.got.cif
#   From: 2010.05.17/outbox.cif.g08.bks.cpg/sg2_289_cif.got.tgz:577622.got - 2010.06.03 11:33:40.
