data_PCOD9009100
_publ_section_title
;
Structure prediction by ZEFSAII (Michael W. Deem and Ramdas Pophale) SiO2 
 PCOD9009100
Probable space group: P -1
;
_chemical_formula_sum "Si O2"
_cell_formula_units_Z 14
_cell_length_a 11.711165
_cell_length_b 4.936147
_cell_length_c 13.314341
_cell_angle_alpha 67.739998
_cell_angle_beta 96.726330
_cell_angle_gamma 69.178905
_cell_volume 636.972033
_symmetry_space_group_name_H-M "P -1"
_symmetry_group_IT_number 2
_symmetry_cell_setting 'triclinic'
loop_
_space_group_symop_operation_xyz
x,y,z
-x,-y,-z
loop_
_atom_site_type_symbol
_atom_site_label
_atom_site_fract_x
_atom_site_fract_y
_atom_site_fract_z
Si Si1 0.179870 0.079230 0.681437
Si Si2 0.371945 0.353748 0.272648
Si Si3 0.358294 0.743329 0.601494
Si Si4 0.638262 0.824953 0.177139
Si Si5 0.417874 0.746242 0.048931
Si Si6 0.991725 0.202458 0.369078
Si Si7 0.729446 0.156178 0.639737
O O1 0.308575 0.971195 0.775459
O O2 0.076507 0.425407 0.657907
O O3 0.236140 0.072876 0.576637
O O4 0.106328 0.855623 0.706810
O O5 0.511105 0.248781 0.352671
O O6 0.367226 0.546396 0.143296
O O7 0.276904 0.585658 0.314346
O O8 0.340666 0.051631 0.293710
O O9 0.336268 0.473046 0.702157
O O10 0.347690 0.685007 0.492175
O O11 0.503302 0.855042 0.116038
O O12 0.682212 0.923316 0.061702
O O13 0.500000 0.500000 0.000000
O O14 0.000000 0.000000 0.500000
O O15 0.127459 0.071046 0.348480
#
# Coordination Sequence:
#
# PCOD9009100 Si02
#       7
#     2   2   2   2   2   2   2
#     4  12  23  40  68 103 129 173 232 286 319 387
#     4  11  27  42  67 100 142 176 215 274 357 409
#     4  11  24  39  69 102 141 173 219 273 355 394
#     4  10  21  39  67 103 129 167 226 281 333 384
#     4  10  23  41  72  98 136 173 229 280 340 406
#     4  12  25  42  68  92 137 187 239 267 319 391
#     4  12  26  44  63  99 143 185 216 272 335 420
#
# _framework density 21.978988000000001
#
# number of rings (size 3 to 8) (size 9 to 14) (size 15 to 20)
#    0.000    0.857    2.857    3.857   14.000    0.000 
#    0.000    0.000    0.000    5.143    0.000    0.000 
#    0.000    0.000    0.000    0.000    0.000    0.000 
#
# Total GULP energy -78022.378508 kJ/mol
# GULP energy per Si atom -5573.027036 kJ/mol
# Density = 2.192896 g / cm^3
# Si number density = 21.978988 Si / 1000 Ang^3
#
#
#
# Elastic Constant Matrix: (Units=GPa)
#
#
# Indices 1 2 3 4 5 6 
#
# 1 81.8932 10.7054 25.4655 4.5575 -9.7297 5.8381
# 2 10.7054 68.1921 9.9075 9.4120 -6.5666 -17.2101
# 3 25.4655 9.9075 103.9766 -3.5227 -8.1126 -0.6161
# 4 4.5575 9.4120 -3.5227 29.8730 9.3676 -10.7429
# 5 -9.7297 -6.5666 -8.1126 9.3676 18.8454 11.2629
# 6 5.8381 -17.2101 -0.6161 -10.7429 11.2629 41.0958
#
#
#
# Elastic Compliance Matrix: (Units=1/GPa)
#
#
# Indices 1 2 3 4 5 6 
#
# 1 0.017680 -0.001526 -0.003019 -0.014143 0.022059 -0.012939
# 2 -0.001526 0.017421 -0.001093 -0.004885 0.004213 0.005064
# 3 -0.003019 -0.001093 0.010662 0.001442 0.001949 -0.000026
# 4 -0.014143 -0.004885 0.001442 0.071000 -0.065486 0.036493
# 5 0.022059 0.004213 0.001949 -0.065486 0.131956 -0.054623
# 6 -0.012939 0.005064 -0.000026 0.036493 -0.054623 0.052802
#
#
# Mechanical properties :
#
#
# Convention : Reuss Voigt Hill
#
# Bulk Modulus (GPa) = 28.99747 38.46876 33.73312
# Shear Modulus (GPa) = 15.41817 31.82839 23.62328
#
# Velocity S-wave (km/s) = 2.65145 3.80956 3.28199
# Velocity P-wave (km/s) = 4.75347 6.07378 5.45373
#
# Compressibility (1/GPa) = 0.03448577
#
# Stress axis : x y z
#
# Youngs Moduli (GPa) = 56.56210 57.40248 93.79155
#
# Poissons Ratio (x) = 0.08760 0.28319
# Poissons Ratio (y) = 0.08632 0.10251
# Poissons Ratio (z) = 0.17078 0.06274
#
# Static dielectric constant tensor:
#      x y z
#    x 1.819550 -0.033950 0.030760 
#    y -0.033950 1.968970 -0.047430 
#    z 0.030760 -0.047430 1.853400 
# 
# From -- ./inp_files/410058.got.cif
#   From: 2010.05.17/outbox.cif.g08.bks.cpg/sg2_206_cif.got.tgz:410058.got - 2010.06.03 11:33:40.
