data_PCOD9009487
_publ_section_title
;
Structure prediction by ZEFSAII (Michael W. Deem and Ramdas Pophale) SiO2 
 PCOD9009487
Probable space group: P -1
;
_chemical_formula_sum "Si O2"
_cell_formula_units_Z 12
_cell_length_a 5.363624
_cell_length_b 13.934207
_cell_length_c 9.544878
_cell_angle_alpha 122.738735
_cell_angle_beta 59.606984
_cell_angle_gamma 117.840704
_cell_volume 498.854659
_symmetry_space_group_name_H-M "P -1"
_symmetry_group_IT_number 2
_symmetry_cell_setting 'triclinic'
loop_
_space_group_symop_operation_xyz
x,y,z
-x,-y,-z
loop_
_atom_site_type_symbol
_atom_site_label
_atom_site_fract_x
_atom_site_fract_y
_atom_site_fract_z
Si Si1 0.236078 0.833842 0.537544
Si Si2 0.530602 0.625625 0.928359
Si Si3 0.284265 0.956992 0.337294
Si Si4 0.306800 0.580864 0.408816
Si Si5 0.397825 0.276968 0.316642
Si Si6 0.910239 0.258133 0.977009
O O1 0.349943 0.878596 0.386533
O O2 0.262008 0.702305 0.455173
O O3 0.885087 0.827162 0.642469
O O4 0.433526 0.929362 0.663059
O O5 0.563997 0.493449 0.800933
O O6 0.284566 0.746867 0.829402
O O7 0.207394 0.652093 0.022387
O O8 0.745621 0.695157 0.042411
O O9 0.190896 0.869623 0.165264
O O10 0.000000 0.000000 0.500000
O O11 0.000000 0.500000 0.500000
O O12 0.674355 0.679134 0.780075
O O13 0.457177 0.375704 0.497855
#
# Coordination Sequence:
#
# PCOD9009487 Si02
#       6
#     2   2   2   2   2   2
#     4  11  25  42  71 101 131 195 227 286 345 412
#     4  10  22  38  71 104 143 171 221 287 344 415
#     4  11  27  49  68  90 143 188 243 281 338 420
#     4  12  19  40  70 107 143 174 223 283 358 413
#     4  10  21  39  69 108 137 173 228 280 349 407
#     4  10  23  43  70 102 137 183 230 289 345 403
#
# _framework density 24.055102000000002
#
# number of rings (size 3 to 8) (size 9 to 14) (size 15 to 20)
#    1.000    0.333    3.333    1.500    7.000    0.667 
#    0.000    5.833    0.000    0.000    0.000    0.000 
#    0.000    0.000    0.000    0.000    0.000    0.000 
#
# Total GULP energy -67051.888763 kJ/mol
# GULP energy per Si atom -5587.657397 kJ/mol
# Density = 2.400035 g / cm^3
# Si number density = 24.055102 Si / 1000 Ang^3
#
#
#
# Elastic Constant Matrix: (Units=GPa)
#
#
# Indices 1 2 3 4 5 6 
#
# 1 138.0001 38.3174 20.5596 11.6108 25.0131 10.2823
# 2 38.3174 128.5594 17.3785 7.1769 6.0701 2.9821
# 3 20.5596 17.3785 59.5765 35.6258 14.0738 13.5015
# 4 11.6108 7.1769 35.6258 34.7409 8.6510 -0.7670
# 5 25.0131 6.0701 14.0738 8.6510 39.9187 13.2058
# 6 10.2823 2.9821 13.5015 -0.7670 13.2058 41.0443
#
#
#
# Elastic Compliance Matrix: (Units=1/GPa)
#
#
# Indices 1 2 3 4 5 6 
#
# 1 0.008938 -0.002267 -0.001204 -0.000103 -0.004760 -0.000149
# 2 -0.002267 0.008761 -0.003717 0.002665 0.000474 0.001051
# 3 -0.001204 -0.003717 0.057513 -0.058265 0.000111 -0.019472
# 4 -0.000103 0.002665 -0.058265 0.090252 -0.006939 0.022918
# 5 -0.004760 0.000474 0.000111 -0.006939 0.032564 -0.009486
# 6 -0.000149 0.001051 -0.019472 0.022918 -0.009486 0.034210
#
#
# Mechanical properties :
#
#
# Convention : Reuss Voigt Hill
#
# Bulk Modulus (GPa) = 16.43739 53.18299 34.81019
# Shear Modulus (GPa) = 18.73417 39.79949 29.26683
#
# Velocity S-wave (km/s) = 2.79373 4.07198 3.49185
# Velocity P-wave (km/s) = 4.15387 6.65319 5.54615
#
# Compressibility (1/GPa) = 0.06083691
#
# Stress axis : x y z
#
# Youngs Moduli (GPa) = 111.88601 114.13971 17.38737
#
# Poissons Ratio (x) = 0.25879 0.02093
# Poissons Ratio (y) = 0.25368 0.06462
# Poissons Ratio (z) = 0.13466 0.42422
#
# Static dielectric constant tensor:
#      x y z
#    x 1.982220 -0.061800 -0.003410 
#    y -0.061800 1.943010 -0.003330 
#    z -0.003410 -0.003330 1.889380 
# 
# From -- ./inp_files/133576.got.cif
#   From: 2010.05.17/outbox.cif.g08.bks.cpg/sg2_67_cif.got.tgz:133576.got - 2010.06.03 11:33:40.
