data_PCOD9009268
_publ_section_title
;
Structure prediction by ZEFSAII (Michael W. Deem and Ramdas Pophale) SiO2 
 PCOD9009268
Probable space group: P -1
;
_chemical_formula_sum "Si O2"
_cell_formula_units_Z 16
_cell_length_a 9.794044
_cell_length_b 12.347211
_cell_length_c 11.718446
_cell_angle_alpha 56.107231
_cell_angle_beta 143.050507
_cell_angle_gamma 105.174513
_cell_volume 657.324628
_symmetry_space_group_name_H-M "P -1"
_symmetry_group_IT_number 2
_symmetry_cell_setting 'triclinic'
loop_
_space_group_symop_operation_xyz
x,y,z
-x,-y,-z
loop_
_atom_site_type_symbol
_atom_site_label
_atom_site_fract_x
_atom_site_fract_y
_atom_site_fract_z
Si Si1 0.485588 0.980385 0.351235
Si Si2 0.194561 0.419043 0.275682
Si Si3 0.544051 0.708297 0.894006
Si Si4 0.307228 0.998661 0.967329
Si Si5 0.141845 0.595246 0.768663
Si Si6 0.263780 0.641643 0.370498
Si Si7 0.040343 0.314059 0.641481
Si Si8 0.928097 0.887932 0.845677
O O1 0.500400 0.137941 0.276086
O O2 0.250067 0.988175 0.264106
O O3 0.730223 0.872930 0.634336
O O4 0.440544 0.962069 0.200118
O O5 0.244195 0.517326 0.351112
O O6 0.470583 0.347832 0.457879
O O7 0.051381 0.340811 0.298697
O O8 0.000000 0.500000 0.000000
O O9 0.309607 0.682898 0.799962
O O10 0.690019 0.568538 0.998820
O O11 0.718077 0.695015 0.125944
O O12 0.099725 0.152923 0.743689
O O13 0.147065 0.902275 0.909427
O O14 0.500000 0.000000 0.000000
O O15 0.006095 0.599623 0.555662
O O16 0.181776 0.634772 0.448826
O O17 0.059965 0.771575 0.095532
#
# Coordination Sequence:
#
# PCOD9009268 Si02
#       8
#     2   2   2   2   2   2   2   2
#     4  10  22  43  69  98 132 174 230 277 326 406
#     4  11  27  46  65 103 141 173 225 280 335 399
#     4  10  21  39  67  99 129 169 225 272 324 398
#     4  11  25  43  66  99 140 173 227 283 336 398
#     4  11  23  39  69  99 130 180 219 269 345 394
#     4  11  25  45  70  97 138 177 225 280 330 399
#     4  11  23  43  68  96 134 175 227 276 328 405
#     4  11  22  44  71  97 128 184 226 272 340 395
#
# _framework density 24.341093999999998
#
# number of rings (size 3 to 8) (size 9 to 14) (size 15 to 20)
#    0.000    1.250    3.750    1.500    5.250    2.500 
#    4.500    0.000    0.000    0.000    0.000    0.000 
#    0.000    0.000    0.000    0.000    0.000    0.000 
#
# Total GULP energy -89441.237407 kJ/mol
# GULP energy per Si atom -5590.077338 kJ/mol
# Density = 2.428569 g / cm^3
# Si number density = 24.341094 Si / 1000 Ang^3
#
#
#
# Elastic Constant Matrix: (Units=GPa)
#
#
# Indices 1 2 3 4 5 6 
#
# 1 195.8559 10.9212 64.0008 23.5510 17.5865 -0.8617
# 2 10.9212 39.2009 4.5373 4.4348 8.9689 9.2549
# 3 64.0008 4.5373 139.4791 16.2522 -0.5561 2.6786
# 4 23.5510 4.4348 16.2522 25.2900 8.7280 2.2919
# 5 17.5865 8.9689 -0.5561 8.7280 42.7471 7.5995
# 6 -0.8617 9.2549 2.6786 2.2919 7.5995 33.0989
#
#
#
# Elastic Compliance Matrix: (Units=1/GPa)
#
#
# Indices 1 2 3 4 5 6 
#
# 1 0.006659 -0.000987 -0.002620 -0.003765 -0.002045 0.001392
# 2 -0.000987 0.028572 -0.000123 -0.002022 -0.003940 -0.006960
# 3 -0.002620 -0.000123 0.008857 -0.003897 0.002189 -0.000983
# 4 -0.003765 -0.002022 -0.003897 0.048697 -0.007882 -0.000780
# 5 -0.002045 -0.003940 0.002189 -0.007882 0.027573 -0.004914
# 6 0.001392 -0.006960 -0.000983 -0.000780 -0.004914 0.033457
#
#
# Mechanical properties :
#
#
# Convention : Reuss Voigt Hill
#
# Bulk Modulus (GPa) = 27.30018 59.27271 43.28645
# Shear Modulus (GPa) = 28.82090 39.89898 34.35994
#
# Velocity S-wave (km/s) = 3.44473 4.05305 3.76121
# Velocity P-wave (km/s) = 5.20207 6.80490 6.05674
#
# Compressibility (1/GPa) = 0.03662979
#
# Stress axis : x y z
#
# Youngs Moduli (GPa) = 150.16305 34.99896 112.90026
#
# Poissons Ratio (x) = 0.03453 0.29578
# Poissons Ratio (y) = 0.14816 0.01391
# Poissons Ratio (z) = 0.39340 0.00431
#
# Static dielectric constant tensor:
#      x y z
#    x 1.953170 -0.036780 0.019530 
#    y -0.036780 2.200060 -0.025700 
#    z 0.019530 -0.025700 1.910400 
# 
# From -- ./inp_files/398835.got.cif
#   From: 2010.05.17/outbox.cif.g08.bks.cpg/sg2_200_cif.got.tgz:398835.got - 2010.06.03 11:33:40.
