data_PCOD9009011
_publ_section_title
;
Structure prediction by ZEFSAII (Michael W. Deem and Ramdas Pophale) SiO2 
 PCOD9009011
Probable space group: P -1
;
_chemical_formula_sum "Si O2"
_cell_formula_units_Z 16
_cell_length_a 5.165531
_cell_length_b 16.877295
_cell_length_c 24.009907
_cell_angle_alpha 160.736146
_cell_angle_beta 97.593438
_cell_angle_gamma 83.726998
_cell_volume 683.759317
_symmetry_space_group_name_H-M "P -1"
_symmetry_group_IT_number 2
_symmetry_cell_setting 'triclinic'
loop_
_space_group_symop_operation_xyz
x,y,z
-x,-y,-z
loop_
_atom_site_type_symbol
_atom_site_label
_atom_site_fract_x
_atom_site_fract_y
_atom_site_fract_z
Si Si1 0.167045 0.203618 0.474738
Si Si2 0.793684 0.576303 0.497146
Si Si3 0.764491 0.011894 0.857555
Si Si4 0.069953 0.356263 0.962209
Si Si5 0.606298 0.807833 0.830735
Si Si6 0.548747 0.234690 0.848476
Si Si7 0.279756 0.573258 0.335286
Si Si8 0.270591 0.323688 0.054669
O O1 0.102340 0.287891 0.465938
O O2 0.409520 0.374269 0.615974
O O3 0.915028 0.220817 0.517449
O O4 0.314404 0.952074 0.311105
O O5 0.612384 0.356742 0.319981
O O6 0.000000 0.500000 0.500000
O O7 0.655356 0.789774 0.668305
O O8 0.788289 0.274349 0.923766
O O9 0.552516 0.214817 0.989125
O O10 0.053102 0.103945 0.907576
O O11 0.271787 0.158743 0.817013
O O12 0.500000 0.500000 0.000000
O O13 0.222681 0.471653 0.094879
O O14 0.000000 0.500000 0.000000
O O15 0.772684 0.631369 0.755603
O O16 0.779787 0.927308 0.866098
O O17 0.500000 0.000000 0.000000
O O18 0.226275 0.481722 0.211772
#
# Coordination Sequence:
#
# PCOD9009011 Si02
#       8
#     2   2   2   2   2   2   2   2
#     4  11  23  42  65  95 137 176 222 280 347 401
#     4  11  24  41  64  99 136 181 237 290 336 392
#     4  12  25  41  67  95 133 177 241 286 329 388
#     4  10  21  39  66  97 127 159 209 274 344 401
#     4  11  24  44  63  93 141 192 232 280 345 403
#     4  10  21  40  70  99 124 164 216 273 347 409
#     4  11  25  41  63  94 134 185 227 270 338 420
#     4  12  24  41  67  96 131 175 230 277 341 403
#
# _framework density 23.400047000000001
#
# number of rings (size 3 to 8) (size 9 to 14) (size 15 to 20)
#    0.000    1.000    1.250    5.625    1.750    5.500 
#    0.000    0.000    0.000   18.000    0.000    0.000 
#    0.000    0.000    0.000    0.000    0.000    0.000 
#
# Total GULP energy -89225.943154 kJ/mol
# GULP energy per Si atom -5576.621447 kJ/mol
# Density = 2.334679 g / cm^3
# Si number density = 23.400047 Si / 1000 Ang^3
#
#
#
# Elastic Constant Matrix: (Units=GPa)
#
#
# Indices 1 2 3 4 5 6 
#
# 1 116.6289 15.8037 21.9630 -6.8575 -24.8892 -8.0416
# 2 15.8037 125.7276 48.8810 -24.2988 -6.4585 -5.5506
# 3 21.9630 48.8810 114.5153 -29.9447 -24.6901 -1.1590
# 4 -6.8575 -24.2988 -29.9447 37.1603 5.7898 -2.7329
# 5 -24.8892 -6.4585 -24.6901 5.7898 40.0233 2.5566
# 6 -8.0416 -5.5506 -1.1590 -2.7329 2.5566 31.9810
#
#
#
# Elastic Compliance Matrix: (Units=1/GPa)
#
#
# Indices 1 2 3 4 5 6 
#
# 1 0.010125 -0.000703 -0.000246 0.000447 0.005840 0.001986
# 2 -0.000703 0.010193 -0.003471 0.004140 -0.001657 0.001953
# 3 -0.000246 -0.003471 0.013701 0.007690 0.006629 -0.000041
# 4 0.000447 0.004140 0.007690 0.036175 0.000189 0.004186
# 5 0.005840 -0.001657 0.006629 0.000189 0.032486 -0.001160
# 6 0.001986 0.001953 -0.000041 0.004186 -0.001160 0.032556
#
#
# Mechanical properties :
#
#
# Convention : Reuss Voigt Hill
#
# Bulk Modulus (GPa) = 39.71513 58.90746 49.31129
# Shear Modulus (GPa) = 32.79374 39.84786 36.32080
#
# Velocity S-wave (km/s) = 3.74764 4.13109 3.94403
# Velocity P-wave (km/s) = 5.97792 6.92700 6.46988
#
# Compressibility (1/GPa) = 0.02517932
#
# Stress axis : x y z
#
# Youngs Moduli (GPa) = 98.76273 98.10918 72.98852
#
# Poissons Ratio (x) = 0.06898 0.01793
# Poissons Ratio (y) = 0.06944 0.25334
# Poissons Ratio (z) = 0.02427 0.34053
#
# Static dielectric constant tensor:
#      x y z
#    x 2.061280 0.116570 0.129380 
#    y 0.116570 2.018630 0.119200 
#    z 0.129380 0.119200 2.025240 
# 
# From -- ./inp_files/604921.got.cif
#   From: 2010.05.17/outbox.cif.g08.bks.cpg/sg2_303_cif.got.tgz:604921.got - 2010.06.03 11:33:40.
