data_PCOD9009829
_publ_section_title
;
Structure prediction by ZEFSAII (Michael W. Deem and Ramdas Pophale) SiO2 
 PCOD9009829
Probable space group: P -1
;
_chemical_formula_sum "Si O2"
_cell_formula_units_Z 16
_cell_length_a 10.082842
_cell_length_b 14.583866
_cell_length_c 8.720458
_cell_angle_alpha 51.707739
_cell_angle_beta 111.816207
_cell_angle_gamma 86.567610
_cell_volume 857.078562
_symmetry_space_group_name_H-M "P -1"
_symmetry_group_IT_number 2
_symmetry_cell_setting 'triclinic'
loop_
_space_group_symop_operation_xyz
x,y,z
-x,-y,-z
loop_
_atom_site_type_symbol
_atom_site_label
_atom_site_fract_x
_atom_site_fract_y
_atom_site_fract_z
Si Si1 0.588495 0.139308 0.994113
Si Si2 0.332797 0.150077 0.625673
Si Si3 0.994496 0.374311 0.209394
Si Si4 0.464502 0.302536 0.368032
Si Si5 0.453715 0.359023 0.951221
Si Si6 0.887615 0.436918 0.450139
Si Si7 0.737232 0.292487 0.705569
Si Si8 0.298104 0.558183 0.164692
O O1 0.661881 0.990912 0.219093
O O2 0.433238 0.164303 0.799793
O O3 0.525956 0.229128 0.021009
O O4 0.712678 0.181220 0.911448
O O5 0.435291 0.174864 0.509212
O O6 0.157729 0.254175 0.421291
O O7 0.926757 0.406820 0.318810
O O8 0.869642 0.352500 0.066524
O O9 0.000000 0.500000 0.000000
O O10 0.626248 0.296809 0.510872
O O11 0.336681 0.409966 0.309051
O O12 0.442227 0.339186 0.145504
O O13 0.285470 0.454018 0.723728
O O14 0.574157 0.423093 0.905733
O O15 0.882986 0.314726 0.668560
O O16 0.000000 0.500000 0.500000
O O17 0.680859 0.405161 0.691648
#
# Coordination Sequence:
#
# PCOD9009829 Si02
#       8
#     2   2   2   2   2   2   2   2
#     4   9  22  40  62  81 114 163 197 234 274 344
#     4  10  21  40  60  84 116 158 200 228 284 345
#     4  12  22  36  57  88 122 148 186 242 299 337
#     4  11  19  34  60  84 117 148 187 243 281 345
#     4  11  21  36  56  89 118 145 196 237 294 346
#     4  12  23  33  56  89 119 148 185 246 297 341
#     4  10  22  36  57  84 115 153 196 230 290 342
#     4  11  20  34  57  86 116 151 183 238 295 345
#
# _framework density 18.668067000000001
#
# number of rings (size 3 to 8) (size 9 to 14) (size 15 to 20)
#    0.000    1.250    3.750    3.000    3.500    0.500 
#    0.000    3.125    0.000    1.500    0.000    0.000 
#    0.000    0.000    0.000    0.000    0.000    0.000 
#
# Total GULP energy -89114.095405 kJ/mol
# GULP energy per Si atom -5569.630963 kJ/mol
# Density = 1.862558 g / cm^3
# Si number density = 18.668067 Si / 1000 Ang^3
#
#
#
# Elastic Constant Matrix: (Units=GPa)
#
#
# Indices 1 2 3 4 5 6 
#
# 1 95.2978 32.6795 49.0694 -11.9358 -1.4641 26.0317
# 2 32.6795 70.8749 43.3503 -13.5844 -16.2860 12.6054
# 3 49.0694 43.3503 99.7150 -14.6162 -4.3885 10.9546
# 4 -11.9358 -13.5844 -14.6162 24.7704 0.5144 -0.4721
# 5 -1.4641 -16.2860 -4.3885 0.5144 41.7555 3.4812
# 6 26.0317 12.6054 10.9546 -0.4721 3.4812 25.1893
#
#
#
# Elastic Compliance Matrix: (Units=1/GPa)
#
#
# Indices 1 2 3 4 5 6 
#
# 1 0.019347 -0.000756 -0.006619 0.004661 0.001031 -0.016793
# 2 -0.000756 0.024529 -0.007653 0.008199 0.009412 -0.009313
# 3 -0.006619 -0.007653 0.016472 0.002444 -0.001833 0.003805
# 4 0.004661 0.008199 0.002444 0.048293 0.003824 -0.009607
# 5 0.001031 0.009412 -0.001833 0.003824 0.028150 -0.008797
# 6 -0.016793 -0.009313 0.003805 -0.009607 -0.008797 0.061095
#
#
# Mechanical properties :
#
#
# Convention : Reuss Voigt Hill
#
# Bulk Modulus (GPa) = 33.00935 57.34289 45.17612
# Shear Modulus (GPa) = 21.00489 27.72893 24.36691
#
# Velocity S-wave (km/s) = 3.35801 3.85823 3.61677
# Velocity P-wave (km/s) = 5.72325 7.11559 6.45706
#
# Compressibility (1/GPa) = 0.03029445
#
# Stress axis : x y z
#
# Youngs Moduli (GPa) = 51.68638 40.76773 60.70826
#
# Poissons Ratio (x) = 0.03080 0.40182
# Poissons Ratio (y) = 0.03905 0.46459
# Poissons Ratio (z) = 0.34210 0.31199
#
# Static dielectric constant tensor:
#      x y z
#    x 1.684450 0.031380 -0.005310 
#    y 0.031380 1.645740 -0.007910 
#    z -0.005310 -0.007910 1.671420 
# 
# From -- ./inp_files/199745.got.cif
#   From: 2010.05.17/outbox.cif.g08.bks.cpg/sg2_100_cif.got.tgz:199745.got - 2010.06.03 11:33:40.
