data_PCOD9009081
_publ_section_title
;
Structure prediction by ZEFSAII (Michael W. Deem and Ramdas Pophale) SiO2 
 PCOD9009081
Probable space group: P -1
;
_chemical_formula_sum "Si O2"
_cell_formula_units_Z 16
_cell_length_a 20.941389
_cell_length_b 5.345343
_cell_length_c 22.261868
_cell_angle_alpha 114.049665
_cell_angle_beta 17.629218
_cell_angle_gamma 108.864163
_cell_volume 669.850119
_symmetry_space_group_name_H-M "P -1"
_symmetry_group_IT_number 2
_symmetry_cell_setting 'triclinic'
loop_
_space_group_symop_operation_xyz
x,y,z
-x,-y,-z
loop_
_atom_site_type_symbol
_atom_site_label
_atom_site_fract_x
_atom_site_fract_y
_atom_site_fract_z
Si Si1 0.796565 0.341533 0.475897
Si Si2 0.618087 0.645385 0.224571
Si Si3 0.401948 0.013569 0.296715
Si Si4 0.017121 0.057482 0.061343
Si Si5 0.647053 0.819797 0.935148
Si Si6 0.797911 0.175049 0.737420
Si Si7 0.454284 0.686200 0.500267
Si Si8 0.835020 0.085478 0.961248
O O1 0.617861 0.279487 0.583502
O O2 0.021743 0.154496 0.231882
O O3 0.725407 0.216435 0.589516
O O4 0.757769 0.679161 0.540651
O O5 0.595622 0.549165 0.303872
O O6 0.750816 0.876409 0.135537
O O7 0.771822 0.402096 0.023102
O O8 0.540935 0.930360 0.104119
O O9 0.591163 0.032843 0.177094
O O10 0.794538 0.288353 0.291617
O O11 0.030310 0.887124 0.095705
O O12 0.000000 0.000000 0.000000
O O13 0.797202 0.504299 0.776123
O O14 0.776332 0.020070 0.804534
O O15 0.431495 0.816244 0.089018
O O16 0.000000 0.000000 0.500000
O O17 0.500000 0.500000 0.500000
O O18 0.500000 0.000000 0.500000
#
# Coordination Sequence:
#
# PCOD9009081 Si02
#       8
#     2   2   2   2   2   2   2   2
#     4  11  25  43  66  92 128 172 217 273 327 386
#     4  11  25  43  66  90 128 159 212 267 332 394
#     4  11  25  44  67  97 134 174 223 271 321 384
#     4  12  24  42  68  91 125 163 211 267 339 399
#     4  10  22  40  64 100 138 177 223 270 316 380
#     4  10  21  39  67 100 141 179 220 267 321 372
#     4  12  27  43  65  94 123 157 205 260 329 406
#     4  11  26  42  66  93 126 170 216 272 330 398
#
# _framework density 23.885942
#
# number of rings (size 3 to 8) (size 9 to 14) (size 15 to 20)
#    0.000    1.000    3.750    1.875    3.500    3.000 
#    0.000    0.000    0.000    0.000    0.000    0.000 
#    0.000    0.000    0.000    0.000    0.000    0.000 
#
# Total GULP energy -89266.923573 kJ/mol
# GULP energy per Si atom -5579.182723 kJ/mol
# Density = 2.383158 g / cm^3
# Si number density = 23.885942 Si / 1000 Ang^3
#
#
#
# Elastic Constant Matrix: (Units=GPa)
#
#
# Indices 1 2 3 4 5 6 
#
# 1 62.4549 24.9556 10.4893 4.5454 8.5385 -16.7957
# 2 24.9556 104.5900 44.6105 6.5235 8.9017 -29.8667
# 3 10.4893 44.6105 139.3210 34.1355 16.5661 -27.6123
# 4 4.5454 6.5235 34.1355 32.4983 0.1989 6.4333
# 5 8.5385 8.9017 16.5661 0.1989 39.3940 -3.1845
# 6 -16.7957 -29.8667 -27.6123 6.4333 -3.1845 29.5097
#
#
#
# Elastic Compliance Matrix: (Units=1/GPa)
#
#
# Indices 1 2 3 4 5 6 
#
# 1 0.022747 -0.001021 0.007024 -0.014478 -0.005882 0.021007
# 2 -0.001021 0.014726 0.000158 -0.006053 -0.001882 0.015587
# 3 0.007024 0.000158 0.019525 -0.026920 -0.007410 0.027496
# 4 -0.014478 -0.006053 -0.026920 0.072962 0.011071 -0.054267
# 5 -0.005882 -0.001882 -0.007410 0.011071 0.029220 -0.011447
# 6 0.021007 0.015587 0.027496 -0.054267 -0.011447 0.097943
#
#
# Mechanical properties :
#
#
# Convention : Reuss Voigt Hill
#
# Bulk Modulus (GPa) = 14.42585 51.83074 33.12829
# Shear Modulus (GPa) = 18.66317 35.36779 27.01548
#
# Velocity S-wave (km/s) = 2.79829 3.85215 3.36671
# Velocity P-wave (km/s) = 4.06117 6.44452 5.38632
#
# Compressibility (1/GPa) = 0.06931998
#
# Stress axis : x y z
#
# Youngs Moduli (GPa) = 43.96164 67.90539 51.21720
#
# Poissons Ratio (x) = 0.06934 -0.35978
# Poissons Ratio (y) = 0.04489 -0.00807
# Poissons Ratio (z) = -0.30881 -0.01070
#
# Static dielectric constant tensor:
#      x y z
#    x 1.906370 -0.044260 0.079130 
#    y -0.044260 2.043370 -0.027850 
#    z 0.079130 -0.027850 1.919160 
# 
# From -- ./inp_files/120400.got.cif
#   From: 2010.05.17/outbox.cif.g08.bks.cpg/sg2_61_cif.got.tgz:120400.got - 2010.06.03 11:33:40.
