data_PCOD9009653
_publ_section_title
;
Structure prediction by ZEFSAII (Michael W. Deem and Ramdas Pophale) SiO2 
 PCOD9009653
Probable space group: P -1
;
_chemical_formula_sum "Si O2"
_cell_formula_units_Z 14
_cell_length_a 8.871585
_cell_length_b 7.074151
_cell_length_c 9.574021
_cell_angle_alpha 70.435790
_cell_angle_beta 104.522001
_cell_angle_gamma 105.623549
_cell_volume 536.643841
_symmetry_space_group_name_H-M "P -1"
_symmetry_group_IT_number 2
_symmetry_cell_setting 'triclinic'
loop_
_space_group_symop_operation_xyz
x,y,z
-x,-y,-z
loop_
_atom_site_type_symbol
_atom_site_label
_atom_site_fract_x
_atom_site_fract_y
_atom_site_fract_z
Si Si1 0.578491 0.667103 0.269585
Si Si2 0.753064 0.283101 0.816777
Si Si3 0.641266 0.808895 0.933895
Si Si4 0.979345 0.800297 0.945044
Si Si5 0.828468 0.468624 0.536266
Si Si6 0.956236 0.182829 0.358455
Si Si7 0.402560 0.923853 0.640862
O O1 0.388679 0.595438 0.246501
O O2 0.686219 0.527344 0.402104
O O3 0.608222 0.873059 0.321214
O O4 0.615555 0.708500 0.105008
O O5 0.787993 0.260689 0.666122
O O6 0.681040 0.054690 0.912108
O O7 0.917276 0.345509 0.921505
O O8 0.499776 0.792293 0.793023
O O9 0.790229 0.732732 0.919800
O O10 0.053205 0.860637 0.796912
O O11 0.000000 0.000000 0.000000
O O12 0.000000 0.500000 0.500000
O O13 0.888971 0.636783 0.630771
O O14 0.782091 0.199043 0.374185
O O15 0.000000 0.000000 0.500000
O O16 0.500000 0.000000 0.500000
#
# Coordination Sequence:
#
# PCOD9009653 Si02
#       7
#     2   2   2   2   2   2   2
#     4  11  22  44  68  99 134 181 227 274 330 412
#     4  10  22  40  67  95 135 174 221 273 339 392
#     4  10  21  39  72 100 128 173 232 273 333 400
#     4  10  21  40  72  98 130 172 224 278 335 396
#     4  12  28  42  66  99 144 182 219 278 348 395
#     4  12  25  42  68  99 136 175 232 279 330 408
#     4  11  22  38  67 101 131 167 229 287 326 386
#
# _framework density 26.088063999999999
#
# number of rings (size 3 to 8) (size 9 to 14) (size 15 to 20)
#    0.000    1.143    1.429    6.429    8.000    0.571 
#    0.000    0.000    0.000    3.429    0.000    0.000 
#    0.000    0.000    0.000    0.000    0.000    0.000 
#
# Total GULP energy -78303.631357 kJ/mol
# GULP energy per Si atom -5593.116526 kJ/mol
# Density = 2.602869 g / cm^3
# Si number density = 26.088064 Si / 1000 Ang^3
#
#
#
# Elastic Constant Matrix: (Units=GPa)
#
#
# Indices 1 2 3 4 5 6 
#
# 1 237.5728 19.8722 107.1393 6.6992 33.8296 -3.2203
# 2 19.8722 49.4279 12.4585 8.5249 10.7311 -1.2913
# 3 107.1393 12.4585 252.6840 -0.4535 7.3184 -12.6058
# 4 6.6992 8.5249 -0.4535 29.0614 -2.1505 4.1305
# 5 33.8296 10.7311 7.3184 -2.1505 77.2591 3.6304
# 6 -3.2203 -1.2913 -12.6058 4.1305 3.6304 41.3945
#
#
#
# Elastic Compliance Matrix: (Units=1/GPa)
#
#
# Indices 1 2 3 4 5 6 
#
# 1 0.005670 -0.001025 -0.002292 -0.001205 -0.002158 0.000021
# 2 -0.001025 0.022622 -0.000539 -0.006821 -0.002898 0.001396
# 3 -0.002292 -0.000539 0.005001 0.000634 0.000565 0.001215
# 4 -0.001205 -0.006821 0.000634 0.037475 0.002650 -0.004085
# 5 -0.002158 -0.002898 0.000565 0.002650 0.014387 -0.001612
# 6 0.000021 0.001396 0.001215 -0.004085 -0.001612 0.025122
#
#
# Mechanical properties :
#
#
# Convention : Reuss Voigt Hill
#
# Bulk Modulus (GPa) = 39.09352 90.95830 65.02591
# Shear Modulus (GPa) = 39.52030 56.22400 47.87215
#
# Velocity S-wave (km/s) = 3.89637 4.64741 4.28836
# Velocity P-wave (km/s) = 5.93801 7.98370 7.03560
#
# Compressibility (1/GPa) = 0.02557969
#
# Stress axis : x y z
#
# Youngs Moduli (GPa) = 176.35803 44.20568 199.94238
#
# Poissons Ratio (x) = 0.04532 0.45833
# Poissons Ratio (y) = 0.18079 0.10784
# Poissons Ratio (z) = 0.40427 0.02384
#
# Static dielectric constant tensor:
#      x y z
#    x 2.144900 0.052110 -0.152680 
#    y 0.052110 2.322170 0.059680 
#    z -0.152680 0.059680 2.239750 
# 
# From -- ./inp_files/156963.got.cif
#   From: 2010.05.17/outbox.cif.g08.bks.cpg/sg2_79_cif.got.tgz:156963.got - 2010.06.03 11:33:40.
