data_PCOD9009985
_publ_section_title
;
Structure prediction by ZEFSAII (Michael W. Deem and Ramdas Pophale) SiO2 
 PCOD9009985
Probable space group: P -1
;
_chemical_formula_sum "Si O2"
_cell_formula_units_Z 16
_cell_length_a 9.346584
_cell_length_b 9.835442
_cell_length_c 14.618844
_cell_angle_alpha 50.664486
_cell_angle_beta 122.482505
_cell_angle_gamma 144.522472
_cell_volume 602.609912
_symmetry_space_group_name_H-M "P -1"
_symmetry_group_IT_number 2
_symmetry_cell_setting 'triclinic'
loop_
_space_group_symop_operation_xyz
x,y,z
-x,-y,-z
loop_
_atom_site_type_symbol
_atom_site_label
_atom_site_fract_x
_atom_site_fract_y
_atom_site_fract_z
Si Si1 0.510418 0.236418 0.983789
Si Si2 0.202877 0.536866 0.834224
Si Si3 0.306615 0.734708 0.198276
Si Si4 0.787018 0.719367 0.777468
Si Si5 0.475460 0.045653 0.630229
Si Si6 0.733685 0.836045 0.365737
Si Si7 0.321211 0.533989 0.595117
Si Si8 0.949914 0.865430 0.175088
O O1 0.271281 0.161178 0.900254
O O2 0.722399 0.471347 0.889900
O O3 0.600460 0.353616 0.066602
O O4 0.441860 0.981846 0.078532
O O5 0.326336 0.752318 0.706668
O O6 0.073737 0.264480 0.869262
O O7 0.982970 0.488212 0.822205
O O8 0.484441 0.702181 0.282501
O O9 0.336777 0.827215 0.274531
O O10 0.569117 0.653938 0.678287
O O11 0.032791 0.922215 0.715075
O O12 0.824173 0.853169 0.828818
O O13 0.293828 0.071635 0.589986
O O14 0.627534 0.229672 0.518419
O O15 0.732018 0.623638 0.448261
O O16 0.111417 0.317782 0.685806
#
# Coordination Sequence:
#
# PCOD9009985 Si02
#       8
#     2   2   2   2   2   2   2   2
#     4  10  21  40  61  89 113 153 198 242 293 343
#     4  11  22  40  62  85 119 156 194 239 296 346
#     4   9  22  37  57  90 119 150 191 240 289 340
#     4  10  22  38  61  87 116 159 194 236 295 342
#     4   9  22  39  60  91 117 152 196 241 290 343
#     4   9  21  39  60  90 119 149 195 245 286 346
#     4  10  21  40  63  87 118 154 196 240 291 344
#     4  10  23  40  59  89 118 151 198 244 286 346
#
# _framework density 26.551172000000001
#
# number of rings (size 3 to 8) (size 9 to 14) (size 15 to 20)
#    0.750    1.500    0.000    1.500    1.750    9.500 
#    0.000    7.500    0.000    0.000    0.000    0.000 
#    0.000    0.000    0.000    0.000    0.000    0.000 
#
# Total GULP energy -89440.900192 kJ/mol
# GULP energy per Si atom -5590.056262 kJ/mol
# Density = 2.649074 g / cm^3
# Si number density = 26.551172 Si / 1000 Ang^3
#
#
#
# Elastic Constant Matrix: (Units=GPa)
#
#
# Indices 1 2 3 4 5 6 
#
# 1 34.4187 2.9899 -9.3847 4.1999 -0.2522 -4.4039
# 2 2.9899 77.7787 21.6684 -6.1879 10.1179 -12.7168
# 3 -9.3847 21.6684 132.7761 -25.8427 -18.2311 6.5739
# 4 4.1999 -6.1879 -25.8427 39.3923 1.0547 -1.4658
# 5 -0.2522 10.1179 -18.2311 1.0547 25.3433 -3.9420
# 6 -4.4039 -12.7168 6.5739 -1.4658 -3.9420 36.7216
#
#
#
# Elastic Compliance Matrix: (Units=1/GPa)
#
#
# Indices 1 2 3 4 5 6 
#
# 1 0.030510 -0.001977 0.002418 -0.001962 0.003353 0.002823
# 2 -0.001977 0.016080 -0.004112 0.000462 -0.008614 0.005161
# 3 0.002418 -0.004112 0.010840 0.005899 0.008926 -0.001881
# 4 -0.001962 0.000462 0.005899 0.029474 0.002868 0.000353
# 5 0.003353 -0.008614 0.008926 0.002868 0.049425 0.001241
# 6 0.002823 0.005161 -0.001881 0.000353 0.001241 0.029842
#
#
# Mechanical properties :
#
#
# Convention : Reuss Voigt Hill
#
# Bulk Modulus (GPa) = 19.96524 30.61343 25.28934
# Shear Modulus (GPa) = 26.28675 35.60478 30.94576
#
# Velocity S-wave (km/s) = 3.14990 3.66592 3.41767
# Velocity P-wave (km/s) = 4.55687 5.42896 5.01192
#
# Compressibility (1/GPa) = 0.05008705
#
# Stress axis : x y z
#
# Youngs Moduli (GPa) = 32.77595 62.18982 92.24809
#
# Poissons Ratio (x) = 0.12296 -0.22304
# Poissons Ratio (y) = 0.06480 0.37936
# Poissons Ratio (z) = -0.07925 0.25575
#
# Static dielectric constant tensor:
#      x y z
#    x 2.218780 -0.093540 -0.051120 
#    y -0.093540 2.052740 -0.009820 
#    z -0.051120 -0.009820 2.016280 
# 
# From -- ./inp_files/429251.got.cif
#   From: 2010.05.17/outbox.cif.g08.bks.cpg/sg2_215_cif.got.tgz:429251.got - 2010.06.03 11:33:40.
