data_PCOD9009015
_publ_section_title
;
Structure prediction by ZEFSAII (Michael W. Deem and Ramdas Pophale) SiO2 
 PCOD9009015
Probable space group: P -1
;
_chemical_formula_sum "Si O2"
_cell_formula_units_Z 16
_cell_length_a 16.158409
_cell_length_b 9.115884
_cell_length_c 9.261208
_cell_angle_alpha 77.634137
_cell_angle_beta 74.677919
_cell_angle_gamma 135.402407
_cell_volume 743.061166
_symmetry_space_group_name_H-M "P -1"
_symmetry_group_IT_number 2
_symmetry_cell_setting 'triclinic'
loop_
_space_group_symop_operation_xyz
x,y,z
-x,-y,-z
loop_
_atom_site_type_symbol
_atom_site_label
_atom_site_fract_x
_atom_site_fract_y
_atom_site_fract_z
Si Si1 0.489510 0.861839 0.320321
Si Si2 0.452722 0.139023 0.383437
Si Si3 0.769138 0.626436 0.657617
Si Si4 0.659067 0.778927 0.800469
Si Si5 0.207114 0.603587 0.067898
Si Si6 0.075354 0.675984 0.286804
Si Si7 0.203149 0.358660 0.904748
Si Si8 0.953137 0.812564 0.271181
O O1 0.545203 0.863321 0.442787
O O2 0.371645 0.604933 0.333489
O O3 0.418528 0.921095 0.389688
O O4 0.631711 0.100163 0.106155
O O5 0.363818 0.141067 0.341863
O O6 0.623352 0.408989 0.201024
O O7 0.744361 0.751844 0.714588
O O8 0.776602 0.504254 0.797481
O O9 0.909315 0.811185 0.447706
O O10 0.765540 0.022574 0.808885
O O11 0.500000 0.500000 0.000000
O O12 0.102630 0.584247 0.179134
O O13 0.153366 0.444429 0.981101
O O14 0.000000 0.500000 0.500000
O O15 0.967550 0.655294 0.293926
O O16 0.167457 0.306071 0.764110
O O17 0.107388 0.097200 0.082354
#
# Coordination Sequence:
#
# PCOD9009015 Si02
#       8
#     2   2   2   2   2   2   2   2
#     4  10  21  39  66  97 127 171 211 270 330 384
#     4  10  21  42  68  94 135 166 216 272 327 381
#     4  12  23  41  68  96 132 173 217 266 326 394
#     4  12  26  43  67 101 133 174 223 275 323 386
#     4  11  23  41  68  94 128 173 222 267 326 386
#     4  12  26  43  66  97 135 171 220 276 323 391
#     4  10  23  44  67  95 129 177 213 266 329 395
#     4  11  24  44  66  93 137 172 215 264 334 392
#
# _framework density 21.532547999999998
#
# number of rings (size 3 to 8) (size 9 to 14) (size 15 to 20)
#    0.000    1.000    2.500    4.875    1.750    2.000 
#    4.500    0.000    0.000    0.000    0.000    0.000 
#    0.000    0.000    0.000    0.000    0.000    0.000 
#
# Total GULP energy -89524.625191 kJ/mol
# GULP energy per Si atom -5595.289074 kJ/mol
# Density = 2.148354 g / cm^3
# Si number density = 21.532548 Si / 1000 Ang^3
#
#
#
# Elastic Constant Matrix: (Units=GPa)
#
#
# Indices 1 2 3 4 5 6 
#
# 1 101.0499 -3.6355 28.1920 10.4159 7.9976 -17.8245
# 2 -3.6355 44.1971 -3.7974 12.6011 4.4119 -4.8614
# 3 28.1920 -3.7974 108.4212 5.9735 1.3376 -8.9047
# 4 10.4159 12.6011 5.9735 33.8324 -4.9290 -2.6729
# 5 7.9976 4.4119 1.3376 -4.9290 30.6805 7.5049
# 6 -17.8245 -4.8614 -8.9047 -2.6729 7.5049 30.6527
#
#
#
# Elastic Compliance Matrix: (Units=1/GPa)
#
#
# Indices 1 2 3 4 5 6 
#
# 1 0.013410 0.004235 -0.002193 -0.005640 -0.007138 0.009088
# 2 0.004235 0.028683 0.001442 -0.012941 -0.009480 0.008623
# 3 -0.002193 0.001442 0.010103 -0.001610 -0.000811 0.001946
# 4 -0.005640 -0.012941 -0.001610 0.037550 0.010692 -0.005144
# 5 -0.007138 -0.009480 -0.000811 0.010692 0.041254 -0.015058
# 6 0.009088 0.008623 0.001946 -0.005144 -0.015058 0.043080
#
#
# Mechanical properties :
#
#
# Convention : Reuss Voigt Hill
#
# Bulk Modulus (GPa) = 16.90288 32.79848 24.85068
# Shear Modulus (GPa) = 26.76192 34.56040 30.66116
#
# Velocity S-wave (km/s) = 3.52924 4.01063 3.77761
# Velocity P-wave (km/s) = 4.94716 6.05904 5.53111
#
# Compressibility (1/GPa) = 0.05916153
#
# Stress axis : x y z
#
# Youngs Moduli (GPa) = 74.57230 34.86432 98.98422
#
# Poissons Ratio (x) = -0.14765 0.21710
# Poissons Ratio (y) = -0.31581 -0.14269
# Poissons Ratio (z) = 0.16356 -0.05026
#
# Static dielectric constant tensor:
#      x y z
#    x 1.769850 0.011660 0.003090 
#    y 0.011660 1.780840 -0.016450 
#    z 0.003090 -0.016450 1.778390 
# 
# From -- ./inp_files/205724.got.cif
#   From: 2010.05.17/outbox.cif.g08.bks.cpg/sg2_103_cif.got.tgz:205724.got - 2010.06.03 11:33:40.
