data_PCOD9009879
_publ_section_title
;
Structure prediction by ZEFSAII (Michael W. Deem and Ramdas Pophale) SiO2 
 PCOD9009879
Probable space group: P -1
;
_chemical_formula_sum "Si O2"
_cell_formula_units_Z 16
_cell_length_a 13.238364
_cell_length_b 16.062699
_cell_length_c 13.947824
_cell_angle_alpha 150.414800
_cell_angle_beta 54.279127
_cell_angle_gamma 145.934674
_cell_volume 713.250789
_symmetry_space_group_name_H-M "P -1"
_symmetry_group_IT_number 2
_symmetry_cell_setting 'triclinic'
loop_
_space_group_symop_operation_xyz
x,y,z
-x,-y,-z
loop_
_atom_site_type_symbol
_atom_site_label
_atom_site_fract_x
_atom_site_fract_y
_atom_site_fract_z
Si Si1 0.408987 0.508711 0.843763
Si Si2 0.019319 0.988392 0.363372
Si Si3 0.316836 0.339482 0.017098
Si Si4 0.941538 0.445124 0.364943
Si Si5 0.120851 0.262320 0.402574
Si Si6 0.370415 0.785215 0.444076
Si Si7 0.411151 0.214974 0.398183
Si Si8 0.498625 0.938988 0.143150
O O1 0.626683 0.735159 0.005749
O O2 0.404088 0.326178 0.607679
O O3 0.217967 0.319301 0.833661
O O4 0.382451 0.636742 0.915186
O O5 0.077017 0.210906 0.489080
O O6 0.197054 0.044446 0.296936
O O7 0.000000 0.000000 0.500000
O O8 0.372847 0.589609 0.265178
O O9 0.500000 0.500000 0.000000
O O10 0.071412 0.061788 0.852581
O O11 0.920733 0.610268 0.502180
O O12 0.713341 0.124251 0.157465
O O13 0.000000 0.500000 0.500000
O O14 0.133284 0.567469 0.331336
O O15 0.366255 0.496304 0.483527
O O16 0.446379 0.950927 0.667257
O O17 0.500000 0.000000 0.500000
O O18 0.409337 0.012589 0.218741
#
# Coordination Sequence:
#
# PCOD9009879 Si02
#       8
#     2   2   2   2   2   2   2   2
#     4  11  22  40  65  93 133 165 213 263 320 386
#     4  10  23  42  67  91 123 172 222 266 314 371
#     4  12  22  36  60  96 131 160 212 257 329 390
#     4   9  20  38  57  90 129 165 201 252 319 381
#     4  11  22  39  68  92 128 169 210 268 320 383
#     4  11  22  34  57  90 132 172 200 258 320 388
#     4  10  23  42  65  91 124 172 217 260 317 371
#     4  10  21  40  60  90 128 167 209 259 315 380
#
# _framework density 22.432501999999999
#
# number of rings (size 3 to 8) (size 9 to 14) (size 15 to 20)
#    0.000    1.500    2.500    3.375    1.750    1.000 
#    0.000    0.000    5.500    6.750    0.000    0.000 
#    0.000    0.000    0.000    0.000    0.000    0.000 
#
# Total GULP energy -89122.929876 kJ/mol
# GULP energy per Si atom -5570.183117 kJ/mol
# Density = 2.238144 g / cm^3
# Si number density = 22.432502 Si / 1000 Ang^3
#
#
#
# Elastic Constant Matrix: (Units=GPa)
#
#
# Indices 1 2 3 4 5 6 
#
# 1 102.3031 52.3216 32.6004 20.2427 -8.3549 2.6078
# 2 52.3216 120.2929 21.6283 39.6457 -9.3762 15.0734
# 3 32.6004 21.6283 48.5610 21.1216 -9.4509 7.4938
# 4 20.2427 39.6457 21.1216 30.2182 -4.9245 -3.2582
# 5 -8.3549 -9.3762 -9.4509 -4.9245 32.6750 6.3324
# 6 2.6078 15.0734 7.4938 -3.2582 6.3324 40.7505
#
#
#
# Elastic Compliance Matrix: (Units=1/GPa)
#
#
# Indices 1 2 3 4 5 6 
#
# 1 0.015926 -0.008689 -0.012098 0.009521 -0.001536 0.005419
# 2 -0.008689 0.023603 0.014309 -0.035723 0.006139 -0.014616
# 3 -0.012098 0.014309 0.046051 -0.042963 0.011382 -0.018191
# 4 0.009521 -0.035723 -0.042963 0.105225 -0.010299 0.030519
# 5 -0.001536 0.006139 0.011382 -0.010299 0.035777 -0.010649
# 6 0.005419 -0.014616 -0.018191 0.030519 -0.010649 0.037039
#
#
# Mechanical properties :
#
#
# Convention : Reuss Voigt Hill
#
# Bulk Modulus (GPa) = 13.76971 53.80639 33.78805
# Shear Modulus (GPa) = 16.62310 31.70252 24.16281
#
# Velocity S-wave (km/s) = 2.72514 3.76339 3.28553
# Velocity P-wave (km/s) = 4.00667 6.55150 5.43026
#
# Compressibility (1/GPa) = 0.07262318
#
# Stress axis : x y z
#
# Youngs Moduli (GPa) = 62.78868 42.36738 21.71516
#
# Poissons Ratio (x) = 0.36812 0.26272
# Poissons Ratio (y) = 0.54555 -0.31071
# Poissons Ratio (z) = 0.75964 -0.60621
#
# Static dielectric constant tensor:
#      x y z
#    x 1.925190 -0.021680 0.131670 
#    y -0.021680 1.865090 0.035370 
#    z 0.131670 0.035370 1.904890 
# 
# From -- ./inp_files/225739.got.cif
#   From: 2010.05.17/outbox.cif.g08.bks.cpg/sg2_113_cif.got.tgz:225739.got - 2010.06.03 11:33:40.
