data_PCOD9009988
_publ_section_title
;
Structure prediction by ZEFSAII (Michael W. Deem and Ramdas Pophale) SiO2 
 PCOD9009988
Probable space group: P -1
;
_chemical_formula_sum "Si O2"
_cell_formula_units_Z 16
_cell_length_a 8.301907
_cell_length_b 23.103223
_cell_length_c 12.550126
_cell_angle_alpha 156.990534
_cell_angle_beta 49.562060
_cell_angle_gamma 115.499170
_cell_volume 593.440788
_symmetry_space_group_name_H-M "P -1"
_symmetry_group_IT_number 2
_symmetry_cell_setting 'triclinic'
loop_
_space_group_symop_operation_xyz
x,y,z
-x,-y,-z
loop_
_atom_site_type_symbol
_atom_site_label
_atom_site_fract_x
_atom_site_fract_y
_atom_site_fract_z
Si Si1 0.203314 0.656019 0.086406
Si Si2 0.109418 0.978864 0.536216
Si Si3 0.170770 0.428924 0.442739
Si Si4 0.862627 0.922369 0.867520
Si Si5 0.639228 0.210908 0.287008
Si Si6 0.275998 0.218202 0.828592
Si Si7 0.390061 0.464965 0.132512
Si Si8 0.717761 0.677142 0.571388
O O1 0.172074 0.794057 0.246129
O O2 0.063324 0.762271 0.432838
O O3 0.495957 0.534870 0.797904
O O4 0.099009 0.534142 0.894882
O O5 0.000000 0.000000 0.500000
O O6 0.311398 0.032953 0.521723
O O7 0.909742 0.117630 0.948454
O O8 0.361376 0.356187 0.336462
O O9 0.913029 0.432957 0.583308
O O10 0.281517 0.302239 0.079895
O O11 0.019164 0.641396 0.845519
O O12 0.783415 0.821409 0.807156
O O13 0.658941 0.071558 0.126857
O O14 0.000000 0.000000 0.000000
O O15 0.557664 0.391162 0.693435
O O16 0.453571 0.244618 0.327014
O O17 0.449725 0.262457 0.757122
#
# Coordination Sequence:
#
# PCOD9009988 Si02
#       8
#     2   2   2   2   2   2   2   2
#     4  10  24  39  60  89 123 148 202 249 294 356
#     4  11  21  37  55  90 128 162 190 242 299 348
#     4   9  17  34  61  88 111 163 193 240 289 345
#     4  11  24  43  64  87 115 158 197 253 305 345
#     4  10  21  40  61  89 120 150 205 245 287 363
#     4   9  18  34  60  81 128 155 197 240 286 344
#     4   9  18  38  61  84 115 157 194 246 287 347
#     4  11  22  40  65  86 118 158 198 244 308 349
#
# _framework density 26.961410999999998
#
# number of rings (size 3 to 8) (size 9 to 14) (size 15 to 20)
#    0.750    1.250    1.250    2.250    1.750    1.500 
#    2.250   10.000    0.000    0.000    0.000    0.000 
#    0.000    0.000    0.000    0.000    0.000    0.000 
#
# Total GULP energy -89067.960466 kJ/mol
# GULP energy per Si atom -5566.747529 kJ/mol
# Density = 2.690005 g / cm^3
# Si number density = 26.961411 Si / 1000 Ang^3
#
#
#
# Elastic Constant Matrix: (Units=GPa)
#
#
# Indices 1 2 3 4 5 6 
#
# 1 47.8109 -3.3043 19.9445 13.3414 -1.5168 -21.2659
# 2 -3.3043 88.0338 43.2772 36.4053 -7.2948 -7.4553
# 3 19.9445 43.2772 101.1143 35.5653 15.4945 -3.8805
# 4 13.3414 36.4053 35.5653 66.0518 -3.0135 9.4133
# 5 -1.5168 -7.2948 15.4945 -3.0135 41.2234 16.5006
# 6 -21.2659 -7.4553 -3.8805 9.4133 16.5006 47.3236
#
#
#
# Elastic Compliance Matrix: (Units=1/GPa)
#
#
# Indices 1 2 3 4 5 6 
#
# 1 0.038582 0.012091 -0.006000 -0.014754 -0.004584 0.023284
# 2 0.012091 0.021177 -0.007429 -0.011380 0.002302 0.009621
# 3 -0.006000 -0.007429 0.017352 -0.004685 -0.009059 0.001647
# 4 -0.014754 -0.011380 -0.004685 0.029821 0.008465 -0.017690
# 5 -0.004584 0.002302 -0.009059 0.008465 0.035065 -0.016350
# 6 0.023284 0.009621 0.001647 -0.017690 -0.016350 0.042465
#
#
# Mechanical properties :
#
#
# Convention : Reuss Voigt Hill
#
# Bulk Modulus (GPa) = 13.43465 39.64374 26.53919
# Shear Modulus (GPa) = 23.59042 42.72254 33.15648
#
# Velocity S-wave (km/s) = 2.96120 3.98500 3.51062
# Velocity P-wave (km/s) = 4.08477 5.99245 5.12810
#
# Compressibility (1/GPa) = 0.07443442
#
# Stress axis : x y z
#
# Youngs Moduli (GPa) = 25.91885 47.22122 57.62976
#
# Poissons Ratio (x) = -0.57094 0.34576
# Poissons Ratio (y) = -0.31338 0.42816
# Poissons Ratio (z) = 0.15550 0.35083
#
# Static dielectric constant tensor:
#      x y z
#    x 2.146770 0.064430 -0.033780 
#    y 0.064430 2.207450 -0.053230 
#    z -0.033780 -0.053230 2.230270 
# 
# From -- ./inp_files/509002.got.cif
#   From: 2010.05.17/outbox.cif.g08.bks.cpg/sg2_255_cif.got.tgz:509002.got - 2010.06.03 11:33:40.
