data_PCOD9009503
_publ_section_title
;
Structure prediction by ZEFSAII (Michael W. Deem and Ramdas Pophale) SiO2 
 PCOD9009503
Probable space group: P -1
;
_chemical_formula_sum "Si O2"
_cell_formula_units_Z 16
_cell_length_a 10.315162
_cell_length_b 13.906925
_cell_length_c 12.490353
_cell_angle_alpha 135.817308
_cell_angle_beta 134.029322
_cell_angle_gamma 45.889288
_cell_volume 825.067993
_symmetry_space_group_name_H-M "P -1"
_symmetry_group_IT_number 2
_symmetry_cell_setting 'triclinic'
loop_
_space_group_symop_operation_xyz
x,y,z
-x,-y,-z
loop_
_atom_site_type_symbol
_atom_site_label
_atom_site_fract_x
_atom_site_fract_y
_atom_site_fract_z
Si Si1 0.973497 0.525465 0.879859
Si Si2 0.174720 0.886383 0.436332
Si Si3 0.711702 0.921460 0.504948
Si Si4 0.684988 0.613625 0.192614
Si Si5 0.750825 0.311242 0.073187
Si Si6 0.950539 0.828505 0.058935
Si Si7 0.857913 0.149688 0.231261
Si Si8 0.297189 0.640845 0.483588
O O1 0.862735 0.426992 0.691312
O O2 0.186645 0.469469 0.902349
O O3 0.866136 0.701987 0.931365
O O4 0.000000 0.500000 0.000000
O O5 0.300479 0.750171 0.476060
O O6 0.082663 0.826269 0.237318
O O7 0.282310 0.983440 0.520788
O O8 0.000000 0.000000 0.500000
O O9 0.739704 0.751872 0.363103
O O10 0.903807 0.910852 0.673239
O O11 0.500000 0.000000 0.500000
O O12 0.735988 0.482609 0.205716
O O13 0.456058 0.674798 0.083191
O O14 0.787376 0.231976 0.144790
O O15 0.918754 0.221514 0.013124
O O16 0.810625 0.002016 0.101201
O O17 0.768964 0.260923 0.368329
O O18 0.500000 0.500000 0.500000
#
# Coordination Sequence:
#
# PCOD9009503 Si02
#       8
#     2   2   2   2   2   2   2   2
#     4  11  22  40  66  90 125 168 220 266 317 399
#     4  11  20  43  70  92 132 178 215 271 330 392
#     4  11  23  40  68  97 127 173 229 267 323 399
#     4  10  21  41  61  94 123 170 221 260 326 397
#     4  10  23  39  66  92 133 170 209 271 336 391
#     4  10  21  39  69  92 123 174 218 259 328 393
#     4  11  23  43  65  94 138 169 212 281 331 386
#     4  12  26  43  65  99 131 173 220 276 338 384
#
# _framework density 19.392340000000001
#
# number of rings (size 3 to 8) (size 9 to 14) (size 15 to 20)
#    0.000    1.250    5.000    1.875    1.750    2.500 
#    6.750    0.625    0.000    0.000    0.000    0.000 
#    0.000    0.000    0.000    0.000    0.000    0.000 
#
# Total GULP energy -89344.891516 kJ/mol
# GULP energy per Si atom -5584.055720 kJ/mol
# Density = 1.934820 g / cm^3
# Si number density = 19.392340 Si / 1000 Ang^3
#
#
#
# Elastic Constant Matrix: (Units=GPa)
#
#
# Indices 1 2 3 4 5 6 
#
# 1 73.5052 39.8309 7.9950 8.9569 -8.2625 16.2272
# 2 39.8309 149.8035 35.2543 13.7324 -12.2508 32.4024
# 3 7.9950 35.2543 65.6317 27.3440 -10.3139 22.3924
# 4 8.9569 13.7324 27.3440 33.5736 11.6581 3.0900
# 5 -8.2625 -12.2508 -10.3139 11.6581 30.7794 0.1043
# 6 16.2272 32.4024 22.3924 3.0900 0.1043 42.1149
#
#
#
# Elastic Compliance Matrix: (Units=1/GPa)
#
#
# Indices 1 2 3 4 5 6 
#
# 1 0.020901 -0.003043 0.014946 -0.021496 0.017591 -0.012125
# 2 -0.003043 0.009473 -0.001027 -0.003047 0.003782 -0.005356
# 3 0.014946 -0.001027 0.061082 -0.067603 0.049787 -0.032609
# 4 -0.021496 -0.003047 -0.067603 0.113561 -0.072780 0.038419
# 5 0.017591 0.003782 0.049787 -0.072780 0.083071 -0.031025
# 6 -0.012125 -0.005356 -0.032609 0.038419 -0.031025 0.047133
#
#
# Mechanical properties :
#
#
# Convention : Reuss Voigt Hill
#
# Bulk Modulus (GPa) = 8.83324 50.56677 29.70001
# Shear Modulus (GPa) = 14.23660 35.01758 24.62709
#
# Velocity S-wave (km/s) = 2.71243 4.25401 3.56749
# Velocity P-wave (km/s) = 3.79139 7.08951 5.68488
#
# Compressibility (1/GPa) = 0.11320872
#
# Stress axis : x y z
#
# Youngs Moduli (GPa) = 47.84397 105.56111 16.37137
#
# Poissons Ratio (x) = 0.32121 -0.24468
# Poissons Ratio (y) = 0.14558 0.01681
# Poissons Ratio (z) = -0.71506 0.10838
#
# Static dielectric constant tensor:
#      x y z
#    x 1.701000 -0.024310 0.015330 
#    y -0.024310 1.713080 0.036260 
#    z 0.015330 0.036260 1.672380 
# 
# From -- ./inp_files/242954.got.cif
#   From: 2010.05.17/outbox.cif.g08.bks.cpg/sg2_122_cif.got.tgz:242954.got - 2010.06.03 11:33:40.
