data_PCOD9009903
_publ_section_title
;
Structure prediction by ZEFSAII (Michael W. Deem and Ramdas Pophale) SiO2 
 PCOD9009903
Probable space group: P -1
;
_chemical_formula_sum "Si O2"
_cell_formula_units_Z 16
_cell_length_a 9.906382
_cell_length_b 6.525197
_cell_length_c 12.597947
_cell_angle_alpha 71.972482
_cell_angle_beta 105.426919
_cell_angle_gamma 73.986486
_cell_volume 687.118298
_symmetry_space_group_name_H-M "P -1"
_symmetry_group_IT_number 2
_symmetry_cell_setting 'triclinic'
loop_
_space_group_symop_operation_xyz
x,y,z
-x,-y,-z
loop_
_atom_site_type_symbol
_atom_site_label
_atom_site_fract_x
_atom_site_fract_y
_atom_site_fract_z
Si Si1 0.157271 0.232657 0.629726
Si Si2 0.827589 0.324694 0.502210
Si Si3 0.396167 0.596803 0.149816
Si Si4 0.275585 0.723865 0.745094
Si Si5 0.266747 0.214059 0.231886
Si Si6 0.956982 0.482964 0.223712
Si Si7 0.856454 0.928087 0.981787
Si Si8 0.388142 0.721189 0.375709
O O1 0.218181 0.394547 0.547957
O O2 0.010085 0.211957 0.548457
O O3 0.089588 0.388809 0.694170
O O4 0.273427 0.978298 0.726421
O O5 0.750197 0.279402 0.387319
O O6 0.773661 0.237377 0.610068
O O7 0.327670 0.397951 0.164886
O O8 0.403395 0.645961 0.269064
O O9 0.285111 0.845675 0.040261
O O10 0.433252 0.514585 0.840176
O O11 0.135900 0.683834 0.776901
O O12 0.136251 0.345469 0.268539
O O13 0.185331 0.127060 0.135723
O O14 0.395876 0.976273 0.342265
O O15 0.898734 0.690920 0.093547
O O16 0.000000 0.000000 0.000000
O O17 0.500000 0.500000 0.500000
#
# Coordination Sequence:
#
# PCOD9009903 Si02
#       8
#     2   2   2   2   2   2   2   2
#     4  10  23  39  65  90 135 169 221 262 316 382
#     4  10  21  40  60  93 128 178 216 260 318 379
#     4  11  25  43  64 103 131 172 214 272 326 387
#     4  11  24  40  64  95 136 170 215 261 328 386
#     4  11  25  42  71  97 128 166 224 267 326 390
#     4  11  24  43  69  98 124 173 221 268 322 385
#     4  11  25  45  73  95 129 163 221 279 326 382
#     4  11  23  40  65  94 137 168 215 262 319 380
#
# _framework density 23.285654999999998
#
# number of rings (size 3 to 8) (size 9 to 14) (size 15 to 20)
#    0.000    1.250    2.500    2.250    5.250    5.000 
#    0.000    1.250    0.000    0.000    0.000    0.000 
#    0.000    0.000    0.000    0.000    0.000    0.000 
#
# Total GULP energy -89507.638652 kJ/mol
# GULP energy per Si atom -5594.227416 kJ/mol
# Density = 2.323266 g / cm^3
# Si number density = 23.285655 Si / 1000 Ang^3
#
#
#
# Elastic Constant Matrix: (Units=GPa)
#
#
# Indices 1 2 3 4 5 6 
#
# 1 47.2346 1.5638 -9.9938 -2.8002 0.9396 -7.2461
# 2 1.5638 101.7598 15.2840 -25.2361 6.8973 -10.1568
# 3 -9.9938 15.2840 57.5484 -23.4379 1.9259 -10.9937
# 4 -2.8002 -25.2361 -23.4379 36.8101 0.5605 6.1925
# 5 0.9396 6.8973 1.9259 0.5605 29.7383 -17.8750
# 6 -7.2461 -10.1568 -10.9937 6.1925 -17.8750 25.9469
#
#
#
# Elastic Compliance Matrix: (Units=1/GPa)
#
#
# Indices 1 2 3 4 5 6 
#
# 1 0.025578 0.000608 0.009168 0.005560 0.007384 0.015025
# 2 0.000608 0.012148 0.000808 0.008598 -0.001909 0.001900
# 3 0.009168 0.000808 0.028215 0.016505 0.006710 0.015515
# 4 0.005560 0.008598 0.016505 0.044516 -0.005639 -0.002598
# 5 0.007384 -0.001909 0.006710 -0.005639 0.062835 0.048792
# 6 0.015025 0.001900 0.015515 -0.002598 0.048792 0.084287
#
#
# Mechanical properties :
#
#
# Convention : Reuss Voigt Hill
#
# Bulk Modulus (GPa) = 11.47973 24.47231 17.97602
# Shear Modulus (GPa) = 18.83606 31.81165 25.32386
#
# Velocity S-wave (km/s) = 2.84722 3.70015 3.30135
# Velocity P-wave (km/s) = 3.96857 5.36538 4.71894
#
# Compressibility (1/GPa) = 0.08711003
#
# Stress axis : x y z
#
# Youngs Moduli (GPa) = 39.09557 82.31964 35.44158
#
# Poissons Ratio (x) = -0.05005 -0.32493
# Poissons Ratio (y) = -0.02377 -0.02864
# Poissons Ratio (z) = -0.35843 -0.06652
#
# Static dielectric constant tensor:
#      x y z
#    x 1.895920 0.004190 0.029230 
#    y 0.004190 1.906620 -0.010040 
#    z 0.029230 -0.010040 1.912830 
# 
# From -- ./inp_files/410106.got.cif
#   From: 2010.05.17/outbox.cif.g08.bks.cpg/sg2_206_cif.got.tgz:410106.got - 2010.06.03 11:33:40.
