data_PCOD9009699
_publ_section_title
;
Structure prediction by ZEFSAII (Michael W. Deem and Ramdas Pophale) SiO2 
 PCOD9009699
Probable space group: P -1
;
_chemical_formula_sum "Si O2"
_cell_formula_units_Z 16
_cell_length_a 10.018721
_cell_length_b 22.046552
_cell_length_c 17.841422
_cell_angle_alpha 19.021976
_cell_angle_beta 38.744700
_cell_angle_gamma 29.173180
_cell_volume 599.834697
_symmetry_space_group_name_H-M "P -1"
_symmetry_group_IT_number 2
_symmetry_cell_setting 'triclinic'
loop_
_space_group_symop_operation_xyz
x,y,z
-x,-y,-z
loop_
_atom_site_type_symbol
_atom_site_label
_atom_site_fract_x
_atom_site_fract_y
_atom_site_fract_z
Si Si1 0.508318 0.191235 0.899259
Si Si2 0.654161 0.903046 0.419687
Si Si3 0.733782 0.509690 0.942021
Si Si4 0.943412 0.329976 0.753558
Si Si5 0.237197 0.699184 0.460841
Si Si6 0.610614 0.540557 0.122103
Si Si7 0.046317 0.169285 0.068867
Si Si8 0.858520 0.886590 0.671836
O O1 0.385730 0.418590 0.743488
O O2 0.548188 0.292109 0.688399
O O3 0.313178 0.129955 0.032609
O O4 0.823567 0.936383 0.077846
O O5 0.643483 0.766090 0.654419
O O6 0.977503 0.784930 0.419078
O O7 0.478892 0.889530 0.449971
O O8 0.467888 0.197367 0.147625
O O9 0.562852 0.539220 0.054496
O O10 0.796450 0.348351 0.030310
O O11 0.047312 0.318090 0.068608
O O12 0.000000 0.500000 0.500000
O O13 0.004658 0.276708 0.878223
O O14 0.102539 0.918514 0.323634
O O15 0.620178 0.448200 0.747410
O O16 0.942825 0.295007 0.273167
O O17 0.000000 0.000000 0.500000
#
# Coordination Sequence:
#
# PCOD9009699 Si02
#       8
#     2   2   2   2   2   2   2   2
#     4  10  21  44  71 108 148 196 264 314 379 458
#     4  12  21  48  76 111 162 202 257 329 382 470
#     4  10  26  45  76 114 152 210 252 318 404 462
#     4  11  24  44  77 110 151 202 257 316 386 462
#     4  10  21  39  77 107 147 199 257 322 378 460
#     4  10  24  48  70 112 155 199 262 317 389 472
#     4  11  22  46  75 109 153 198 262 317 388 469
#     4  10  27  45  69 110 158 203 259 315 386 472
#
# _framework density 26.674014
#
# number of rings (size 3 to 8) (size 9 to 14) (size 15 to 20)
#    0.750    0.750    3.750    2.250    1.750    3.000 
#    2.250    3.750    0.000    7.500    0.000    0.875 
#    0.000    0.000    0.000    0.000    0.000    0.000 
#
# Total GULP energy -89302.280725 kJ/mol
# GULP energy per Si atom -5581.392545 kJ/mol
# Density = 2.661330 g / cm^3
# Si number density = 26.674014 Si / 1000 Ang^3
#
#
#
# Elastic Constant Matrix: (Units=GPa)
#
#
# Indices 1 2 3 4 5 6 
#
# 1 108.3064 42.2719 10.8699 0.8461 -4.3531 -13.7747
# 2 42.2719 103.3042 46.8689 -12.8699 -27.9912 -10.7465
# 3 10.8699 46.8689 156.9653 -3.9415 -20.6436 14.3805
# 4 0.8461 -12.8699 -3.9415 43.1799 5.8980 -6.9324
# 5 -4.3531 -27.9912 -20.6436 5.8980 48.1174 -1.2663
# 6 -13.7747 -10.7465 14.3805 -6.9324 -1.2663 39.1447
#
#
#
# Elastic Compliance Matrix: (Units=1/GPa)
#
#
# Indices 1 2 3 4 5 6 
#
# 1 0.011452 -0.005182 0.000303 -0.001157 -0.001647 0.002238
# 2 -0.005182 0.016680 -0.004061 0.004586 0.007069 0.005289
# 3 0.000303 -0.004061 0.008066 -0.001310 0.001176 -0.004165
# 4 -0.001157 0.004586 -0.001310 0.025495 -0.000971 0.005817
# 5 -0.001647 0.007069 0.001176 -0.000971 0.025411 0.001579
# 6 0.002238 0.005289 -0.004165 0.005817 0.001579 0.030397
#
#
# Mechanical properties :
#
#
# Convention : Reuss Voigt Hill
#
# Bulk Modulus (GPa) = 54.58780 63.17747 58.88263
# Shear Modulus (GPa) = 35.33884 43.99275 39.66579
#
# Velocity S-wave (km/s) = 3.64379 4.06553 3.86042
# Velocity P-wave (km/s) = 6.18159 6.76569 6.48022
#
# Compressibility (1/GPa) = 0.01831911
#
# Stress axis : x y z
#
# Youngs Moduli (GPa) = 87.31749 59.95190 123.97799
#
# Poissons Ratio (x) = 0.31065 -0.03761
# Poissons Ratio (y) = 0.45245 0.50352
# Poissons Ratio (z) = -0.02649 0.24349
#
# Static dielectric constant tensor:
#      x y z
#    x 2.306740 -0.015380 -0.020210 
#    y -0.015380 2.203760 -0.054070 
#    z -0.020210 -0.054070 2.070240 
# 
# From -- ./inp_files/570915.got.cif
#   From: 2010.05.17/outbox.cif.g08.bks.cpg/sg2_286_cif.got.tgz:570915.got - 2010.06.03 11:33:40.
