data_PCOD9009600
_publ_section_title
;
Structure prediction by ZEFSAII (Michael W. Deem and Ramdas Pophale) SiO2 
 PCOD9009600
Probable space group: P -1
;
_chemical_formula_sum "Si O2"
_cell_formula_units_Z 14
_cell_length_a 8.588599
_cell_length_b 12.559151
_cell_length_c 5.341605
_cell_angle_alpha 78.575212
_cell_angle_beta 85.451240
_cell_angle_gamma 110.357866
_cell_volume 522.550248
_symmetry_space_group_name_H-M "P -1"
_symmetry_group_IT_number 2
_symmetry_cell_setting 'triclinic'
loop_
_space_group_symop_operation_xyz
x,y,z
-x,-y,-z
loop_
_atom_site_type_symbol
_atom_site_label
_atom_site_fract_x
_atom_site_fract_y
_atom_site_fract_z
Si Si1 0.970036 0.816532 0.544698
Si Si2 0.408010 0.560043 0.172400
Si Si3 0.645797 0.787354 0.304654
Si Si4 0.915707 0.595638 0.457609
Si Si5 0.222473 0.732215 0.068943
Si Si6 0.396156 0.863263 0.515960
Si Si7 0.843781 0.957616 0.854737
O O1 0.826184 0.791813 0.362090
O O2 0.878779 0.855605 0.756503
O O3 0.979038 0.690750 0.626798
O O4 0.127983 0.933293 0.385735
O O5 0.549423 0.666835 0.239574
O O6 0.289947 0.627551 0.047479
O O7 0.282081 0.471662 0.432521
O O8 0.500000 0.500000 0.000000
O O9 0.539569 0.806111 0.539822
O O10 0.677495 0.899125 0.064553
O O11 0.023822 0.675989 0.179634
O O12 0.000000 0.500000 0.500000
O O13 0.312442 0.803542 0.282303
O O14 0.271925 0.818686 0.788484
O O15 0.500000 0.000000 0.500000
O O16 0.000000 0.000000 0.000000
#
# Coordination Sequence:
#
# PCOD9009600 Si02
#       7
#     2   2   2   2   2   2   2
#     4  10  21  39  70  96 138 175 231 289 357 425
#     4  10  22  45  71 101 140 182 243 300 351 412
#     4  10  23  39  66 104 132 174 239 290 360 409
#     4  10  23  45  67  97 140 190 240 286 351 425
#     4  10  25  48  67 105 142 188 240 286 357 436
#     4  11  25  44  74 102 145 186 233 294 363 431
#     4   9  20  38  61 101 132 172 216 289 355 427
#
# _framework density 26.791682000000002
#
# number of rings (size 3 to 8) (size 9 to 14) (size 15 to 20)
#    0.000    2.000    0.000    1.286    8.000    4.000 
#   10.286    7.143    0.000    0.000    0.000    0.000 
#    0.000    0.000    0.000    0.000    0.000    0.000 
#
# Total GULP energy -78178.393971 kJ/mol
# GULP energy per Si atom -5584.170998 kJ/mol
# Density = 2.673070 g / cm^3
# Si number density = 26.791682 Si / 1000 Ang^3
#
#
#
# Elastic Constant Matrix: (Units=GPa)
#
#
# Indices 1 2 3 4 5 6 
#
# 1 66.0507 38.8925 47.7761 10.9280 -25.3946 4.6300
# 2 38.8925 180.2177 69.2934 15.4895 -18.0801 3.6304
# 3 47.7761 69.2934 164.2982 -15.5498 -24.5991 19.8950
# 4 10.9280 15.4895 -15.5498 55.1609 -2.6830 -28.6500
# 5 -25.3946 -18.0801 -24.5991 -2.6830 52.4922 -1.7769
# 6 4.6300 3.6304 19.8950 -28.6500 -1.7769 57.8884
#
#
#
# Elastic Compliance Matrix: (Units=1/GPa)
#
#
# Indices 1 2 3 4 5 6 
#
# 1 0.024789 -0.001687 -0.005539 -0.007332 0.008328 -0.003346
# 2 -0.001687 0.007237 -0.002700 -0.002864 0.000238 -0.000801
# 3 -0.005539 -0.002700 0.009456 0.004331 0.001027 -0.000462
# 4 -0.007332 -0.002864 0.004331 0.028525 -0.000593 0.013377
# 5 0.008328 0.000238 0.001027 -0.000593 0.023592 -0.000603
# 6 -0.003346 -0.000801 -0.000462 0.013377 -0.000603 0.024353
#
#
# Mechanical properties :
#
#
# Convention : Reuss Voigt Hill
#
# Bulk Modulus (GPa) = 46.23239 80.27674 63.25456
# Shear Modulus (GPa) = 34.47945 50.08194 42.28069
#
# Velocity S-wave (km/s) = 3.59129 4.32824 3.97687
# Velocity P-wave (km/s) = 5.87284 7.41664 6.68943
#
# Compressibility (1/GPa) = 0.02162986
#
# Stress axis : x y z
#
# Youngs Moduli (GPa) = 40.34081 138.17377 105.75757
#
# Poissons Ratio (x) = 0.23310 0.58575
# Poissons Ratio (y) = 0.06806 0.28557
# Poissons Ratio (z) = 0.22343 0.37310
#
# Static dielectric constant tensor:
#      x y z
#    x 2.493980 0.041830 0.200020 
#    y 0.041830 2.190260 -0.017820 
#    z 0.200020 -0.017820 2.227190 
# 
# From -- ./inp_files/71037.got.cif
#   From: 2010.05.17/outbox.cif.g08.bks.cpg/sg2_36_cif.got.tgz:71037.got - 2010.06.03 11:33:40.
