data_PCOD9009891
_publ_section_title
;
Structure prediction by ZEFSAII (Michael W. Deem and Ramdas Pophale) SiO2 
 PCOD9009891
Probable space group: P -1
;
_chemical_formula_sum "Si O2"
_cell_formula_units_Z 16
_cell_length_a 15.248583
_cell_length_b 6.654683
_cell_length_c 15.201445
_cell_angle_alpha 113.393949
_cell_angle_beta 40.806116
_cell_angle_gamma 136.675551
_cell_volume 649.814846
_symmetry_space_group_name_H-M "P -1"
_symmetry_group_IT_number 2
_symmetry_cell_setting 'triclinic'
loop_
_space_group_symop_operation_xyz
x,y,z
-x,-y,-z
loop_
_atom_site_type_symbol
_atom_site_label
_atom_site_fract_x
_atom_site_fract_y
_atom_site_fract_z
Si Si1 0.130186 0.677819 0.346248
Si Si2 0.925099 0.799070 0.316065
Si Si3 0.249490 0.730509 0.534495
Si Si4 0.487967 0.144960 0.905205
Si Si5 0.899193 0.359627 0.144733
Si Si6 0.581441 0.210800 0.256610
Si Si7 0.298793 0.218239 0.209214
Si Si8 0.761554 0.868029 0.287019
O O1 0.306759 0.721190 0.205758
O O2 0.000000 0.500000 0.500000
O O3 0.973173 0.482153 0.354059
O O4 0.228756 0.031032 0.320531
O O5 0.757858 0.517193 0.458917
O O6 0.980399 0.639534 0.195452
O O7 0.859267 0.882066 0.302959
O O8 0.107072 0.084535 0.283489
O O9 0.362603 0.899168 0.388253
O O10 0.329550 0.011495 0.587162
O O11 0.539977 0.409468 0.847458
O O12 0.373968 0.832196 0.881058
O O13 0.385959 0.129659 0.064417
O O14 0.688254 0.196627 0.248731
O O15 0.895749 0.120810 0.152067
O O16 0.000000 0.500000 0.000000
O O17 0.633985 0.524299 0.285744
#
# Coordination Sequence:
#
# PCOD9009891 Si02
#       8
#     2   2   2   2   2   2   2   2
#     4  11  22  42  67  96 129 168 219 268 317 382
#     4   9  20  39  62  88 122 167 208 257 310 376
#     4  10  21  40  60  91 129 161 210 262 317 375
#     4  11  23  42  63  96 132 170 215 262 321 381
#     4  10  22  40  60  89 122 157 208 262 310 374
#     4  11  23  38  60  94 127 165 208 264 308 381
#     4  10  23  42  67  93 130 174 212 265 325 375
#     4  10  22  39  65  90 123 169 206 254 324 378
#
# _framework density 24.622398
#
# number of rings (size 3 to 8) (size 9 to 14) (size 15 to 20)
#    0.000    1.750    1.250    2.250    0.000    9.000 
#    2.250    3.750    0.000    0.000    0.000    0.000 
#    0.000    0.000    0.000    0.000    0.000    0.000 
#
# Total GULP energy -89363.549630 kJ/mol
# GULP energy per Si atom -5585.221852 kJ/mol
# Density = 2.456636 g / cm^3
# Si number density = 24.622398 Si / 1000 Ang^3
#
#
#
# Elastic Constant Matrix: (Units=GPa)
#
#
# Indices 1 2 3 4 5 6 
#
# 1 77.6536 18.5321 15.1464 -14.6684 0.6346 -22.0768
# 2 18.5321 113.0111 23.6019 -13.0024 18.1207 -18.6979
# 3 15.1464 23.6019 81.6820 -19.7883 16.3808 -18.6149
# 4 -14.6684 -13.0024 -19.7883 38.4645 -9.9877 17.7197
# 5 0.6346 18.1207 16.3808 -9.9877 39.8996 -13.0151
# 6 -22.0768 -18.6979 -18.6149 17.7197 -13.0151 31.3319
#
#
#
# Elastic Compliance Matrix: (Units=1/GPa)
#
#
# Indices 1 2 3 4 5 6 
#
# 1 0.016952 -0.001269 -0.000671 0.001423 0.004852 0.012000
# 2 -0.001269 0.010372 -0.001417 0.000043 -0.003069 0.003155
# 3 -0.000671 -0.001417 0.015426 0.004549 -0.003262 0.003919
# 4 0.001423 0.000043 0.004549 0.036938 0.002012 -0.016324
# 5 0.004852 -0.003069 -0.003262 0.002012 0.032084 0.011840
# 6 0.012000 0.003155 0.003919 -0.016324 0.011840 0.058733
#
#
# Mechanical properties :
#
#
# Convention : Reuss Voigt Hill
#
# Bulk Modulus (GPa) = 27.74932 42.98973 35.36953
# Shear Modulus (GPa) = 26.42315 36.27696 31.35005
#
# Velocity S-wave (km/s) = 3.27943 3.84256 3.57211
# Velocity P-wave (km/s) = 5.06300 6.09792 5.60440
#
# Compressibility (1/GPa) = 0.03603691
#
# Stress axis : x y z
#
# Youngs Moduli (GPa) = 58.99022 96.41739 64.82729
#
# Poissons Ratio (x) = 0.12233 0.04347
# Poissons Ratio (y) = 0.07484 0.09185
# Poissons Ratio (z) = 0.03956 0.13660
#
# Static dielectric constant tensor:
#      x y z
#    x 2.019570 -0.013940 -0.024500 
#    y -0.013940 1.971840 -0.035180 
#    z -0.024500 -0.035180 2.052270 
# 
# From -- ./inp_files/410785.got.cif
#   From: 2010.05.17/outbox.cif.g08.bks.cpg/sg2_206_cif.got.tgz:410785.got - 2010.06.03 11:33:40.
