data_PCOD9009027
_publ_section_title
;
Structure prediction by ZEFSAII (Michael W. Deem and Ramdas Pophale) SiO2 
 PCOD9009027
Probable space group: P -1
;
_chemical_formula_sum "Si O2"
_cell_formula_units_Z 10
_cell_length_a 15.305888
_cell_length_b 7.230597
_cell_length_c 5.254917
_cell_angle_alpha 101.652107
_cell_angle_beta 73.863826
_cell_angle_gamma 50.317791
_cell_volume 368.992264
_symmetry_space_group_name_H-M "P -1"
_symmetry_group_IT_number 2
_symmetry_cell_setting 'triclinic'
loop_
_space_group_symop_operation_xyz
x,y,z
-x,-y,-z
loop_
_atom_site_type_symbol
_atom_site_label
_atom_site_fract_x
_atom_site_fract_y
_atom_site_fract_z
Si Si1 0.604435 0.512278 0.383229
Si Si2 0.420271 0.813946 0.214022
Si Si3 0.170398 0.060522 0.826415
Si Si4 0.729656 0.613003 0.651962
Si Si5 0.102818 0.581298 0.060215
O O1 0.500000 0.500000 0.500000
O O2 0.527024 0.751533 0.300892
O O3 0.636535 0.583587 0.627101
O O4 0.747430 0.194828 0.113660
O O5 0.286091 0.949713 0.508049
O O6 0.359575 0.061657 0.140834
O O7 0.500000 0.500000 0.000000
O O8 0.107404 0.350031 0.065007
O O9 0.051296 0.134612 0.799611
O O10 0.817255 0.512879 0.295368
O O11 0.823102 0.434967 0.769123
#
# Coordination Sequence:
#
# PCOD9009027 Si02
#       5
#     2   2   2   2   2
#     4  10  22  41  62  94 133 174 220 272 326 386
#     4  10  21  39  66  97 133 173 217 269 328 395
#     4   9  21  41  65  95 132 173 217 267 331 389
#     4  11  24  42  67  98 131 173 221 269 326 388
#     4  10  23  43  68  95 130 172 219 272 324 392
#
# _framework density 27.100840999999999
#
# number of rings (size 3 to 8) (size 9 to 14) (size 15 to 20)
#    0.000    2.000    0.000    1.800    0.000   15.200 
#    0.000   14.000    0.000    0.000    0.000    0.000 
#    0.000    0.000    0.000    0.000    0.000    0.000 
#
# Total GULP energy -55941.751327 kJ/mol
# GULP energy per Si atom -5594.175133 kJ/mol
# Density = 2.703916 g / cm^3
# Si number density = 27.100841 Si / 1000 Ang^3
#
#
#
# Elastic Constant Matrix: (Units=GPa)
#
#
# Indices 1 2 3 4 5 6 
#
# 1 142.4209 75.7062 31.9550 4.5048 10.9169 -33.0480
# 2 75.7062 169.4104 44.0832 5.0885 -16.1297 -49.7807
# 3 31.9550 44.0832 80.8109 -5.2965 5.9278 -22.6574
# 4 4.5048 5.0885 -5.2965 47.6453 -3.6198 5.1420
# 5 10.9169 -16.1297 5.9278 -3.6198 31.7663 1.7565
# 6 -33.0480 -49.7807 -22.6574 5.1420 1.7565 68.8270
#
#
#
# Elastic Compliance Matrix: (Units=1/GPa)
#
#
# Indices 1 2 3 4 5 6 
#
# 1 0.010503 -0.004482 -0.000858 -0.001253 -0.005966 0.001765
# 2 -0.004482 0.010852 -0.003512 -0.001046 0.007342 0.004432
# 3 -0.000858 -0.003512 0.015671 0.001631 -0.004349 0.002196
# 4 -0.001253 -0.001046 0.001631 0.021840 0.002223 -0.002510
# 5 -0.005966 0.007342 -0.004349 0.002223 0.038330 -0.000130
# 6 0.001765 0.004432 0.002196 -0.002510 -0.000130 0.019496
#
#
# Mechanical properties :
#
#
# Convention : Reuss Voigt Hill
#
# Bulk Modulus (GPa) = 51.75440 77.34788 64.55114
# Shear Modulus (GPa) = 35.50200 45.70756 40.60478
#
# Velocity S-wave (km/s) = 3.62331 4.11125 3.87497
# Velocity P-wave (km/s) = 6.05334 7.15117 6.62503
#
# Compressibility (1/GPa) = 0.01932203
#
# Stress axis : x y z
#
# Youngs Moduli (GPa) = 95.21208 92.14515 63.81074
#
# Poissons Ratio (x) = 0.41300 0.05474
# Poissons Ratio (y) = 0.42675 0.22413
# Poissons Ratio (z) = 0.08168 0.32365
#
# Static dielectric constant tensor:
#      x y z
#    x 2.176280 0.027740 -0.007780 
#    y 0.027740 2.199610 -0.195420 
#    z -0.007780 -0.195420 2.420890 
# 
# From -- ./inp_files/18028.got.cif
#   From: 2010.05.17/outbox.cif.g08.bks.cpg/sg2_10_cif.got.tgz:18028.got - 2010.06.03 11:33:40.
