data_PCOD9009166
_publ_section_title
;
Structure prediction by ZEFSAII (Michael W. Deem and Ramdas Pophale) SiO2 
 PCOD9009166
Probable space group: P -1
;
_chemical_formula_sum "Si O2"
_cell_formula_units_Z 16
_cell_length_a 8.869980
_cell_length_b 8.898761
_cell_length_c 12.666166
_cell_angle_alpha 123.590119
_cell_angle_beta 61.666379
_cell_angle_gamma 125.733589
_cell_volume 658.848488
_symmetry_space_group_name_H-M "P -1"
_symmetry_group_IT_number 2
_symmetry_cell_setting 'triclinic'
loop_
_space_group_symop_operation_xyz
x,y,z
-x,-y,-z
loop_
_atom_site_type_symbol
_atom_site_label
_atom_site_fract_x
_atom_site_fract_y
_atom_site_fract_z
Si Si1 0.131922 0.390061 0.925809
Si Si2 0.732910 0.773472 0.556201
Si Si3 0.573678 0.060305 0.617459
Si Si4 0.690174 0.418964 0.854170
Si Si5 0.320807 0.549043 0.711252
Si Si6 0.811185 0.121401 0.193388
Si Si7 0.905810 0.925632 0.770424
Si Si8 0.383069 0.218676 0.031936
O O1 0.292821 0.493637 0.822398
O O2 0.031455 0.159344 0.837800
O O3 0.165999 0.414999 0.049795
O O4 0.000000 0.500000 0.000000
O O5 0.537640 0.635164 0.631061
O O6 0.783444 0.646454 0.403877
O O7 0.678601 0.931265 0.574998
O O8 0.890425 0.868134 0.631197
O O9 0.705353 0.289020 0.701232
O O10 0.500000 0.000000 0.500000
O O11 0.371041 0.995372 0.716649
O O12 0.594499 0.554401 0.891883
O O13 0.574057 0.251311 0.918533
O O14 0.230410 0.702100 0.774125
O O15 0.997598 0.181977 0.228212
O O16 0.781929 0.953408 0.050200
O O17 0.691502 0.867027 0.861658
#
# Coordination Sequence:
#
# PCOD9009166 Si02
#       8
#     2   2   2   2   2   2   2   2
#     4  12  25  40  65 101 137 173 215 278 340 389
#     4  10  24  46  68  96 127 187 227 265 330 395
#     4  10  23  43  69  94 133 172 226 272 322 396
#     4  10  22  40  65 100 123 175 226 263 322 398
#     4  10  24  45  70  89 139 179 229 268 319 404
#     4  10  22  41  64 101 130 173 217 278 333 380
#     4  12  24  40  68  99 139 171 212 280 339 386
#     4  10  21  39  67  93 134 171 220 268 325 392
#
# _framework density 24.284794000000002
#
# number of rings (size 3 to 8) (size 9 to 14) (size 15 to 20)
#    0.000    1.500    1.250    2.625    3.500    4.000 
#    2.250    5.000    0.000    0.000    0.000    0.000 
#    0.000    0.000    0.000    0.000    0.000    0.000 
#
# Total GULP energy -89274.585847 kJ/mol
# GULP energy per Si atom -5579.661615 kJ/mol
# Density = 2.422952 g / cm^3
# Si number density = 24.284794 Si / 1000 Ang^3
#
#
#
# Elastic Constant Matrix: (Units=GPa)
#
#
# Indices 1 2 3 4 5 6 
#
# 1 63.6872 8.7465 36.5703 9.6546 25.1495 -8.8537
# 2 8.7465 67.2953 38.3792 13.8224 1.0635 -5.1472
# 3 36.5703 38.3792 161.9866 22.4151 40.3723 -13.0951
# 4 9.6546 13.8224 22.4151 43.8175 9.6459 -1.4590
# 5 25.1495 1.0635 40.3723 9.6459 47.9297 -5.8062
# 6 -8.8537 -5.1472 -13.0951 -1.4590 -5.8062 28.6029
#
#
#
# Elastic Compliance Matrix: (Units=1/GPa)
#
#
# Indices 1 2 3 4 5 6 
#
# 1 0.021074 -0.000986 -0.001862 -0.001330 -0.008758 0.003647
# 2 -0.000986 0.018630 -0.004747 -0.004314 0.005177 0.001705
# 3 -0.001862 -0.004747 0.009704 -0.001553 -0.006585 0.001596
# 4 -0.001330 -0.004314 -0.001553 0.025949 -0.003270 -0.001239
# 5 -0.008758 0.005177 -0.006585 -0.003270 0.031729 0.001480
# 6 0.003647 0.001705 0.001596 -0.001239 0.001480 0.037365
#
#
# Mechanical properties :
#
#
# Convention : Reuss Voigt Hill
#
# Bulk Modulus (GPa) = 29.22584 51.15123 40.18853
# Shear Modulus (GPa) = 29.23184 38.02157 33.62671
#
# Velocity S-wave (km/s) = 3.47322 3.96113 3.72517
# Velocity P-wave (km/s) = 5.30519 6.48302 5.92345
#
# Compressibility (1/GPa) = 0.03421630
#
# Stress axis : x y z
#
# Youngs Moduli (GPa) = 47.45285 53.67693 103.05403
#
# Poissons Ratio (x) = 0.05294 0.19192
# Poissons Ratio (y) = 0.04680 0.48918
# Poissons Ratio (z) = 0.08837 0.25480
#
# Static dielectric constant tensor:
#      x y z
#    x 2.043290 0.099040 0.026370 
#    y 0.099040 1.982320 -0.043150 
#    z 0.026370 -0.043150 1.953730 
# 
# From -- ./inp_files/383181.got.cif
#   From: 2010.05.17/outbox.cif.g08.bks.cpg/sg2_192_cif.got.tgz:383181.got - 2010.06.03 11:33:40.
