data_PCOD9009596
_publ_section_title
;
Structure prediction by ZEFSAII (Michael W. Deem and Ramdas Pophale) SiO2 
 PCOD9009596
Probable space group: P -1
;
_chemical_formula_sum "Si O2"
_cell_formula_units_Z 14
_cell_length_a 10.881786
_cell_length_b 23.476220
_cell_length_c 15.259054
_cell_angle_alpha 161.112643
_cell_angle_beta 26.924404
_cell_angle_gamma 155.642067
_cell_volume 507.422257
_symmetry_space_group_name_H-M "P -1"
_symmetry_group_IT_number 2
_symmetry_cell_setting 'triclinic'
loop_
_space_group_symop_operation_xyz
x,y,z
-x,-y,-z
loop_
_atom_site_type_symbol
_atom_site_label
_atom_site_fract_x
_atom_site_fract_y
_atom_site_fract_z
Si Si1 0.636146 0.383916 0.565843
Si Si2 0.643625 0.785934 0.328357
Si Si3 0.857055 0.316646 0.888117
Si Si4 0.264475 0.553797 0.675712
Si Si5 0.643628 0.057464 0.871415
Si Si6 0.264479 0.045494 0.659102
Si Si7 0.732079 0.700354 0.834314
O O1 0.526944 0.379028 0.728851
O O2 0.547077 0.508327 0.734789
O O3 0.000000 0.500000 0.500000
O O4 0.526947 0.152437 0.275669
O O5 0.561245 0.787974 0.282694
O O6 0.000001 0.838957 0.177912
O O7 0.626387 0.972463 0.659270
O O8 0.928128 0.147381 0.557413
O O9 0.928126 0.399184 0.061021
O O10 0.492695 0.243371 0.997023
O O11 0.000000 0.500000 0.000000
O O12 0.500000 0.500000 0.500000
O O13 0.099031 0.376384 0.453273
O O14 0.438746 0.762706 0.818674
O O15 0.500000 0.000000 0.500000
O O16 0.099034 0.123580 0.947661
#
# Coordination Sequence:
#
# PCOD9009596 Si02
#       7
#     2   2   2   2   2   2   2
#     4  10  22  42  63 101 150 191 233 299 375 435
#     4   9  20  40  73 101 134 189 250 302 350 427
#     4  10  21  39  70  96 127 187 246 293 347 437
#     4  10  21  43  66 101 143 179 241 302 366 428
#     4   9  20  40  73 101 134 189 250 302 350 427
#     4  10  21  43  66 101 143 179 241 302 366 428
#     4  10  24  39  61  99 142 180 230 296 374 417
#
# _framework density 27.590433000000001
#
# number of rings (size 3 to 8) (size 9 to 14) (size 15 to 20)
#    0.857    1.429    1.429    0.000    4.000    2.286 
#   10.286    0.714    0.000    0.000    0.000    0.000 
#    0.000    0.000    0.000    0.000    0.000    0.000 
#
# Total GULP energy -78250.748342 kJ/mol
# GULP energy per Si atom -5589.339167 kJ/mol
# Density = 2.752764 g / cm^3
# Si number density = 27.590433 Si / 1000 Ang^3
#
#
#
# Elastic Constant Matrix: (Units=GPa)
#
#
# Indices 1 2 3 4 5 6 
#
# 1 148.1921 43.6846 54.7714 -4.6292 -10.0558 -32.5848
# 2 43.6846 128.1002 45.6114 4.9545 4.0492 -9.1072
# 3 54.7714 45.6114 205.8679 22.7210 43.6706 -13.0320
# 4 -4.6292 4.9545 22.7210 36.2191 -15.5894 1.2455
# 5 -10.0558 4.0492 43.6706 -15.5894 78.3446 -4.6726
# 6 -32.5848 -9.1072 -13.0320 1.2455 -4.6726 38.0149
#
#
#
# Elastic Compliance Matrix: (Units=1/GPa)
#
#
# Indices 1 2 3 4 5 6 
#
# 1 0.011168 -0.002295 -0.003754 0.006118 0.005351 0.008193
# 2 -0.002295 0.009065 -0.001272 -0.000828 -0.000233 -0.000233
# 3 -0.003754 -0.001272 0.008474 -0.008556 -0.006913 -0.001187
# 4 0.006118 -0.000828 -0.008556 0.039656 0.013637 0.002489
# 5 0.005351 -0.000233 -0.006913 0.013637 0.020281 0.004207
# 6 0.008193 -0.000233 -0.001187 0.002489 0.004207 0.033301
#
#
# Mechanical properties :
#
#
# Convention : Reuss Voigt Hill
#
# Bulk Modulus (GPa) = 71.10379 85.58832 78.34605
# Shear Modulus (GPa) = 35.39214 53.05523 44.22369
#
# Velocity S-wave (km/s) = 3.58546 4.38991 4.00792
# Velocity P-wave (km/s) = 6.55499 7.53548 7.06227
#
# Compressibility (1/GPa) = 0.01406395
#
# Stress axis : x y z
#
# Youngs Moduli (GPa) = 89.54325 110.31876 118.01198
#
# Poissons Ratio (x) = 0.25317 0.44306
# Poissons Ratio (y) = 0.20549 0.15009
# Poissons Ratio (z) = 0.33618 0.14030
#
# Static dielectric constant tensor:
#      x y z
#    x 2.188060 0.006260 0.032930 
#    y 0.006260 2.173330 -0.007070 
#    z 0.032930 -0.007070 2.233690 
# 
# From -- ./inp_files/524421.got.cif
#   From: 2010.05.17/outbox.cif.g08.bks.cpg/sg2_263_cif.got.tgz:524421.got - 2010.06.03 11:33:40.
