data_PCOD9009314
_publ_section_title
;
Structure prediction by ZEFSAII (Michael W. Deem and Ramdas Pophale) SiO2 
 PCOD9009314
Probable space group: P -1
;
_chemical_formula_sum "Si O2"
_cell_formula_units_Z 14
_cell_length_a 11.915773
_cell_length_b 8.197813
_cell_length_c 17.907824
_cell_angle_alpha 41.612455
_cell_angle_beta 31.179086
_cell_angle_gamma 55.456228
_cell_volume 587.852564
_symmetry_space_group_name_H-M "P -1"
_symmetry_group_IT_number 2
_symmetry_cell_setting 'triclinic'
loop_
_space_group_symop_operation_xyz
x,y,z
-x,-y,-z
loop_
_atom_site_type_symbol
_atom_site_label
_atom_site_fract_x
_atom_site_fract_y
_atom_site_fract_z
Si Si1 0.437966 0.788698 0.290603
Si Si2 0.895982 0.698254 0.328191
Si Si3 0.976149 0.530108 0.912990
Si Si4 0.452590 0.272181 0.910234
Si Si5 0.678137 0.999606 0.463618
Si Si6 0.401186 0.688237 0.040573
Si Si7 0.307060 0.994241 0.785196
O O1 0.217066 0.596540 0.505985
O O2 0.516944 0.657052 0.217585
O O3 0.612153 0.862393 0.233319
O O4 0.427698 0.053218 0.168375
O O5 0.840904 0.834081 0.390442
O O6 0.780867 0.825015 0.284580
O O7 0.156674 0.738285 0.150654
O O8 0.791792 0.693024 0.946089
O O9 0.197687 0.710301 0.695874
O O10 0.000000 0.500000 0.000000
O O11 0.882772 0.261431 0.019627
O O12 0.608983 0.423608 0.831704
O O13 0.500000 0.000000 0.000000
O O14 0.500000 0.000000 0.500000
O O15 0.526566 0.919646 0.649533
O O16 0.500000 0.500000 0.000000
#
# Coordination Sequence:
#
# PCOD9009314 Si02
#       7
#     2   2   2   2   2   2   2
#     4  11  25  44  70 101 146 183 232 291 362 423
#     4  11  24  43  72 104 141 184 234 294 365 412
#     4  12  22  42  74 102 137 191 236 294 363 404
#     4  10  24  45  70  99 141 188 238 289 348 426
#     4  10  21  39  68 103 141 174 230 290 351 424
#     4  11  26  49  69  98 138 190 249 293 339 428
#     4  11  25  41  68 113 144 179 233 298 355 429
#
# _framework density 23.815494000000001
#
# number of rings (size 3 to 8) (size 9 to 14) (size 15 to 20)
#    0.000    1.143    2.857    3.857    2.000    4.000 
#    2.571    4.286    0.000    0.000    0.000    0.000 
#    0.000    0.000    0.000    0.000    0.000    0.000 
#
# Total GULP energy -78119.036453 kJ/mol
# GULP energy per Si atom -5579.931175 kJ/mol
# Density = 2.376129 g / cm^3
# Si number density = 23.815494 Si / 1000 Ang^3
#
#
#
# Elastic Constant Matrix: (Units=GPa)
#
#
# Indices 1 2 3 4 5 6 
#
# 1 124.0719 22.7921 13.8062 5.0986 22.2926 15.7372
# 2 22.7921 90.8881 39.9646 -1.0643 8.6091 -3.7011
# 3 13.8062 39.9646 105.0776 -25.7149 -9.0916 13.2790
# 4 5.0986 -1.0643 -25.7149 48.1718 9.4485 -2.5431
# 5 22.2926 8.6091 -9.0916 9.4485 23.7959 -1.6811
# 6 15.7372 -3.7011 13.2790 -2.5431 -1.6811 43.5357
#
#
#
# Elastic Compliance Matrix: (Units=1/GPa)
#
#
# Indices 1 2 3 4 5 6 
#
# 1 0.010840 -0.001305 -0.001336 -0.000051 -0.010458 -0.004029
# 2 -0.001305 0.015085 -0.006994 -0.001919 -0.005895 0.003548
# 3 -0.001336 -0.006994 0.015030 0.006489 0.006661 -0.004060
# 4 -0.000051 -0.001919 0.006489 0.025506 -0.006970 -0.000903
# 5 -0.010458 -0.005895 0.006661 -0.006970 0.059489 0.003138
# 6 -0.004029 0.003548 -0.004060 -0.000903 0.003138 0.026034
#
#
# Mechanical properties :
#
#
# Convention : Reuss Voigt Hill
#
# Bulk Modulus (GPa) = 46.11372 52.57371 49.34372
# Shear Modulus (GPa) = 28.01390 39.33233 33.67312
#
# Velocity S-wave (km/s) = 3.43343 4.06833 3.76429
# Velocity P-wave (km/s) = 5.92645 6.64769 6.29740
#
# Compressibility (1/GPa) = 0.02168552
#
# Stress axis : x y z
#
# Youngs Moduli (GPa) = 92.24702 66.28882 66.53445
#
# Poissons Ratio (x) = 0.08650 0.08891
# Poissons Ratio (y) = 0.12038 0.46534
# Poissons Ratio (z) = 0.12326 0.46362
#
# Static dielectric constant tensor:
#      x y z
#    x 2.084920 0.161490 0.026450 
#    y 0.161490 2.044940 -0.008640 
#    z 0.026450 -0.008640 1.914600 
# 
# From -- ./inp_files/566398.got.cif
#   From: 2010.05.17/outbox.cif.g08.bks.cpg/sg2_284_cif.got.tgz:566398.got - 2010.06.03 11:33:40.
