data_PCOD9009007
_publ_section_title
;
Structure prediction by ZEFSAII (Michael W. Deem and Ramdas Pophale) SiO2 
 PCOD9009007
Probable space group: P -1
;
_chemical_formula_sum "Si O2"
_cell_formula_units_Z 14
_cell_length_a 9.789339
_cell_length_b 8.639094
_cell_length_c 19.542662
_cell_angle_alpha 146.699463
_cell_angle_beta 130.592784
_cell_angle_gamma 61.988260
_cell_volume 678.045442
_symmetry_space_group_name_H-M "P -1"
_symmetry_group_IT_number 2
_symmetry_cell_setting 'triclinic'
loop_
_space_group_symop_operation_xyz
x,y,z
-x,-y,-z
loop_
_atom_site_type_symbol
_atom_site_label
_atom_site_fract_x
_atom_site_fract_y
_atom_site_fract_z
Si Si1 0.132001 0.798518 0.668068
Si Si2 0.582129 0.258671 0.359939
Si Si3 0.539101 0.605936 0.129389
Si Si4 0.318092 0.132609 0.976022
Si Si5 0.783250 0.569736 0.661930
Si Si6 0.067690 0.350865 0.770599
Si Si7 0.005250 0.149314 0.982718
O O1 0.333254 0.768065 0.695984
O O2 0.000000 0.500000 0.500000
O O3 0.173946 0.923196 0.803598
O O4 0.068019 0.040403 0.688322
O O5 0.740898 0.420066 0.520252
O O6 0.413641 0.422275 0.366141
O O7 0.525019 0.937912 0.251477
O O8 0.752738 0.576247 0.192381
O O9 0.500000 0.500000 0.000000
O O10 0.401404 0.416203 0.065286
O O11 0.202908 0.196562 0.028645
O O12 0.500000 0.000000 0.000000
O O13 0.900930 0.401010 0.686907
O O14 0.876737 0.901553 0.807359
O O15 0.067324 0.562761 0.914245
O O16 0.000000 0.000000 0.000000
#
# Coordination Sequence:
#
# PCOD9009007 Si02
#       7
#     2   2   2   2   2   2   2
#     4  11  25  43  63  94 136 174 221 278 330 396
#     4  10  22  40  66  92 135 173 213 273 332 398
#     4  11  21  43  66  95 130 172 218 271 330 391
#     4  12  25  40  69 101 129 177 228 269 334 393
#     4  10  21  39  66  97 125 178 217 262 341 393
#     4  10  22  41  69  92 132 176 217 273 333 387
#     4  10  22  40  67  95 132 166 219 275 319 391
#
# _framework density 20.647583999999998
#
# number of rings (size 3 to 8) (size 9 to 14) (size 15 to 20)
#    0.000    1.429    2.857    3.429    4.000    4.000 
#    5.143    0.714    0.000    0.000    0.000    0.000 
#    0.000    0.000    0.000    0.000    0.000    0.000 
#
# Total GULP energy -78138.509607 kJ/mol
# GULP energy per Si atom -5581.322115 kJ/mol
# Density = 2.060059 g / cm^3
# Si number density = 20.647584 Si / 1000 Ang^3
#
#
#
# Elastic Constant Matrix: (Units=GPa)
#
#
# Indices 1 2 3 4 5 6 
#
# 1 137.7109 39.8188 24.0176 7.6042 -1.3298 7.5748
# 2 39.8188 75.7485 25.4256 -11.5384 8.4057 -19.6577
# 3 24.0176 25.4256 109.0107 9.0739 10.7118 3.1990
# 4 7.6042 -11.5384 9.0739 33.1698 1.2410 5.3675
# 5 -1.3298 8.4057 10.7118 1.2410 28.1079 5.5230
# 6 7.5748 -19.6577 3.1990 5.3675 5.5230 25.9099
#
#
#
# Elastic Compliance Matrix: (Units=1/GPa)
#
#
# Indices 1 2 3 4 5 6 
#
# 1 0.011104 -0.010111 0.000030 -0.004471 0.005948 -0.011263
# 2 -0.010111 0.030467 -0.005229 0.010412 -0.013446 0.027426
# 3 0.000030 -0.005229 0.011010 -0.004107 -0.001637 -0.004135
# 4 -0.004471 0.010412 -0.004107 0.035550 -0.003957 0.003192
# 5 0.005948 -0.013446 -0.001637 -0.003957 0.044695 -0.020446
# 6 -0.011263 0.027426 -0.004135 0.003192 -0.020446 0.066903
#
#
# Mechanical properties :
#
#
# Convention : Reuss Voigt Hill
#
# Bulk Modulus (GPa) = 45.53305 55.66601 50.59953
# Shear Modulus (GPa) = 21.03764 32.98471 27.01118
#
# Velocity S-wave (km/s) = 3.19547 4.00122 3.62083
# Velocity P-wave (km/s) = 5.97621 6.95449 6.48383
#
# Compressibility (1/GPa) = 0.02196207
#
# Stress axis : x y z
#
# Youngs Moduli (GPa) = 90.06012 32.82247 90.82281
#
# Poissons Ratio (x) = 0.33186 -0.00273
# Poissons Ratio (y) = 0.91058 0.47489
# Poissons Ratio (z) = -0.00271 0.17162
#
# Static dielectric constant tensor:
#      x y z
#    x 1.776810 0.005480 -0.019710 
#    y 0.005480 1.762000 -0.031740 
#    z -0.019710 -0.031740 1.822810 
# 
# From -- ./inp_files/284652.got.cif
#   From: 2010.05.17/outbox.cif.g08.bks.cpg/sg2_143_cif.got.tgz:284652.got - 2010.06.03 11:33:40.
