data_PCOD9009608
_publ_section_title
;
Structure prediction by ZEFSAII (Michael W. Deem and Ramdas Pophale) SiO2 
 PCOD9009608
Probable space group: P -1
;
_chemical_formula_sum "Si O2"
_cell_formula_units_Z 16
_cell_length_a 8.299797
_cell_length_b 11.900571
_cell_length_c 9.075381
_cell_angle_alpha 74.893679
_cell_angle_beta 50.267846
_cell_angle_gamma 89.843716
_cell_volume 649.134165
_symmetry_space_group_name_H-M "P -1"
_symmetry_group_IT_number 2
_symmetry_cell_setting 'triclinic'
loop_
_space_group_symop_operation_xyz
x,y,z
-x,-y,-z
loop_
_atom_site_type_symbol
_atom_site_label
_atom_site_fract_x
_atom_site_fract_y
_atom_site_fract_z
Si Si1 0.862378 0.921865 0.322462
Si Si2 0.663293 0.675869 0.412097
Si Si3 0.684382 0.037454 0.123566
Si Si4 0.354603 0.549962 0.853487
Si Si5 0.006282 0.142969 0.334890
Si Si6 0.501324 0.747162 0.927279
Si Si7 0.611087 0.206499 0.699992
Si Si8 0.963267 0.667915 0.977237
O O1 0.750438 0.783118 0.439426
O O2 0.712879 0.981638 0.284220
O O3 0.917632 0.002542 0.406260
O O4 0.088214 0.933490 0.102260
O O5 0.538538 0.564831 0.617089
O O6 0.506517 0.723961 0.372777
O O7 0.860186 0.657219 0.203339
O O8 0.599228 0.157244 0.137211
O O9 0.527055 0.929984 0.166459
O O10 0.448330 0.620987 0.919290
O O11 0.178656 0.619887 0.868642
O O12 0.216470 0.416351 0.991070
O O13 0.250001 0.190724 0.221769
O O14 0.999554 0.200791 0.154831
O O15 0.844405 0.197064 0.511070
O O16 0.395394 0.738550 0.154136
#
# Coordination Sequence:
#
# PCOD9009608 Si02
#       8
#     2   2   2   2   2   2   2   2
#     4  10  21  39  70  99 130 176 213 266 327 396
#     4  11  22  44  71  99 129 170 225 268 327 393
#     4  10  21  40  63  94 135 177 216 263 322 386
#     4  11  26  43  74  98 123 175 225 277 324 380
#     4  12  24  41  65  98 137 178 214 263 335 391
#     4  12  25  43  62 100 139 171 215 275 325 388
#     4  11  24  40  65  94 138 179 212 263 330 388
#     4  11  23  48  71  95 130 168 230 275 319 392
#
# _framework density 24.648216000000001
#
# number of rings (size 3 to 8) (size 9 to 14) (size 15 to 20)
#    0.000    1.000    3.750    3.750    1.750    4.000 
#    0.000    0.625    0.000    0.000    0.000    0.000 
#    0.000    0.000    0.000    0.000    0.000    0.000 
#
# Total GULP energy -89735.995201 kJ/mol
# GULP energy per Si atom -5608.499700 kJ/mol
# Density = 2.459212 g / cm^3
# Si number density = 24.648216 Si / 1000 Ang^3
#
#
#
# Elastic Constant Matrix: (Units=GPa)
#
#
# Indices 1 2 3 4 5 6 
#
# 1 59.0136 8.4470 17.5921 8.1611 -0.9738 7.8505
# 2 8.4470 94.6875 8.5817 1.4268 12.5690 24.0508
# 3 17.5921 8.5817 108.0500 15.9542 -14.3227 14.0164
# 4 8.1611 1.4268 15.9542 37.9640 2.2558 4.8524
# 5 -0.9738 12.5690 -14.3227 2.2558 29.9010 16.2511
# 6 7.8505 24.0508 14.0164 4.8524 16.2511 41.3974
#
#
#
# Elastic Compliance Matrix: (Units=1/GPa)
#
#
# Indices 1 2 3 4 5 6 
#
# 1 0.018437 -0.000994 -0.001930 -0.002885 0.001727 -0.002605
# 2 -0.000994 0.012541 -0.000457 0.000855 -0.002237 -0.006165
# 3 -0.001930 -0.000457 0.012590 -0.004559 0.010408 -0.007182
# 4 -0.002885 0.000855 -0.004559 0.029123 -0.004888 0.000099
# 5 0.001727 -0.002237 0.010408 -0.004888 0.051955 -0.022374
# 6 -0.002605 -0.006165 -0.007182 0.000099 -0.022374 0.039435
#
#
# Mechanical properties :
#
#
# Convention : Reuss Voigt Hill
#
# Bulk Modulus (GPa) = 27.16985 36.77698 31.97342
# Shear Modulus (GPa) = 27.30580 36.99450 32.15015
#
# Velocity S-wave (km/s) = 3.33200 3.87835 3.61551
# Velocity P-wave (km/s) = 5.08429 5.91680 5.51627
#
# Compressibility (1/GPa) = 0.03680550
#
# Stress axis : x y z
#
# Youngs Moduli (GPa) = 54.23915 79.73779 79.42818
#
# Poissons Ratio (x) = 0.07925 0.15329
# Poissons Ratio (y) = 0.05391 0.03633
# Poissons Ratio (z) = 0.10468 0.03647
#
# Static dielectric constant tensor:
#      x y z
#    x 1.963270 0.015690 0.037190 
#    y 0.015690 1.905270 0.012800 
#    z 0.037190 0.012800 1.931190 
# 
# From -- ./inp_files/187339.got.cif
#   From: 2010.05.17/outbox.cif.g08.bks.cpg/sg2_94_cif.got.tgz:187339.got - 2010.06.03 11:33:40.
