data_PCOD9009538
_publ_section_title
;
Structure prediction by ZEFSAII (Michael W. Deem and Ramdas Pophale) SiO2 
 PCOD9009538
Probable space group: P -1
;
_chemical_formula_sum "Si O2"
_cell_formula_units_Z 16
_cell_length_a 6.374794
_cell_length_b 11.789926
_cell_length_c 15.671030
_cell_angle_alpha 130.885941
_cell_angle_beta 130.411832
_cell_angle_gamma 77.128928
_cell_volume 635.056488
_symmetry_space_group_name_H-M "P -1"
_symmetry_group_IT_number 2
_symmetry_cell_setting 'triclinic'
loop_
_space_group_symop_operation_xyz
x,y,z
-x,-y,-z
loop_
_atom_site_type_symbol
_atom_site_label
_atom_site_fract_x
_atom_site_fract_y
_atom_site_fract_z
Si Si1 0.745338 0.088620 0.928355
Si Si2 0.152664 0.228688 0.240320
Si Si3 0.326441 0.674700 0.099876
Si Si4 0.786278 0.076470 0.541642
Si Si5 0.845741 0.116062 0.264495
Si Si6 0.222638 0.700949 0.501956
Si Si7 0.293613 0.514084 0.840383
Si Si8 0.108981 0.213539 0.856208
O O1 0.502629 0.982649 0.878315
O O2 0.867777 0.958081 0.859698
O O3 0.590234 0.158408 0.849207
O O4 0.997133 0.233669 0.112182
O O5 0.493799 0.323798 0.393516
O O6 0.964869 0.233866 0.275711
O O7 0.217950 0.540953 0.931666
O O8 0.554685 0.621545 0.188221
O O9 0.082103 0.695543 0.105829
O O10 0.681807 0.176872 0.492947
O O11 0.024492 0.194791 0.725692
O O12 0.500000 0.000000 0.500000
O O13 0.000000 0.000000 0.500000
O O14 0.967219 0.970745 0.229295
O O15 0.903161 0.214393 0.416091
O O16 0.977932 0.543558 0.323127
O O17 0.439897 0.318865 0.023340
#
# Coordination Sequence:
#
# PCOD9009538 Si02
#       8
#     2   2   2   2   2   2   2   2
#     4  10  21  39  69  98 129 167 227 290 355 410
#     4  10  22  41  65 102 129 170 223 296 352 414
#     4  11  23  42  68  95 131 180 230 284 338 426
#     4  12  27  41  69 107 146 183 233 297 360 421
#     4  11  21  40  71  97 133 169 231 288 359 407
#     4  11  26  42  63  98 141 181 224 292 347 424
#     4  11  26  44  65  96 144 181 238 273 352 426
#     4  12  24  41  71  99 136 186 234 283 354 423
#
# _framework density 25.194609
#
# number of rings (size 3 to 8) (size 9 to 14) (size 15 to 20)
#    0.000    1.000    3.750    3.000    5.250    1.000 
#    0.000    0.625    0.000    1.500    0.000    0.000 
#    0.000    0.000    0.000    0.000    0.000    0.000 
#
# Total GULP energy -89237.276574 kJ/mol
# GULP energy per Si atom -5577.329786 kJ/mol
# Density = 2.513727 g / cm^3
# Si number density = 25.194609 Si / 1000 Ang^3
#
#
#
# Elastic Constant Matrix: (Units=GPa)
#
#
# Indices 1 2 3 4 5 6 
#
# 1 122.6381 7.4654 45.1687 9.4595 -20.2871 -3.4741
# 2 7.4654 53.9548 13.1808 10.0730 -4.0099 -0.4536
# 3 45.1687 13.1808 182.3650 3.6454 17.4836 -7.4138
# 4 9.4595 10.0730 3.6454 38.3940 -9.6773 -1.0587
# 5 -20.2871 -4.0099 17.4836 -9.6773 38.4319 0.5321
# 6 -3.4741 -0.4536 -7.4138 -1.0587 0.5321 30.2347
#
#
#
# Elastic Compliance Matrix: (Units=1/GPa)
#
#
# Indices 1 2 3 4 5 6 
#
# 1 0.010543 -0.000052 -0.003248 -0.000529 0.006901 0.000274
# 2 -0.000052 0.019892 -0.001491 -0.004681 0.001552 -0.000264
# 3 -0.003248 -0.001491 0.006970 -0.000756 -0.005250 0.001380
# 4 -0.000529 -0.004681 -0.000756 0.029239 0.006931 0.000586
# 5 0.006901 0.001552 -0.005250 0.006931 0.033970 -0.000826
# 6 0.000274 -0.000264 0.001380 0.000586 -0.000826 0.033475
#
#
# Mechanical properties :
#
#
# Convention : Reuss Voigt Hill
#
# Bulk Modulus (GPa) = 35.93777 54.50975 45.22376
# Shear Modulus (GPa) = 32.69147 40.95498 36.82323
#
# Velocity S-wave (km/s) = 3.60607 4.03618 3.82717
# Velocity P-wave (km/s) = 5.62435 6.58813 6.12523
#
# Compressibility (1/GPa) = 0.02782588
#
# Stress axis : x y z
#
# Youngs Moduli (GPa) = 94.84619 50.27052 143.46887
#
# Poissons Ratio (x) = 0.00259 0.46592
# Poissons Ratio (y) = 0.00489 0.21390
# Poissons Ratio (z) = 0.30802 0.07495
#
# Static dielectric constant tensor:
#      x y z
#    x 2.162870 0.001010 0.035340 
#    y 0.001010 2.042550 0.012890 
#    z 0.035340 0.012890 2.011050 
# 
# From -- ./inp_files/77202.got.cif
#   From: 2010.05.17/outbox.cif.g08.bks.cpg/sg2_39_cif.got.tgz:77202.got - 2010.06.03 11:33:40.
