data_PCOD9009991
_publ_section_title
;
Structure prediction by ZEFSAII (Michael W. Deem and Ramdas Pophale) SiO2 
 PCOD9009991
Probable space group: P -1
;
_chemical_formula_sum "Si O2"
_cell_formula_units_Z 14
_cell_length_a 11.404956
_cell_length_b 14.754358
_cell_length_c 10.617604
_cell_angle_alpha 126.701753
_cell_angle_beta 61.506784
_cell_angle_gamma 150.070059
_cell_volume 710.970426
_symmetry_space_group_name_H-M "P -1"
_symmetry_group_IT_number 2
_symmetry_cell_setting 'triclinic'
loop_
_space_group_symop_operation_xyz
x,y,z
-x,-y,-z
loop_
_atom_site_type_symbol
_atom_site_label
_atom_site_fract_x
_atom_site_fract_y
_atom_site_fract_z
Si Si1 0.235353 0.163210 0.600054
Si Si2 0.601479 0.233703 0.365432
Si Si3 0.462063 0.432461 0.318062
Si Si4 0.626380 0.291835 0.123082
Si Si5 0.518735 0.926187 0.238863
Si Si6 0.072363 0.897362 0.674782
Si Si7 0.046674 0.639324 0.356031
O O1 0.427382 0.206542 0.487135
O O2 0.358717 0.370473 0.694888
O O3 0.159583 0.068243 0.697312
O O4 0.000000 0.000000 0.500000
O O5 0.534229 0.171401 0.200225
O O6 0.869945 0.468514 0.411842
O O7 0.584073 0.103358 0.336493
O O8 0.500000 0.500000 0.500000
O O9 0.510506 0.334004 0.206151
O O10 0.193930 0.271308 0.284312
O O11 0.901075 0.508164 0.194990
O O12 0.574500 0.184303 0.937931
O O13 0.305894 0.769656 0.318740
O O14 0.742846 0.012020 0.240177
O O15 0.065053 0.786330 0.488657
#
# Coordination Sequence:
#
# PCOD9009991 Si02
#       7
#     2   2   2   2   2   2   2
#     4  12  21  37  67  93 115 160 215 253 292 363
#     4  10  22  38  66  90 120 161 208 244 301 364
#     4  12  20  43  64  90 119 158 214 254 293 354
#     4  10  22  43  64  89 122 166 203 252 298 364
#     4  12  25  40  60  95 133 156 197 251 318 363
#     4  12  24  39  64  96 122 160 202 260 304 354
#     4  10  21  40  61  89 124 161 203 239 299 366
#
# _framework density 19.691395
#
# number of rings (size 3 to 8) (size 9 to 14) (size 15 to 20)
#    0.857    0.000    7.143    1.286    0.000    2.286 
#    0.000    0.714    0.000    0.000    0.000    0.000 
#    0.000    0.000    0.000    0.000    0.000    0.000 
#
# Total GULP energy -78161.986426 kJ/mol
# GULP energy per Si atom -5582.999030 kJ/mol
# Density = 1.964658 g / cm^3
# Si number density = 19.691395 Si / 1000 Ang^3
#
#
#
# Elastic Constant Matrix: (Units=GPa)
#
#
# Indices 1 2 3 4 5 6 
#
# 1 77.1013 25.3379 1.3895 7.8749 10.5278 10.5028
# 2 25.3379 107.3608 4.1662 7.3243 4.8987 11.8116
# 3 1.3895 4.1662 27.1592 5.2867 4.2699 -5.2323
# 4 7.8749 7.3243 5.2867 14.2467 4.4367 -2.3075
# 5 10.5278 4.8987 4.2699 4.4367 24.1887 0.5418
# 6 10.5028 11.8116 -5.2323 -2.3075 0.5418 37.3099
#
#
#
# Elastic Compliance Matrix: (Units=1/GPa)
#
#
# Indices 1 2 3 4 5 6 
#
# 1 0.015727 -0.002639 0.000988 -0.006707 -0.005170 -0.003793
# 2 -0.002639 0.010594 -0.001302 -0.004009 0.000036 -0.003042
# 3 0.000988 -0.001302 0.041272 -0.012717 -0.005236 0.005211
# 4 -0.006707 -0.004009 -0.012717 0.084804 -0.009730 0.006760
# 5 -0.005170 0.000036 -0.005236 -0.009730 0.046306 -0.000565
# 6 -0.003793 -0.003042 0.005211 0.006760 -0.000565 0.029990
#
#
# Mechanical properties :
#
#
# Convention : Reuss Voigt Hill
#
# Bulk Modulus (GPa) = 16.21080 30.37871 23.29476
# Shear Modulus (GPa) = 19.59542 27.19759 23.39650
#
# Velocity S-wave (km/s) = 3.15798 3.72047 3.45071
# Velocity P-wave (km/s) = 4.64192 5.82381 5.26613
#
# Compressibility (1/GPa) = 0.06168726
#
# Stress axis : x y z
#
# Youngs Moduli (GPa) = 63.58438 94.39059 24.22969
#
# Poissons Ratio (x) = 0.24913 -0.02394
# Poissons Ratio (y) = 0.16782 0.03154
# Poissons Ratio (z) = -0.06282 0.12285
#
# Static dielectric constant tensor:
#      x y z
#    x 1.677150 0.002950 0.026290 
#    y 0.002950 1.708100 -0.007960 
#    z 0.026290 -0.007960 1.677920 
# 
# From -- ./inp_files/431754.got.cif
#   From: 2010.05.17/outbox.cif.g08.bks.cpg/sg2_216_cif.got.tgz:431754.got - 2010.06.03 11:33:40.
