data_PCOD9009060
_publ_section_title
;
Structure prediction by ZEFSAII (Michael W. Deem and Ramdas Pophale) SiO2 
 PCOD9009060
Probable space group: P -1
;
_chemical_formula_sum "Si O2"
_cell_formula_units_Z 12
_cell_length_a 11.011929
_cell_length_b 16.306434
_cell_length_c 8.871764
_cell_angle_alpha 46.488691
_cell_angle_beta 54.592944
_cell_angle_gamma 22.094761
_cell_volume 424.442889
_symmetry_space_group_name_H-M "P -1"
_symmetry_group_IT_number 2
_symmetry_cell_setting 'triclinic'
loop_
_space_group_symop_operation_xyz
x,y,z
-x,-y,-z
loop_
_atom_site_type_symbol
_atom_site_label
_atom_site_fract_x
_atom_site_fract_y
_atom_site_fract_z
Si Si1 0.118884 0.103536 0.777902
Si Si2 0.217827 0.086068 0.407389
Si Si3 0.188885 0.626145 0.053915
Si Si4 0.410047 0.824143 0.349048
Si Si5 0.095439 0.363987 0.955384
Si Si6 0.445962 0.670177 0.245300
O O1 0.291079 0.040642 0.588653
O O2 0.944725 0.303795 0.769496
O O3 0.825720 0.225503 0.764346
O O4 0.352510 0.856479 0.009215
O O5 0.356092 0.876752 0.499070
O O6 0.338706 0.104868 0.185780
O O7 0.820007 0.377986 0.317310
O O8 0.500000 0.500000 0.000000
O O9 0.172530 0.525469 0.089854
O O10 0.912471 0.891540 0.838524
O O11 0.402461 0.713205 0.402583
O O12 0.724858 0.676492 0.241587
O O13 0.000000 0.500000 0.000000
#
# Coordination Sequence:
#
# PCOD9009060 Si02
#       6
#     2   2   2   2   2   2
#     4  10  22  39  65 104 137 171 233 290 333 408
#     4  11  21  40  69  95 133 183 227 282 339 411
#     4  10  21  39  66  99 135 178 224 284 345 399
#     4  10  22  41  68  98 134 185 228 274 349 418
#     4  11  22  43  72  93 137 191 225 276 354 414
#     4  10  21  41  65  95 141 180 223 278 352 403
#
# _framework density 28.272352999999999
#
# number of rings (size 3 to 8) (size 9 to 14) (size 15 to 20)
#    0.000    1.667    1.667    4.500    0.000    0.667 
#    0.000   16.667    0.000    1.000    0.000    0.000 
#    0.000    0.000    0.000    0.000    0.000    0.000 
#
# Total GULP energy -67182.564833 kJ/mol
# GULP energy per Si atom -5598.547069 kJ/mol
# Density = 2.820800 g / cm^3
# Si number density = 28.272353 Si / 1000 Ang^3
#
#
#
# Elastic Constant Matrix: (Units=GPa)
#
#
# Indices 1 2 3 4 5 6 
#
# 1 208.9595 88.2759 41.2913 22.7502 2.1797 20.5599
# 2 88.2759 172.4095 26.4643 30.4053 14.0281 43.9742
# 3 41.2913 26.4643 133.9386 12.0421 28.0200 12.5847
# 4 22.7502 30.4053 12.0421 52.2281 10.8724 22.0045
# 5 2.1797 14.0281 28.0200 10.8724 48.9835 17.8108
# 6 20.5599 43.9742 12.5847 22.0045 17.8108 60.0124
#
#
#
# Elastic Compliance Matrix: (Units=1/GPa)
#
#
# Indices 1 2 3 4 5 6 
#
# 1 0.006495 -0.003083 -0.001674 -0.001125 0.001694 0.000295
# 2 -0.003083 0.008947 -0.000168 -0.001783 -0.000206 -0.004750
# 3 -0.001674 -0.000168 0.009086 -0.000390 -0.005157 0.000465
# 4 -0.001125 -0.001783 -0.000390 0.023893 -0.002218 -0.006329
# 5 0.001694 -0.000206 -0.005157 -0.002218 0.026128 -0.006289
# 6 0.000295 -0.004750 0.000465 -0.006329 -0.006289 0.024132
#
#
# Mechanical properties :
#
#
# Convention : Reuss Voigt Hill
#
# Bulk Modulus (GPa) = 68.12862 91.93006 80.02934
# Shear Modulus (GPa) = 44.08327 56.19654 50.13990
#
# Velocity S-wave (km/s) = 3.95300 4.46318 4.21582
# Velocity P-wave (km/s) = 6.70705 7.69067 7.21564
#
# Compressibility (1/GPa) = 0.01467812
#
# Stress axis : x y z
#
# Youngs Moduli (GPa) = 153.97292 111.76847 110.06454
#
# Poissons Ratio (x) = 0.34458 0.18425
# Poissons Ratio (y) = 0.47470 0.01845
# Poissons Ratio (z) = 0.25775 0.01873
#
# Static dielectric constant tensor:
#      x y z
#    x 2.287970 0.061790 -0.067940 
#    y 0.061790 2.242690 0.009410 
#    z -0.067940 0.009410 2.371010 
# 
# From -- ./inp_files/300739.got.cif
#   From: 2010.05.17/outbox.cif.g08.bks.cpg/sg2_151_cif.got.tgz:300739.got - 2010.06.03 11:33:40.
