data_PCOD9009431
_publ_section_title
;
Structure prediction by ZEFSAII (Michael W. Deem and Ramdas Pophale) SiO2 
 PCOD9009431
Probable space group: P -1
;
_chemical_formula_sum "Si O2"
_cell_formula_units_Z 16
_cell_length_a 11.769761
_cell_length_b 8.668941
_cell_length_c 9.213014
_cell_angle_alpha 127.499187
_cell_angle_beta 116.335621
_cell_angle_gamma 69.973258
_cell_volume 664.896054
_symmetry_space_group_name_H-M "P -1"
_symmetry_group_IT_number 2
_symmetry_cell_setting 'triclinic'
loop_
_space_group_symop_operation_xyz
x,y,z
-x,-y,-z
loop_
_atom_site_type_symbol
_atom_site_label
_atom_site_fract_x
_atom_site_fract_y
_atom_site_fract_z
Si Si1 0.000175 0.982017 0.814866
Si Si2 0.671435 0.309987 0.041851
Si Si3 0.893327 0.512977 0.155010
Si Si4 0.216168 0.776321 0.664183
Si Si5 0.212830 0.060913 0.549444
Si Si6 0.550866 0.748762 0.310960
Si Si7 0.850727 0.654021 0.900308
Si Si8 0.618248 0.605845 0.568161
O O1 0.863483 0.002194 0.671240
O O2 0.078741 0.796204 0.675627
O O3 0.084145 0.153147 0.910372
O O4 0.000000 0.000000 0.000000
O O5 0.807531 0.360991 0.090844
O O6 0.691317 0.179509 0.122960
O O7 0.603070 0.524637 0.168815
O O8 0.587857 0.221872 0.821126
O O9 0.855264 0.728600 0.317782
O O10 0.043635 0.448714 0.209310
O O11 0.853845 0.520547 0.967471
O O12 0.278049 0.562681 0.532390
O O13 0.211782 0.908206 0.593306
O O14 0.354687 0.107052 0.618410
O O15 0.564556 0.746993 0.490499
O O16 0.707533 0.698835 0.788522
O O17 0.500000 0.500000 0.500000
#
# Coordination Sequence:
#
# PCOD9009431 Si02
#       8
#     2   2   2   2   2   2   2   2
#     4  12  25  43  67 104 144 172 221 282 341 401
#     4   9  19  39  64  92 128 168 231 264 329 393
#     4  10  21  39  68  98 129 183 216 280 329 412
#     4  11  24  43  69 101 135 179 219 285 341 398
#     4  11  23  43  69  98 140 174 222 280 345 399
#     4   9  20  40  64  92 127 179 221 274 327 402
#     4  11  23  38  67  98 133 174 229 269 339 400
#     4  11  24  45  69  96 136 179 234 277 333 404
#
# _framework density 24.063912999999999
#
# number of rings (size 3 to 8) (size 9 to 14) (size 15 to 20)
#    0.000    1.500    1.250    3.375    3.500    1.500 
#    4.500    5.625    0.000    0.000    0.000    0.000 
#    0.000    0.000    0.000    0.000    0.000    0.000 
#
# Total GULP energy -89441.222507 kJ/mol
# GULP energy per Si atom -5590.076407 kJ/mol
# Density = 2.400914 g / cm^3
# Si number density = 24.063913 Si / 1000 Ang^3
#
#
#
# Elastic Constant Matrix: (Units=GPa)
#
#
# Indices 1 2 3 4 5 6 
#
# 1 79.5647 32.0371 57.6216 -24.9592 10.5619 5.1419
# 2 32.0371 76.4888 62.1699 -22.6417 0.3326 -2.3829
# 3 57.6216 62.1699 133.2453 -36.3558 33.4742 5.0326
# 4 -24.9592 -22.6417 -36.3558 51.0036 -14.6557 -15.0195
# 5 10.5619 0.3326 33.4742 -14.6557 44.2533 -1.2642
# 6 5.1419 -2.3829 5.0326 -15.0195 -1.2642 36.4825
#
#
#
# Elastic Compliance Matrix: (Units=1/GPa)
#
#
# Indices 1 2 3 4 5 6 
#
# 1 0.019324 -0.000686 -0.007412 0.004684 0.002558 0.000271
# 2 -0.000686 0.027064 -0.013791 0.007835 0.013200 0.007450
# 3 -0.007412 -0.013791 0.020797 0.000157 -0.013897 -0.003142
# 4 0.004684 0.007835 0.000157 0.032257 0.009771 0.013448
# 5 0.002558 0.013200 -0.013897 0.009771 0.035855 0.007684
# 6 0.000271 0.007450 -0.003142 0.013448 0.007684 0.034095
#
#
# Mechanical properties :
#
#
# Convention : Reuss Voigt Hill
#
# Bulk Modulus (GPa) = 42.71776 65.88399 54.30088
# Shear Modulus (GPa) = 22.62731 35.51256 29.06994
#
# Velocity S-wave (km/s) = 3.06976 3.84573 3.47944
# Velocity P-wave (km/s) = 5.50953 6.86715 6.22546
#
# Compressibility (1/GPa) = 0.02340947
#
# Stress axis : x y z
#
# Youngs Moduli (GPa) = 51.74801 36.94931 48.08333
#
# Poissons Ratio (x) = 0.02534 0.35638
# Poissons Ratio (y) = 0.03550 0.66309
# Poissons Ratio (z) = 0.38354 0.50955
#
# Static dielectric constant tensor:
#      x y z
#    x 1.905790 -0.048380 -0.049640 
#    y -0.048380 1.949000 0.045090 
#    z -0.049640 0.045090 1.978680 
# 
# From -- ./inp_files/245657.got.cif
#   From: 2010.05.17/outbox.cif.g08.bks.cpg/sg2_123_cif.got.tgz:245657.got - 2010.06.03 11:33:40.
