data_PCOD9009845
_publ_section_title
;
Structure prediction by ZEFSAII (Michael W. Deem and Ramdas Pophale) SiO2 
 PCOD9009845
Probable space group: P -1
;
_chemical_formula_sum "Si O2"
_cell_formula_units_Z 13
_cell_length_a 13.365803
_cell_length_b 17.077001
_cell_length_c 8.685841
_cell_angle_alpha 49.766805
_cell_angle_beta 59.062178
_cell_angle_gamma 22.996257
_cell_volume 569.356875
_symmetry_space_group_name_H-M "P -1"
_symmetry_group_IT_number 2
_symmetry_cell_setting 'triclinic'
loop_
_space_group_symop_operation_xyz
x,y,z
-x,-y,-z
loop_
_atom_site_type_symbol
_atom_site_label
_atom_site_fract_x
_atom_site_fract_y
_atom_site_fract_z
Si Si1 0.825590 0.374280 0.151430
Si Si2 0.500000 0.500000 0.500000
Si Si3 0.949353 0.987398 0.719770
Si Si4 0.115727 0.562344 0.419597
Si Si5 0.655016 0.846799 0.226537
Si Si6 0.574400 0.266295 0.246913
Si Si7 0.810855 0.852749 0.601956
O O1 0.687133 0.405490 0.340727
O O2 0.027736 0.149924 0.167014
O O3 0.987123 0.324872 0.191543
O O4 0.599893 0.600756 0.936772
O O5 0.310960 0.756132 0.329606
O O6 0.211885 0.812196 0.830619
O O7 0.000000 0.000000 0.500000
O O8 0.241965 0.351242 0.620126
O O9 0.359398 0.444153 0.329884
O O10 0.909497 0.710148 0.254430
O O11 0.957105 0.721260 0.493170
O O12 0.448750 0.007451 0.329365
O O13 0.500000 0.000000 0.000000
O O14 0.726902 0.038838 0.438095
#
# Coordination Sequence:
#
# PCOD9009845 Si02
#       7
#     2   1   2   2   2   2   2
#     4  11  24  39  63  92 125 168 210 256 309 364
#     4  10  22  38  62  84 122 162 214 256 306 350
#     4  10  21  40  60  87 126 165 210 260 303 359
#     4  10  24  40  65  92 125 161 204 256 310 370
#     4  10  22  43  66  92 124 163 201 253 312 370
#     4  11  23  41  62  92 126 166 209 257 309 364
#     4  11  23  40  63  96 129 160 206 256 306 374
#
# _framework density 22.83278
#
# number of rings (size 3 to 8) (size 9 to 14) (size 15 to 20)
#    0.000    1.538    3.077    1.846    4.308    3.692 
#    0.000    0.000    0.000    0.000    0.000    0.000 
#    0.000    0.000    0.000    0.000    0.000    0.000 
#
# Total GULP energy -72395.891161 kJ/mol
# GULP energy per Si atom -5568.914705 kJ/mol
# Density = 2.278081 g / cm^3
# Si number density = 22.832780 Si / 1000 Ang^3
#
#
#
# Elastic Constant Matrix: (Units=GPa)
#
#
# Indices 1 2 3 4 5 6 
#
# 1 50.2046 29.4652 17.1470 -6.6287 12.5444 0.8686
# 2 29.4652 176.3159 17.9507 -3.7117 -8.1657 19.1710
# 3 17.1470 17.9507 98.6981 -15.6100 19.2358 -4.7631
# 4 -6.6287 -3.7117 -15.6100 22.2551 -15.8202 -3.3310
# 5 12.5444 -8.1657 19.2358 -15.8202 25.6500 2.1382
# 6 0.8686 19.1710 -4.7631 -3.3310 2.1382 15.8314
#
#
#
# Elastic Compliance Matrix: (Units=1/GPa)
#
#
# Indices 1 2 3 4 5 6 
#
# 1 0.027858 -0.006478 -0.000395 -0.005898 -0.019662 0.007611
# 2 -0.006478 0.008954 -0.002687 0.004106 0.011565 -0.011994
# 3 -0.000395 -0.002687 0.013545 0.003726 -0.009304 0.009391
# 4 -0.005898 0.004106 0.003726 0.085698 0.053648 0.007259
# 5 -0.019662 0.011565 -0.009304 0.053648 0.093776 -0.017103
# 6 0.007611 -0.011994 0.009391 0.007259 -0.017103 0.083934
#
#
# Mechanical properties :
#
#
# Convention : Reuss Voigt Hill
#
# Bulk Modulus (GPa) = 32.01219 50.48271 41.24745
# Shear Modulus (GPa) = 14.56471 30.12435 22.34453
#
# Velocity S-wave (km/s) = 2.52838 3.63622 3.13168
# Velocity P-wave (km/s) = 4.75124 6.30771 5.58397
#
# Compressibility (1/GPa) = 0.03123810
#
# Stress axis : x y z
#
# Youngs Moduli (GPa) = 35.89679 111.68462 73.82730
#
# Poissons Ratio (x) = 0.72345 0.02917
# Poissons Ratio (y) = 0.23252 0.19834
# Poissons Ratio (z) = 0.01418 0.30005
#
# Static dielectric constant tensor:
#      x y z
#    x 2.901060 -0.186830 0.383860 
#    y -0.186830 1.854210 -0.056500 
#    z 0.383860 -0.056500 1.999840 
# 
# From -- ./inp_files/316999.got.cif
#   From: 2010.05.17/outbox.cif.g08.bks.cpg/sg2_159_cif.got.tgz:316999.got - 2010.06.03 11:33:40.
