data_PCOD9009720
_publ_section_title
;
Structure prediction by ZEFSAII (Michael W. Deem and Ramdas Pophale) SiO2 
 PCOD9009720
Probable space group: P -1
;
_chemical_formula_sum "Si O2"
_cell_formula_units_Z 16
_cell_length_a 27.167399
_cell_length_b 9.848791
_cell_length_c 24.010282
_cell_angle_alpha 38.110177
_cell_angle_beta 163.003861
_cell_angle_gamma 152.366586
_cell_volume 779.728397
_symmetry_space_group_name_H-M "P -1"
_symmetry_group_IT_number 2
_symmetry_cell_setting 'triclinic'
loop_
_space_group_symop_operation_xyz
x,y,z
-x,-y,-z
loop_
_atom_site_type_symbol
_atom_site_label
_atom_site_fract_x
_atom_site_fract_y
_atom_site_fract_z
Si Si1 0.883950 0.402981 0.708850
Si Si2 0.978105 0.794952 0.994876
Si Si3 0.045081 0.862600 0.223053
Si Si4 0.464816 0.109555 0.103478
Si Si5 0.255958 0.249006 0.533263
Si Si6 0.422852 0.213780 0.616445
Si Si7 0.318742 0.395592 0.915819
Si Si8 0.553529 0.279349 0.936664
O O1 0.822277 0.165249 0.670769
O O2 0.741420 0.495917 0.525891
O O3 0.871159 0.267596 0.798567
O O4 0.178432 0.748417 0.907135
O O5 0.684748 0.452408 0.790479
O O6 0.035557 0.982098 0.940863
O O7 0.000000 0.000000 0.000000
O O8 0.799823 0.498876 0.094876
O O9 0.217611 0.072732 0.394689
O O10 0.573424 0.295227 0.102549
O O11 0.625471 0.070506 0.316530
O O12 0.459363 0.316532 0.070423
O O13 0.424461 0.375185 0.619649
O O14 0.343091 0.174830 0.701684
O O15 0.973727 0.918267 0.314351
O O16 0.375659 0.484781 0.013105
O O17 0.500000 0.000000 0.000000
#
# Coordination Sequence:
#
# PCOD9009720 Si02
#       8
#     2   2   2   2   2   2   2   2
#     4   9  20  40  61  87 118 160 203 251 302 356
#     4   9  19  40  64  84 119 161 202 246 303 365
#     4  11  22  39  61  91 121 162 205 243 302 370
#     4   9  20  38  61  80 123 159 203 246 307 353
#     4  11  23  39  62  90 124 158 204 252 302 354
#     4  11  21  37  63  89 121 158 202 251 305 354
#     4  10  21  40  57  89 119 163 202 254 295 357
#     4  12  25  39  61  90 128 160 205 245 302 356
#
# _framework density 20.519966
#
# number of rings (size 3 to 8) (size 9 to 14) (size 15 to 20)
#    0.000    1.750    1.250    4.125    3.500    1.000 
#    0.000    8.750    0.000    0.000    0.000    0.000 
#    0.000    0.000    0.000    0.000    0.000    0.000 
#
# Total GULP energy -89311.598244 kJ/mol
# GULP energy per Si atom -5581.974890 kJ/mol
# Density = 2.047326 g / cm^3
# Si number density = 20.519966 Si / 1000 Ang^3
#
#
#
# Elastic Constant Matrix: (Units=GPa)
#
#
# Indices 1 2 3 4 5 6 
#
# 1 102.7376 22.9593 38.9891 -17.6751 -23.8132 -5.4210
# 2 22.9593 68.1270 17.5007 -21.6074 -11.9385 10.5401
# 3 38.9891 17.5007 75.2960 -22.3605 -19.8765 -0.2859
# 4 -17.6751 -21.6074 -22.3605 30.2794 4.4797 -1.7216
# 5 -23.8132 -11.9385 -19.8765 4.4797 24.7085 0.7018
# 6 -5.4210 10.5401 -0.2859 -1.7216 0.7018 29.0462
#
#
#
# Elastic Compliance Matrix: (Units=1/GPa)
#
#
# Indices 1 2 3 4 5 6 
#
# 1 0.014416 -0.001723 -0.003550 0.003342 0.009507 0.003249
# 2 -0.001723 0.021976 0.002346 0.014736 0.008389 -0.007602
# 3 -0.003550 0.002346 0.022168 0.014001 0.013029 -0.000781
# 4 0.003342 0.014736 0.014001 0.053981 0.011864 -0.001673
# 5 0.009507 0.008389 0.013029 0.011864 0.062074 -0.001938
# 6 0.003249 -0.007602 -0.000781 -0.001673 -0.001938 0.037733
#
#
# Mechanical properties :
#
#
# Convention : Reuss Voigt Hill
#
# Bulk Modulus (GPa) = 18.97276 45.00655 31.98966
# Shear Modulus (GPa) = 21.20718 27.92092 24.56405
#
# Velocity S-wave (km/s) = 3.21828 3.69273 3.46364
# Velocity P-wave (km/s) = 4.80373 6.33738 5.62309
#
# Compressibility (1/GPa) = 0.05270714
#
# Stress axis : x y z
#
# Youngs Moduli (GPa) = 69.36845 45.50334 45.11053
#
# Poissons Ratio (x) = 0.07840 0.16012
# Poissons Ratio (y) = 0.11952 -0.10584
# Poissons Ratio (z) = 0.24623 -0.10676
#
# Static dielectric constant tensor:
#      x y z
#    x 1.749160 0.010790 0.011560 
#    y 0.010790 1.770050 0.015270 
#    z 0.011560 0.015270 1.731700 
# 
# From -- ./inp_files/212269.got.cif
#   From: 2010.05.17/outbox.cif.g08.bks.cpg/sg2_107_cif.got.tgz:212269.got - 2010.06.03 11:33:40.
