data_PCOD9009428
_publ_section_title
;
Structure prediction by ZEFSAII (Michael W. Deem and Ramdas Pophale) SiO2 
 PCOD9009428
Probable space group: P -1
;
_chemical_formula_sum "Si O2"
_cell_formula_units_Z 16
_cell_length_a 13.740547
_cell_length_b 9.592574
_cell_length_c 11.860584
_cell_angle_alpha 103.587338
_cell_angle_beta 148.679934
_cell_angle_gamma 88.382241
_cell_volume 742.457220
_symmetry_space_group_name_H-M "P -1"
_symmetry_group_IT_number 2
_symmetry_cell_setting 'triclinic'
loop_
_space_group_symop_operation_xyz
x,y,z
-x,-y,-z
loop_
_atom_site_type_symbol
_atom_site_label
_atom_site_fract_x
_atom_site_fract_y
_atom_site_fract_z
Si Si1 0.473472 0.343418 0.009792
Si Si2 0.142881 0.230546 0.273727
Si Si3 0.224501 0.870209 0.973455
Si Si4 0.595497 0.415505 0.390826
Si Si5 0.095922 0.676547 0.596235
Si Si6 0.667131 0.891800 0.359890
Si Si7 0.235364 0.202694 0.107486
Si Si8 0.902827 0.240633 0.627314
O O1 0.459749 0.369259 0.134106
O O2 0.675475 0.302990 0.198044
O O3 0.500000 0.500000 0.000000
O O4 0.327680 0.211838 0.762795
O O5 0.292132 0.404149 0.462200
O O6 0.207799 0.137591 0.417907
O O7 0.168129 0.172693 0.164197
O O8 0.915085 0.211885 0.075404
O O9 0.102409 0.787882 0.726740
O O10 0.440324 0.852946 0.172606
O O11 0.254397 0.048772 0.044298
O O12 0.445609 0.338387 0.328248
O O13 0.770468 0.343402 0.546819
O O14 0.007092 0.711050 0.398785
O O15 0.000000 0.500000 0.500000
O O16 0.755033 0.066695 0.443761
O O17 0.070049 0.248542 0.885053
#
# Coordination Sequence:
#
# PCOD9009428 Si02
#       8
#     2   2   2   2   2   2   2   2
#     4  10  21  39  68  98 129 169 214 270 343 408
#     4  12  26  46  68  98 134 182 234 277 326 397
#     4  11  24  43  68 100 134 175 226 281 330 400
#     4  11  25  45  68  98 140 171 223 285 339 396
#     4  10  24  40  65 102 136 170 217 273 347 406
#     4  11  24  42  71 102 132 175 221 279 343 393
#     4  12  27  43  69  98 134 184 235 269 331 398
#     4  11  25  43  68 100 137 172 220 280 338 402
#
# _framework density 21.550063999999999
#
# number of rings (size 3 to 8) (size 9 to 14) (size 15 to 20)
#    0.000    1.000    3.750    2.250    3.500    5.000 
#    0.000    0.000    0.000    0.000    0.000    0.000 
#    0.000    0.000    0.000    0.000    0.000    0.000 
#
# Total GULP energy -89468.482486 kJ/mol
# GULP energy per Si atom -5591.780155 kJ/mol
# Density = 2.150101 g / cm^3
# Si number density = 21.550064 Si / 1000 Ang^3
#
#
#
# Elastic Constant Matrix: (Units=GPa)
#
#
# Indices 1 2 3 4 5 6 
#
# 1 91.6426 19.1086 19.4373 4.3175 2.6495 5.2329
# 2 19.1086 90.0302 23.5543 11.1665 -14.8040 4.4750
# 3 19.4373 23.5543 53.4961 -2.9964 -4.8831 -9.5408
# 4 4.3175 11.1665 -2.9964 31.2415 4.8318 8.0010
# 5 2.6495 -14.8040 -4.8831 4.8318 36.9623 1.4233
# 6 5.2329 4.4750 -9.5408 8.0010 1.4233 31.6088
#
#
#
# Elastic Compliance Matrix: (Units=1/GPa)
#
#
# Indices 1 2 3 4 5 6 
#
# 1 0.012461 -0.001545 -0.004590 -0.000542 -0.001932 -0.003005
# 2 -0.001545 0.014956 -0.006245 -0.006046 0.006162 -0.002494
# 3 -0.004590 -0.006245 0.024804 0.003050 0.000385 0.008341
# 4 -0.000542 -0.006046 0.003050 0.037429 -0.006591 -0.007311
# 5 -0.001932 0.006162 0.000385 -0.006591 0.030579 -0.000145
# 6 -0.003005 -0.002494 0.008341 -0.007311 -0.000145 0.036862
#
#
# Mechanical properties :
#
#
# Convention : Reuss Voigt Hill
#
# Bulk Modulus (GPa) = 36.41476 39.92993 38.17235
# Shear Modulus (GPa) = 26.17752 31.50044 28.83898
#
# Velocity S-wave (km/s) = 3.48908 3.82741 3.66215
# Velocity P-wave (km/s) = 5.75899 6.17262 5.96939
#
# Compressibility (1/GPa) = 0.02746139
#
# Stress axis : x y z
#
# Youngs Moduli (GPa) = 80.25296 66.86220 40.31649
#
# Poissons Ratio (x) = 0.10330 0.18505
# Poissons Ratio (y) = 0.12399 0.25176
# Poissons Ratio (z) = 0.36835 0.41753
#
# Static dielectric constant tensor:
#      x y z
#    x 1.804980 -0.024090 0.004150 
#    y -0.024090 1.749930 0.010030 
#    z 0.004150 0.010030 1.794660 
# 
# From -- ./inp_files/307757.got.cif
#   From: 2010.05.17/outbox.cif.g08.bks.cpg/sg2_154_cif.got.tgz:307757.got - 2010.06.03 11:33:40.
