data_PCOD9009340
_publ_section_title
;
Structure prediction by ZEFSAII (Michael W. Deem and Ramdas Pophale) SiO2 
 PCOD9009340
Probable space group: P -1
;
_chemical_formula_sum "Si O2"
_cell_formula_units_Z 12
_cell_length_a 5.640196
_cell_length_b 15.523778
_cell_length_c 8.171256
_cell_angle_alpha 61.261208
_cell_angle_beta 122.141138
_cell_angle_gamma 106.744077
_cell_volume 530.676782
_symmetry_space_group_name_H-M "P -1"
_symmetry_group_IT_number 2
_symmetry_cell_setting 'triclinic'
loop_
_space_group_symop_operation_xyz
x,y,z
-x,-y,-z
loop_
_atom_site_type_symbol
_atom_site_label
_atom_site_fract_x
_atom_site_fract_y
_atom_site_fract_z
Si Si1 0.326203 0.029275 0.071344
Si Si2 0.380761 0.206408 0.131457
Si Si3 0.870373 0.443216 0.350092
Si Si4 0.230352 0.393566 0.070916
Si Si5 0.995038 0.740542 0.601253
Si Si6 0.760967 0.915608 0.506094
O O1 0.476339 0.969388 0.324815
O O2 0.365762 0.145813 0.014946
O O3 0.500000 0.000000 0.000000
O O4 0.000000 0.000000 0.000000
O O5 0.290332 0.317951 0.012710
O O6 0.208166 0.139705 0.260590
O O7 0.696365 0.210549 0.311735
O O8 0.531250 0.424341 0.236073
O O9 0.004052 0.337380 0.473657
O O10 0.000000 0.500000 0.500000
O O11 0.917113 0.514509 0.144831
O O12 0.057227 0.329089 0.196530
O O13 0.788922 0.829225 0.460390
O O14 0.000000 0.000000 0.500000
#
# Coordination Sequence:
#
# PCOD9009340 Si02
#       6
#     2   2   2   2   2   2
#     4  12  27  41  63 101 141 174 226 292 345 393
#     4  10  22  42  65  90 129 180 226 267 339 410
#     4  10  21  40  65  96 128 166 220 280 339 407
#     4   9  21  41  64  92 130 172 217 276 339 411
#     4  10  21  39  68  91 124 176 227 267 342 404
#     4  11  22  42  70  90 127 184 232 269 332 418
#
# _framework density 22.612635000000001
#
# number of rings (size 3 to 8) (size 9 to 14) (size 15 to 20)
#    0.000    1.667    1.667    2.000    4.667    2.000 
#    6.000    0.000    0.000    0.000    0.000    0.000 
#    0.000    0.000    0.000    0.000    0.000    0.000 
#
# Total GULP energy -67014.825667 kJ/mol
# GULP energy per Si atom -5584.568806 kJ/mol
# Density = 2.256117 g / cm^3
# Si number density = 22.612635 Si / 1000 Ang^3
#
#
#
# Elastic Constant Matrix: (Units=GPa)
#
#
# Indices 1 2 3 4 5 6 
#
# 1 72.8898 52.7308 16.7819 3.0855 0.9676 -2.6882
# 2 52.7308 194.3425 33.0290 13.5604 5.6523 -27.0146
# 3 16.7819 33.0290 57.1641 -2.0463 2.7698 3.9737
# 4 3.0855 13.5604 -2.0463 37.7299 -7.0685 -9.6766
# 5 0.9676 5.6523 2.7698 -7.0685 38.2062 -12.3659
# 6 -2.6882 -27.0146 3.9737 -9.6766 -12.3659 45.4992
#
#
#
# Elastic Compliance Matrix: (Units=1/GPa)
#
#
# Indices 1 2 3 4 5 6 
#
# 1 0.017512 -0.004527 -0.002421 -0.000371 -0.000174 -0.001568
# 2 -0.004527 0.007659 -0.003471 -0.001366 0.000406 0.004403
# 3 -0.002421 -0.003471 0.020655 0.001044 -0.002143 -0.004368
# 4 -0.000371 -0.001366 0.001044 0.030666 0.008356 0.007869
# 5 -0.000174 0.000406 -0.002143 0.008356 0.031282 0.010697
# 6 -0.001568 0.004403 -0.004368 0.007869 0.010697 0.029462
#
#
# Mechanical properties :
#
#
# Convention : Reuss Voigt Hill
#
# Bulk Modulus (GPa) = 40.02015 58.83108 49.42562
# Shear Modulus (GPa) = 30.04746 39.07737 34.56241
#
# Velocity S-wave (km/s) = 3.64921 4.16158 3.91379
# Velocity P-wave (km/s) = 5.95754 7.01178 6.50605
#
# Compressibility (1/GPa) = 0.02498741
#
# Stress axis : x y z
#
# Youngs Moduli (GPa) = 57.10383 130.55966 48.41493
#
# Poissons Ratio (x) = 0.59104 0.11722
# Poissons Ratio (y) = 0.25851 0.16805
# Poissons Ratio (z) = 0.13826 0.45319
#
# Static dielectric constant tensor:
#      x y z
#    x 1.938210 -0.065200 -0.030590 
#    y -0.065200 1.894030 0.036660 
#    z -0.030590 0.036660 1.834040 
# 
# From -- ./inp_files/134859.got.cif
#   From: 2010.05.17/outbox.cif.g08.bks.cpg/sg2_68_cif.got.tgz:134859.got - 2010.06.03 11:33:40.
