data_PCOD9009561
_publ_section_title
;
Structure prediction by ZEFSAII (Michael W. Deem and Ramdas Pophale) SiO2 
 PCOD9009561
Probable space group: P -1
;
_chemical_formula_sum "Si O2"
_cell_formula_units_Z 16
_cell_length_a 17.621045
_cell_length_b 16.175967
_cell_length_c 8.879137
_cell_angle_alpha 52.742156
_cell_angle_beta 137.837726
_cell_angle_gamma 154.572425
_cell_volume 711.185452
_symmetry_space_group_name_H-M "P -1"
_symmetry_group_IT_number 2
_symmetry_cell_setting 'triclinic'
loop_
_space_group_symop_operation_xyz
x,y,z
-x,-y,-z
loop_
_atom_site_type_symbol
_atom_site_label
_atom_site_fract_x
_atom_site_fract_y
_atom_site_fract_z
Si Si1 0.487663 0.285071 0.170426
Si Si2 0.713352 0.039894 0.560024
Si Si3 0.131819 0.496630 0.709140
Si Si4 0.841844 0.458512 0.968208
Si Si5 0.303595 0.845393 0.103010
Si Si6 0.257089 0.209649 0.632622
Si Si7 0.229221 0.993111 0.653020
Si Si8 0.738640 0.572943 0.486241
O O1 0.692025 0.385649 0.288364
O O2 0.340346 0.084801 0.254041
O O3 0.570581 0.426597 0.266639
O O4 0.366176 0.249419 0.899047
O O5 0.528326 0.983556 0.348864
O O6 0.704405 0.983282 0.443287
O O7 0.000000 0.500000 0.500000
O O8 0.950253 0.267741 0.679962
O O9 0.231190 0.573141 0.937271
O O10 0.762754 0.283786 0.990189
O O11 0.764787 0.483622 0.707359
O O12 0.102507 0.670469 0.112250
O O13 0.309800 0.966796 0.915989
O O14 0.313676 0.375316 0.531846
O O15 0.307635 0.168860 0.619011
O O16 0.000000 0.000000 0.500000
O O17 0.970282 0.781890 0.523263
#
# Coordination Sequence:
#
# PCOD9009561 Si02
#       8
#     2   2   2   2   2   2   2   2
#     4  12  26  46  71 103 141 183 231 290 352 407
#     4  12  25  42  69 104 145 182 229 281 353 419
#     4  12  28  43  67 110 149 183 229 284 343 427
#     4  10  22  41  70 101 140 186 233 275 351 418
#     4  10  21  39  70 100 141 186 221 285 345 417
#     4  10  25  45  75  99 135 184 238 297 342 405
#     4  10  22  42  67 103 138 182 231 281 348 413
#     4  10  21  48  70  96 141 180 233 293 344 405
#
# _framework density 22.497648000000002
#
# number of rings (size 3 to 8) (size 9 to 14) (size 15 to 20)
#    0.000    1.250    2.500    2.250   10.500    1.000 
#    0.000    6.250    0.000    0.000    0.000    0.000 
#    0.000    0.000    0.000    0.000    0.000    0.000 
#
# Total GULP energy -89608.567025 kJ/mol
# GULP energy per Si atom -5600.535439 kJ/mol
# Density = 2.244644 g / cm^3
# Si number density = 22.497648 Si / 1000 Ang^3
#
#
#
# Elastic Constant Matrix: (Units=GPa)
#
#
# Indices 1 2 3 4 5 6 
#
# 1 62.3280 50.5950 -10.7271 -5.7938 4.8823 -10.8392
# 2 50.5950 83.7989 5.5355 -1.8912 5.9017 -2.0906
# 3 -10.7271 5.5355 45.1026 10.5917 14.5905 0.7292
# 4 -5.7938 -1.8912 10.5917 22.6825 -3.4874 0.4258
# 5 4.8823 5.9017 14.5905 -3.4874 30.4271 -1.2543
# 6 -10.8392 -2.0906 0.7292 0.4258 -1.2543 37.6025
#
#
#
# Elastic Compliance Matrix: (Units=1/GPa)
#
#
# Indices 1 2 3 4 5 6 
#
# 1 0.041870 -0.025455 0.015966 -0.000467 -0.009076 0.010047
# 2 -0.025455 0.027652 -0.011041 0.001674 0.003982 -0.005472
# 3 0.015966 -0.011041 0.038163 -0.017891 -0.020657 0.002762
# 4 -0.000467 0.001674 -0.017891 0.054704 0.014606 0.000173
# 5 -0.009076 0.003982 -0.020657 0.014606 0.045102 -0.000655
# 6 0.010047 -0.005472 0.002762 0.000173 -0.000655 0.029108
#
#
# Mechanical properties :
#
#
# Convention : Reuss Voigt Hill
#
# Bulk Modulus (GPa) = 15.00911 31.33736 23.17324
# Shear Modulus (GPa) = 16.67395 27.86418 22.26907
#
# Velocity S-wave (km/s) = 2.72535 3.52310 3.14959
# Velocity P-wave (km/s) = 4.07299 5.52350 4.85275
#
# Compressibility (1/GPa) = 0.06662619
#
# Stress axis : x y z
#
# Youngs Moduli (GPa) = 23.88342 36.16322 26.20313
#
# Poissons Ratio (x) = 0.92054 -0.41836
# Poissons Ratio (y) = 0.60795 0.28930
# Poissons Ratio (z) = -0.38132 0.39926
#
# Static dielectric constant tensor:
#      x y z
#    x 1.849220 -0.011400 0.029170 
#    y -0.011400 1.832760 0.030010 
#    z 0.029170 0.030010 1.804270 
# 
# From -- ./inp_files/334775.got.cif
#   From: 2010.05.17/outbox.cif.g08.bks.cpg/sg2_168_cif.got.tgz:334775.got - 2010.06.03 11:33:40.
