data_PCOD9009543
_publ_section_title
;
Structure prediction by ZEFSAII (Michael W. Deem and Ramdas Pophale) SiO2 
 PCOD9009543
Probable space group: P -1
;
_chemical_formula_sum "Si O2"
_cell_formula_units_Z 12
_cell_length_a 7.805693
_cell_length_b 7.713006
_cell_length_c 13.691247
_cell_angle_alpha 137.593280
_cell_angle_beta 123.313637
_cell_angle_gamma 66.362598
_cell_volume 464.528662
_symmetry_space_group_name_H-M "P -1"
_symmetry_group_IT_number 2
_symmetry_cell_setting 'triclinic'
loop_
_space_group_symop_operation_xyz
x,y,z
-x,-y,-z
loop_
_atom_site_type_symbol
_atom_site_label
_atom_site_fract_x
_atom_site_fract_y
_atom_site_fract_z
Si Si1 0.646202 0.714917 0.579836
Si Si2 0.298069 0.465611 0.856715
Si Si3 0.733797 0.038763 0.488990
Si Si4 0.914520 0.271765 0.460496
Si Si5 0.718676 0.107197 0.140682
Si Si6 0.081132 0.857970 0.062022
O O1 0.500000 0.500000 0.500000
O O2 0.861159 0.575431 0.560112
O O3 0.478125 0.819454 0.493411
O O4 0.727427 0.965299 0.768455
O O5 0.306766 0.186296 0.696491
O O6 0.265817 0.648432 0.826699
O O7 0.500000 0.500000 0.000000
O O8 0.130793 0.570432 0.924863
O O9 0.882820 0.904705 0.557177
O O10 0.865774 0.235319 0.545618
O O11 0.744478 0.174201 0.289840
O O12 0.891257 0.894326 0.088780
O O13 0.500000 0.000000 0.000000
O O14 0.000000 0.000000 0.000000
#
# Coordination Sequence:
#
# PCOD9009543 Si02
#       6
#     2   2   2   2   2   2
#     4  10  21  39  69  98 132 175 219 273 335 404
#     4  11  21  41  69  93 133 173 224 271 335 404
#     4  10  21  41  69  96 131 179 219 274 333 409
#     4  10  22  42  64  97 135 172 225 273 338 395
#     4  11  25  43  65  98 137 176 221 287 334 388
#     4  10  22  39  67  96 129 178 224 264 337 402
#
# _framework density 25.832635
#
# number of rings (size 3 to 8) (size 9 to 14) (size 15 to 20)
#    0.000    1.667    1.667    3.000    7.000    2.667 
#    3.000    3.333    0.000    0.000    0.000    0.000 
#    0.000    0.000    0.000    0.000    0.000    0.000 
#
# Total GULP energy -66900.880979 kJ/mol
# GULP energy per Si atom -5575.073415 kJ/mol
# Density = 2.577384 g / cm^3
# Si number density = 25.832635 Si / 1000 Ang^3
#
#
#
# Elastic Constant Matrix: (Units=GPa)
#
#
# Indices 1 2 3 4 5 6 
#
# 1 69.3517 44.2723 8.8172 -2.7249 7.0693 -35.4630
# 2 44.2723 201.0047 19.5219 -32.7973 2.7525 -23.0584
# 3 8.8172 19.5219 113.8286 -23.5209 6.2303 -14.2888
# 4 -2.7249 -32.7973 -23.5209 53.3636 -13.4715 -2.5493
# 5 7.0693 2.7525 6.2303 -13.4715 35.2584 -4.3487
# 6 -35.4630 -23.0584 -14.2888 -2.5493 -4.3487 60.9777
#
#
#
# Elastic Compliance Matrix: (Units=1/GPa)
#
#
# Indices 1 2 3 4 5 6 
#
# 1 0.023245 -0.003989 0.000245 -0.001480 -0.003508 0.011756
# 2 -0.003989 0.006600 0.000041 0.004406 0.002024 0.000514
# 3 0.000245 0.000041 0.010051 0.004673 0.000294 0.002730
# 4 -0.001480 0.004406 0.004673 0.026009 0.009517 0.003666
# 5 -0.003508 0.002024 0.000294 0.009517 0.032680 0.001522
# 6 0.011756 0.000514 0.002730 0.003666 0.001522 0.024332
#
#
# Mechanical properties :
#
#
# Convention : Reuss Voigt Hill
#
# Bulk Modulus (GPa) = 30.77666 58.82308 44.79987
# Shear Modulus (GPa) = 35.42292 50.69150 43.05721
#
# Velocity S-wave (km/s) = 3.70705 4.43460 4.08705
# Velocity P-wave (km/s) = 5.50116 7.00294 6.29698
#
# Compressibility (1/GPa) = 0.03249215
#
# Stress axis : x y z
#
# Youngs Moduli (GPa) = 43.01989 151.52116 99.49066
#
# Poissons Ratio (x) = 0.60436 -0.02441
# Poissons Ratio (y) = 0.17159 -0.00411
# Poissons Ratio (z) = -0.01055 -0.00626
#
# Static dielectric constant tensor:
#      x y z
#    x 2.197410 0.060620 0.116920 
#    y 0.060620 2.092430 0.095930 
#    z 0.116920 0.095930 2.013980 
# 
# From -- ./inp_files/149270.got.cif
#   From: 2010.05.17/outbox.cif.g08.bks.cpg/sg2_75_cif.got.tgz:149270.got - 2010.06.03 11:33:40.
