data_PCOD9009165
_publ_section_title
;
Structure prediction by ZEFSAII (Michael W. Deem and Ramdas Pophale) SiO2 
 PCOD9009165
Probable space group: P -1
;
_chemical_formula_sum "Si O2"
_cell_formula_units_Z 14
_cell_length_a 5.283007
_cell_length_b 8.700893
_cell_length_c 19.277134
_cell_angle_alpha 118.955836
_cell_angle_beta 55.072209
_cell_angle_gamma 108.458655
_cell_volume 634.720220
_symmetry_space_group_name_H-M "P -1"
_symmetry_group_IT_number 2
_symmetry_cell_setting 'triclinic'
loop_
_space_group_symop_operation_xyz
x,y,z
-x,-y,-z
loop_
_atom_site_type_symbol
_atom_site_label
_atom_site_fract_x
_atom_site_fract_y
_atom_site_fract_z
Si Si1 0.352333 0.876983 0.355613
Si Si2 0.822199 0.524425 0.737020
Si Si3 0.480237 0.044894 0.794840
Si Si4 0.812314 0.405968 0.446024
Si Si5 0.868841 0.008902 0.378487
Si Si6 0.225993 0.378902 0.982268
Si Si7 0.198390 0.702752 0.842610
O O1 0.243877 0.683778 0.305112
O O2 0.586060 0.961575 0.278460
O O3 0.568516 0.878453 0.388490
O O4 0.051949 0.987834 0.416989
O O5 0.495468 0.613125 0.807522
O O6 0.991008 0.583960 0.652906
O O7 0.028219 0.582692 0.783592
O O8 0.851702 0.029109 0.727797
O O9 0.316042 0.885225 0.827997
O O10 0.375610 0.228946 0.880461
O O11 0.500000 0.500000 0.500000
O O12 0.000000 0.500000 0.500000
O O13 0.759023 0.202779 0.428767
O O14 0.035160 0.283388 0.053894
O O15 0.500000 0.500000 0.000000
O O16 0.000000 0.500000 0.000000
#
# Coordination Sequence:
#
# PCOD9009165 Si02
#       7
#     2   2   2   2   2   2   2
#     4  10  21  39  67  93 133 174 219 259 330 392
#     4  12  24  44  68 103 128 177 220 274 336 401
#     4  10  24  41  69  92 140 173 226 266 328 386
#     4  12  25  45  70 100 133 169 219 280 333 401
#     4  10  22  42  65  96 129 177 211 264 337 394
#     4  12  27  43  63 103 139 177 226 279 323 375
#     4  12  24  42  69  96 137 177 227 268 328 395
#
# _framework density 22.056963
#
# number of rings (size 3 to 8) (size 9 to 14) (size 15 to 20)
#    0.857    0.000    1.429    6.429    4.000    0.000 
#    0.000    7.143    0.000    0.000    0.000    0.000 
#    0.000    0.000    0.000    0.000    0.000    0.000 
#
# Total GULP energy -78241.613806 kJ/mol
# GULP energy per Si atom -5588.686700 kJ/mol
# Density = 2.200676 g / cm^3
# Si number density = 22.056963 Si / 1000 Ang^3
#
#
#
# Elastic Constant Matrix: (Units=GPa)
#
#
# Indices 1 2 3 4 5 6 
#
# 1 168.6504 33.6169 44.1207 14.5501 -5.6382 5.1916
# 2 33.6169 108.4242 15.5430 10.9103 -6.0215 -7.1707
# 3 44.1207 15.5430 84.7875 -0.2327 -11.0099 -7.6869
# 4 14.5501 10.9103 -0.2327 47.1800 -5.3198 0.0034
# 5 -5.6382 -6.0215 -11.0099 -5.3198 33.3816 4.3274
# 6 5.1916 -7.1707 -7.6869 0.0034 4.3274 24.7971
#
#
#
# Elastic Compliance Matrix: (Units=1/GPa)
#
#
# Indices 1 2 3 4 5 6 
#
# 1 0.007589 -0.001820 -0.003950 -0.001965 -0.000235 -0.003298
# 2 -0.001820 0.010286 -0.000577 -0.001743 0.000683 0.003057
# 3 -0.003950 -0.000577 0.014876 0.001857 0.003834 0.004602
# 4 -0.001965 -0.001743 0.001857 0.022619 0.003590 -0.000147
# 5 -0.000235 0.000683 0.003834 0.003590 0.032424 -0.004223
# 6 -0.003298 0.003057 0.004602 -0.000147 -0.004223 0.044066
#
#
# Mechanical properties :
#
#
# Convention : Reuss Voigt Hill
#
# Bulk Modulus (GPa) = 49.86267 60.93592 55.39929
# Shear Modulus (GPa) = 33.06015 38.97717 36.01866
#
# Velocity S-wave (km/s) = 3.87570 4.20827 4.04540
# Velocity P-wave (km/s) = 6.53326 7.16235 6.85503
#
# Compressibility (1/GPa) = 0.02005508
#
# Stress axis : x y z
#
# Youngs Moduli (GPa) = 131.77145 97.22254 67.22296
#
# Poissons Ratio (x) = 0.17695 0.26555
# Poissons Ratio (y) = 0.23984 0.03881
# Poissons Ratio (z) = 0.52054 0.05612
#
# Static dielectric constant tensor:
#      x y z
#    x 1.210620 0.044000 0.661950 
#    y 0.044000 1.805650 -0.067330 
#    z 0.661950 -0.067330 1.221550 
# 
# From -- ./inp_files/547438.got.cif
#   From: 2010.05.17/outbox.cif.g08.bks.cpg/sg2_274_cif.got.tgz:547438.got - 2010.06.03 11:33:40.
