data_PCOD9009592
_publ_section_title
;
Structure prediction by ZEFSAII (Michael W. Deem and Ramdas Pophale) SiO2 
 PCOD9009592
Probable space group: P -1
;
_chemical_formula_sum "Si O2"
_cell_formula_units_Z 16
_cell_length_a 11.919962
_cell_length_b 9.024763
_cell_length_c 15.377484
_cell_angle_alpha 133.251060
_cell_angle_beta 47.202537
_cell_angle_gamma 141.445058
_cell_volume 712.405352
_symmetry_space_group_name_H-M "P -1"
_symmetry_group_IT_number 2
_symmetry_cell_setting 'triclinic'
loop_
_space_group_symop_operation_xyz
x,y,z
-x,-y,-z
loop_
_atom_site_type_symbol
_atom_site_label
_atom_site_fract_x
_atom_site_fract_y
_atom_site_fract_z
Si Si1 0.042926 0.005387 0.257917
Si Si2 0.347857 0.181757 0.653775
Si Si3 0.369465 0.866196 0.276990
Si Si4 0.341880 0.434169 0.929408
Si Si5 0.259092 0.303952 0.102394
Si Si6 0.008068 0.210041 0.522670
Si Si7 0.315339 0.852505 0.098893
Si Si8 0.676796 0.241018 0.399519
O O1 0.159524 0.895683 0.173188
O O2 0.816219 0.823094 0.310456
O O3 0.092934 0.110287 0.175886
O O4 0.096810 0.218339 0.386322
O O5 0.386196 0.339751 0.783874
O O6 0.529492 0.278319 0.538900
O O7 0.280661 0.907048 0.614134
O O8 0.304928 0.580009 0.199300
O O9 0.374363 0.933896 0.200796
O O10 0.201471 0.864538 0.408178
O O11 0.562700 0.058002 0.304530
O O12 0.548613 0.652682 0.948561
O O13 0.236400 0.241867 0.987479
O O14 0.236857 0.561083 0.015506
O O15 0.136046 0.484532 0.609750
O O16 0.000000 0.000000 0.500000
O O17 0.500000 0.000000 0.000000
#
# Coordination Sequence:
#
# PCOD9009592 Si02
#       8
#     2   2   2   2   2   2   2   2
#     4  12  24  42  68 102 142 183 231 289 347 411
#     4  11  24  42  69 109 136 176 236 293 345 410
#     4  11  23  46  72 104 135 179 239 283 347 414
#     4  10  21  41  65  94 136 181 232 277 340 406
#     4  10  21  39  70  95 133 180 231 286 335 404
#     4  12  26  46  67 103 147 182 222 287 359 421
#     4  11  24  43  68  99 136 192 229 274 347 416
#     4  11  25  43  73 106 137 178 235 290 348 416
#
# _framework density 22.459123000000002
#
# number of rings (size 3 to 8) (size 9 to 14) (size 15 to 20)
#    0.000    1.000    5.000    1.500    1.750    2.500 
#    2.250    2.500    0.000    0.000    0.000    0.000 
#    0.000    0.000    0.000    0.000    0.000    0.000 
#
# Total GULP energy -89471.742109 kJ/mol
# GULP energy per Si atom -5591.983882 kJ/mol
# Density = 2.240800 g / cm^3
# Si number density = 22.459123 Si / 1000 Ang^3
#
#
#
# Elastic Constant Matrix: (Units=GPa)
#
#
# Indices 1 2 3 4 5 6 
#
# 1 102.4480 11.2746 23.8680 -2.7077 -20.6219 0.5369
# 2 11.2746 38.0458 -8.5037 -3.1376 1.1071 1.3204
# 3 23.8680 -8.5037 114.3269 -11.5110 -6.0458 -7.5330
# 4 -2.7077 -3.1376 -11.5110 25.3354 0.1679 3.8012
# 5 -20.6219 1.1071 -6.0458 0.1679 44.3137 -6.3355
# 6 0.5369 1.3204 -7.5330 3.8012 -6.3355 20.8163
#
#
#
# Elastic Compliance Matrix: (Units=1/GPa)
#
#
# Indices 1 2 3 4 5 6 
#
# 1 0.011895 -0.004321 -0.002522 -0.000567 0.005417 0.000807
# 2 -0.004321 0.028855 0.003260 0.004947 -0.002626 -0.002242
# 3 -0.002522 0.003260 0.010170 0.004314 0.000532 0.002913
# 4 -0.000567 0.004947 0.004314 0.043021 -0.000946 -0.006882
# 5 0.005417 -0.002626 0.000532 -0.000946 0.026435 0.008438
# 6 0.000807 -0.002242 0.002913 -0.006882 0.008438 0.053040
#
#
# Mechanical properties :
#
#
# Convention : Reuss Voigt Hill
#
# Bulk Modulus (GPa) = 22.85508 34.23319 28.54413
# Shear Modulus (GPa) = 25.61873 33.30519 29.46196
#
# Velocity S-wave (km/s) = 3.38106 3.85505 3.62581
# Velocity P-wave (km/s) = 5.04386 5.92375 5.50142
#
# Compressibility (1/GPa) = 0.04375394
#
# Stress axis : x y z
#
# Youngs Moduli (GPa) = 84.06592 34.65552 98.32474
#
# Poissons Ratio (x) = 0.14976 0.24800
# Poissons Ratio (y) = 0.36327 -0.32053
# Poissons Ratio (z) = 0.21204 -0.11297
#
# Static dielectric constant tensor:
#      x y z
#    x 1.848150 -0.008030 0.016610 
#    y -0.008030 1.837320 -0.001060 
#    z 0.016610 -0.001060 1.873090 
# 
# From -- ./inp_files/417014.got.cif
#   From: 2010.05.17/outbox.cif.g08.bks.cpg/sg2_209_cif.got.tgz:417014.got - 2010.06.03 11:33:40.
