data_PCOD9009570
_publ_section_title
;
Structure prediction by ZEFSAII (Michael W. Deem and Ramdas Pophale) SiO2 
 PCOD9009570
Probable space group: P -1
;
_chemical_formula_sum "Si O2"
_cell_formula_units_Z 14
_cell_length_a 12.379245
_cell_length_b 7.904546
_cell_length_c 5.089305
_cell_angle_alpha 101.486097
_cell_angle_beta 93.391300
_cell_angle_gamma 87.093073
_cell_volume 486.786217
_symmetry_space_group_name_H-M "P -1"
_symmetry_group_IT_number 2
_symmetry_cell_setting 'triclinic'
loop_
_space_group_symop_operation_xyz
x,y,z
-x,-y,-z
loop_
_atom_site_type_symbol
_atom_site_label
_atom_site_fract_x
_atom_site_fract_y
_atom_site_fract_z
Si Si1 0.344719 0.680994 0.583681
Si Si2 0.175535 0.404349 0.073231
Si Si3 0.015882 0.658767 0.356133
Si Si4 0.406722 0.383893 0.820351
Si Si5 0.580475 0.135667 0.850414
Si Si6 0.146783 0.895948 0.736862
Si Si7 0.777356 0.912996 0.698079
O O1 0.383875 0.484524 0.575441
O O2 0.356820 0.743226 0.309398
O O3 0.225153 0.723134 0.689021
O O4 0.411128 0.802795 0.828145
O O5 0.291924 0.396599 0.951106
O O6 0.082567 0.324743 0.854626
O O7 0.122528 0.592892 0.187260
O O8 0.191654 0.284448 0.295707
O O9 0.037047 0.827798 0.581084
O O10 0.000000 0.500000 0.500000
O O11 0.458212 0.189517 0.764483
O O12 0.500000 0.500000 0.000000
O O13 0.651891 0.960166 0.773406
O O14 0.846147 0.022302 0.951696
O O15 0.200332 0.020920 0.569563
#
# Coordination Sequence:
#
# PCOD9009570 Si02
#       7
#     2   2   2   2   2   2   2
#     4   9  18  35  62  99 130 176 233 277 326 415
#     4  11  27  46  69 107 147 181 242 304 352 421
#     4  11  27  47  73 103 142 188 243 303 352 417
#     4  10  21  39  70 104 139 188 234 289 356 422
#     4   9  19  37  62  96 139 177 226 277 341 419
#     4  10  23  43  76  96 145 190 236 282 357 432
#     4  10  24  45  70 109 144 188 232 289 362 429
#
# _framework density 28.760061
#
# number of rings (size 3 to 8) (size 9 to 14) (size 15 to 20)
#    0.000    2.000    0.000    1.286   16.000    1.714 
#    5.143    0.000    0.000   10.286    0.000    0.000 
#    0.000    0.000    0.000    0.000    0.000    0.000 
#
# Total GULP energy -78496.304718 kJ/mol
# GULP energy per Si atom -5606.878908 kJ/mol
# Density = 2.869460 g / cm^3
# Si number density = 28.760061 Si / 1000 Ang^3
#
#
#
# Elastic Constant Matrix: (Units=GPa)
#
#
# Indices 1 2 3 4 5 6 
#
# 1 160.5151 61.9612 37.4357 10.6322 -7.8259 -24.8864
# 2 61.9612 117.6720 38.6740 -15.3811 10.8827 -39.8045
# 3 37.4357 38.6740 116.4474 0.2740 9.8563 4.0070
# 4 10.6322 -15.3811 0.2740 63.0226 8.6773 0.3180
# 5 -7.8259 10.8827 9.8563 8.6773 58.6649 6.8667
# 6 -24.8864 -39.8045 4.0070 0.3180 6.8667 56.6337
#
#
#
# Elastic Compliance Matrix: (Units=1/GPa)
#
#
# Indices 1 2 3 4 5 6 
#
# 1 0.008751 -0.004605 -0.001517 -0.002963 0.002667 0.000410
# 2 -0.004605 0.017248 -0.004197 0.005670 -0.005235 0.010999
# 3 -0.001517 -0.004197 0.010670 -0.000709 -0.000609 -0.004293
# 4 -0.002963 0.005670 -0.000709 0.018345 -0.004412 0.003165
# 5 0.002667 -0.005235 -0.000609 -0.004412 0.019693 -0.004827
# 6 0.000410 0.010999 -0.004293 0.003165 -0.004827 0.026439
#
#
# Mechanical properties :
#
#
# Convention : Reuss Voigt Hill
#
# Bulk Modulus (GPa) = 62.37378 74.53071 68.45224
# Shear Modulus (GPa) = 39.33081 52.76847 46.04964
#
# Velocity S-wave (km/s) = 3.70205 4.28808 4.00580
# Velocity P-wave (km/s) = 6.32521 7.10548 6.72667
#
# Compressibility (1/GPa) = 0.01603238
#
# Stress axis : x y z
#
# Youngs Moduli (GPa) = 114.27318 57.97792 93.72113
#
# Poissons Ratio (x) = 0.26697 0.14216
# Poissons Ratio (y) = 0.52619 0.39332
# Poissons Ratio (z) = 0.17333 0.24332
#
# Static dielectric constant tensor:
#      x y z
#    x 2.274100 -0.005960 0.014630 
#    y -0.005960 2.240030 0.057480 
#    z 0.014630 0.057480 2.199530 
# 
# From -- ./inp_files/60679.got.cif
#   From: 2010.05.17/outbox.cif.g08.bks.cpg/sg2_31_cif.got.tgz:60679.got - 2010.06.03 11:33:40.
