data_PCOD9009950
_publ_section_title
;
Structure prediction by ZEFSAII (Michael W. Deem and Ramdas Pophale) SiO2 
 PCOD9009950
Probable space group: P -1
;
_chemical_formula_sum "Si O2"
_cell_formula_units_Z 16
_cell_length_a 11.049222
_cell_length_b 14.548414
_cell_length_c 5.403746
_cell_angle_alpha 112.439116
_cell_angle_beta 75.615560
_cell_angle_gamma 131.510425
_cell_volume 601.208808
_symmetry_space_group_name_H-M "P -1"
_symmetry_group_IT_number 2
_symmetry_cell_setting 'triclinic'
loop_
_space_group_symop_operation_xyz
x,y,z
-x,-y,-z
loop_
_atom_site_type_symbol
_atom_site_label
_atom_site_fract_x
_atom_site_fract_y
_atom_site_fract_z
Si Si1 0.369391 0.214034 0.553775
Si Si2 0.850677 0.720573 0.050311
Si Si3 0.488235 0.125070 0.805728
Si Si4 0.036253 0.367710 0.702653
Si Si5 0.775270 0.346505 0.166020
Si Si6 0.420887 0.503488 0.297320
Si Si7 0.744030 0.154606 0.371502
Si Si8 0.918843 0.001938 0.794560
O O1 0.257234 0.239881 0.771768
O O2 0.400414 0.137669 0.639216
O O3 0.535323 0.358166 0.582320
O O4 0.266122 0.126220 0.278520
O O5 0.852536 0.637046 0.170769
O O6 0.762121 0.627693 0.765421
O O7 0.029976 0.856704 0.084993
O O8 0.627132 0.122455 0.626886
O O9 0.352492 0.984870 0.848435
O O10 0.598533 0.258516 0.037596
O O11 0.141473 0.506608 0.661457
O O12 0.923841 0.235453 0.469754
O O13 0.904292 0.361009 0.928328
O O14 0.754605 0.258576 0.307917
O O15 0.500000 0.500000 0.500000
O O16 0.500000 0.500000 0.000000
O O17 0.000000 0.000000 0.500000
O O18 0.000000 0.000000 0.000000
#
# Coordination Sequence:
#
# PCOD9009950 Si02
#       8
#     2   2   2   2   2   2   2   2
#     4  10  21  40  61  91 128 165 205 257 321 389
#     4  10  21  40  61  91 128 165 205 257 321 389
#     4  10  21  40  63  87 126 159 206 264 313 379
#     4  10  21  40  63  87 126 159 206 264 313 379
#     4  10  21  40  63  90 118 160 214 261 317 368
#     4  10  21  40  61  86 130 171 210 256 309 383
#     4  10  21  40  63  90 118 160 214 261 317 368
#     4  10  21  40  61  86 130 171 210 256 309 383
#
# _framework density 26.613050000000001
#
# number of rings (size 3 to 8) (size 9 to 14) (size 15 to 20)
#    0.000    2.000    0.000    3.000    0.000    0.000 
#   27.000    0.000    0.000    0.000    0.000    0.000 
#    0.000    0.000    0.000    0.000    0.000    0.000 
#
# Total GULP energy -89557.652987 kJ/mol
# GULP energy per Si atom -5597.353312 kJ/mol
# Density = 2.655248 g / cm^3
# Si number density = 26.613050 Si / 1000 Ang^3
#
#
#
# Elastic Constant Matrix: (Units=GPa)
#
#
# Indices 1 2 3 4 5 6 
#
# 1 94.0266 38.0381 34.9208 11.0899 13.4567 19.2360
# 2 38.0381 191.8173 40.6826 25.9535 11.3176 14.7161
# 3 34.9208 40.6826 143.1819 27.0601 15.0996 2.5434
# 4 11.0899 25.9535 27.0601 54.0005 -4.6131 6.3137
# 5 13.4567 11.3176 15.0996 -4.6131 67.5474 -3.0848
# 6 19.2360 14.7161 2.5434 6.3137 -3.0848 59.0108
#
#
#
# Elastic Compliance Matrix: (Units=1/GPa)
#
#
# Indices 1 2 3 4 5 6 
#
# 1 0.013344 -0.001653 -0.002413 -0.000457 -0.002051 -0.003892
# 2 -0.001653 0.006108 -0.000841 -0.002145 -0.000687 -0.000755
# 3 -0.002413 -0.000841 0.008650 -0.003674 -0.001520 0.000937
# 4 -0.000457 -0.002145 -0.003674 0.021874 0.002704 -0.001357
# 5 -0.002051 -0.000687 -0.001520 0.002704 0.015919 0.001448
# 6 -0.003892 -0.000755 0.000937 -0.001357 0.001448 0.018583
#
#
# Mechanical properties :
#
#
# Convention : Reuss Voigt Hill
#
# Bulk Modulus (GPa) = 54.68228 72.92320 63.80274
# Shear Modulus (GPa) = 49.80711 57.13737 53.47224
#
# Velocity S-wave (km/s) = 4.33081 4.63857 4.48733
# Velocity P-wave (km/s) = 6.75275 7.49327 7.13263
#
# Compressibility (1/GPa) = 0.01828746
#
# Stress axis : x y z
#
# Youngs Moduli (GPa) = 74.94151 163.71580 115.61199
#
# Poissons Ratio (x) = 0.27061 0.27897
# Poissons Ratio (y) = 0.12387 0.09724
# Poissons Ratio (z) = 0.18083 0.13770
#
# Static dielectric constant tensor:
#      x y z
#    x 2.174970 0.179320 -0.155390 
#    y 0.179320 2.161460 -0.066310 
#    z -0.155390 -0.066310 2.259900 
# 
# From -- ./inp_files/78182.got.cif
#   From: 2010.05.17/outbox.cif.g08.bks.cpg/sg2_40_cif.got.tgz:78182.got - 2010.06.03 11:33:40.
