data_PCOD9009466
_publ_section_title
;
Structure prediction by ZEFSAII (Michael W. Deem and Ramdas Pophale) SiO2 
 PCOD9009466
Probable space group: P -1
;
_chemical_formula_sum "Si O2"
_cell_formula_units_Z 10
_cell_length_a 8.556440
_cell_length_b 5.531953
_cell_length_c 18.042407
_cell_angle_alpha 131.743312
_cell_angle_beta 34.838493
_cell_angle_gamma 116.839458
_cell_volume 354.866260
_symmetry_space_group_name_H-M "P -1"
_symmetry_group_IT_number 2
_symmetry_cell_setting 'triclinic'
loop_
_space_group_symop_operation_xyz
x,y,z
-x,-y,-z
loop_
_atom_site_type_symbol
_atom_site_label
_atom_site_fract_x
_atom_site_fract_y
_atom_site_fract_z
Si Si1 0.278309 0.176602 0.909536
Si Si2 0.173668 0.177868 0.575085
Si Si3 0.207312 0.279803 0.756258
Si Si4 0.707631 0.117176 0.998410
Si Si5 0.202808 0.271230 0.431231
O O1 0.466822 0.846458 0.733891
O O2 0.379231 0.479363 0.890520
O O3 0.943647 0.351270 0.076928
O O4 0.331633 0.100670 0.959631
O O5 0.136553 0.275706 0.694999
O O6 0.196332 0.421707 0.547229
O O7 0.463044 0.887688 0.399186
O O8 0.913897 0.052241 0.614129
O O9 0.023846 0.066718 0.831751
O O10 0.500000 0.000000 0.000000
O O11 0.000000 0.500000 0.500000
#
# Coordination Sequence:
#
# PCOD9009466 Si02
#       5
#     2   2   2   2   2
#     4  10  24  41  70  98 133 181 230 278 333 409
#     4  10  23  46  64 102 138 175 228 283 348 400
#     4   9  23  43  73  98 133 179 231 287 336 400
#     4  10  21  39  69 102 132 175 232 281 332 403
#     4  11  26  42  69  98 142 184 224 280 346 411
#
# _framework density 28.179631000000001
#
# number of rings (size 3 to 8) (size 9 to 14) (size 15 to 20)
#    1.200    0.800    0.000    1.800    8.400    4.000 
#    0.000    6.000    0.000    0.000    0.000    0.000 
#    0.000    0.000    0.000    0.000    0.000    0.000 
#
# Total GULP energy -55695.519955 kJ/mol
# GULP energy per Si atom -5569.551995 kJ/mol
# Density = 2.811549 g / cm^3
# Si number density = 28.179631 Si / 1000 Ang^3
#
#
#
# Elastic Constant Matrix: (Units=GPa)
#
#
# Indices 1 2 3 4 5 6 
#
# 1 130.6259 43.1560 33.2433 -7.5395 -1.4373 -60.2417
# 2 43.1560 101.5814 44.9392 5.2874 9.0263 -64.9817
# 3 33.2433 44.9392 163.4056 17.5207 10.8954 -13.5726
# 4 -7.5395 5.2874 17.5207 46.1084 -10.3774 -1.5680
# 5 -1.4373 9.0263 10.8954 -10.3774 47.5870 -18.1259
# 6 -60.2417 -64.9817 -13.5726 -1.5680 -18.1259 71.4115
#
#
#
# Elastic Compliance Matrix: (Units=1/GPa)
#
#
# Indices 1 2 3 4 5 6 
#
# 1 0.019731 0.012017 -0.006599 0.008293 0.012988 0.029805
# 2 0.012017 0.036858 -0.010470 0.006535 0.014532 0.045518
# 3 -0.006599 -0.010470 0.010232 -0.006010 -0.007667 -0.015227
# 4 0.008293 0.006535 -0.006010 0.027897 0.012397 0.015559
# 5 0.012988 0.014532 -0.007667 0.012397 0.035279 0.031950
# 6 0.029805 0.045518 -0.015227 0.015559 0.031950 0.086123
#
#
# Mechanical properties :
#
#
# Convention : Reuss Voigt Hill
#
# Bulk Modulus (GPa) = 17.63115 70.92109 44.27612
# Shear Modulus (GPa) = 20.39727 51.30635 35.85181
#
# Velocity S-wave (km/s) = 2.69333 4.27158 3.57074
# Velocity P-wave (km/s) = 3.99278 7.03923 5.72246
#
# Compressibility (1/GPa) = 0.05671780
#
# Stress axis : x y z
#
# Youngs Moduli (GPa) = 50.68061 27.13131 97.72856
#
# Poissons Ratio (x) = -0.32603 0.64487
# Poissons Ratio (y) = -0.60902 1.02323
# Poissons Ratio (z) = 0.33442 0.28407
#
# Static dielectric constant tensor:
#      x y z
#    x 2.130000 0.066470 0.027810 
#    y 0.066470 1.535240 0.369770 
#    z 0.027810 0.369770 1.979980 
# 
# From -- ./inp_files/60250.got.cif
#   From: 2010.05.17/outbox.cif.g08.bks.cpg/sg2_31_cif.got.tgz:60250.got - 2010.06.03 11:33:40.
