data_PCOD9009168
_publ_section_title
;
Structure prediction by ZEFSAII (Michael W. Deem and Ramdas Pophale) SiO2 
 PCOD9009168
Probable space group: P -1
;
_chemical_formula_sum "Si O2"
_cell_formula_units_Z 16
_cell_length_a 16.183896
_cell_length_b 7.570597
_cell_length_c 23.595510
_cell_angle_alpha 45.843687
_cell_angle_beta 20.517489
_cell_angle_gamma 45.160959
_cell_volume 710.820103
_symmetry_space_group_name_H-M "P -1"
_symmetry_group_IT_number 2
_symmetry_cell_setting 'triclinic'
loop_
_space_group_symop_operation_xyz
x,y,z
-x,-y,-z
loop_
_atom_site_type_symbol
_atom_site_label
_atom_site_fract_x
_atom_site_fract_y
_atom_site_fract_z
Si Si1 0.829284 0.431338 0.859178
Si Si2 0.682189 0.212725 0.885697
Si Si3 0.913609 0.292023 0.001245
Si Si4 0.254299 0.725818 0.539220
Si Si5 0.533918 0.756192 0.146493
Si Si6 0.924599 0.878010 0.945125
Si Si7 0.039880 0.781907 0.410717
Si Si8 0.740656 0.357183 0.317028
O O1 0.803221 0.334530 0.833024
O O2 0.028291 0.597139 0.701069
O O3 0.885788 0.174626 0.916140
O O4 0.571488 0.597970 0.003838
O O5 0.841821 0.181164 0.734488
O O6 0.622760 0.947715 0.002719
O O7 0.092507 0.443203 0.822759
O O8 0.649197 0.464370 0.123457
O O9 0.966577 0.290509 0.034767
O O10 0.000000 0.000000 0.000000
O O11 0.491185 0.518970 0.417664
O O12 0.288681 0.766846 0.575742
O O13 0.195490 0.993859 0.485432
O O14 0.246748 0.807046 0.317643
O O15 0.669386 0.821363 0.101306
O O16 0.112389 0.822292 0.784544
O O17 0.000000 0.500000 0.500000
#
# Coordination Sequence:
#
# PCOD9009168 Si02
#       8
#     2   2   2   2   2   2   2   2
#     4  10  21  39  67  94 115 166 218 259 305 375
#     4  10  22  41  66  91 125 162 218 257 307 384
#     4  11  23  39  66  95 123 165 214 261 311 375
#     4  11  23  42  64  91 129 167 212 255 320 375
#     4  10  21  41  66  90 123 172 210 258 310 371
#     4  10  22  40  66  96 125 159 215 262 313 372
#     4  12  26  41  62  96 132 166 204 267 324 374
#     4  10  23  41  63  91 128 169 206 260 310 379
#
# _framework density 22.509211000000001
#
# number of rings (size 3 to 8) (size 9 to 14) (size 15 to 20)
#    0.000    1.500    1.250    4.875    7.000    0.500 
#    4.500    1.875    0.000    0.000    0.000    0.000 
#    0.000    0.000    0.000    0.000    0.000    0.000 
#
# Total GULP energy -89432.883840 kJ/mol
# GULP energy per Si atom -5589.555240 kJ/mol
# Density = 2.245798 g / cm^3
# Si number density = 22.509211 Si / 1000 Ang^3
#
#
#
# Elastic Constant Matrix: (Units=GPa)
#
#
# Indices 1 2 3 4 5 6 
#
# 1 66.4367 26.8816 5.0642 9.6563 -8.4352 -7.6870
# 2 26.8816 171.4193 18.1642 7.3629 -17.3312 -20.0486
# 3 5.0642 18.1642 34.4207 12.6650 -17.3057 -11.6969
# 4 9.6563 7.3629 12.6650 39.5659 -4.5390 -5.5365
# 5 -8.4352 -17.3312 -17.3057 -4.5390 20.6361 6.9947
# 6 -7.6870 -20.0486 -11.6969 -5.5365 6.9947 39.0220
#
#
#
# Elastic Compliance Matrix: (Units=1/GPa)
#
#
# Indices 1 2 3 4 5 6 
#
# 1 0.017308 -0.002036 0.004483 -0.004162 0.007616 0.001752
# 2 -0.002036 0.006852 -0.000890 0.000220 0.003458 0.002264
# 3 0.004483 -0.000890 0.059296 -0.013595 0.045043 0.008198
# 4 -0.004162 0.000220 -0.013595 0.029939 -0.006549 0.000640
# 5 0.007616 0.003458 0.045043 -0.006549 0.090964 -0.000456
# 6 0.001752 0.002264 0.008198 0.000640 -0.000456 0.029765
#
#
# Mechanical properties :
#
#
# Convention : Reuss Voigt Hill
#
# Bulk Modulus (GPa) = 11.55092 41.38853 26.46972
# Shear Modulus (GPa) = 19.24070 34.65590 26.94830
#
# Velocity S-wave (km/s) = 2.92685 3.92807 3.46383
# Velocity P-wave (km/s) = 4.06998 6.24502 5.27091
#
# Compressibility (1/GPa) = 0.08657321
#
# Stress axis : x y z
#
# Youngs Moduli (GPa) = 57.77546 145.94105 16.86441
#
# Poissons Ratio (x) = 0.29709 -0.07561
# Poissons Ratio (y) = 0.11761 0.01500
# Poissons Ratio (z) = -0.25903 0.12983
#
# Static dielectric constant tensor:
#      x y z
#    x 1.919600 0.013980 -0.000760 
#    y 0.013980 1.854740 0.014360 
#    z -0.000760 0.014360 1.797310 
# 
# From -- ./inp_files/620239.got.cif
#   From: 2010.05.17/outbox.cif.g08.bks.cpg/sg2_311_cif.got.tgz:620239.got - 2010.06.03 11:33:40.
