data_PCOD9009116
_publ_section_title
;
Structure prediction by ZEFSAII (Michael W. Deem and Ramdas Pophale) SiO2 
 PCOD9009116
Probable space group: P -1
;
_chemical_formula_sum "Si O2"
_cell_formula_units_Z 12
_cell_length_a 22.655633
_cell_length_b 15.088702
_cell_length_c 5.580533
_cell_angle_alpha 115.719003
_cell_angle_beta 76.341389
_cell_angle_gamma 158.992503
_cell_volume 525.076808
_symmetry_space_group_name_H-M "P -1"
_symmetry_group_IT_number 2
_symmetry_cell_setting 'triclinic'
loop_
_space_group_symop_operation_xyz
x,y,z
-x,-y,-z
loop_
_atom_site_type_symbol
_atom_site_label
_atom_site_fract_x
_atom_site_fract_y
_atom_site_fract_z
Si Si1 0.460447 0.601480 0.673901
Si Si2 0.927052 0.934230 0.743562
Si Si3 0.119097 0.508481 0.713994
Si Si4 0.087159 0.400495 0.112879
Si Si5 0.672767 0.784884 0.352969
Si Si6 0.153634 0.772387 0.865751
O O1 0.304717 0.428292 0.489724
O O2 0.605256 0.778542 0.547432
O O3 0.342746 0.332732 0.595360
O O4 0.623491 0.888047 0.038624
O O5 0.000000 0.000000 0.500000
O O6 0.000000 0.000000 0.000000
O O7 0.996183 0.153651 0.946199
O O8 0.199487 0.602645 0.485631
O O9 0.146413 0.666638 0.925031
O O10 0.191328 0.562787 0.944123
O O11 0.889485 0.129521 0.455435
O O12 0.924911 0.237051 0.033279
O O13 0.500000 0.500000 0.000000
O O14 0.000000 0.500000 0.500000
#
# Coordination Sequence:
#
# PCOD9009116 Si02
#       6
#     2   2   2   2   2   2
#     4  11  22  40  62  98 134 167 220 281 329 397
#     4  12  27  46  66  92 129 185 241 277 316 369
#     4  11  21  37  65 100 138 163 196 254 359 416
#     4  11  21  41  64  96 128 171 210 276 325 398
#     4  11  21  34  65 101 131 164 205 277 360 400
#     4  10  21  39  67 107 137 168 204 265 365 417
#
# _framework density 22.853801000000001
#
# number of rings (size 3 to 8) (size 9 to 14) (size 15 to 20)
#    0.000    1.000    3.333    5.500    2.333    0.000 
#    0.000    0.000    0.000   14.000    0.000    0.000 
#    0.000    0.000    0.000    0.000    0.000    0.000 
#
# Total GULP energy -66877.504282 kJ/mol
# GULP energy per Si atom -5573.125357 kJ/mol
# Density = 2.280178 g / cm^3
# Si number density = 22.853801 Si / 1000 Ang^3
#
#
#
# Elastic Constant Matrix: (Units=GPa)
#
#
# Indices 1 2 3 4 5 6 
#
# 1 125.5414 27.0634 54.3999 -0.1673 1.4805 -26.1375
# 2 27.0634 46.1450 25.2900 -3.3971 6.7775 -11.2577
# 3 54.3999 25.2900 102.5824 -16.5498 11.5338 -1.9746
# 4 -0.1673 -3.3971 -16.5498 42.8073 -12.0373 1.3969
# 5 1.4805 6.7775 11.5338 -12.0373 52.6577 3.8627
# 6 -26.1375 -11.2577 -1.9746 1.3969 3.8627 38.5256
#
#
#
# Elastic Compliance Matrix: (Units=1/GPa)
#
#
# Indices 1 2 3 4 5 6 
#
# 1 0.012977 -0.002273 -0.006657 -0.002922 0.000139 0.007891
# 2 -0.002273 0.027959 -0.005366 -0.000946 -0.003066 0.006694
# 3 -0.006657 -0.005366 0.015476 0.005464 -0.000867 -0.005402
# 4 -0.002922 -0.000946 0.005464 0.027032 0.005443 -0.003504
# 5 0.000139 -0.003066 -0.000867 0.005443 0.021047 -0.003154
# 6 0.007891 0.006694 -0.005402 -0.003504 -0.003154 0.033433
#
#
# Mechanical properties :
#
#
# Convention : Reuss Voigt Hill
#
# Bulk Modulus (GPa) = 35.94483 54.19727 45.07105
# Shear Modulus (GPa) = 28.44310 37.96583 33.20447
#
# Velocity S-wave (km/s) = 3.53167 4.08026 3.81584
# Velocity P-wave (km/s) = 5.69145 6.77970 6.25927
#
# Compressibility (1/GPa) = 0.02782041
#
# Stress axis : x y z
#
# Youngs Moduli (GPa) = 77.05718 35.76662 64.61517
#
# Poissons Ratio (x) = 0.08131 0.43012
# Poissons Ratio (y) = 0.17517 0.34674
# Poissons Ratio (z) = 0.51294 0.19193
#
# Static dielectric constant tensor:
#      x y z
#    x 1.922740 -0.057540 -0.247740 
#    y -0.057540 1.959070 0.070220 
#    z -0.247740 0.070220 4.238540 
# 
# From -- ./inp_files/119511.got.cif
#   From: 2010.05.17/outbox.cif.g08.bks.cpg/sg2_60_cif.got.tgz:119511.got - 2010.06.03 11:33:40.
