data_PCOD9009223
_publ_section_title
;
Structure prediction by ZEFSAII (Michael W. Deem and Ramdas Pophale) SiO2 
 PCOD9009223
Probable space group: P -1
;
_chemical_formula_sum "Si O2"
_cell_formula_units_Z 16
_cell_length_a 8.327544
_cell_length_b 11.593888
_cell_length_c 14.364711
_cell_angle_alpha 106.455806
_cell_angle_beta 60.213274
_cell_angle_gamma 59.164860
_cell_volume 715.269264
_symmetry_space_group_name_H-M "P -1"
_symmetry_group_IT_number 2
_symmetry_cell_setting 'triclinic'
loop_
_space_group_symop_operation_xyz
x,y,z
-x,-y,-z
loop_
_atom_site_type_symbol
_atom_site_label
_atom_site_fract_x
_atom_site_fract_y
_atom_site_fract_z
Si Si1 0.312499 0.386701 0.843940
Si Si2 0.629738 0.302221 0.426157
Si Si3 0.094358 0.983233 0.867105
Si Si4 0.885407 0.988687 0.623939
Si Si5 0.749342 0.781622 0.329687
Si Si6 0.985259 0.521293 0.364719
Si Si7 0.755282 0.354840 0.969543
Si Si8 0.278524 0.201720 0.337538
O O1 0.360678 0.280871 0.712279
O O2 0.596917 0.212360 0.786578
O O3 0.291004 0.541585 0.899112
O O4 0.000000 0.500000 0.000000
O O5 0.500000 0.500000 0.500000
O O6 0.347481 0.359722 0.523644
O O7 0.840771 0.163398 0.419610
O O8 0.814892 0.179955 0.252912
O O9 0.818504 0.188051 0.943850
O O10 0.389024 0.918060 0.768853
O O11 0.000000 0.000000 0.000000
O O12 0.749266 0.922794 0.653542
O O13 0.000000 0.000000 0.500000
O O14 0.993364 0.604426 0.292547
O O15 0.940573 0.759492 0.196064
O O16 0.500000 0.000000 0.500000
O O17 0.971724 0.613541 0.479646
O O18 0.188349 0.303198 0.285069
O O19 0.500000 0.500000 0.000000
#
# Coordination Sequence:
#
# PCOD9009223 Si02
#       8
#     2   2   2   2   2   2   2   2
#     4  10  23  43  66  97 140 183 225 287 352 415
#     4  11  23  44  66 104 141 172 232 302 351 419
#     4  11  26  45  68  95 142 192 233 279 357 430
#     4  12  24  42  74 107 138 182 238 297 357 417
#     4  11  22  41  70 100 132 179 235 286 351 420
#     4  10  21  39  67  96 137 180 223 285 360 414
#     4  11  25  45  66  97 141 176 232 294 344 420
#     4  10  22  42  64  98 141 179 227 286 347 425
#
# _framework density 22.369198999999998
#
# number of rings (size 3 to 8) (size 9 to 14) (size 15 to 20)
#    0.000    1.250    1.250    5.250    1.750    5.000 
#    0.000    1.250    0.000    0.000    0.000    0.000 
#    0.000    0.000    0.000    0.000    0.000    0.000 
#
# Total GULP energy -89129.644065 kJ/mol
# GULP energy per Si atom -5570.602754 kJ/mol
# Density = 2.231829 g / cm^3
# Si number density = 22.369199 Si / 1000 Ang^3
#
#
#
# Elastic Constant Matrix: (Units=GPa)
#
#
# Indices 1 2 3 4 5 6 
#
# 1 59.0111 23.3543 43.4615 6.5851 9.8018 -9.9963
# 2 23.3543 168.7548 65.0600 2.3213 11.6364 -19.9145
# 3 43.4615 65.0600 104.5568 17.0836 18.1877 3.1451
# 4 6.5851 2.3213 17.0836 37.5405 -0.6007 -2.9292
# 5 9.8018 11.6364 18.1877 -0.6007 40.4646 10.1243
# 6 -9.9963 -19.9145 3.1451 -2.9292 10.1243 42.4714
#
#
#
# Elastic Compliance Matrix: (Units=1/GPa)
#
#
# Indices 1 2 3 4 5 6 
#
# 1 0.027575 0.002561 -0.012905 0.001571 -0.004023 0.009714
# 2 0.002561 0.009051 -0.007044 0.002634 -0.001496 0.005907
# 3 -0.012905 -0.007044 0.021235 -0.007616 -0.002546 -0.007831
# 4 0.001571 0.002634 -0.007616 0.029991 0.001776 0.003814
# 5 -0.004023 -0.001496 -0.002546 0.001776 0.029375 -0.008339
# 6 0.009714 0.005907 -0.007831 0.003814 -0.008339 0.031432
#
#
# Mechanical properties :
#
#
# Convention : Reuss Voigt Hill
#
# Bulk Modulus (GPa) = 43.31924 66.23047 54.77485
# Shear Modulus (GPa) = 26.16003 37.45843 31.80923
#
# Velocity S-wave (km/s) = 3.42346 4.09657 3.77505
# Velocity P-wave (km/s) = 5.91898 7.21443 6.59857
#
# Compressibility (1/GPa) = 0.02308443
#
# Stress axis : x y z
#
# Youngs Moduli (GPa) = 36.26413 110.48383 47.09249
#
# Poissons Ratio (x) = -0.28298 0.60774
# Poissons Ratio (y) = -0.09288 0.33174
# Poissons Ratio (z) = 0.46800 0.77830
#
# Static dielectric constant tensor:
#      x y z
#    x 1.932600 0.021700 0.032350 
#    y 0.021700 1.919900 0.003210 
#    z 0.032350 0.003210 1.831000 
# 
# From -- ./inp_files/500544.got.cif
#   From: 2010.05.17/outbox.cif.g08.bks.cpg/sg2_251_cif.got.tgz:500544.got - 2010.06.03 11:33:40.
