data_PCOD9009243
_publ_section_title
;
Structure prediction by ZEFSAII (Michael W. Deem and Ramdas Pophale) SiO2 
 PCOD9009243
Probable space group: P -1
;
_chemical_formula_sum "Si O2"
_cell_formula_units_Z 14
_cell_length_a 8.629362
_cell_length_b 14.483351
_cell_length_c 5.494045
_cell_angle_alpha 92.493262
_cell_angle_beta 65.775233
_cell_angle_gamma 68.783838
_cell_volume 568.668903
_symmetry_space_group_name_H-M "P -1"
_symmetry_group_IT_number 2
_symmetry_cell_setting 'triclinic'
loop_
_space_group_symop_operation_xyz
x,y,z
-x,-y,-z
loop_
_atom_site_type_symbol
_atom_site_label
_atom_site_fract_x
_atom_site_fract_y
_atom_site_fract_z
Si Si1 0.770725 0.637504 0.997463
Si Si2 0.489515 0.216398 0.477341
Si Si3 0.195351 0.554932 0.743581
Si Si4 0.497666 0.402994 0.226638
Si Si5 0.409369 0.057263 0.311883
Si Si6 0.004696 0.889347 0.260358
Si Si7 0.102227 0.882755 0.684203
O O1 0.661386 0.745850 0.208501
O O2 0.806811 0.549090 0.163949
O O3 0.622010 0.622302 0.909354
O O4 0.983614 0.620459 0.792677
O O5 0.525648 0.312374 0.385472
O O6 0.417499 0.166528 0.308319
O O7 0.690013 0.130315 0.400209
O O8 0.350168 0.514453 0.425318
O O9 0.297389 0.594397 0.891249
O O10 0.195458 0.082360 0.493241
O O11 0.500000 0.000000 0.500000
O O12 0.500000 0.000000 0.000000
O O13 0.127800 0.827943 0.400599
O O14 0.027730 0.995942 0.234505
O O15 0.035531 0.844969 0.964815
#
# Coordination Sequence:
#
# PCOD9009243 Si02
#       7
#     2   2   2   2   2   2   2
#     4  10  21  40  67  96 136 175 222 280 344 422
#     4  11  26  40  60  99 130 172 232 289 346 410
#     4   9  20  41  66 100 131 176 223 266 350 432
#     4  10  21  39  67  97 137 174 219 284 344 415
#     4  12  26  44  69  94 135 185 232 291 356 417
#     4  10  22  41  65  90 119 177 227 280 342 414
#     4  10  22  40  65  90 126 166 228 282 343 402
#
# _framework density 24.618898000000002
#
# number of rings (size 3 to 8) (size 9 to 14) (size 15 to 20)
#    0.000    1.714    1.429    1.714    8.000    1.143 
#    2.571    0.000    0.000    0.000    0.000    0.000 
#    0.000    0.000    0.000    0.000    0.000    0.000 
#
# Total GULP energy -77965.809679 kJ/mol
# GULP energy per Si atom -5568.986406 kJ/mol
# Density = 2.456286 g / cm^3
# Si number density = 24.618898 Si / 1000 Ang^3
#
#
#
# Elastic Constant Matrix: (Units=GPa)
#
#
# Indices 1 2 3 4 5 6 
#
# 1 110.8203 6.5879 47.4938 14.7897 -7.4891 9.7262
# 2 6.5879 43.6625 21.8445 9.3259 -0.8643 13.9314
# 3 47.4938 21.8445 118.0613 7.8970 17.6626 0.1715
# 4 14.7897 9.3259 7.8970 32.9476 -2.4977 3.1936
# 5 -7.4891 -0.8643 17.6626 -2.4977 43.1099 -0.4478
# 6 9.7262 13.9314 0.1715 3.1936 -0.4478 28.5200
#
#
#
# Elastic Compliance Matrix: (Units=1/GPa)
#
#
# Indices 1 2 3 4 5 6 
#
# 1 0.012921 0.004136 -0.006340 -0.004540 0.004602 -0.005808
# 2 0.004136 0.033222 -0.007889 -0.007447 0.004012 -0.016695
# 3 -0.006340 -0.007889 0.013413 0.000803 -0.006649 0.005740
# 4 -0.004540 -0.007447 0.000803 0.034228 0.000730 0.001360
# 5 0.004602 0.004012 -0.006649 0.000730 0.026810 -0.003150
# 6 -0.005808 -0.016695 0.005740 0.001360 -0.003150 0.044963
#
#
# Mechanical properties :
#
#
# Convention : Reuss Voigt Hill
#
# Bulk Modulus (GPa) = 25.39884 47.15518 36.27701
# Shear Modulus (GPa) = 25.14266 34.02337 29.58301
#
# Velocity S-wave (km/s) = 3.19921 3.72156 3.47023
# Velocity P-wave (km/s) = 4.89753 6.13696 5.55194
#
# Compressibility (1/GPa) = 0.03937187
#
# Stress axis : x y z
#
# Youngs Moduli (GPa) = 77.39195 30.10014 74.55626
#
# Poissons Ratio (x) = -0.12450 0.47266
# Poissons Ratio (y) = -0.32010 0.58815
# Poissons Ratio (z) = 0.49063 0.23745
#
# Static dielectric constant tensor:
#      x y z
#    x 1.986730 -0.041450 0.062880 
#    y -0.041450 1.993650 -0.037730 
#    z 0.062880 -0.037730 2.072250 
# 
# From -- ./inp_files/38331.got.cif
#   From: 2010.05.17/outbox.cif.g08.bks.cpg/sg2_20_cif.got.tgz:38331.got - 2010.06.03 11:33:40.
