data_PCOD9009366
_publ_section_title
;
Structure prediction by ZEFSAII (Michael W. Deem and Ramdas Pophale) SiO2 
 PCOD9009366
Probable space group: P -1
;
_chemical_formula_sum "Si O2"
_cell_formula_units_Z 15
_cell_length_a 8.595345
_cell_length_b 8.170235
_cell_length_c 11.961747
_cell_angle_alpha 60.191215
_cell_angle_beta 92.434808
_cell_angle_gamma 112.642572
_cell_volume 660.972362
_symmetry_space_group_name_H-M "P -1"
_symmetry_group_IT_number 2
_symmetry_cell_setting 'triclinic'
loop_
_space_group_symop_operation_xyz
x,y,z
-x,-y,-z
loop_
_atom_site_type_symbol
_atom_site_label
_atom_site_fract_x
_atom_site_fract_y
_atom_site_fract_z
Si Si1 0.166802 0.592566 0.893221
Si Si2 0.325318 0.444625 0.280415
Si Si3 0.191772 0.173450 0.963533
Si Si4 0.104242 0.987729 0.396737
Si Si5 0.523975 0.189880 0.016039
Si Si6 0.500000 0.500000 0.500000
Si Si7 0.954432 0.404661 0.350617
Si Si8 0.164954 0.240001 0.700569
O O1 0.196821 0.390526 0.929761
O O2 0.126926 0.674232 0.747168
O O3 0.334635 0.763009 0.899709
O O4 0.000000 0.500000 0.000000
O O5 0.400436 0.598968 0.126650
O O6 0.459222 0.490258 0.368155
O O7 0.156643 0.470178 0.313779
O O8 0.265486 0.206217 0.322336
O O9 0.327096 0.136077 0.058726
O O10 0.245783 0.187289 0.830296
O O11 0.000000 0.000000 0.000000
O O12 0.124212 0.776263 0.497444
O O13 0.991516 0.952932 0.294087
O O14 0.000000 0.000000 0.500000
O O15 0.500000 0.000000 0.000000
O O16 0.300758 0.337467 0.573978
O O17 0.910233 0.594916 0.319743
#
# Coordination Sequence:
#
# PCOD9009366 Si02
#       8
#     2   2   2   2   2   1   2   2
#     4  11  23  43  71  95 140 182 229 291 342 415
#     4  11  24  42  69  96 136 174 229 281 345 406
#     4  11  26  44  68 102 138 185 234 282 356 411
#     4  10  21  39  68  94 127 177 220 268 340 405
#     4  12  26  44  68 102 137 182 239 291 344 415
#     4  12  22  42  68  96 138 178 220 284 338 392
#     4  10  22  42  68 100 132 179 228 269 346 416
#     4  11  23  41  71  98 136 177 227 282 338 416
#
# _framework density 22.693838
#
# number of rings (size 3 to 8) (size 9 to 14) (size 15 to 20)
#    0.000    1.067    5.333    1.600    3.733    3.200 
#    0.000    0.667    0.000    0.000    0.000    0.000 
#    0.000    0.000    0.000    0.000    0.000    0.000 
#
# Total GULP energy -83580.194071 kJ/mol
# GULP energy per Si atom -5572.012938 kJ/mol
# Density = 2.264219 g / cm^3
# Si number density = 22.693838 Si / 1000 Ang^3
#
#
#
# Elastic Constant Matrix: (Units=GPa)
#
#
# Indices 1 2 3 4 5 6 
#
# 1 49.4955 26.7011 -2.3339 -5.3367 2.7975 28.8385
# 2 26.7011 123.2959 15.7823 15.6858 17.3303 31.6654
# 3 -2.3339 15.7823 48.4814 22.1358 -8.5954 20.2923
# 4 -5.3367 15.6858 22.1358 36.7190 13.0465 8.3196
# 5 2.7975 17.3303 -8.5954 13.0465 36.7443 1.1779
# 6 28.8385 31.6654 20.2923 8.3196 1.1779 44.2392
#
#
#
# Elastic Compliance Matrix: (Units=1/GPa)
#
#
# Indices 1 2 3 4 5 6 
#
# 1 0.042665 -0.003445 0.014124 0.006493 0.000435 -0.033058
# 2 -0.003445 0.011100 -0.002418 -0.001029 -0.005036 -0.004263
# 3 0.014124 -0.002418 0.050667 -0.029937 0.023371 -0.025710
# 4 0.006493 -0.001029 -0.029937 0.056156 -0.026963 0.000393
# 5 0.000435 -0.005036 0.023371 -0.026963 0.044711 -0.003518
# 6 -0.033058 -0.004263 -0.025710 0.000393 -0.003518 0.059018
#
#
# Mechanical properties :
#
#
# Convention : Reuss Voigt Hill
#
# Bulk Modulus (GPa) = 8.26750 33.50797 20.88774
# Shear Modulus (GPa) = 17.35444 35.61539 26.48492
#
# Velocity S-wave (km/s) = 2.76836 3.96585 3.41992
# Velocity P-wave (km/s) = 3.72416 5.98062 4.98183
#
# Compressibility (1/GPa) = 0.12095551
#
# Stress axis : x y z
#
# Youngs Moduli (GPa) = 23.43836 90.09300 19.73679
#
# Poissons Ratio (x) = 0.31033 -0.27877
# Poissons Ratio (y) = 0.08074 0.04772
# Poissons Ratio (z) = -0.33105 0.21783
#
# Static dielectric constant tensor:
#      x y z
#    x 1.952030 -0.027150 0.016280 
#    y -0.027150 1.833680 -0.039960 
#    z 0.016280 -0.039960 1.879710 
# 
# From -- ./inp_files/378034.got.cif
#   From: 2010.05.17/outbox.cif.g08.bks.cpg/sg2_190_cif.got.tgz:378034.got - 2010.06.03 11:33:40.
