data_PCOD9009949
_publ_section_title
;
Structure prediction by ZEFSAII (Michael W. Deem and Ramdas Pophale) SiO2 
 PCOD9009949
Probable space group: P -1
;
_chemical_formula_sum "Si O2"
_cell_formula_units_Z 16
_cell_length_a 12.733532
_cell_length_b 5.250185
_cell_length_c 23.013279
_cell_angle_alpha 51.207072
_cell_angle_beta 146.336439
_cell_angle_gamma 125.172319
_cell_volume 659.375527
_symmetry_space_group_name_H-M "P -1"
_symmetry_group_IT_number 2
_symmetry_cell_setting 'triclinic'
loop_
_space_group_symop_operation_xyz
x,y,z
-x,-y,-z
loop_
_atom_site_type_symbol
_atom_site_label
_atom_site_fract_x
_atom_site_fract_y
_atom_site_fract_z
Si Si1 0.357512 0.483203 0.014789
Si Si2 0.645014 0.493010 0.467825
Si Si3 0.767481 0.795174 0.661218
Si Si4 0.756280 0.719718 0.889514
Si Si5 0.837077 0.445356 0.851349
Si Si6 0.763606 0.818991 0.112842
Si Si7 0.001927 0.291991 0.328220
Si Si8 0.873795 0.769925 0.428138
O O1 0.236924 0.230711 0.950711
O O2 0.260178 0.815458 0.930962
O O3 0.380839 0.346764 0.109401
O O4 0.566408 0.598150 0.070713
O O5 0.426952 0.466699 0.391645
O O6 0.796770 0.719036 0.544769
O O7 0.695621 0.600977 0.408998
O O8 0.702726 0.132628 0.559918
O O9 0.833626 0.757704 0.763384
O O10 0.938175 0.730698 0.707237
O O11 0.712812 0.515916 0.840165
O O12 0.778115 0.111700 0.835979
O O13 0.955993 0.613560 0.020599
O O14 0.920108 0.639003 0.244134
O O15 0.852453 0.009293 0.329074
O O16 0.000000 0.500000 0.500000
O O17 0.000000 0.000000 0.500000
#
# Coordination Sequence:
#
# PCOD9009949 Si02
#       8
#     2   2   2   2   2   2   2   2
#     4  10  21  42  60  93 132 165 206 279 319 382
#     4  10  24  42  63  95 133 170 222 273 325 383
#     4  11  23  41  65  95 131 173 220 275 324 384
#     4  10  21  40  61  86 130 159 210 257 320 383
#     4  10  23  37  60  93 117 169 206 257 315 385
#     4  10  23  36  66  96 124 166 221 259 326 385
#     4  11  23  39  69  93 128 176 220 267 326 399
#     4  10  21  42  63  90 126 167 210 269 322 379
#
# _framework density 24.265383
#
# number of rings (size 3 to 8) (size 9 to 14) (size 15 to 20)
#    0.000    1.750    1.250    1.875    5.250    2.000 
#    0.000    2.500    0.000    0.000    0.000    0.000 
#    0.000    0.000    0.000    0.000    0.000    0.000 
#
# Total GULP energy -89346.938541 kJ/mol
# GULP energy per Si atom -5584.183659 kJ/mol
# Density = 2.421015 g / cm^3
# Si number density = 24.265383 Si / 1000 Ang^3
#
#
#
# Elastic Constant Matrix: (Units=GPa)
#
#
# Indices 1 2 3 4 5 6 
#
# 1 142.4451 32.5005 27.1550 -8.4367 -31.9550 7.4042
# 2 32.5005 64.1915 26.9991 -7.3202 -1.8439 5.3059
# 3 27.1550 26.9991 84.9111 -14.4749 -12.3946 6.3054
# 4 -8.4367 -7.3202 -14.4749 31.3036 2.0586 -12.9247
# 5 -31.9550 -1.8439 -12.3946 2.0586 19.6748 -12.8533
# 6 7.4042 5.3059 6.3054 -12.9247 -12.8533 40.5214
#
#
#
# Elastic Compliance Matrix: (Units=1/GPa)
#
#
# Indices 1 2 3 4 5 6 
#
# 1 0.015136 -0.007966 0.002388 0.005150 0.030913 0.009354
# 2 -0.007966 0.022496 -0.007322 -0.001984 -0.020027 -0.007336
# 3 0.002388 -0.007322 0.016692 0.007920 0.016618 0.005722
# 4 0.005150 -0.001984 0.007920 0.042710 0.020621 0.018250
# 5 0.030913 -0.020027 0.016618 0.020621 0.136355 0.044217
# 6 0.009354 -0.007336 0.005722 0.018250 0.044217 0.042886
#
#
# Mechanical properties :
#
#
# Convention : Reuss Voigt Hill
#
# Bulk Modulus (GPa) = 35.05778 51.65075 43.35427
# Shear Modulus (GPa) = 16.04701 31.95952 24.00326
#
# Velocity S-wave (km/s) = 2.57439 3.63310 3.14856
# Velocity P-wave (km/s) = 4.82863 6.23949 5.57884
#
# Compressibility (1/GPa) = 0.02852434
#
# Stress axis : x y z
#
# Youngs Moduli (GPa) = 66.06694 44.45189 59.90717
#
# Poissons Ratio (x) = 0.35410 -0.14306
# Poissons Ratio (y) = 0.52628 0.43867
# Poissons Ratio (z) = -0.15777 0.32550
#
# Static dielectric constant tensor:
#      x y z
#    x 1.969350 0.049510 -0.025200 
#    y 0.049510 2.005960 0.054850 
#    z -0.025200 0.054850 1.916660 
# 
# From -- ./inp_files/126669.got.cif
#   From: 2010.05.17/outbox.cif.g08.bks.cpg/sg2_64_cif.got.tgz:126669.got - 2010.06.03 11:33:40.
