data_PCOD9009851
_publ_section_title
;
Structure prediction by ZEFSAII (Michael W. Deem and Ramdas Pophale) SiO2 
 PCOD9009851
Probable space group: P -1
;
_chemical_formula_sum "Si O2"
_cell_formula_units_Z 10
_cell_length_a 15.184096
_cell_length_b 5.295587
_cell_length_c 5.220944
_cell_angle_alpha 84.439322
_cell_angle_beta 71.916554
_cell_angle_gamma 80.647114
_cell_volume 393.284567
_symmetry_space_group_name_H-M "P -1"
_symmetry_group_IT_number 2
_symmetry_cell_setting 'triclinic'
loop_
_space_group_symop_operation_xyz
x,y,z
-x,-y,-z
loop_
_atom_site_type_symbol
_atom_site_label
_atom_site_fract_x
_atom_site_fract_y
_atom_site_fract_z
Si Si1 0.417084 0.730201 0.014514
Si Si2 0.638456 0.989925 0.468563
Si Si3 0.267961 0.568579 0.484741
Si Si4 0.890326 0.534637 0.028589
Si Si5 0.065743 0.966281 0.196802
O O1 0.585494 0.062843 0.775253
O O2 0.416062 0.868286 0.731993
O O3 0.500000 0.500000 0.000000
O O4 0.319762 0.610588 0.166198
O O5 0.667637 0.687974 0.438456
O O6 0.724444 0.157773 0.412946
O O7 0.166836 0.504185 0.660499
O O8 0.879402 0.315600 0.855203
O O9 0.000000 0.500000 0.000000
O O10 0.868255 0.814104 0.897348
O O11 0.000000 0.000000 0.500000
O O12 0.000000 0.000000 0.000000
#
# Coordination Sequence:
#
# PCOD9009851 Si02
#       5
#     2   2   2   2   2
#     4  10  24  45  70  98 133 173 216 269 329 396
#     4  10  24  42  67  99 134 170 217 270 329 387
#     4  10  24  43  65  99 136 171 220 273 322 389
#     4  10  21  43  64  94 127 175 215 266 320 379
#     4  10  21  40  60  88 118 161 213 261 309 372
#
# _framework density 25.426884999999999
#
# number of rings (size 3 to 8) (size 9 to 14) (size 15 to 20)
#    1.200    0.800    0.000    2.400    2.800    1.600 
#   21.600    0.000    0.000    0.000    0.000    0.000 
#    0.000    0.000    0.000    0.000    0.000    0.000 
#
# Total GULP energy -55844.434076 kJ/mol
# GULP energy per Si atom -5584.443408 kJ/mol
# Density = 2.536901 g / cm^3
# Si number density = 25.426885 Si / 1000 Ang^3
#
#
#
# Elastic Constant Matrix: (Units=GPa)
#
#
# Indices 1 2 3 4 5 6 
#
# 1 48.6508 -3.7512 34.4457 3.3637 -17.7785 -11.0270
# 2 -3.7512 172.9273 27.9447 -11.8095 -1.1437 11.8013
# 3 34.4457 27.9447 160.4035 4.6603 1.5127 4.1429
# 4 3.3637 -11.8095 4.6603 39.8485 -0.3474 -10.8621
# 5 -17.7785 -1.1437 1.5127 -0.3474 52.2170 -9.3287
# 6 -11.0270 11.8013 4.1429 -10.8621 -9.3287 25.2624
#
#
#
# Elastic Compliance Matrix: (Units=1/GPa)
#
#
# Indices 1 2 3 4 5 6 
#
# 1 0.041045 0.001098 -0.010112 0.006084 0.019491 0.028875
# 2 0.001098 0.006226 -0.001330 0.001516 0.000300 -0.001448
# 3 -0.010112 -0.001330 0.008992 -0.002950 -0.005267 -0.008480
# 4 0.006084 0.001516 -0.002950 0.030178 0.005507 0.017440
# 5 0.019491 0.000300 -0.005267 0.005507 0.030036 0.022690
# 6 0.028875 -0.001448 -0.008480 0.017440 0.022690 0.070133
#
#
# Mechanical properties :
#
#
# Convention : Reuss Voigt Hill
#
# Bulk Modulus (GPa) = 28.10899 55.47332 41.79115
# Shear Modulus (GPa) = 22.81483 45.02174 33.91829
#
# Velocity S-wave (km/s) = 2.99870 4.21246 3.65630
# Velocity P-wave (km/s) = 4.80296 6.74714 5.85629
#
# Compressibility (1/GPa) = 0.03557581
#
# Stress axis : x y z
#
# Youngs Moduli (GPa) = 24.36340 160.62046 111.21198
#
# Poissons Ratio (x) = -0.17641 1.12456
# Poissons Ratio (y) = -0.02676 0.14791
# Poissons Ratio (z) = 0.24636 0.21362
#
# Static dielectric constant tensor:
#      x y z
#    x 1.988570 0.105080 -0.077370 
#    y 0.105080 2.068870 -0.018960 
#    z -0.077370 -0.018960 1.937850 
# 
# From -- ./inp_files/4462.got.cif
#   From: 2010.05.17/outbox.cif.g08.bks.cpg/sg2_3_cif.got.tgz:4462.got - 2010.06.03 11:33:40.
