data_PCOD9009014
_publ_section_title
;
Structure prediction by ZEFSAII (Michael W. Deem and Ramdas Pophale) SiO2 
 PCOD9009014
Probable space group: P -1
;
_chemical_formula_sum "Si O2"
_cell_formula_units_Z 16
_cell_length_a 7.995316
_cell_length_b 12.553203
_cell_length_c 16.430895
_cell_angle_alpha 40.639945
_cell_angle_beta 106.631543
_cell_angle_gamma 74.963850
_cell_volume 664.340736
_symmetry_space_group_name_H-M "P -1"
_symmetry_group_IT_number 2
_symmetry_cell_setting 'triclinic'
loop_
_space_group_symop_operation_xyz
x,y,z
-x,-y,-z
loop_
_atom_site_type_symbol
_atom_site_label
_atom_site_fract_x
_atom_site_fract_y
_atom_site_fract_z
Si Si1 0.879207 0.545008 0.164232
Si Si2 0.646660 0.531177 0.742835
Si Si3 0.607629 0.839085 0.803026
Si Si4 0.034757 0.367185 0.451059
Si Si5 0.187613 0.566602 0.461274
Si Si6 0.728458 0.244210 0.775193
Si Si7 0.064550 0.072220 0.391488
Si Si8 0.855254 0.337710 0.052508
O O1 0.102418 0.528393 0.205793
O O2 0.813060 0.540641 0.249153
O O3 0.008770 0.296632 0.281545
O O4 0.640091 0.774907 0.940165
O O5 0.597452 0.462314 0.695269
O O6 0.374075 0.821613 0.556888
O O7 0.736478 0.368445 0.931280
O O8 0.843685 0.800654 0.837507
O O9 0.310246 0.121139 0.586711
O O10 0.676107 0.624402 0.887998
O O11 0.064538 0.517537 0.414283
O O12 0.968420 0.294881 0.557161
O O13 0.489248 0.292198 0.689808
O O14 0.204065 0.714960 0.323165
O O15 0.000000 0.000000 0.000000
O O16 0.880035 0.192283 0.214405
O O17 0.000000 0.000000 0.500000
#
# Coordination Sequence:
#
# PCOD9009014 Si02
#       8
#     2   2   2   2   2   2   2   2
#     4  10  21  39  66  97 127 169 217 248 320 396
#     4  11  22  41  68  89 122 179 215 259 318 381
#     4   9  19  36  66  97 128 164 213 264 308 380
#     4  11  21  41  69  95 130 166 212 280 319 375
#     4  10  26  43  65  97 126 168 226 269 327 377
#     4  11  26  47  65  93 130 173 222 271 321 381
#     4  11  24  39  62  98 139 163 201 267 324 389
#     4   9  20  38  62  98 127 167 216 248 313 398
#
# _framework density 24.084026999999999
#
# number of rings (size 3 to 8) (size 9 to 14) (size 15 to 20)
#    0.000    1.750    1.250    2.625    5.250    2.500 
#    2.250    2.500    0.000    0.000    0.000    0.000 
#    0.000    0.000    0.000    0.000    0.000    0.000 
#
# Total GULP energy -89513.657580 kJ/mol
# GULP energy per Si atom -5594.603599 kJ/mol
# Density = 2.402921 g / cm^3
# Si number density = 24.084027 Si / 1000 Ang^3
#
#
#
# Elastic Constant Matrix: (Units=GPa)
#
#
# Indices 1 2 3 4 5 6 
#
# 1 29.1201 18.7109 6.1049 7.1257 -4.7454 -11.5064
# 2 18.7109 68.6855 10.6871 32.6267 -12.4218 -12.4975
# 3 6.1049 10.6871 92.5969 28.5408 -13.2838 -15.0885
# 4 7.1257 32.6267 28.5408 41.3285 -10.4489 -7.5610
# 5 -4.7454 -12.4218 -13.2838 -10.4489 26.3183 9.6296
# 6 -11.5064 -12.4975 -15.0885 -7.5610 9.6296 32.8745
#
#
#
# Elastic Compliance Matrix: (Units=1/GPa)
#
#
# Indices 1 2 3 4 5 6 
#
# 1 0.046203 -0.012647 -0.001224 0.004895 -0.000759 0.012150
# 2 -0.012647 0.029567 0.005739 -0.023551 0.004196 0.002802
# 3 -0.001224 0.005739 0.015605 -0.013377 0.003267 0.004882
# 4 0.004895 -0.023551 -0.013377 0.051837 0.004624 -0.002812
# 5 -0.000759 0.004196 0.003267 0.004624 0.046931 -0.009854
# 6 0.012150 0.002802 0.004882 -0.002812 -0.009854 0.040217
#
#
# Mechanical properties :
#
#
# Convention : Reuss Voigt Hill
#
# Bulk Modulus (GPa) = 13.31384 29.04535 21.17959
# Shear Modulus (GPa) = 18.40520 30.43090 24.41805
#
# Velocity S-wave (km/s) = 2.76743 3.55847 3.18759
# Velocity P-wave (km/s) = 3.96883 5.38236 4.72871
#
# Compressibility (1/GPa) = 0.07510981
#
# Stress axis : x y z
#
# Youngs Moduli (GPa) = 21.64353 33.82130 64.08131
#
# Poissons Ratio (x) = 0.42775 0.07845
# Poissons Ratio (y) = 0.27374 -0.36775
# Poissons Ratio (z) = 0.02649 -0.19409
#
# Static dielectric constant tensor:
#      x y z
#    x 1.960530 -0.023130 -0.015660 
#    y -0.023130 1.911810 0.013040 
#    z -0.015660 0.013040 1.923570 
# 
# From -- ./inp_files/313923.got.cif
#   From: 2010.05.17/outbox.cif.g08.bks.cpg/sg2_157_cif.got.tgz:313923.got - 2010.06.03 11:33:40.
