data_PCOD9009335
_publ_section_title
;
Structure prediction by ZEFSAII (Michael W. Deem and Ramdas Pophale) SiO2 
 PCOD9009335
Probable space group: P -1
;
_chemical_formula_sum "Si O2"
_cell_formula_units_Z 16
_cell_length_a 8.667339
_cell_length_b 8.577605
_cell_length_c 13.537826
_cell_angle_alpha 106.975882
_cell_angle_beta 58.524578
_cell_angle_gamma 124.029163
_cell_volume 711.386563
_symmetry_space_group_name_H-M "P -1"
_symmetry_group_IT_number 2
_symmetry_cell_setting 'triclinic'
loop_
_space_group_symop_operation_xyz
x,y,z
-x,-y,-z
loop_
_atom_site_type_symbol
_atom_site_label
_atom_site_fract_x
_atom_site_fract_y
_atom_site_fract_z
Si Si1 0.190153 0.460303 0.410071
Si Si2 0.771942 0.349676 0.084793
Si Si3 0.861934 0.804040 0.452202
Si Si4 0.957344 0.760073 0.779678
Si Si5 0.524733 0.203958 0.518984
Si Si6 0.789300 0.999531 0.104669
Si Si7 0.850376 0.476389 0.289739
Si Si8 0.544532 0.702683 0.991493
O O1 0.240499 0.349360 0.455599
O O2 0.100663 0.313197 0.324308
O O3 0.387637 0.669695 0.387892
O O4 0.000000 0.500000 0.500000
O O5 0.774801 0.164128 0.083200
O O6 0.735826 0.435016 0.214479
O O7 0.614407 0.305849 0.039047
O O8 0.000000 0.500000 0.000000
O O9 0.693421 0.820489 0.446532
O O10 0.945704 0.691126 0.334798
O O11 0.000000 0.000000 0.500000
O O12 0.769790 0.791036 0.880867
O O13 0.166701 0.940822 0.783887
O O14 0.973978 0.586185 0.791287
O O15 0.691888 0.331177 0.399387
O O16 0.500000 0.000000 0.500000
O O17 0.584978 0.815711 0.101040
O O18 0.000000 0.000000 0.000000
O O19 0.500000 0.500000 0.000000
#
# Coordination Sequence:
#
# PCOD9009335 Si02
#       8
#     2   2   2   2   2   2   2   2
#     4  11  20  41  67  91 133 167 208 267 321 379
#     4  11  23  43  69  95 131 169 218 270 321 383
#     4  11  24  41  63  95 134 169 218 262 319 387
#     4  10  21  39  68  90 126 168 213 258 331 369
#     4  11  24  41  66  94 136 170 215 265 320 385
#     4   9  20  42  64  91 128 160 212 266 318 382
#     4  10  22  44  64  94 133 172 214 269 320 380
#     4  11  23  42  67  96 128 169 213 268 329 385
#
# _framework density 22.491288000000001
#
# number of rings (size 3 to 8) (size 9 to 14) (size 15 to 20)
#    0.000    1.500    2.500    4.875    3.500    0.000 
#   11.250    2.500    0.000    0.000    0.000    0.000 
#    0.000    0.000    0.000    0.000    0.000    0.000 
#
# Total GULP energy -89157.661087 kJ/mol
# GULP energy per Si atom -5572.353818 kJ/mol
# Density = 2.244010 g / cm^3
# Si number density = 22.491288 Si / 1000 Ang^3
#
#
#
# Elastic Constant Matrix: (Units=GPa)
#
#
# Indices 1 2 3 4 5 6 
#
# 1 157.9446 44.5559 28.1550 26.7585 26.1776 14.7427
# 2 44.5559 148.4242 35.0585 43.8445 20.9715 7.8608
# 3 28.1550 35.0585 85.9694 35.0510 30.5909 15.5199
# 4 26.7585 43.8445 35.0510 44.2981 10.9719 10.4611
# 5 26.1776 20.9715 30.5909 10.9719 41.3007 10.4761
# 6 14.7427 7.8608 15.5199 10.4611 10.4761 39.2474
#
#
#
# Elastic Compliance Matrix: (Units=1/GPa)
#
#
# Indices 1 2 3 4 5 6 
#
# 1 0.007740 -0.000996 0.000649 -0.002991 -0.003793 -0.001155
# 2 -0.000996 0.010006 0.001004 -0.009680 -0.002962 0.001344
# 3 0.000649 0.001004 0.022115 -0.015314 -0.012804 -0.001690
# 4 -0.002991 -0.009680 -0.015314 0.045430 0.007340 -0.004950
# 5 -0.003793 -0.002962 -0.012804 0.007340 0.036850 -0.004711
# 6 -0.001155 0.001344 -0.001690 -0.004950 -0.004711 0.028889
#
#
# Mechanical properties :
#
#
# Convention : Reuss Voigt Hill
#
# Bulk Modulus (GPa) = 24.28692 67.54188 45.91440
# Shear Modulus (GPa) = 30.59191 43.94051 37.26621
#
# Velocity S-wave (km/s) = 3.69205 4.42483 4.07494
# Velocity P-wave (km/s) = 5.38486 7.49673 6.52678
#
# Compressibility (1/GPa) = 0.04117443
#
# Stress axis : x y z
#
# Youngs Moduli (GPa) = 129.20242 99.93770 45.21783
#
# Poissons Ratio (x) = 0.09956 -0.02934
# Poissons Ratio (y) = 0.12871 -0.04539
# Poissons Ratio (z) = -0.08385 -0.10032
#
# Static dielectric constant tensor:
#      x y z
#    x 1.849840 0.036910 -0.063950 
#    y 0.036910 1.909510 0.027010 
#    z -0.063950 0.027010 2.225210 
# 
# From -- ./inp_files/495416.got.cif
#   From: 2010.05.17/outbox.cif.g08.bks.cpg/sg2_248_cif.got.tgz:495416.got - 2010.06.03 11:33:40.
