data_PCOD9009924
_publ_section_title
;
Structure prediction by ZEFSAII (Michael W. Deem and Ramdas Pophale) SiO2 
 PCOD9009924
Probable space group: P -1
;
_chemical_formula_sum "Si O2"
_cell_formula_units_Z 15
_cell_length_a 11.636530
_cell_length_b 11.605822
_cell_length_c 14.441859
_cell_angle_alpha 139.910400
_cell_angle_beta 32.577116
_cell_angle_gamma 118.715516
_cell_volume 595.638782
_symmetry_space_group_name_H-M "P -1"
_symmetry_group_IT_number 2
_symmetry_cell_setting 'triclinic'
loop_
_space_group_symop_operation_xyz
x,y,z
-x,-y,-z
loop_
_atom_site_type_symbol
_atom_site_label
_atom_site_fract_x
_atom_site_fract_y
_atom_site_fract_z
Si Si1 0.832887 0.998429 0.964710
Si Si2 0.960596 0.742981 0.905182
Si Si3 0.412882 0.237982 0.699767
Si Si4 0.952076 0.783342 0.315485
Si Si5 0.360117 0.384401 0.486874
Si Si6 0.355913 0.758006 0.167127
Si Si7 0.000000 0.500000 0.000000
Si Si8 0.228992 0.644903 0.382005
O O1 0.844743 0.884412 0.983104
O O2 0.960160 0.813058 0.692099
O O3 0.571836 0.155665 0.197406
O O4 0.963945 0.132374 0.994479
O O5 0.198925 0.522934 0.596777
O O6 0.763788 0.686568 0.045646
O O7 0.264947 0.351089 0.780456
O O8 0.627471 0.289126 0.601534
O O9 0.500000 0.000000 0.500000
O O10 0.843910 0.621582 0.306397
O O11 0.169763 0.752481 0.214194
O O12 0.733060 0.004585 0.612777
O O13 0.049205 0.705464 0.100686
O O14 0.500000 0.500000 0.500000
O O15 0.285441 0.692955 0.271037
O O16 0.632907 0.600013 0.857511
#
# Coordination Sequence:
#
# PCOD9009924 Si02
#       8
#     2   2   2   2   2   2   1   2
#     4  10  23  39  63  97 135 182 227 276 354 419
#     4  10  21  40  60  99 142 173 219 294 354 403
#     4  12  23  37  69 107 135 173 234 296 350 403
#     4  11  23  44  67 107 134 184 231 293 351 413
#     4  10  22  41  65  97 138 181 222 286 351 408
#     4  10  24  44  72  96 146 182 232 291 349 417
#     4  12  24  38  72 108 130 172 236 296 354 400
#     4  11  22  45  67  99 134 190 234 286 346 426
#
# _framework density 25.183046999999998
#
# number of rings (size 3 to 8) (size 9 to 14) (size 15 to 20)
#    0.000    1.333    4.000    0.800    3.733    1.067 
#    4.800    1.333    0.000    0.000    0.000    0.000 
#    0.000    0.000    0.000    0.000    0.000    0.000 
#
# Total GULP energy -83579.865500 kJ/mol
# GULP energy per Si atom -5571.991033 kJ/mol
# Density = 2.512573 g / cm^3
# Si number density = 25.183047 Si / 1000 Ang^3
#
#
#
# Elastic Constant Matrix: (Units=GPa)
#
#
# Indices 1 2 3 4 5 6 
#
# 1 76.2745 4.7784 36.8485 23.9439 3.5625 -3.9789
# 2 4.7784 71.9071 26.4667 15.9967 -1.6899 5.3481
# 3 36.8485 26.4667 232.1547 46.2207 -17.0571 -2.0911
# 4 23.9439 15.9967 46.2207 38.2321 -0.4023 1.4911
# 5 3.5625 -1.6899 -17.0571 -0.4023 43.2962 8.3023
# 6 -3.9789 5.3481 -2.0911 1.4911 8.3023 26.7595
#
#
#
# Elastic Compliance Matrix: (Units=1/GPa)
#
#
# Indices 1 2 3 4 5 6 
#
# 1 0.016984 0.001154 -0.000965 -0.010118 -0.002510 0.003562
# 2 0.001154 0.015729 -0.000681 -0.006359 0.000748 -0.002903
# 3 -0.000965 -0.000681 0.005964 -0.006300 0.002327 0.000088
# 4 -0.010118 -0.006359 -0.006300 0.042869 -0.000959 -0.002817
# 5 -0.002510 0.000748 0.002327 -0.000959 0.025832 -0.008302
# 6 0.003562 -0.002903 0.000088 -0.002817 -0.008302 0.041219
#
#
# Mechanical properties :
#
#
# Convention : Reuss Voigt Hill
#
# Bulk Modulus (GPa) = 26.53154 57.39152 41.96153
# Shear Modulus (GPa) = 30.83605 42.47374 36.65490
#
# Velocity S-wave (km/s) = 3.50305 4.11128 3.81929
# Velocity P-wave (km/s) = 5.18846 6.73617 6.01233
#
# Compressibility (1/GPa) = 0.03769100
#
# Stress axis : x y z
#
# Youngs Moduli (GPa) = 58.88006 63.57643 167.66040
#
# Poissons Ratio (x) = -0.07334 0.16182
# Poissons Ratio (y) = -0.06792 0.11426
# Poissons Ratio (z) = 0.05683 0.04333
#
# Static dielectric constant tensor:
#      x y z
#    x 1.302550 0.365490 -0.600630 
#    y 0.365490 1.836430 0.320850 
#    z -0.600630 0.320850 1.537290 
# 
# From -- ./inp_files/519233.got.cif
#   From: 2010.05.17/outbox.cif.g08.bks.cpg/sg2_260_cif.got.tgz:519233.got - 2010.06.03 11:33:40.
