data_PCOD9009748
_publ_section_title
;
Structure prediction by ZEFSAII (Michael W. Deem and Ramdas Pophale) SiO2 
 PCOD9009748
Probable space group: P -1
;
_chemical_formula_sum "Si O2"
_cell_formula_units_Z 16
_cell_length_a 13.902331
_cell_length_b 8.855644
_cell_length_c 11.790450
_cell_angle_alpha 82.948235
_cell_angle_beta 144.083990
_cell_angle_gamma 116.278771
_cell_volume 682.466315
_symmetry_space_group_name_H-M "P -1"
_symmetry_group_IT_number 2
_symmetry_cell_setting 'triclinic'
loop_
_space_group_symop_operation_xyz
x,y,z
-x,-y,-z
loop_
_atom_site_type_symbol
_atom_site_label
_atom_site_fract_x
_atom_site_fract_y
_atom_site_fract_z
Si Si1 0.256806 0.935283 0.696932
Si Si2 0.469706 0.004881 0.659801
Si Si3 0.859671 0.640133 0.816605
Si Si4 0.446165 0.714982 0.922337
Si Si5 0.853559 0.665868 0.209455
Si Si6 0.919751 0.376212 0.761958
Si Si7 0.420006 0.272258 0.445050
Si Si8 0.354675 0.185772 0.127152
O O1 0.389479 0.026758 0.699871
O O2 0.315032 0.797455 0.807896
O O3 0.023787 0.800177 0.451605
O O4 0.334138 0.110088 0.837433
O O5 0.300627 0.795268 0.472944
O O6 0.669139 0.010944 0.869601
O O7 0.466291 0.132761 0.552462
O O8 0.916785 0.548392 0.784508
O O9 0.633683 0.469116 0.661247
O O10 0.792059 0.773142 0.704906
O O11 0.011394 0.691742 0.059970
O O12 0.342190 0.517383 0.903118
O O13 0.471099 0.700220 0.813523
O O14 0.937109 0.584265 0.210131
O O15 0.812941 0.793693 0.084835
O O16 0.395048 0.256705 0.287370
#
# Coordination Sequence:
#
# PCOD9009748 Si02
#       8
#     2   2   2   2   2   2   2   2
#     4   9  22  43  63 100 124 170 231 272 317 412
#     4  10  22  40  67  87 134 174 212 273 337 380
#     4  10  22  38  60  93 129 163 226 264 317 404
#     4  10  22  42  71  90 134 175 219 275 333 385
#     4  11  22  41  70  94 135 176 213 279 337 378
#     4  10  21  40  58  94 132 163 217 274 315 406
#     4  11  22  40  66  91 131 179 210 272 332 385
#     4  11  22  40  62 100 127 172 226 264 321 409
#
# _framework density 23.444381
#
# number of rings (size 3 to 8) (size 9 to 14) (size 15 to 20)
#    0.000    1.750    2.500    1.125    1.750    1.000 
#    0.000    0.000    0.000    0.000    0.000    0.000 
#    0.000    0.000    0.000    0.000    0.000    0.000 
#
# Total GULP energy -89330.563875 kJ/mol
# GULP energy per Si atom -5583.160242 kJ/mol
# Density = 2.339102 g / cm^3
# Si number density = 23.444381 Si / 1000 Ang^3
#
#
#
# Elastic Constant Matrix: (Units=GPa)
#
#
# Indices 1 2 3 4 5 6 
#
# 1 76.5256 44.2279 21.3434 -10.8802 3.0375 -12.8035
# 2 44.2279 76.1487 46.4544 -17.9754 -4.9109 0.6577
# 3 21.3434 46.4544 97.5309 -25.8021 -6.5071 -7.3346
# 4 -10.8802 -17.9754 -25.8021 29.7607 -8.0500 4.8213
# 5 3.0375 -4.9109 -6.5071 -8.0500 33.3271 -13.2293
# 6 -12.8035 0.6577 -7.3346 4.8213 -13.2293 18.0472
#
#
#
# Elastic Compliance Matrix: (Units=1/GPa)
#
#
# Indices 1 2 3 4 5 6 
#
# 1 0.026346 -0.018299 0.005643 0.001022 0.006681 0.026276
# 2 -0.018299 0.032239 -0.012029 0.005057 -0.003957 -0.023297
# 3 0.005643 -0.012029 0.020232 0.012632 0.011850 0.017976
# 4 0.001022 0.005057 0.012632 0.051967 0.017506 0.004624
# 5 0.006681 -0.003957 0.011850 0.017506 0.052679 0.043639
# 6 0.026276 -0.023297 0.017976 0.004624 0.043639 0.112960
#
#
# Mechanical properties :
#
#
# Convention : Reuss Voigt Hill
#
# Bulk Modulus (GPa) = 33.96127 52.69519 43.32823
# Shear Modulus (GPa) = 14.06042 25.43896 19.74969
#
# Velocity S-wave (km/s) = 2.45161 3.29762 2.90557
# Velocity P-wave (km/s) = 4.74670 6.08478 5.45691
#
# Compressibility (1/GPa) = 0.02944531
#
# Stress axis : x y z
#
# Youngs Moduli (GPa) = 37.95638 31.01877 49.42650
#
# Poissons Ratio (x) = 0.56762 -0.27889
# Poissons Ratio (y) = 0.69457 0.59455
# Poissons Ratio (z) = -0.21417 0.37313
#
# Static dielectric constant tensor:
#      x y z
#    x 1.953100 -0.100890 0.085300 
#    y -0.100890 2.038550 -0.097070 
#    z 0.085300 -0.097070 1.919730 
# 
# From -- ./inp_files/447427.got.cif
#   From: 2010.05.17/outbox.cif.g08.bks.cpg/sg2_224_cif.got.tgz:447427.got - 2010.06.03 11:33:40.
