data_PCOD9009972
_publ_section_title
;
Structure prediction by ZEFSAII (Michael W. Deem and Ramdas Pophale) SiO2 
 PCOD9009972
Probable space group: P -1
;
_chemical_formula_sum "Si O2"
_cell_formula_units_Z 16
_cell_length_a 5.001591
_cell_length_b 24.705877
_cell_length_c 5.628981
_cell_angle_alpha 111.025643
_cell_angle_beta 96.815152
_cell_angle_gamma 68.628854
_cell_volume 604.553509
_symmetry_space_group_name_H-M "P -1"
_symmetry_group_IT_number 2
_symmetry_cell_setting 'triclinic'
loop_
_space_group_symop_operation_xyz
x,y,z
-x,-y,-z
loop_
_atom_site_type_symbol
_atom_site_label
_atom_site_fract_x
_atom_site_fract_y
_atom_site_fract_z
Si Si1 0.328823 0.954304 0.950230
Si Si2 0.903789 0.830625 0.086469
Si Si3 0.142608 0.203063 0.473998
Si Si4 0.667996 0.310531 0.122033
Si Si5 0.873635 0.419071 0.275850
Si Si6 0.203875 0.928006 0.394325
Si Si7 0.497406 0.287263 0.568940
Si Si8 0.744347 0.517167 0.812269
O O1 0.392547 0.924746 0.172982
O O2 0.337949 0.916046 0.651180
O O3 0.500000 0.000000 0.000000
O O4 0.000000 0.000000 0.000000
O O5 0.029467 0.883050 0.254049
O O6 0.738104 0.819612 0.285780
O O7 0.152842 0.762783 0.976861
O O8 0.793198 0.840415 0.818730
O O9 0.244745 0.259680 0.505702
O O10 0.798234 0.229345 0.510304
O O11 0.879959 0.349664 0.188589
O O12 0.508967 0.322024 0.379132
O O13 0.493878 0.321772 0.871966
O O14 0.776533 0.455644 0.569944
O O15 0.594794 0.450766 0.123647
O O16 0.152751 0.435289 0.261813
O O17 0.000000 0.000000 0.500000
O O18 0.000000 0.500000 0.000000
#
# Coordination Sequence:
#
# PCOD9009972 Si02
#       8
#     2   2   2   2   2   2   2   2
#     4  10  21  40  63  90 123 159 212 264 319 383
#     4  10  21  41  65  91 132 168 215 271 323 390
#     4  10  21  40  61  88 123 169 209 262 324 381
#     4  10  23  42  63  98 128 172 217 267 331 384
#     4  10  23  40  65  98 129 172 222 273 323 403
#     4  10  21  40  63  94 126 170 217 267 326 386
#     4  10  22  40  63  90 131 165 213 260 319 390
#     4  10  22  43  67  94 133 171 221 268 333 385
#
# _framework density 26.465812
#
# number of rings (size 3 to 8) (size 9 to 14) (size 15 to 20)
#    0.000    2.000    0.000    2.250    1.750    4.000 
#    2.250   30.000    0.000    0.000    0.000    0.000 
#    0.000    0.000    0.000    0.000    0.000    0.000 
#
# Total GULP energy -89527.678563 kJ/mol
# GULP energy per Si atom -5595.479910 kJ/mol
# Density = 2.640557 g / cm^3
# Si number density = 26.465812 Si / 1000 Ang^3
#
#
#
# Elastic Constant Matrix: (Units=GPa)
#
#
# Indices 1 2 3 4 5 6 
#
# 1 91.6642 15.5387 27.6266 0.4455 11.0274 16.5359
# 2 15.5387 110.1455 68.3760 -9.6250 15.5836 13.4410
# 3 27.6266 68.3760 220.0912 -32.4158 11.6008 8.8985
# 4 0.4455 -9.6250 -32.4158 71.3878 11.3766 10.3145
# 5 11.0274 15.5836 11.6008 11.3766 54.9108 1.3135
# 6 16.5359 13.4410 8.8985 10.3145 1.3135 55.5641
#
#
#
# Elastic Compliance Matrix: (Units=1/GPa)
#
#
# Indices 1 2 3 4 5 6 
#
# 1 0.012161 -0.000271 -0.001173 0.000169 -0.002073 -0.003348
# 2 -0.000271 0.011922 -0.003296 0.000896 -0.002761 -0.002376
# 3 -0.001173 -0.003296 0.006126 0.002486 -0.000631 -0.000281
# 4 0.000169 0.000896 0.002486 0.016438 -0.004132 -0.003619
# 5 -0.002073 -0.002761 -0.000631 -0.004132 0.020361 0.001672
# 6 -0.003348 -0.002376 -0.000281 -0.003619 0.001672 0.020246
#
#
# Mechanical properties :
#
#
# Convention : Reuss Voigt Hill
#
# Bulk Modulus (GPa) = 48.24167 71.66485 59.95326
# Shear Modulus (GPa) = 48.24216 57.06319 52.65267
#
# Velocity S-wave (km/s) = 4.27407 4.64843 4.46518
# Velocity P-wave (km/s) = 6.52874 7.47981 7.02040
#
# Compressibility (1/GPa) = 0.02072897
#
# Stress axis : x y z
#
# Youngs Moduli (GPa) = 82.22794 83.87557 163.24911
#
# Poissons Ratio (x) = 0.02273 0.19146
# Poissons Ratio (y) = 0.02228 0.53813
# Poissons Ratio (z) = 0.09644 0.27648
#
# Static dielectric constant tensor:
#      x y z
#    x 2.197190 -0.314350 -0.021480 
#    y -0.314350 2.417670 -0.123870 
#    z -0.021480 -0.123870 2.056640 
# 
# From -- ./inp_files/13734.got.cif
#   From: 2010.05.17/outbox.cif.g08.bks.cpg/sg2_7_cif.got.tgz:13734.got - 2010.06.03 11:33:40.
