data_PCOD9009512
_publ_section_title
;
Structure prediction by ZEFSAII (Michael W. Deem and Ramdas Pophale) SiO2 
 PCOD9009512
Probable space group: P -1
;
_chemical_formula_sum "Si O2"
_cell_formula_units_Z 12
_cell_length_a 12.922011
_cell_length_b 6.732800
_cell_length_c 12.800794
_cell_angle_alpha 130.150465
_cell_angle_beta 30.909775
_cell_angle_gamma 126.096685
_cell_volume 435.442085
_symmetry_space_group_name_H-M "P -1"
_symmetry_group_IT_number 2
_symmetry_cell_setting 'triclinic'
loop_
_space_group_symop_operation_xyz
x,y,z
-x,-y,-z
loop_
_atom_site_type_symbol
_atom_site_label
_atom_site_fract_x
_atom_site_fract_y
_atom_site_fract_z
Si Si1 0.279866 0.682880 0.742456
Si Si2 0.323827 0.935691 0.440049
Si Si3 0.167030 0.219911 0.847455
Si Si4 0.500000 0.000000 0.000000
Si Si5 0.789034 0.519454 0.884305
Si Si6 0.796907 0.709786 0.499043
Si Si7 0.500000 0.500000 0.000000
O O1 0.469934 0.871567 0.674486
O O2 0.227524 0.463578 0.800866
O O3 0.310666 0.527103 0.556061
O O4 0.074883 0.819486 0.952559
O O5 0.247372 0.972934 0.636896
O O6 0.162832 0.064338 0.547718
O O7 0.378274 0.668366 0.255305
O O8 0.240984 0.331793 0.932334
O O9 0.395134 0.717153 0.053409
O O10 0.348621 0.166065 0.252271
O O11 0.724700 0.678123 0.895174
O O12 0.996896 0.387301 0.667459
#
# Coordination Sequence:
#
# PCOD9009512 Si02
#       7
#     2   2   2   1   2   2   1
#     4   9  18  37  66 101 115 155 216 277 296 364
#     4  11  21  41  62  93 131 165 199 268 312 377
#     4   9  19  37  69  91 119 159 223 256 309 364
#     4  12  20  36  68  92 118 172 210 248 310 384
#     4  11  24  43  62  97 125 169 210 266 308 377
#     4  10  21  39  69  94 126 157 222 265 306 363
#     4  12  28  42  56  94 148 164 198 264 328 366
#
# _framework density 27.558201
#
# number of rings (size 3 to 8) (size 9 to 14) (size 15 to 20)
#    0.000    1.667    1.667    5.500    0.000    0.667 
#    0.000    6.667    0.000    0.000    0.000    0.000 
#    0.000    0.000    0.000    0.000    0.000    0.000 
#
# Total GULP energy -66821.126223 kJ/mol
# GULP energy per Si atom -5568.427185 kJ/mol
# Density = 2.749548 g / cm^3
# Si number density = 27.558201 Si / 1000 Ang^3
#
#
#
# Elastic Constant Matrix: (Units=GPa)
#
#
# Indices 1 2 3 4 5 6 
#
# 1 189.7076 36.9844 108.4109 19.1333 -2.2185 33.7450
# 2 36.9844 83.5023 57.6779 14.6766 8.7033 -9.7082
# 3 108.4109 57.6779 275.7449 42.1997 37.3280 23.1241
# 4 19.1333 14.6766 42.1997 49.0237 7.5044 -0.6870
# 5 -2.2185 8.7033 37.3280 7.5044 48.3235 7.3646
# 6 33.7450 -9.7082 23.1241 -0.6870 7.3646 35.8462
#
#
#
# Elastic Compliance Matrix: (Units=1/GPa)
#
#
# Indices 1 2 3 4 5 6 
#
# 1 0.009202 -0.003633 -0.002554 -0.001134 0.004592 -0.008963
# 2 -0.003633 0.016898 -0.002435 -0.000988 -0.002716 0.010106
# 3 -0.002554 -0.002435 0.006261 -0.003105 -0.003793 -0.001574
# 4 -0.001134 -0.000988 -0.003105 0.024132 -0.001777 0.003630
# 5 0.004592 -0.002716 -0.003793 -0.001777 0.025811 -0.007948
# 6 -0.008963 0.010106 -0.001574 0.003630 -0.007948 0.041790
#
#
# Mechanical properties :
#
#
# Convention : Reuss Voigt Hill
#
# Bulk Modulus (GPa) = 66.15287 106.12237 86.13762
# Shear Modulus (GPa) = 34.15853 49.69745 41.92799
#
# Velocity S-wave (km/s) = 3.52448 4.25121 3.90479
# Velocity P-wave (km/s) = 6.37334 7.91764 7.18709
#
# Compressibility (1/GPa) = 0.01511650
#
# Stress axis : x y z
#
# Youngs Moduli (GPa) = 108.67719 59.17730 159.72628
#
# Poissons Ratio (x) = 0.21497 0.40798
# Poissons Ratio (y) = 0.39479 0.38896
# Poissons Ratio (z) = 0.27759 0.14411
#
# Static dielectric constant tensor:
#      x y z
#    x 2.528260 -0.263850 0.040920 
#    y -0.263850 2.351100 -0.057140 
#    z 0.040920 -0.057140 2.031450 
# 
# From -- ./inp_files/526946.got.cif
#   From: 2010.05.17/outbox.cif.g08.bks.cpg/sg2_264_cif.got.tgz:526946.got - 2010.06.03 11:33:40.
