data_PCOD9009051
_publ_section_title
;
Structure prediction by ZEFSAII (Michael W. Deem and Ramdas Pophale) SiO2 
 PCOD9009051
Probable space group: P -1
;
_chemical_formula_sum "Si O2"
_cell_formula_units_Z 16
_cell_length_a 8.838858
_cell_length_b 10.000366
_cell_length_c 15.582648
_cell_angle_alpha 77.661345
_cell_angle_beta 30.054559
_cell_angle_gamma 75.180643
_cell_volume 666.794995
_symmetry_space_group_name_H-M "P -1"
_symmetry_group_IT_number 2
_symmetry_cell_setting 'triclinic'
loop_
_space_group_symop_operation_xyz
x,y,z
-x,-y,-z
loop_
_atom_site_type_symbol
_atom_site_label
_atom_site_fract_x
_atom_site_fract_y
_atom_site_fract_z
Si Si1 0.378831 0.581347 0.964800
Si Si2 0.101856 0.146497 0.952008
Si Si3 0.456515 0.625430 0.746578
Si Si4 0.611529 0.070547 0.850796
Si Si5 0.513848 0.148416 0.589274
Si Si6 0.783292 0.464348 0.299320
Si Si7 0.227943 0.170960 0.539393
Si Si8 0.881036 0.769738 0.720268
O O1 0.021870 0.573055 0.156073
O O2 0.500000 0.500000 0.000000
O O3 0.493117 0.521734 0.823562
O O4 0.577536 0.709164 0.850027
O O5 0.338362 0.135793 0.916176
O O6 0.262001 0.171274 0.781401
O O7 0.822226 0.261017 0.099467
O O8 0.000000 0.000000 0.000000
O O9 0.357257 0.552455 0.721593
O O10 0.714841 0.713719 0.574144
O O11 0.870798 0.164758 0.730913
O O12 0.777860 0.932737 0.743386
O O13 0.500000 0.000000 0.000000
O O14 0.393937 0.193738 0.545775
O O15 0.780345 0.230033 0.484406
O O16 0.624293 0.982376 0.545371
O O17 0.500000 0.500000 0.500000
O O18 0.000924 0.320589 0.240345
#
# Coordination Sequence:
#
# PCOD9009051 Si02
#       8
#     2   2   2   2   2   2   2   2
#     4  10  25  47  70  96 134 177 240 300 347 394
#     4  12  24  39  68 107 145 181 224 263 347 438
#     4  12  24  44  72 102 140 182 228 288 354 407
#     4  11  24  39  64 105 147 179 220 271 341 429
#     4  10  21  39  66  98 143 181 224 264 344 426
#     4  11  25  47  72  97 125 185 249 297 340 399
#     4  10  22  40  66 100 144 181 228 271 335 433
#     4  10  22  43  68  91 139 181 221 286 349 393
#
# _framework density 23.995380999999998
#
# number of rings (size 3 to 8) (size 9 to 14) (size 15 to 20)
#    0.000    1.250    2.500    2.625    5.250    2.000 
#    0.000    3.750    0.000    0.000    0.000    0.000 
#    0.000    0.000    0.000    0.000    0.000    0.000 
#
# Total GULP energy -89192.856413 kJ/mol
# GULP energy per Si atom -5574.553526 kJ/mol
# Density = 2.394077 g / cm^3
# Si number density = 23.995381 Si / 1000 Ang^3
#
#
#
# Elastic Constant Matrix: (Units=GPa)
#
#
# Indices 1 2 3 4 5 6 
#
# 1 129.4323 29.7654 69.0546 -11.9106 -0.1701 2.1588
# 2 29.7654 43.3306 28.1563 -15.1839 -9.2198 0.1379
# 3 69.0546 28.1563 191.9582 -46.5556 -5.0594 22.1030
# 4 -11.9106 -15.1839 -46.5556 32.9345 11.3968 2.2466
# 5 -0.1701 -9.2198 -5.0594 11.3968 49.6574 -15.5209
# 6 2.1588 0.1379 22.1030 2.2466 -15.5209 35.1297
#
#
#
# Elastic Compliance Matrix: (Units=1/GPa)
#
#
# Indices 1 2 3 4 5 6 
#
# 1 0.011282 -0.006620 -0.005059 -0.006646 0.000857 0.003319
# 2 -0.006620 0.032194 0.000597 0.012051 0.003456 0.000661
# 3 -0.005059 0.000597 0.013082 0.020228 -0.007074 -0.012342
# 4 -0.006646 0.012051 0.020228 0.070792 -0.020016 -0.025737
# 5 0.000857 0.003456 -0.007074 -0.020016 0.030660 0.019211
# 6 0.003319 0.000661 -0.012342 -0.025737 0.019211 0.046158
#
#
# Mechanical properties :
#
#
# Convention : Reuss Voigt Hill
#
# Bulk Modulus (GPa) = 29.07438 68.74153 48.90795
# Shear Modulus (GPa) = 21.02638 39.39397 30.21018
#
# Velocity S-wave (km/s) = 2.96339 4.05622 3.55209
# Velocity P-wave (km/s) = 4.88384 7.11669 6.10324
#
# Compressibility (1/GPa) = 0.03439455
#
# Stress axis : x y z
#
# Youngs Moduli (GPa) = 88.64019 31.06157 76.43847
#
# Poissons Ratio (x) = 0.20561 0.38670
# Poissons Ratio (y) = 0.58676 -0.04561
# Poissons Ratio (z) = 0.44843 -0.01854
#
# Static dielectric constant tensor:
#      x y z
#    x 1.672530 -0.461200 0.154390 
#    y -0.461200 1.461210 0.221520 
#    z 0.154390 0.221520 1.820030 
# 
# From -- ./inp_files/500228.got.cif
#   From: 2010.05.17/outbox.cif.g08.bks.cpg/sg2_251_cif.got.tgz:500228.got - 2010.06.03 11:33:40.
