data_PCOD9009029
_publ_section_title
;
Structure prediction by ZEFSAII (Michael W. Deem and Ramdas Pophale) SiO2 
 PCOD9009029
Probable space group: P -1
;
_chemical_formula_sum "Si O2"
_cell_formula_units_Z 16
_cell_length_a 14.497061
_cell_length_b 11.626130
_cell_length_c 18.415697
_cell_angle_alpha 48.497508
_cell_angle_beta 30.789051
_cell_angle_gamma 29.161070
_cell_volume 724.943122
_symmetry_space_group_name_H-M "P -1"
_symmetry_group_IT_number 2
_symmetry_cell_setting 'triclinic'
loop_
_space_group_symop_operation_xyz
x,y,z
-x,-y,-z
loop_
_atom_site_type_symbol
_atom_site_label
_atom_site_fract_x
_atom_site_fract_y
_atom_site_fract_z
Si Si1 0.031661 0.609716 0.646978
Si Si2 0.784493 0.767701 0.208529
Si Si3 0.175976 0.803959 0.242779
Si Si4 0.208599 0.460491 0.823280
Si Si5 0.240349 0.062782 0.175280
Si Si6 0.768574 0.270645 0.080988
Si Si7 0.352773 0.675354 0.699615
Si Si8 0.849110 0.728464 0.556026
O O1 0.054862 0.445250 0.751200
O O2 0.366427 0.443257 0.481338
O O3 0.832408 0.863750 0.721760
O O4 0.909768 0.659165 0.629007
O O5 0.655515 0.753495 0.235158
O O6 0.499711 0.040856 0.319852
O O7 0.027398 0.723242 0.036490
O O8 0.481027 0.522014 0.125229
O O9 0.980974 0.804650 0.412623
O O10 0.278508 0.864268 0.205708
O O11 0.955976 0.040362 0.237542
O O12 0.367670 0.482742 0.753548
O O13 0.033911 0.685635 0.789992
O O14 0.000000 0.500000 0.000000
O O15 0.500000 0.000000 0.000000
O O16 0.631704 0.300180 0.235830
O O17 0.000000 0.000000 0.000000
O O18 0.000000 0.500000 0.500000
#
# Coordination Sequence:
#
# PCOD9009029 Si02
#       8
#     2   2   2   2   2   2   2   2
#     4  11  25  44  71 102 138 181 225 284 353 411
#     4  11  25  43  69 100 138 176 226 289 345 404
#     4  11  24  45  69 101 140 176 235 287 338 417
#     4  10  21  39  66  97 136 173 215 277 350 411
#     4  10  24  40  68 106 141 173 224 283 355 418
#     4  12  26  45  69  98 136 187 238 286 340 402
#     4  11  24  43  71 102 137 180 228 282 351 412
#     4  12  27  44  68  99 135 185 239 281 338 405
#
# _framework density 22.070696000000002
#
# number of rings (size 3 to 8) (size 9 to 14) (size 15 to 20)
#    0.000    1.000    3.750    2.250    3.500    5.000 
#    0.000    0.000    0.000    0.000    0.000    0.000 
#    0.000    0.000    0.000    0.000    0.000    0.000 
#
# Total GULP energy -89396.264135 kJ/mol
# GULP energy per Si atom -5587.266508 kJ/mol
# Density = 2.202046 g / cm^3
# Si number density = 22.070696 Si / 1000 Ang^3
#
#
#
# Elastic Constant Matrix: (Units=GPa)
#
#
# Indices 1 2 3 4 5 6 
#
# 1 63.8926 22.8735 0.9074 -10.6848 8.5031 4.5888
# 2 22.8735 86.7099 14.0758 10.3836 6.1364 1.4620
# 3 0.9074 14.0758 77.6222 8.0167 0.3624 18.5583
# 4 -10.6848 10.3836 8.0167 37.7213 -4.5602 1.1694
# 5 8.5031 6.1364 0.3624 -4.5602 30.6510 11.4860
# 6 4.5888 1.4620 18.5583 1.1694 11.4860 27.1458
#
#
#
# Elastic Compliance Matrix: (Units=1/GPa)
#
#
# Indices 1 2 3 4 5 6 
#
# 1 0.019354 -0.005854 0.000851 0.006750 -0.002102 -0.002940
# 2 -0.005854 0.014394 -0.002888 -0.005553 -0.003517 0.003916
# 3 0.000851 -0.002888 0.016752 -0.001505 0.004971 -0.013479
# 4 0.006750 -0.005553 -0.001505 0.030991 0.005108 -0.003309
# 5 -0.002102 -0.003517 0.004971 0.005108 0.042505 -0.021059
# 6 -0.002940 0.003916 -0.013479 -0.003309 -0.021059 0.055392
#
#
# Mechanical properties :
#
#
# Convention : Reuss Voigt Hill
#
# Bulk Modulus (GPa) = 28.80382 33.77090 31.28736
# Shear Modulus (GPa) = 24.18474 31.79483 27.98979
#
# Velocity S-wave (km/s) = 3.31386 3.79963 3.56503
# Velocity P-wave (km/s) = 5.26510 5.88082 5.58145
#
# Compressibility (1/GPa) = 0.03471761
#
# Stress axis : x y z
#
# Youngs Moduli (GPa) = 51.66787 69.47548 59.69596
#
# Poissons Ratio (x) = 0.40669 -0.05079
# Poissons Ratio (y) = 0.30245 0.17240
# Poissons Ratio (z) = -0.04396 0.20065
#
# Static dielectric constant tensor:
#      x y z
#    x 1.819980 0.011700 0.007330 
#    y 0.011700 1.842230 0.014080 
#    z 0.007330 0.014080 1.746170 
# 
# From -- ./inp_files/273213.got.cif
#   From: 2010.05.17/outbox.cif.g08.bks.cpg/sg2_137_cif.got.tgz:273213.got - 2010.06.03 11:33:40.
