data_PCOD9009868
_publ_section_title
;
Structure prediction by ZEFSAII (Michael W. Deem and Ramdas Pophale) SiO2 
 PCOD9009868
Probable space group: P -1
;
_chemical_formula_sum "Si O2"
_cell_formula_units_Z 14
_cell_length_a 7.096686
_cell_length_b 12.340870
_cell_length_c 8.926837
_cell_angle_alpha 93.856214
_cell_angle_beta 85.274923
_cell_angle_gamma 44.771238
_cell_volume 539.861205
_symmetry_space_group_name_H-M "P -1"
_symmetry_group_IT_number 2
_symmetry_cell_setting 'triclinic'
loop_
_space_group_symop_operation_xyz
x,y,z
-x,-y,-z
loop_
_atom_site_type_symbol
_atom_site_label
_atom_site_fract_x
_atom_site_fract_y
_atom_site_fract_z
Si Si1 0.254326 0.419481 0.254208
Si Si2 0.736794 0.179437 0.417538
Si Si3 0.281310 0.176359 0.195449
Si Si4 0.118099 0.104304 0.920234
Si Si5 0.473918 0.694273 0.079402
Si Si6 0.155283 0.693303 0.318075
Si Si7 0.344737 0.927376 0.323415
O O1 0.537074 0.301045 0.315281
O O2 0.138740 0.345823 0.271422
O O3 0.112124 0.585077 0.340362
O O4 0.307701 0.413806 0.073145
O O5 0.803673 0.250002 0.534159
O O6 0.029179 0.019217 0.325923
O O7 0.603307 0.137345 0.519364
O O8 0.320905 0.063202 0.300635
O O9 0.592434 0.075586 0.116919
O O10 0.142600 0.180405 0.060232
O O11 0.825769 0.169562 0.963527
O O12 0.085823 0.171327 0.764272
O O13 0.419754 0.615537 0.189271
O O14 0.520672 0.782155 0.184613
#
# Coordination Sequence:
#
# PCOD9009868 Si02
#       7
#     2   2   2   2   2   2   2
#     4  12  22  36  63  91 120 151 194 238 299 344
#     4  10  22  40  64  83 115 158 198 243 280 350
#     4  11  22  34  59  92 118 150 190 248 293 346
#     4   9  20  38  59  88 116 153 195 242 288 334
#     4   9  19  38  64  85 112 155 201 242 276 336
#     4   9  22  41  60  85 119 157 197 236 283 351
#     4  10  21  40  60  90 115 151 200 244 293 331
#
# _framework density 25.932593000000001
#
# number of rings (size 3 to 8) (size 9 to 14) (size 15 to 20)
#    0.857    1.143    0.000    4.286    2.000    2.857 
#    0.000    0.714    3.143    0.000    0.000    0.000 
#    0.000    0.000    0.000    0.000    0.000    0.000 
#
# Total GULP energy -78271.987856 kJ/mol
# GULP energy per Si atom -5590.856275 kJ/mol
# Density = 2.587357 g / cm^3
# Si number density = 25.932593 Si / 1000 Ang^3
#
#
#
# Elastic Constant Matrix: (Units=GPa)
#
#
# Indices 1 2 3 4 5 6 
#
# 1 74.4452 27.2596 25.3307 3.5125 5.1410 31.0690
# 2 27.2596 78.7688 33.5459 9.6023 16.4364 50.9916
# 3 25.3307 33.5459 98.4695 10.5016 13.7059 17.5050
# 4 3.5125 9.6023 10.5016 23.2905 7.2761 13.4844
# 5 5.1410 16.4364 13.7059 7.2761 32.3293 1.2184
# 6 31.0690 50.9916 17.5050 13.4844 1.2184 53.7084
#
#
#
# Elastic Compliance Matrix: (Units=1/GPa)
#
#
# Indices 1 2 3 4 5 6 
#
# 1 0.020587 0.008700 -0.004576 0.009745 -0.007160 -0.020962
# 2 0.008700 0.055661 -0.008992 0.023714 -0.028936 -0.060245
# 3 -0.004576 -0.008992 0.013508 -0.006854 0.000795 0.008484
# 4 0.009745 0.023714 -0.006854 0.066700 -0.024125 -0.042116
# 5 -0.007160 -0.028936 0.000795 -0.024125 0.050507 0.036266
# 6 -0.020962 -0.060245 0.008484 -0.042116 0.036266 0.094928
#
#
# Mechanical properties :
#
#
# Convention : Reuss Voigt Hill
#
# Bulk Modulus (GPa) = 12.49680 47.10624 29.80152
# Shear Modulus (GPa) = 14.77973 32.90215 23.84094
#
# Velocity S-wave (km/s) = 2.38991 3.56583 3.03536
# Velocity P-wave (km/s) = 3.52774 5.92940 4.87867
#
# Compressibility (1/GPa) = 0.08002048
#
# Stress axis : x y z
#
# Youngs Moduli (GPa) = 48.57480 17.96577 74.03094
#
# Poissons Ratio (x) = -0.15631 0.33877
# Poissons Ratio (y) = -0.42261 0.66568
# Poissons Ratio (z) = 0.22228 0.16155
#
# Static dielectric constant tensor:
#      x y z
#    x 2.086540 0.053820 -0.051120 
#    y 0.053820 2.007960 -0.003690 
#    z -0.051120 -0.003690 2.023630 
# 
# From -- ./inp_files/180267.got.cif
#   From: 2010.05.17/outbox.cif.g08.bks.cpg/sg2_91_cif.got.tgz:180267.got - 2010.06.03 11:33:40.
