data_PCOD9009593
_publ_section_title
;
Structure prediction by ZEFSAII (Michael W. Deem and Ramdas Pophale) SiO2 
 PCOD9009593
Probable space group: P -1
;
_chemical_formula_sum "Si O2"
_cell_formula_units_Z 16
_cell_length_a 12.910391
_cell_length_b 9.650466
_cell_length_c 9.253339
_cell_angle_alpha 49.649036
_cell_angle_beta 49.645189
_cell_angle_gamma 58.716111
_cell_volume 659.533996
_symmetry_space_group_name_H-M "P -1"
_symmetry_group_IT_number 2
_symmetry_cell_setting 'triclinic'
loop_
_space_group_symop_operation_xyz
x,y,z
-x,-y,-z
loop_
_atom_site_type_symbol
_atom_site_label
_atom_site_fract_x
_atom_site_fract_y
_atom_site_fract_z
Si Si1 0.740782 0.704405 0.843490
Si Si2 0.080112 0.172391 0.837600
Si Si3 0.054400 0.195991 0.175721
Si Si4 0.500323 0.330226 0.720819
Si Si5 0.442090 0.965267 0.344082
Si Si6 0.662648 0.120448 0.214363
Si Si7 0.150827 0.597252 0.274821
Si Si8 0.182739 0.773478 0.416434
O O1 0.853851 0.704748 0.865906
O O2 0.686278 0.913544 0.701687
O O3 0.793044 0.588677 0.734541
O O4 0.610624 0.631525 0.079342
O O5 0.002260 0.323027 0.697873
O O6 0.238689 0.081206 0.733963
O O7 0.058472 0.244540 0.971778
O O8 0.000000 0.000000 0.000000
O O9 0.901020 0.236158 0.353246
O O10 0.117611 0.976154 0.276101
O O11 0.500000 0.500000 0.500000
O O12 0.654260 0.260761 0.685355
O O13 0.465594 0.161443 0.769246
O O14 0.531996 0.099581 0.248926
O O15 0.388925 0.843392 0.599792
O O16 0.749364 0.263446 0.971909
O O17 0.156458 0.622650 0.423935
#
# Coordination Sequence:
#
# PCOD9009593 Si02
#       8
#     2   2   2   2   2   2   2   2
#     4  12  27  44  73 100 145 182 237 292 353 409
#     4  10  21  39  70  95 135 180 229 276 344 408
#     4  11  24  44  72 106 137 189 232 290 343 421
#     4  12  27  45  72 101 141 185 234 291 351 419
#     4  11  24  42  70  99 138 182 234 288 347 423
#     4  10  22  41  68 101 136 182 232 284 351 417
#     4  11  25  44  70 104 140 186 229 295 344 416
#     4  11  25  44  74 103 142 183 240 280 353 418
#
# _framework density 24.259553
#
# number of rings (size 3 to 8) (size 9 to 14) (size 15 to 20)
#    0.000    1.000    3.750    2.625    7.000    5.000 
#    2.250    0.000    0.000    0.000    0.000    0.000 
#    0.000    0.000    0.000    0.000    0.000    0.000 
#
# Total GULP energy -89666.741285 kJ/mol
# GULP energy per Si atom -5604.171330 kJ/mol
# Density = 2.420434 g / cm^3
# Si number density = 24.259553 Si / 1000 Ang^3
#
#
#
# Elastic Constant Matrix: (Units=GPa)
#
#
# Indices 1 2 3 4 5 6 
#
# 1 89.8409 10.1710 23.8746 15.0454 -5.0850 15.9784
# 2 10.1710 115.9605 25.3734 21.0456 2.0215 13.7520
# 3 23.8746 25.3734 98.6762 27.8638 -6.9794 2.3025
# 4 15.0454 21.0456 27.8638 37.3092 -2.7562 -1.9973
# 5 -5.0850 2.0215 -6.9794 -2.7562 38.2862 8.3112
# 6 15.9784 13.7520 2.3025 -1.9973 8.3112 26.9096
#
#
#
# Elastic Compliance Matrix: (Units=1/GPa)
#
#
# Indices 1 2 3 4 5 6 
#
# 1 0.014461 0.001326 -0.001780 -0.005564 0.003423 -0.010582
# 2 0.001326 0.010638 -0.001181 -0.005981 0.000422 -0.006697
# 3 -0.001780 -0.001181 0.013425 -0.008545 0.001806 -0.000680
# 4 -0.005564 -0.005981 -0.008545 0.039256 -0.001422 0.010444
# 5 0.003423 0.000422 0.001806 -0.001422 0.029286 -0.011554
# 6 -0.010582 -0.006697 -0.000680 0.010444 -0.011554 0.051270
#
#
# Mechanical properties :
#
#
# Convention : Reuss Voigt Hill
#
# Bulk Modulus (GPa) = 28.36499 47.03507 37.70003
# Shear Modulus (GPa) = 28.84203 36.83823 32.84013
#
# Velocity S-wave (km/s) = 3.45177 3.90103 3.68326
# Velocity P-wave (km/s) = 5.25395 6.30246 5.80194
#
# Compressibility (1/GPa) = 0.03525473
#
# Stress axis : x y z
#
# Youngs Moduli (GPa) = 69.15025 94.00182 74.48724
#
# Poissons Ratio (x) = -0.12466 0.13256
# Poissons Ratio (y) = -0.09171 0.08800
# Poissons Ratio (z) = 0.12306 0.11105
#
# Static dielectric constant tensor:
#      x y z
#    x 1.912580 0.015000 -0.014430 
#    y 0.015000 1.913950 -0.065070 
#    z -0.014430 -0.065070 1.947700 
# 
# From -- ./inp_files/242435.got.cif
#   From: 2010.05.17/outbox.cif.g08.bks.cpg/sg2_122_cif.got.tgz:242435.got - 2010.06.03 11:33:40.
