data_PCOD9009704
_publ_section_title
;
Structure prediction by ZEFSAII (Michael W. Deem and Ramdas Pophale) SiO2 
 PCOD9009704
Probable space group: P -1
;
_chemical_formula_sum "Si O2"
_cell_formula_units_Z 16
_cell_length_a 8.672497
_cell_length_b 17.850741
_cell_length_c 5.291290
_cell_angle_alpha 72.873083
_cell_angle_beta 87.642007
_cell_angle_gamma 94.775173
_cell_volume 778.248564
_symmetry_space_group_name_H-M "P -1"
_symmetry_group_IT_number 2
_symmetry_cell_setting 'triclinic'
loop_
_space_group_symop_operation_xyz
x,y,z
-x,-y,-z
loop_
_atom_site_type_symbol
_atom_site_label
_atom_site_fract_x
_atom_site_fract_y
_atom_site_fract_z
Si Si1 0.069072 0.588104 0.962534
Si Si2 0.363512 0.180003 0.439370
Si Si3 0.120568 0.887866 0.570838
Si Si4 0.664774 0.046013 0.887371
Si Si5 0.825867 0.336772 0.615662
Si Si6 0.942523 0.732556 0.654780
Si Si7 0.139496 0.041460 0.724033
Si Si8 0.430850 0.801168 0.087537
O O1 0.186996 0.619403 0.697185
O O2 0.939288 0.649878 0.882552
O O3 0.138476 0.602002 0.221540
O O4 0.000000 0.500000 0.000000
O O5 0.222617 0.235194 0.391219
O O6 0.277681 0.091132 0.511599
O O7 0.451564 0.185717 0.695837
O O8 0.476381 0.201304 0.176615
O O9 0.290063 0.913274 0.422572
O O10 0.065607 0.797672 0.719822
O O11 0.000169 0.904531 0.332469
O O12 0.088352 0.955505 0.700137
O O13 0.668789 0.123229 0.988392
O O14 0.500000 0.000000 0.000000
O O15 0.782594 0.980917 0.999295
O O16 0.682218 0.276068 0.764361
O O17 0.972213 0.286751 0.593953
#
# Coordination Sequence:
#
# PCOD9009704 Si02
#       8
#     2   2   2   2   2   2   2   2
#     4  10  21  40  70 103 123 151 204 256 304 367
#     4  11  25  42  58  90 127 171 209 253 307 363
#     4  10  21  40  54  85 114 165 208 266 297 365
#     4  12  22  34  55  79 119 160 210 253 313 346
#     4  10  22  40  67  97 120 164 199 253 307 363
#     4   9  23  39  67  90 123 163 211 249 310 367
#     4  10  23  37  56  79 120 164 217 255 310 345
#     4  12  25  40  62  89 130 163 207 258 307 367
#
# _framework density 20.558986000000001
#
# number of rings (size 3 to 8) (size 9 to 14) (size 15 to 20)
#    0.750    0.750    2.500    2.250    5.250    1.000 
#    4.500    0.000    0.000    4.500    0.000    0.000 
#    0.000    0.000    0.000    0.000    0.000    0.000 
#
# Total GULP energy -89193.609527 kJ/mol
# GULP energy per Si atom -5574.600595 kJ/mol
# Density = 2.051219 g / cm^3
# Si number density = 20.558986 Si / 1000 Ang^3
#
#
#
# Elastic Constant Matrix: (Units=GPa)
#
#
# Indices 1 2 3 4 5 6 
#
# 1 46.3602 9.6911 19.9331 -5.4799 -12.4143 -1.8590
# 2 9.6911 123.5465 16.3439 -9.0171 -6.3278 2.5882
# 3 19.9331 16.3439 92.1762 6.5739 -18.7902 -2.5277
# 4 -5.4799 -9.0171 6.5739 37.2460 2.7743 2.0478
# 5 -12.4143 -6.3278 -18.7902 2.7743 37.5266 -3.4664
# 6 -1.8590 2.5882 -2.5277 2.0478 -3.4664 18.1545
#
#
#
# Elastic Compliance Matrix: (Units=1/GPa)
#
#
# Indices 1 2 3 4 5 6 
#
# 1 0.025854 -0.000925 -0.004344 0.003722 0.006218 0.002942
# 2 -0.000925 0.008576 -0.001525 0.002304 0.000041 -0.001782
# 3 -0.004344 -0.001525 0.013596 -0.004009 0.005706 0.003207
# 4 0.003722 0.002304 -0.004009 0.029120 -0.002943 -0.004352
# 5 0.006218 0.000041 0.005706 -0.002943 0.032523 0.007967
# 6 0.002942 -0.001782 0.003207 -0.004352 0.007967 0.058097
#
#
# Mechanical properties :
#
#
# Convention : Reuss Voigt Hill
#
# Bulk Modulus (GPa) = 29.03810 39.33544 34.18677
# Shear Modulus (GPa) = 25.92909 32.99307 29.46108
#
# Velocity S-wave (km/s) = 3.55520 4.01034 3.78961
# Velocity P-wave (km/s) = 5.56844 6.37325 5.98439
#
# Compressibility (1/GPa) = 0.03443751
#
# Stress axis : x y z
#
# Youngs Moduli (GPa) = 38.67806 116.60336 73.55237
#
# Poissons Ratio (x) = 0.10784 0.31952
# Poissons Ratio (y) = 0.03577 0.11220
# Poissons Ratio (z) = 0.16802 0.17787
#
# Static dielectric constant tensor:
#      x y z
#    x 1.800010 0.023480 0.040570 
#    y 0.023480 1.728920 0.034040 
#    z 0.040570 0.034040 1.821170 
# 
# From -- ./inp_files/47094.got.cif
#   From: 2010.05.17/outbox.cif.g08.bks.cpg/sg2_24_cif.got.tgz:47094.got - 2010.06.03 11:33:40.
