data_PCOD9009350
_publ_section_title
;
Structure prediction by ZEFSAII (Michael W. Deem and Ramdas Pophale) SiO2 
 PCOD9009350
Probable space group: P -1
;
_chemical_formula_sum "Si O2"
_cell_formula_units_Z 16
_cell_length_a 14.332798
_cell_length_b 5.953691
_cell_length_c 18.592889
_cell_angle_alpha 94.532522
_cell_angle_beta 151.304820
_cell_angle_gamma 77.621692
_cell_volume 723.709678
_symmetry_space_group_name_H-M "P -1"
_symmetry_group_IT_number 2
_symmetry_cell_setting 'triclinic'
loop_
_space_group_symop_operation_xyz
x,y,z
-x,-y,-z
loop_
_atom_site_type_symbol
_atom_site_label
_atom_site_fract_x
_atom_site_fract_y
_atom_site_fract_z
Si Si1 0.506139 0.854453 0.429158
Si Si2 0.897770 0.786347 0.436547
Si Si3 0.819360 0.824870 0.874994
Si Si4 0.838031 0.966941 0.554827
Si Si5 0.522869 0.435765 0.348325
Si Si6 0.797962 0.248895 0.958577
Si Si7 0.374292 0.233783 0.880545
Si Si8 0.777541 0.339592 0.114315
O O1 0.688522 0.900242 0.508368
O O2 0.538647 0.577536 0.435117
O O3 0.500000 0.000000 0.500000
O O4 0.286720 0.964693 0.246907
O O5 0.816804 0.838902 0.463721
O O6 0.744776 0.826210 0.268042
O O7 0.000000 0.500000 0.500000
O O8 0.000000 0.000000 0.500000
O O9 0.648142 0.695880 0.761204
O O10 0.032071 0.693789 0.977016
O O11 0.833040 0.968846 0.960516
O O12 0.062998 0.870027 0.738198
O O13 0.741778 0.245114 0.480406
O O14 0.426570 0.608809 0.220691
O O15 0.826394 0.313095 0.061742
O O16 0.228978 0.418673 0.842686
O O17 0.545859 0.337267 0.965860
O O18 0.500000 0.000000 0.000000
#
# Coordination Sequence:
#
# PCOD9009350 Si02
#       8
#     2   2   2   2   2   2   2   2
#     4  10  22  41  65  96 139 182 231 299 352 433
#     4  12  28  50  80 108 150 197 246 309 373 446
#     4   9  20  39  59 100 132 176 225 286 353 427
#     4  11  25  43  68 104 139 188 238 291 370 435
#     4  10  23  39  66  97 135 180 238 280 357 429
#     4  10  21  39  68  92 136 176 229 288 354 424
#     4  11  27  46  70 102 142 183 246 298 373 430
#     4  11  25  45  67 100 138 183 234 299 359 434
#
# _framework density 22.108312999999999
#
# number of rings (size 3 to 8) (size 9 to 14) (size 15 to 20)
#    0.000    1.500    1.250    1.875   10.500    3.000 
#    0.000    3.750    0.000    0.000    0.000    0.000 
#    0.000    0.000    0.000    0.000    0.000    0.000 
#
# Total GULP energy -89223.842865 kJ/mol
# GULP energy per Si atom -5576.490179 kJ/mol
# Density = 2.205799 g / cm^3
# Si number density = 22.108313 Si / 1000 Ang^3
#
#
#
# Elastic Constant Matrix: (Units=GPa)
#
#
# Indices 1 2 3 4 5 6 
#
# 1 106.7851 42.9275 30.1982 16.4959 -23.4231 -38.8541
# 2 42.9275 108.2652 53.6636 2.0685 -16.3177 -38.8024
# 3 30.1982 53.6636 140.6408 1.6898 -20.7231 -29.8919
# 4 16.4959 2.0685 1.6898 49.9631 -5.2191 0.7469
# 5 -23.4231 -16.3177 -20.7231 -5.2191 34.8887 13.6270
# 6 -38.8541 -38.8024 -29.8919 0.7469 13.6270 45.8497
#
#
#
# Elastic Compliance Matrix: (Units=1/GPa)
#
#
# Indices 1 2 3 4 5 6 
#
# 1 0.015665 -0.001729 0.000356 -0.004742 0.005064 0.010616
# 2 -0.001729 0.014772 -0.003356 -0.000023 0.000334 0.008750
# 3 0.000356 -0.003356 0.009338 0.000001 0.003201 0.002598
# 4 -0.004742 -0.000023 0.000001 0.021868 0.002029 -0.004997
# 5 0.005064 0.000334 0.003201 0.002029 0.036016 -0.004076
# 6 0.010616 0.008750 0.002598 -0.004997 -0.004076 0.041198
#
#
# Mechanical properties :
#
#
# Convention : Reuss Voigt Hill
#
# Bulk Modulus (GPa) = 32.98555 67.69664 50.34109
# Shear Modulus (GPa) = 31.56134 41.40042 36.48088
#
# Velocity S-wave (km/s) = 3.78243 4.33207 4.06655
# Velocity P-wave (km/s) = 5.83336 7.46387 6.69841
#
# Compressibility (1/GPa) = 0.03031631
#
# Stress axis : x y z
#
# Youngs Moduli (GPa) = 63.83698 67.69408 107.08479
#
# Poissons Ratio (x) = 0.11704 -0.03807
# Poissons Ratio (y) = 0.11037 0.35940
# Poissons Ratio (z) = -0.02270 0.22720
#
# Static dielectric constant tensor:
#      x y z
#    x 1.848060 0.032830 0.023050 
#    y 0.032830 1.988820 -0.015590 
#    z 0.023050 -0.015590 1.816450 
# 
# From -- ./inp_files/117044.got.cif
#   From: 2010.05.17/outbox.cif.g08.bks.cpg/sg2_59_cif.got.tgz:117044.got - 2010.06.03 11:33:40.
