data_PCOD9009291
_publ_section_title
;
Structure prediction by ZEFSAII (Michael W. Deem and Ramdas Pophale) SiO2 
 PCOD9009291
Probable space group: P -1
;
_chemical_formula_sum "Si O2"
_cell_formula_units_Z 12
_cell_length_a 9.468765
_cell_length_b 24.781060
_cell_length_c 7.182650
_cell_angle_alpha 53.607791
_cell_angle_beta 112.971607
_cell_angle_gamma 155.476932
_cell_volume 503.577604
_symmetry_space_group_name_H-M "P -1"
_symmetry_group_IT_number 2
_symmetry_cell_setting 'triclinic'
loop_
_space_group_symop_operation_xyz
x,y,z
-x,-y,-z
loop_
_atom_site_type_symbol
_atom_site_label
_atom_site_fract_x
_atom_site_fract_y
_atom_site_fract_z
Si Si1 0.337258 0.998949 0.030246
Si Si2 0.354847 0.334294 0.401652
Si Si3 0.520886 0.843250 0.519697
Si Si4 0.446923 0.664005 0.869387
Si Si5 0.698324 0.507434 0.584938
Si Si6 0.715313 0.157830 0.268197
O O1 0.257851 0.024750 0.788614
O O2 0.649339 0.147249 0.040221
O O3 0.500000 0.000000 0.000000
O O4 0.969496 0.830940 0.302441
O O5 0.480497 0.338364 0.289409
O O6 0.690546 0.482993 0.414829
O O7 0.138777 0.311831 0.245143
O O8 0.639039 0.813765 0.668390
O O9 0.474129 0.864525 0.645268
O O10 0.099858 0.673228 0.555326
O O11 0.535974 0.642214 0.110948
O O12 0.000000 0.500000 0.000000
O O13 0.500000 0.500000 0.500000
O O14 0.500000 0.000000 0.500000
#
# Coordination Sequence:
#
# PCOD9009291 Si02
#       6
#     2   2   2   2   2   2
#     4  11  22  41  71 100 136 172 229 280 331 402
#     4  11  24  41  71 102 132 182 229 272 339 403
#     4  11  23  44  67 102 140 179 217 290 337 388
#     4  10  27  45  63 100 148 175 220 284 341 396
#     4  11  23  44  72 102 131 177 237 277 328 410
#     4  10  21  39  68 100 133 177 227 273 331 398
#
# _framework density 23.829494
#
# number of rings (size 3 to 8) (size 9 to 14) (size 15 to 20)
#    0.000    1.333    5.000    0.000    4.667    8.000 
#    0.000    5.833    0.000    0.000    0.000    0.000 
#    0.000    0.000    0.000    0.000    0.000    0.000 
#
# Total GULP energy -67174.341152 kJ/mol
# GULP energy per Si atom -5597.861763 kJ/mol
# Density = 2.377526 g / cm^3
# Si number density = 23.829494 Si / 1000 Ang^3
#
#
#
# Elastic Constant Matrix: (Units=GPa)
#
#
# Indices 1 2 3 4 5 6 
#
# 1 149.2523 33.0038 89.3204 32.2614 -3.1167 -22.7597
# 2 33.0038 115.5347 58.5204 35.0704 -1.4286 -11.6651
# 3 89.3204 58.5204 151.1295 31.0228 6.1871 -6.5360
# 4 32.2614 35.0704 31.0228 52.9041 -5.2576 -14.9069
# 5 -3.1167 -1.4286 6.1871 -5.2576 60.9099 8.8630
# 6 -22.7597 -11.6651 -6.5360 -14.9069 8.8630 36.5286
#
#
#
# Elastic Compliance Matrix: (Units=1/GPa)
#
#
# Indices 1 2 3 4 5 6 
#
# 1 0.011862 0.001400 -0.006794 -0.002601 0.000307 0.005486
# 2 0.001400 0.012470 -0.004331 -0.006135 0.000047 0.001565
# 3 -0.006794 -0.004331 0.012509 -0.001485 -0.001315 -0.003665
# 4 -0.002601 -0.006135 -0.001485 0.027548 0.001218 0.007101
# 5 0.000307 0.000047 -0.001315 0.001218 0.017213 -0.003708
# 6 0.005486 0.001565 -0.003665 0.007101 -0.003708 0.034435
#
#
# Mechanical properties :
#
#
# Convention : Reuss Voigt Hill
#
# Bulk Modulus (GPa) = 57.50021 86.40061 71.95041
# Shear Modulus (GPa) = 35.38986 45.73999 40.56492
#
# Velocity S-wave (km/s) = 3.85792 4.38593 4.13037
# Velocity P-wave (km/s) = 6.63528 7.87306 7.28052
#
# Compressibility (1/GPa) = 0.01739124
#
# Stress axis : x y z
#
# Youngs Moduli (GPa) = 84.30626 80.19232 79.94032
#
# Poissons Ratio (x) = -0.11228 0.54311
# Poissons Ratio (y) = -0.11804 0.34622
# Poissons Ratio (z) = 0.57277 0.34732
#
# Static dielectric constant tensor:
#      x y z
#    x 1.842570 0.040260 0.031270 
#    y 0.040260 2.035760 -0.032110 
#    z 0.031270 -0.032110 1.898900 
# 
# From -- ./inp_files/52773.got.cif
#   From: 2010.05.17/outbox.cif.g08.bks.cpg/sg2_27_cif.got.tgz:52773.got - 2010.06.03 11:33:40.
