data_PCOD9009763
_publ_section_title
;
Structure prediction by ZEFSAII (Michael W. Deem and Ramdas Pophale) SiO2 
 PCOD9009763
Probable space group: P -1
;
_chemical_formula_sum "Si O2"
_cell_formula_units_Z 15
_cell_length_a 14.899739
_cell_length_b 9.693004
_cell_length_c 9.591346
_cell_angle_alpha 92.890014
_cell_angle_beta 45.615234
_cell_angle_gamma 57.154637
_cell_volume 580.750521
_symmetry_space_group_name_H-M "P -1"
_symmetry_group_IT_number 2
_symmetry_cell_setting 'triclinic'
loop_
_space_group_symop_operation_xyz
x,y,z
-x,-y,-z
loop_
_atom_site_type_symbol
_atom_site_label
_atom_site_fract_x
_atom_site_fract_y
_atom_site_fract_z
Si Si1 0.367986 0.229399 0.960089
Si Si2 0.500000 0.000000 0.500000
Si Si3 0.812494 0.259805 0.032049
Si Si4 0.877219 0.275968 0.664474
Si Si5 0.327140 0.997821 0.158747
Si Si6 0.542050 0.702162 0.494948
Si Si7 0.702320 0.499339 0.588277
Si Si8 0.098511 0.117351 0.952170
O O1 0.602307 0.054985 0.760684
O O2 0.394155 0.154684 0.773125
O O3 0.218642 0.494044 0.162254
O O4 0.276809 0.187694 0.152863
O O5 0.665077 0.734082 0.394093
O O6 0.609268 0.539334 0.292722
O O7 0.989643 0.189438 0.925763
O O8 0.851960 0.204525 0.824072
O O9 0.820019 0.105941 0.093778
O O10 0.752593 0.356474 0.659395
O O11 0.126830 0.078420 0.358056
O O12 0.545450 0.752057 0.835857
O O13 0.568936 0.583181 0.597363
O O14 0.329051 0.985038 0.696681
O O15 0.934811 0.316091 0.256500
#
# Coordination Sequence:
#
# PCOD9009763 Si02
#       8
#     2   1   2   2   2   2   2   2
#     4  10  22  39  57  90 126 158 207 244 295 374
#     4  12  22  38  64  96 122 154 210 250 288 382
#     4  10  23  42  64  94 119 155 218 252 294 376
#     4  11  22  39  63  90 122 163 203 249 304 363
#     4  10  21  40  59  83 130 168 192 245 310 356
#     4  11  22  43  62  90 128 162 195 257 312 354
#     4  10  22  39  61  89 122 156 206 249 296 369
#     4  10  23  43  66  87 122 165 200 259 314 345
#
# _framework density 25.828647
#
# number of rings (size 3 to 8) (size 9 to 14) (size 15 to 20)
#    0.000    1.600    2.667    1.600    1.867    0.533 
#    0.000    4.667    0.000    0.000    0.000    0.000 
#    0.000    0.000    0.000    0.000    0.000    0.000 
#
# Total GULP energy -83537.321404 kJ/mol
# GULP energy per Si atom -5569.154760 kJ/mol
# Density = 2.576986 g / cm^3
# Si number density = 25.828647 Si / 1000 Ang^3
#
#
#
# Elastic Constant Matrix: (Units=GPa)
#
#
# Indices 1 2 3 4 5 6 
#
# 1 91.4934 39.8741 41.5149 -0.4156 20.1717 -9.5122
# 2 39.8741 114.2628 46.9892 8.2631 16.2055 -4.8987
# 3 41.5149 46.9892 117.7570 9.1966 7.7704 -7.6184
# 4 -0.4156 8.2631 9.1966 32.4339 1.2656 16.8274
# 5 20.1717 16.2055 7.7704 1.2656 30.4296 5.0964
# 6 -9.5122 -4.8987 -7.6184 16.8274 5.0964 58.3081
#
#
#
# Elastic Compliance Matrix: (Units=1/GPa)
#
#
# Indices 1 2 3 4 5 6 
#
# 1 0.016056 -0.002749 -0.003939 0.001172 -0.008605 0.002288
# 2 -0.002749 0.011802 -0.003212 -0.002610 -0.003736 0.001203
# 3 -0.003939 -0.003212 0.011421 -0.003250 0.001305 0.001403
# 4 0.001172 -0.002610 -0.003250 0.038434 0.001804 -0.011702
# 5 -0.008605 -0.003736 0.001305 0.001804 0.041096 -0.005660
# 6 0.002288 0.001203 0.001403 -0.011702 -0.005660 0.021680
#
#
# Mechanical properties :
#
#
# Convention : Reuss Voigt Hill
#
# Bulk Modulus (GPa) = 51.34017 64.47439 57.90728
# Shear Modulus (GPa) = 29.97924 37.24331 33.61127
#
# Velocity S-wave (km/s) = 3.41060 3.80141 3.61129
# Velocity P-wave (km/s) = 5.95230 6.65463 6.31324
#
# Compressibility (1/GPa) = 0.01947793
#
# Stress axis : x y z
#
# Youngs Moduli (GPa) = 62.28375 84.72986 87.55846
#
# Poissons Ratio (x) = 0.23295 0.34489
# Poissons Ratio (y) = 0.17123 0.28125
# Poissons Ratio (z) = 0.24534 0.27216
#
# Static dielectric constant tensor:
#      x y z
#    x 2.377350 0.012700 -0.427810 
#    y 0.012700 2.168380 -0.034520 
#    z -0.427810 -0.034520 2.484350 
# 
# From -- ./inp_files/37377.got.cif
#   From: 2010.05.17/outbox.cif.g08.bks.cpg/sg2_19_cif.got.tgz:37377.got - 2010.06.03 11:33:40.
