data_PCOD9009612
_publ_section_title
;
Structure prediction by ZEFSAII (Michael W. Deem and Ramdas Pophale) SiO2 
 PCOD9009612
Probable space group: P -1
;
_chemical_formula_sum "Si O2"
_cell_formula_units_Z 14
_cell_length_a 16.741541
_cell_length_b 8.835449
_cell_length_c 23.727628
_cell_angle_alpha 33.114683
_cell_angle_beta 158.606313
_cell_angle_gamma 153.324118
_cell_volume 574.434616
_symmetry_space_group_name_H-M "P -1"
_symmetry_group_IT_number 2
_symmetry_cell_setting 'triclinic'
loop_
_space_group_symop_operation_xyz
x,y,z
-x,-y,-z
loop_
_atom_site_type_symbol
_atom_site_label
_atom_site_fract_x
_atom_site_fract_y
_atom_site_fract_z
Si Si1 0.208548 0.170331 0.636350
Si Si2 0.008265 0.489475 0.736529
Si Si3 0.727778 0.764035 0.225970
Si Si4 0.130690 0.490745 0.933718
Si Si5 0.667569 0.419516 0.176533
Si Si6 0.787666 0.350828 0.856277
Si Si7 0.513062 0.690326 0.586070
O O1 0.125895 0.243448 0.618912
O O2 0.453345 0.496013 0.666864
O O3 0.254030 0.885010 0.773351
O O4 0.000000 0.000000 0.500000
O O5 0.026774 0.322142 0.856163
O O6 0.055710 0.402638 0.732733
O O7 0.745204 0.484874 0.569583
O O8 0.731712 0.590644 0.226035
O O9 0.825959 0.144121 0.156265
O O10 0.419480 0.563611 0.105937
O O11 0.925529 0.308791 0.906109
O O12 0.481881 0.014859 0.191530
O O13 0.500000 0.500000 0.000000
O O14 0.719617 0.626357 0.714597
O O15 0.000000 0.500000 0.000000
O O16 0.500000 0.000000 0.500000
#
# Coordination Sequence:
#
# PCOD9009612 Si02
#       7
#     2   2   2   2   2   2   2
#     4   9  19  42  65  92 132 186 224 277 345 416
#     4  10  22  44  69  95 141 186 228 279 359 419
#     4  10  21  39  70  99 137 185 237 284 352 419
#     4  10  22  41  67 100 137 180 232 292 347 417
#     4  12  24  42  71 106 140 186 237 291 347 425
#     4  12  27  43  69 105 142 181 239 298 351 412
#     4  11  25  42  69  99 140 184 229 293 359 413
#
# _framework density 24.371791000000002
#
# number of rings (size 3 to 8) (size 9 to 14) (size 15 to 20)
#    0.000    1.429    2.857    1.714    6.000    2.286 
#    0.000    2.857    0.000    0.000    0.000    0.000 
#    0.000    0.000    0.000    0.000    0.000    0.000 
#
# Total GULP energy -78018.583872 kJ/mol
# GULP energy per Si atom -5572.755991 kJ/mol
# Density = 2.431632 g / cm^3
# Si number density = 24.371791 Si / 1000 Ang^3
#
#
#
# Elastic Constant Matrix: (Units=GPa)
#
#
# Indices 1 2 3 4 5 6 
#
# 1 205.6787 34.6443 54.3656 11.1625 -16.5119 0.8560
# 2 34.6443 60.8227 14.4767 -13.5942 7.5485 -14.7165
# 3 54.3656 14.4767 98.3074 9.6951 3.3583 0.0233
# 4 11.1625 -13.5942 9.6951 29.5033 -3.7568 3.8199
# 5 -16.5119 7.5485 3.3583 -3.7568 48.5822 7.2462
# 6 0.8560 -14.7165 0.0233 3.8199 7.2462 36.6070
#
#
#
# Elastic Compliance Matrix: (Units=1/GPa)
#
#
# Indices 1 2 3 4 5 6 
#
# 1 0.006938 -0.005024 -0.002897 -0.003218 0.003467 -0.002531
# 2 -0.005024 0.025839 -0.002034 0.012335 -0.006185 0.010443
# 3 -0.002897 -0.002034 0.012553 -0.004211 -0.001870 0.000051
# 4 -0.003218 0.012335 -0.004211 0.042168 0.000460 0.000546
# 5 0.003467 -0.006185 -0.001870 0.000460 0.023986 -0.007362
# 6 -0.002531 0.010443 0.000051 0.000546 -0.007362 0.032975
#
#
# Mechanical properties :
#
#
# Convention : Reuss Voigt Hill
#
# Bulk Modulus (GPa) = 39.34185 63.53133 51.43659
# Shear Modulus (GPa) = 28.92822 40.35997 34.64410
#
# Velocity S-wave (km/s) = 3.44896 4.07383 3.77435
# Velocity P-wave (km/s) = 5.66020 6.94638 6.33601
#
# Compressibility (1/GPa) = 0.02541823
#
# Stress axis : x y z
#
# Youngs Moduli (GPa) = 144.14341 38.70193 79.66175
#
# Poissons Ratio (x) = 0.19444 0.23079
# Poissons Ratio (y) = 0.72417 0.16206
# Poissons Ratio (z) = 0.41761 0.07873
#
# Static dielectric constant tensor:
#      x y z
#    x 2.071190 -0.100650 0.002770 
#    y -0.100650 2.244850 0.177000 
#    z 0.002770 0.177000 2.146710 
# 
# From -- ./inp_files/597129.got.cif
#   From: 2010.05.17/outbox.cif.g08.bks.cpg/sg2_299_cif.got.tgz:597129.got - 2010.06.03 11:33:40.
