data_PCOD9009045
_publ_section_title
;
Structure prediction by ZEFSAII (Michael W. Deem and Ramdas Pophale) SiO2 
 PCOD9009045
Probable space group: P -1
;
_chemical_formula_sum "Si O2"
_cell_formula_units_Z 16
_cell_length_a 22.489052
_cell_length_b 8.980546
_cell_length_c 27.048713
_cell_angle_alpha 154.331514
_cell_angle_beta 17.933680
_cell_angle_gamma 152.572126
_cell_volume 709.869927
_symmetry_space_group_name_H-M "P -1"
_symmetry_group_IT_number 2
_symmetry_cell_setting 'triclinic'
loop_
_space_group_symop_operation_xyz
x,y,z
-x,-y,-z
loop_
_atom_site_type_symbol
_atom_site_label
_atom_site_fract_x
_atom_site_fract_y
_atom_site_fract_z
Si Si1 0.461552 0.175680 0.634640
Si Si2 0.844503 0.316168 0.999434
Si Si3 0.653335 0.937006 0.125868
Si Si4 0.774372 0.016894 0.553426
Si Si5 0.826246 0.138090 0.151430
Si Si6 0.788919 0.774697 0.578540
Si Si7 0.479497 0.869561 0.032871
Si Si8 0.880163 0.827733 0.745670
O O1 0.325175 0.468203 0.818463
O O2 0.669153 0.363130 0.553691
O O3 0.500000 0.000000 0.500000
O O4 0.334756 0.882279 0.684007
O O5 0.811302 0.219475 0.054064
O O6 0.049743 0.528159 0.876867
O O7 0.839961 0.932495 0.864044
O O8 0.444949 0.042789 0.312554
O O9 0.615919 0.545294 0.016246
O O10 0.711514 0.911066 0.128989
O O11 0.842285 0.414767 0.640740
O O12 0.918417 0.989337 0.386117
O O13 0.792340 0.802203 0.524398
O O14 0.000000 0.000000 0.000000
O O15 0.000000 0.000000 0.500000
O O16 0.640516 0.956178 0.781005
O O17 0.706186 0.957172 0.895227
O O18 0.500000 0.000000 0.000000
#
# Coordination Sequence:
#
# PCOD9009045 Si02
#       8
#     2   2   2   2   2   2   2   2
#     4  11  25  46  68  98 145 188 235 293 354 416
#     4  11  22  43  70  95 134 184 241 282 348 420
#     4  11  22  42  70 101 139 176 235 289 355 415
#     4  10  22  40  65  99 138 177 222 293 352 412
#     4  10  25  43  67  96 136 184 239 285 344 420
#     4  12  24  41  68 102 140 181 236 286 355 414
#     4  11  22  38  67 102 140 180 224 289 357 421
#     4  10  21  39  66  98 134 175 226 281 349 416
#
# _framework density 22.539339999999999
#
# number of rings (size 3 to 8) (size 9 to 14) (size 15 to 20)
#    0.000    1.250    2.500    2.625    3.500    6.000 
#    0.000    6.250    0.000    0.000    0.000    0.000 
#    0.000    0.000    0.000    0.000    0.000    0.000 
#
# Total GULP energy -89154.700850 kJ/mol
# GULP energy per Si atom -5572.168803 kJ/mol
# Density = 2.248804 g / cm^3
# Si number density = 22.539340 Si / 1000 Ang^3
#
#
#
# Elastic Constant Matrix: (Units=GPa)
#
#
# Indices 1 2 3 4 5 6 
#
# 1 -146.5808 862.8214 -799.6644 201.0001 159.2331 -173.7781
# 2 862.8214-2692.3169 2845.1207 -769.1021 -448.9684 595.0952
# 3 -799.6644 2845.1207-2686.1180 721.1369 484.6129 -586.5361
# 4 201.0001 -769.1021 721.1369 -159.1186 -120.1056 165.9721
# 5 159.2331 -448.9684 484.6129 -120.1056 -47.5268 89.5081
# 6 -173.7781 595.0952 -586.5361 165.9721 89.5081 -83.7822
#
#
#
# Elastic Compliance Matrix: (Units=1/GPa)
#
#
# Indices 1 2 3 4 5 6 
#
# 1 0.014759 0.001732 -0.000449 0.011841 -0.014030 -0.006696
# 2 0.001732 0.005180 0.004817 0.005233 -0.011165 -0.002090
# 3 -0.000449 0.004817 0.008437 0.013185 -0.009728 -0.008191
# 4 0.011841 0.005233 0.013185 0.048485 -0.032558 -0.018434
# 5 -0.014030 -0.011165 -0.009728 -0.032558 0.066448 0.024393
# 6 -0.006696 -0.002090 -0.008191 -0.018434 0.024393 0.033992
#
#
# Mechanical properties :
#
#
# Convention : Reuss Voigt Hill
#
# Bulk Modulus (GPa) = 24.64492 32.39330 28.51911
# Shear Modulus (GPa) = 27.99151 -620.30508 -296.15679
#
# Velocity S-wave (km/s) = 3.52788 -16.60745 -11.47522
# Velocity P-wave (km/s) = 5.24904 18.79734 12.76299
#
# Compressibility (1/GPa) = 0.04057632
#
# Stress axis : x y z
#
# Youngs Moduli (GPa) = 67.75630 193.06389 118.52241
#
# Poissons Ratio (x) = -0.33441 0.05324
# Poissons Ratio (y) = -0.11736 -0.57097
# Poissons Ratio (z) = 0.03044 -0.93007
#
# Static dielectric constant tensor:
#      x y z
#    x 1.843180 -0.012180 0.028390 
#    y -0.012180 1.918190 0.011360 
#    z 0.028390 0.011360 1.818270 
# 
# From -- ./inp_files/190361.got.cif
#   From: 2010.05.17/outbox.cif.g08.bks.cpg/sg2_96_cif.got.tgz:190361.got - 2010.06.03 11:33:40.
