data_PCOD9009306
_publ_section_title
;
Structure prediction by ZEFSAII (Michael W. Deem and Ramdas Pophale) SiO2 
 PCOD9009306
Probable space group: P -1
;
_chemical_formula_sum "Si O2"
_cell_formula_units_Z 16
_cell_length_a 5.176666
_cell_length_b 16.281928
_cell_length_c 8.733929
_cell_angle_alpha 97.192634
_cell_angle_beta 124.578275
_cell_angle_gamma 88.656850
_cell_volume 600.317181
_symmetry_space_group_name_H-M "P -1"
_symmetry_group_IT_number 2
_symmetry_cell_setting 'triclinic'
loop_
_space_group_symop_operation_xyz
x,y,z
-x,-y,-z
loop_
_atom_site_type_symbol
_atom_site_label
_atom_site_fract_x
_atom_site_fract_y
_atom_site_fract_z
Si Si1 0.744540 0.927702 0.954746
Si Si2 0.910612 0.312292 0.994703
Si Si3 0.687242 0.219481 0.163722
Si Si4 0.089005 0.710982 0.346937
Si Si5 0.314653 0.030756 0.691652
Si Si6 0.631175 0.472185 0.877743
Si Si7 0.701979 0.815484 0.475727
Si Si8 0.441028 0.616227 0.660235
O O1 0.635753 0.830025 0.908340
O O2 0.507552 0.950101 0.744949
O O3 0.710582 0.947119 0.131067
O O4 0.000000 0.000000 0.000000
O O5 0.050532 0.299557 0.870850
O O6 0.639699 0.374091 0.872906
O O7 0.749706 0.234097 0.009017
O O8 0.187498 0.353241 0.205929
O O9 0.991272 0.170117 0.308384
O O10 0.691385 0.312001 0.258224
O O11 0.857051 0.756671 0.388952
O O12 0.223869 0.626901 0.441459
O O13 0.410727 0.769177 0.452218
O O14 0.428923 0.107113 0.641408
O O15 0.000000 0.000000 0.500000
O O16 0.443730 0.522731 0.701115
O O17 0.500000 0.500000 0.000000
O O18 0.000000 0.500000 0.000000
#
# Coordination Sequence:
#
# PCOD9009306 Si02
#       8
#     2   2   2   2   2   2   2   2
#     4  11  27  44  69 103 133 179 239 290 349 424
#     4  11  23  41  71  97 138 184 231 279 350 412
#     4  11  22  44  71  95 137 185 230 285 354 413
#     4  11  26  41  68 103 137 179 238 281 344 407
#     4  11  25  47  67  95 138 179 225 290 362 413
#     4  10  21  39  68 101 137 183 227 279 344 407
#     4  11  25  46  68 101 137 183 230 292 342 423
#     4  10  23  42  67 100 141 179 229 288 341 411
#
# _framework density 26.652574999999999
#
# number of rings (size 3 to 8) (size 9 to 14) (size 15 to 20)
#    0.000    1.250    3.750    0.750    5.250    5.000 
#    0.000    0.000    0.000    5.250    0.000    0.000 
#    0.000    0.000    0.000    0.000    0.000    0.000 
#
# Total GULP energy -89323.830658 kJ/mol
# GULP energy per Si atom -5582.739416 kJ/mol
# Density = 2.659191 g / cm^3
# Si number density = 26.652575 Si / 1000 Ang^3
#
#
#
# Elastic Constant Matrix: (Units=GPa)
#
#
# Indices 1 2 3 4 5 6 
#
# 1 86.6335 17.3872 6.5853 -2.6978 -1.1362 22.2944
# 2 17.3872 102.4387 49.2603 -43.2178 -1.3796 18.9905
# 3 6.5853 49.2603 132.4151 -46.9874 1.2181 2.2672
# 4 -2.6978 -43.2178 -46.9874 61.2260 1.9359 0.8885
# 5 -1.1362 -1.3796 1.2181 1.9359 29.7135 -3.6073
# 6 22.2944 18.9905 2.2672 0.8885 -3.6073 38.1612
#
#
#
# Elastic Compliance Matrix: (Units=1/GPa)
#
#
# Indices 1 2 3 4 5 6 
#
# 1 0.013677 -0.000810 -0.000261 -0.000045 -0.000425 -0.007611
# 2 -0.000810 0.016836 -0.002505 0.010067 -0.000782 -0.008065
# 3 -0.000261 -0.002505 0.010819 0.006545 -0.000934 0.000516
# 4 -0.000045 0.010067 0.006545 0.028628 -0.002429 -0.006269
# 5 -0.000425 -0.000782 -0.000934 -0.002429 0.034283 0.003990
# 6 -0.007611 -0.008065 0.000516 -0.006269 0.003990 0.035157
#
#
# Mechanical properties :
#
#
# Convention : Reuss Voigt Hill
#
# Bulk Modulus (GPa) = 29.25650 51.99475 40.62563
# Shear Modulus (GPa) = 31.65649 42.37045 37.01347
#
# Velocity S-wave (km/s) = 3.45011 3.99147 3.73062
# Velocity P-wave (km/s) = 5.18380 6.38695 5.81657
#
# Compressibility (1/GPa) = 0.03418043
#
# Stress axis : x y z
#
# Youngs Moduli (GPa) = 73.11623 59.39659 92.42689
#
# Poissons Ratio (x) = 0.04811 0.02410
# Poissons Ratio (y) = 0.05922 0.23155
# Poissons Ratio (z) = 0.01906 0.14880
#
# Static dielectric constant tensor:
#      x y z
#    x 2.130190 -0.050290 0.001100 
#    y -0.050290 2.219150 -0.005130 
#    z 0.001100 -0.005130 2.078950 
# 
# From -- ./inp_files/104572.got.cif
#   From: 2010.05.17/outbox.cif.g08.bks.cpg/sg2_53_cif.got.tgz:104572.got - 2010.06.03 11:33:40.
