data_PCOD9009507
_publ_section_title
;
Structure prediction by ZEFSAII (Michael W. Deem and Ramdas Pophale) SiO2 
 PCOD9009507
Probable space group: P -1
;
_chemical_formula_sum "Si O2"
_cell_formula_units_Z 14
_cell_length_a 8.000041
_cell_length_b 11.657453
_cell_length_c 6.950103
_cell_angle_alpha 79.459963
_cell_angle_beta 70.170690
_cell_angle_gamma 116.621361
_cell_volume 500.002940
_symmetry_space_group_name_H-M "P -1"
_symmetry_group_IT_number 2
_symmetry_cell_setting 'triclinic'
loop_
_space_group_symop_operation_xyz
x,y,z
-x,-y,-z
loop_
_atom_site_type_symbol
_atom_site_label
_atom_site_fract_x
_atom_site_fract_y
_atom_site_fract_z
Si Si1 0.481328 0.305914 0.594197
Si Si2 0.798737 0.231439 0.481217
Si Si3 0.222532 0.481830 0.154490
Si Si4 0.251956 0.008668 0.184807
Si Si5 0.370690 0.273192 0.203413
Si Si6 0.258870 0.848974 0.919293
Si Si7 0.823640 0.601927 0.239248
O O1 0.588988 0.223188 0.637351
O O2 0.424693 0.260505 0.405357
O O3 0.672720 0.471920 0.475937
O O4 0.280219 0.305568 0.754332
O O5 0.849437 0.133698 0.610684
O O6 0.765667 0.177204 0.290143
O O7 0.986384 0.396003 0.356798
O O8 0.294791 0.377885 0.212571
O O9 0.421564 0.640400 0.044214
O O10 0.198497 0.467010 0.937323
O O11 0.202610 0.122198 0.226991
O O12 0.500939 0.090774 0.128639
O O13 0.214731 0.959861 0.994402
O O14 0.076343 0.702642 0.133730
#
# Coordination Sequence:
#
# PCOD9009507 Si02
#       7
#     2   2   2   2   2   2   2
#     4  10  21  39  69  92 132 165 217 271 327 376
#     4  11  23  43  68  98 127 174 219 270 322 387
#     4   9  22  41  67  96 125 168 224 266 327 378
#     4  11  24  41  66  96 136 172 214 267 327 387
#     4  10  21  41  66  93 130 171 213 270 322 390
#     4  10  23  42  63  95 135 168 221 261 321 391
#     4   9  21  41  64  96 127 170 216 268 326 384
#
# _framework density 27.999836999999999
#
# number of rings (size 3 to 8) (size 9 to 14) (size 15 to 20)
#    0.000    2.000    1.429    0.429    4.000    4.571 
#    0.000    2.857    0.000    0.000    0.000    0.000 
#    0.000    0.000    0.000    0.000    0.000    0.000 
#
# Total GULP energy -78382.072752 kJ/mol
# GULP energy per Si atom -5598.719482 kJ/mol
# Density = 2.793611 g / cm^3
# Si number density = 27.999837 Si / 1000 Ang^3
#
#
#
# Elastic Constant Matrix: (Units=GPa)
#
#
# Indices 1 2 3 4 5 6 
#
# 1 65.8813 -7.2146 10.6704 10.7972 -19.1363 -13.8413
# 2 -7.2146 130.3828 22.7917 22.3615 11.3947 -10.0997
# 3 10.6704 22.7917 99.3833 -8.8172 -7.1736 -0.6642
# 4 10.7972 22.3615 -8.8172 46.6642 8.4787 -1.9534
# 5 -19.1363 11.3947 -7.1736 8.4787 39.8764 -2.6243
# 6 -13.8413 -10.0997 -0.6642 -1.9534 -2.6243 47.7280
#
#
#
# Elastic Compliance Matrix: (Units=1/GPa)
#
#
# Indices 1 2 3 4 5 6 
#
# 1 0.022393 0.002822 -0.002943 -0.008925 0.011790 0.007333
# 2 0.002822 0.009558 -0.003015 -0.005594 -0.000563 0.002539
# 3 -0.002943 -0.003015 0.011470 0.004144 0.000557 -0.001132
# 4 -0.008925 -0.005594 0.004144 0.028315 -0.008157 -0.003004
# 5 0.011790 -0.000563 0.000557 -0.008157 0.033046 0.004791
# 6 0.007333 0.002539 -0.001132 -0.003004 0.004791 0.023741
#
#
# Mechanical properties :
#
#
# Convention : Reuss Voigt Hill
#
# Bulk Modulus (GPa) = 26.91921 38.68247 32.80084
# Shear Modulus (GPa) = 33.97252 44.81371 39.39312
#
# Velocity S-wave (km/s) = 3.48704 4.00496 3.75494
# Velocity P-wave (km/s) = 5.08405 5.93562 5.52626
#
# Compressibility (1/GPa) = 0.03714819
#
# Stress axis : x y z
#
# Youngs Moduli (GPa) = 44.65769 104.62176 87.18564
#
# Poissons Ratio (x) = -0.29522 0.25659
# Poissons Ratio (y) = -0.12602 0.26286
# Poissons Ratio (z) = 0.13143 0.31543
#
# Static dielectric constant tensor:
#      x y z
#    x 2.252910 -0.002510 0.000240 
#    y -0.002510 2.181590 0.020890 
#    z 0.000240 0.020890 2.198210 
# 
# From -- ./inp_files/177591.got.cif
#   From: 2010.05.17/outbox.cif.g08.bks.cpg/sg2_89_cif.got.tgz:177591.got - 2010.06.03 11:33:40.
