data_PCOD9009910
_publ_section_title
;
Structure prediction by ZEFSAII (Michael W. Deem and Ramdas Pophale) SiO2 
 PCOD9009910
Probable space group: P -1
;
_chemical_formula_sum "Si O2"
_cell_formula_units_Z 16
_cell_length_a 16.517995
_cell_length_b 12.829334
_cell_length_c 15.221805
_cell_angle_alpha 57.849267
_cell_angle_beta 155.460521
_cell_angle_gamma 138.768102
_cell_volume 734.438423
_symmetry_space_group_name_H-M "P -1"
_symmetry_group_IT_number 2
_symmetry_cell_setting 'triclinic'
loop_
_space_group_symop_operation_xyz
x,y,z
-x,-y,-z
loop_
_atom_site_type_symbol
_atom_site_label
_atom_site_fract_x
_atom_site_fract_y
_atom_site_fract_z
Si Si1 0.904297 0.923953 0.660651
Si Si2 0.134551 0.487863 0.304150
Si Si3 0.305095 0.521532 0.266502
Si Si4 0.718454 0.067539 0.093126
Si Si5 0.175310 0.040410 0.067409
Si Si6 0.531937 0.574968 0.793952
Si Si7 0.069093 0.843666 0.549173
Si Si8 0.921298 0.265665 0.834539
O O1 0.551465 0.735777 0.380081
O O2 0.096558 0.908065 0.812255
O O3 0.975251 0.082427 0.606875
O O4 0.968495 0.945580 0.818429
O O5 0.149043 0.497815 0.209900
O O6 0.404085 0.536109 0.587182
O O7 0.837696 0.265955 0.133715
O O8 0.189093 0.648296 0.327556
O O9 0.500000 0.500000 0.500000
O O10 0.100045 0.377240 0.051074
O O11 0.822406 0.053181 0.293684
O O12 0.363117 0.898689 0.797596
O O13 0.409027 0.262509 0.179854
O O14 0.000000 0.000000 0.000000
O O15 0.272612 0.948306 0.232563
O O16 0.848586 0.659311 0.050760
O O17 0.256050 0.375309 0.658793
#
# Coordination Sequence:
#
# PCOD9009910 Si02
#       8
#     2   2   2   2   2   2   2   2
#     4  12  22  38  63  89 122 161 196 243 302 357
#     4  11  21  35  61  88 119 151 193 246 308 362
#     4  12  18  35  59  88 120 150 181 245 314 361
#     4  10  21  40  60  94 125 148 194 248 301 364
#     4  10  22  41  62  85 119 160 206 253 293 346
#     4  10  22  42  57  80 119 159 204 248 288 342
#     4  10  23  38  62  88 120 162 198 241 299 361
#     4  11  21  36  61  89 116 155 195 246 308 359
#
# _framework density 21.785354000000002
#
# number of rings (size 3 to 8) (size 9 to 14) (size 15 to 20)
#    0.000    1.250    3.750    3.000    0.000    5.000 
#    0.000    3.125    0.000    0.000    0.000    0.000 
#    0.000    0.000    0.000    0.000    0.000    0.000 
#
# Total GULP energy -89195.527066 kJ/mol
# GULP energy per Si atom -5574.720442 kJ/mol
# Density = 2.173577 g / cm^3
# Si number density = 21.785354 Si / 1000 Ang^3
#
#
#
# Elastic Constant Matrix: (Units=GPa)
#
#
# Indices 1 2 3 4 5 6 
#
# 1 84.9303 36.5579 13.0036 0.4111 3.9454 5.6574
# 2 36.5579 131.4366 23.1146 4.0709 11.9637 13.9719
# 3 13.0036 23.1146 15.7107 -3.9387 1.2666 2.2596
# 4 0.4111 4.0709 -3.9387 37.6899 7.0639 0.1769
# 5 3.9454 11.9637 1.2666 7.0639 33.3759 1.5659
# 6 5.6574 13.9719 2.2596 0.1769 1.5659 27.4384
#
#
#
# Elastic Compliance Matrix: (Units=1/GPa)
#
#
# Indices 1 2 3 4 5 6 
#
# 1 0.014126 -0.002308 -0.008298 -0.000705 -0.000330 -0.001030
# 2 -0.002308 0.011625 -0.014968 -0.002278 -0.002654 -0.004045
# 3 -0.008298 -0.014968 0.095234 0.011614 0.000208 0.001403
# 4 -0.000705 -0.002278 0.011614 0.029069 -0.005716 0.000488
# 5 -0.000330 -0.002654 0.000208 -0.005716 0.032173 -0.000397
# 6 -0.001030 -0.004045 0.001403 0.000488 -0.000397 0.038621
#
#
# Mechanical properties :
#
#
# Convention : Reuss Voigt Hill
#
# Bulk Modulus (GPa) = 14.31917 41.93665 28.12791
# Shear Modulus (GPa) = 16.93346 30.32759 23.63053
#
# Velocity S-wave (km/s) = 2.79101 3.73515 3.29705
# Velocity P-wave (km/s) = 4.11988 6.15577 5.23770
#
# Compressibility (1/GPa) = 0.06983645
#
# Stress axis : x y z
#
# Youngs Moduli (GPa) = 70.79247 86.02430 10.50048
#
# Poissons Ratio (x) = 0.19857 0.08713
# Poissons Ratio (y) = 0.16341 0.15717
# Poissons Ratio (z) = 0.58742 1.28760
#
# Static dielectric constant tensor:
#      x y z
#    x 1.782380 0.006540 0.027540 
#    y 0.006540 1.911860 -0.017640 
#    z 0.027540 -0.017640 1.863430 
# 
# From -- ./inp_files/531823.got.cif
#   From: 2010.05.17/outbox.cif.g08.bks.cpg/sg2_266_cif.got.tgz:531823.got - 2010.06.03 11:33:40.
