data_PCOD9009290
_publ_section_title
;
Structure prediction by ZEFSAII (Michael W. Deem and Ramdas Pophale) SiO2 
 PCOD9009290
Probable space group: P -1
;
_chemical_formula_sum "Si O2"
_cell_formula_units_Z 10
_cell_length_a 11.029062
_cell_length_b 24.861197
_cell_length_c 5.289453
_cell_angle_alpha 38.952631
_cell_angle_beta 124.252728
_cell_angle_gamma 152.697995
_cell_volume 374.627191
_symmetry_space_group_name_H-M "P -1"
_symmetry_group_IT_number 2
_symmetry_cell_setting 'triclinic'
loop_
_space_group_symop_operation_xyz
x,y,z
-x,-y,-z
loop_
_atom_site_type_symbol
_atom_site_label
_atom_site_fract_x
_atom_site_fract_y
_atom_site_fract_z
Si Si1 0.718142 0.884884 0.327009
Si Si2 0.173119 0.825249 0.891311
Si Si3 0.480336 0.119870 0.407360
Si Si4 0.057266 0.429740 0.743825
Si Si5 0.723788 0.739313 0.533100
O O1 0.554544 0.837526 0.549520
O O2 0.702728 0.777150 0.641883
O O3 0.597482 0.869101 0.985053
O O4 0.053825 0.087289 0.996548
O O5 0.903065 0.742401 0.754034
O O6 0.500000 0.000000 0.500000
O O7 0.255716 0.926781 0.857161
O O8 0.056282 0.669038 0.293429
O O9 0.820435 0.265171 0.251863
O O10 0.394054 0.574528 0.647284
O O11 0.000000 0.500000 0.500000
#
# Coordination Sequence:
#
# PCOD9009290 Si02
#       5
#     2   2   2   2   2
#     4  10  22  41  71  99 134 179 225 272 337 405
#     4   9  21  40  65  96 135 178 223 276 336 400
#     4  10  22  45  68  99 136 179 221 276 337 405
#     4  11  21  42  67 100 137 173 226 280 337 396
#     4  10  21  39  68 100 133 175 226 278 333 398
#
# _framework density 26.693204999999999
#
# number of rings (size 3 to 8) (size 9 to 14) (size 15 to 20)
#    0.000    2.000    2.000    0.600    2.800    8.000 
#    0.000   26.000    0.000    0.000    0.000    0.000 
#    0.000    0.000    0.000    0.000    0.000    0.000 
#
# Total GULP energy -55819.237875 kJ/mol
# GULP energy per Si atom -5581.923788 kJ/mol
# Density = 2.663245 g / cm^3
# Si number density = 26.693205 Si / 1000 Ang^3
#
#
#
# Elastic Constant Matrix: (Units=GPa)
#
#
# Indices 1 2 3 4 5 6 
#
# 1 163.4550 85.5743 37.4595 -1.7186 6.0142 5.4132
# 2 85.5743 189.5272 62.6779 -28.7099 -5.9919 30.1195
# 3 37.4595 62.6779 57.8421 -11.6202 14.6463 5.5706
# 4 -1.7186 -28.7099 -11.6202 55.8082 -4.2646 -2.5619
# 5 6.0142 -5.9919 14.6463 -4.2646 62.6548 -10.3140
# 6 5.4132 30.1195 5.5706 -2.5619 -10.3140 70.3670
#
#
#
# Elastic Compliance Matrix: (Units=1/GPa)
#
#
# Indices 1 2 3 4 5 6 
#
# 1 0.008434 -0.003698 -0.001759 -0.002025 -0.000743 0.000891
# 2 -0.003698 0.011342 -0.009697 0.003820 0.003447 -0.003159
# 3 -0.001759 -0.009697 0.031021 0.000851 -0.007835 0.000713
# 4 -0.002025 0.003820 0.000851 0.020097 0.001634 -0.000576
# 5 -0.000743 0.003447 -0.007835 0.001634 0.018632 0.001993
# 6 0.000891 -0.003159 0.000713 -0.000576 0.001993 0.015709
#
#
# Mechanical properties :
#
#
# Convention : Reuss Voigt Hill
#
# Bulk Modulus (GPa) = 48.80499 86.91641 67.86070
# Shear Modulus (GPa) = 35.11897 52.77352 43.94624
#
# Velocity S-wave (km/s) = 3.63113 4.45121 4.06192
# Velocity P-wave (km/s) = 5.99195 7.68438 6.89033
#
# Compressibility (1/GPa) = 0.02048971
#
# Stress axis : x y z
#
# Youngs Moduli (GPa) = 118.57404 88.16474 32.23595
#
# Poissons Ratio (x) = 0.32603 0.05670
# Poissons Ratio (y) = 0.43848 0.31259
# Poissons Ratio (z) = 0.20857 0.85492
#
# Static dielectric constant tensor:
#      x y z
#    x 2.212570 -0.036550 0.014930 
#    y -0.036550 2.196010 0.105460 
#    z 0.014930 0.105460 2.218870 
# 
# From -- ./inp_files/84656.got.cif
#   From: 2010.05.17/outbox.cif.g08.bks.cpg/sg2_43_cif.got.tgz:84656.got - 2010.06.03 11:33:40.
