data_PCOD9009761
_publ_section_title
;
Structure prediction by ZEFSAII (Michael W. Deem and Ramdas Pophale) SiO2 
 PCOD9009761
Probable space group: P -1
;
_chemical_formula_sum "Si O2"
_cell_formula_units_Z 16
_cell_length_a 12.724285
_cell_length_b 9.631955
_cell_length_c 9.468538
_cell_angle_alpha 47.808490
_cell_angle_beta 78.152917
_cell_angle_gamma 90.179716
_cell_volume 825.410350
_symmetry_space_group_name_H-M "P -1"
_symmetry_group_IT_number 2
_symmetry_cell_setting 'triclinic'
loop_
_space_group_symop_operation_xyz
x,y,z
-x,-y,-z
loop_
_atom_site_type_symbol
_atom_site_label
_atom_site_fract_x
_atom_site_fract_y
_atom_site_fract_z
Si Si1 0.824664 0.490097 0.494136
Si Si2 0.934143 0.223307 0.466355
Si Si3 0.411708 0.981053 0.660933
Si Si4 0.166687 0.880765 0.732182
Si Si5 0.594416 0.600957 0.508755
Si Si6 0.159456 0.526292 0.174126
Si Si7 0.592771 0.425777 0.935753
Si Si8 0.033960 0.116516 0.771453
O O1 0.850091 0.350728 0.460784
O O2 0.714248 0.571223 0.445071
O O3 0.821524 0.406821 0.712363
O O4 0.928928 0.663361 0.349863
O O5 0.892308 0.131516 0.393164
O O6 0.055901 0.352040 0.322327
O O7 0.945979 0.088985 0.688474
O O8 0.295899 0.922146 0.654440
O O9 0.500000 0.000000 0.500000
O O10 0.412926 0.178901 0.608254
O O11 0.420493 0.801614 0.881199
O O12 0.136673 0.049212 0.718821
O O13 0.133294 0.688281 0.965724
O O14 0.500000 0.500000 0.500000
O O15 0.577490 0.489545 0.737766
O O16 0.278849 0.485778 0.123766
O O17 0.500000 0.500000 0.000000
O O18 0.000000 0.000000 0.000000
#
# Coordination Sequence:
#
# PCOD9009761 Si02
#       8
#     2   2   2   2   2   2   2   2
#     4  10  21  40  59  83 120 159 201 242 311 365
#     4  11  22  36  60  91 118 161 202 251 303 364
#     4  11  23  41  67  90 123 167 205 254 323 370
#     4  11  22  38  60  91 120 151 208 256 298 367
#     4  11  24  42  66  92 123 159 213 265 306 367
#     4   9  20  37  61  84 120 161 198 243 312 364
#     4  10  21  40  66  93 123 167 206 250 321 373
#     4  11  21  38  59  84 124 160 194 240 305 365
#
# _framework density 19.384298000000001
#
# number of rings (size 3 to 8) (size 9 to 14) (size 15 to 20)
#    0.000    1.500    2.500    3.750    1.750    0.500 
#    0.000    1.250    0.000    0.000    0.000    0.000 
#    0.000    0.000    0.000    0.000    0.000    0.000 
#
# Total GULP energy -89299.199388 kJ/mol
# GULP energy per Si atom -5581.199962 kJ/mol
# Density = 1.934018 g / cm^3
# Si number density = 19.384298 Si / 1000 Ang^3
#
#
#
# Elastic Constant Matrix: (Units=GPa)
#
#
# Indices 1 2 3 4 5 6 
#
# 1 96.3851 45.3024 36.0452 -2.6047 1.6010 -10.7463
# 2 45.3024 73.1055 33.5730 2.8132 -1.1723 -6.6303
# 3 36.0452 33.5730 99.0962 -7.7461 9.0109 0.8210
# 4 -2.6047 2.8132 -7.7461 17.5117 -5.3512 -0.0528
# 5 1.6010 -1.1723 9.0109 -5.3512 33.6896 8.7286
# 6 -10.7463 -6.6303 0.8210 -0.0528 8.7286 40.5768
#
#
#
# Elastic Compliance Matrix: (Units=1/GPa)
#
#
# Indices 1 2 3 4 5 6 
#
# 1 0.015697 -0.008328 -0.002668 0.002275 -0.000741 0.003013
# 2 -0.008328 0.021439 -0.004852 -0.006486 0.001112 0.001148
# 3 -0.002668 -0.004852 0.013369 0.005555 -0.002413 -0.001243
# 4 0.002275 -0.006486 0.005555 0.063659 0.008915 -0.002405
# 5 -0.000741 0.001112 -0.002413 0.008915 0.033684 -0.007200
# 6 0.003013 0.001148 -0.001243 -0.002405 -0.007200 0.027201
#
#
# Mechanical properties :
#
#
# Convention : Reuss Voigt Hill
#
# Bulk Modulus (GPa) = 53.16294 55.38089 54.27191
# Shear Modulus (GPa) = 23.47260 28.60004 26.03632
#
# Velocity S-wave (km/s) = 3.48359 3.84529 3.66890
# Velocity P-wave (km/s) = 6.60801 6.95320 6.78280
#
# Compressibility (1/GPa) = 0.01881010
#
# Stress axis : x y z
#
# Youngs Moduli (GPa) = 63.70759 46.64320 74.79824
#
# Poissons Ratio (x) = 0.38845 0.19954
# Poissons Ratio (y) = 0.53056 0.36291
# Poissons Ratio (z) = 0.16995 0.22630
#
# Static dielectric constant tensor:
#      x y z
#    x 1.709900 -0.025570 -0.000210 
#    y -0.025570 1.690070 -0.037840 
#    z -0.000210 -0.037840 1.703990 
# 
# From -- ./inp_files/186422.got.cif
#   From: 2010.05.17/outbox.cif.g08.bks.cpg/sg2_94_cif.got.tgz:186422.got - 2010.06.03 11:33:40.
