data_PCOD9009641
_publ_section_title
;
Structure prediction by ZEFSAII (Michael W. Deem and Ramdas Pophale) SiO2 
 PCOD9009641
Probable space group: P -1
;
_chemical_formula_sum "Si O2"
_cell_formula_units_Z 12
_cell_length_a 14.120596
_cell_length_b 8.379512
_cell_length_c 14.633189
_cell_angle_alpha 78.985496
_cell_angle_beta 160.015289
_cell_angle_gamma 100.319154
_cell_volume 580.856344
_symmetry_space_group_name_H-M "P -1"
_symmetry_group_IT_number 2
_symmetry_cell_setting 'triclinic'
loop_
_space_group_symop_operation_xyz
x,y,z
-x,-y,-z
loop_
_atom_site_type_symbol
_atom_site_label
_atom_site_fract_x
_atom_site_fract_y
_atom_site_fract_z
Si Si1 0.303644 0.039262 0.234488
Si Si2 0.915842 0.103364 0.119196
Si Si3 0.969882 0.547920 0.861115
Si Si4 0.145842 0.815489 0.460334
Si Si5 0.478824 0.609834 0.656720
Si Si6 0.403029 0.047630 0.006691
O O1 0.356794 0.225120 0.235992
O O2 0.500000 0.000000 0.500000
O O3 0.308244 0.933378 0.158216
O O4 0.000000 0.000000 0.000000
O O5 0.752363 0.102995 0.067168
O O6 0.081997 0.261484 0.223839
O O7 0.101316 0.940733 0.320456
O O8 0.727023 0.446361 0.604105
O O9 0.270577 0.516163 0.091308
O O10 0.000000 0.500000 0.000000
O O11 0.286724 0.655735 0.563894
O O12 0.346730 0.894048 0.708834
O O13 0.836766 0.813289 0.221873
O O14 0.500000 0.000000 0.000000
#
# Coordination Sequence:
#
# PCOD9009641 Si02
#       6
#     2   2   2   2   2   2
#     4  12  23  37  61  87 120 167 218 257 298 363
#     4  10  24  39  65  91 128 161 220 255 313 371
#     4  12  26  39  58  91 134 172 209 254 313 371
#     4  10  21  40  67  91 120 162 214 258 318 371
#     4  12  23  41  59  88 127 170 203 261 312 366
#     4  10  21  39  71  97 118 151 215 275 318 370
#
# _framework density 20.659153
#
# number of rings (size 3 to 8) (size 9 to 14) (size 15 to 20)
#    1.000    0.000    1.667    7.000    2.333    0.000 
#    0.000    0.000    0.000    6.000    0.000    0.000 
#    0.000    0.000    0.000    0.000    0.000    0.000 
#
# Total GULP energy -66960.659505 kJ/mol
# GULP energy per Si atom -5580.054959 kJ/mol
# Density = 2.061213 g / cm^3
# Si number density = 20.659153 Si / 1000 Ang^3
#
#
#
# Elastic Constant Matrix: (Units=GPa)
#
#
# Indices 1 2 3 4 5 6 
#
# 1 102.9262 14.2667 16.5015 6.3521 1.2557 -12.1533
# 2 14.2667 53.8798 10.7204 13.5288 -1.9806 -9.0472
# 3 16.5015 10.7204 132.8196 12.5728 6.3161 -14.4115
# 4 6.3521 13.5288 12.5728 42.3702 -11.7437 5.9311
# 5 1.2557 -1.9806 6.3161 -11.7437 28.2470 -0.3801
# 6 -12.1533 -9.0472 -14.4115 5.9311 -0.3801 22.1599
#
#
#
# Elastic Compliance Matrix: (Units=1/GPa)
#
#
# Indices 1 2 3 4 5 6 
#
# 1 0.010787 -0.001298 -0.000328 -0.002293 -0.001373 0.005763
# 2 -0.001298 0.023065 0.000577 -0.009601 -0.002290 0.011611
# 3 -0.000328 0.000577 0.008937 -0.004852 -0.003865 0.007100
# 4 -0.002293 -0.009601 -0.004852 0.035004 0.014832 -0.017447
# 5 -0.001373 -0.002290 -0.003865 0.014832 0.042233 -0.007447
# 6 0.005763 0.011611 0.007100 -0.017447 -0.007447 0.062187
#
#
# Mechanical properties :
#
#
# Convention : Reuss Voigt Hill
#
# Bulk Modulus (GPa) = 24.57554 41.40032 32.98793
# Shear Modulus (GPa) = 25.26869 35.09789 30.18329
#
# Velocity S-wave (km/s) = 3.50111 4.12625 3.82647
# Velocity P-wave (km/s) = 5.31651 6.54098 5.96027
#
# Compressibility (1/GPa) = 0.04069086
#
# Stress axis : x y z
#
# Youngs Moduli (GPa) = 92.70518 43.35587 111.89878
#
# Poissons Ratio (x) = 0.05628 0.03668
# Poissons Ratio (y) = 0.12035 -0.06458
# Poissons Ratio (z) = 0.03039 -0.02502
#
# Static dielectric constant tensor:
#      x y z
#    x 1.768140 -0.016730 0.046310 
#    y -0.016730 1.756630 -0.040080 
#    z 0.046310 -0.040080 1.750740 
# 
# From -- ./inp_files/528680.got.cif
#   From: 2010.05.17/outbox.cif.g08.bks.cpg/sg2_265_cif.got.tgz:528680.got - 2010.06.03 11:33:40.
