data_PCOD9009461
_publ_section_title
;
Structure prediction by ZEFSAII (Michael W. Deem and Ramdas Pophale) SiO2 
 PCOD9009461
Probable space group: P -1
;
_chemical_formula_sum "Si O2"
_cell_formula_units_Z 15
_cell_length_a 8.186381
_cell_length_b 7.596253
_cell_length_c 18.818189
_cell_angle_alpha 46.532633
_cell_angle_beta 139.757068
_cell_angle_gamma 126.562488
_cell_volume 542.426149
_symmetry_space_group_name_H-M "P -1"
_symmetry_group_IT_number 2
_symmetry_cell_setting 'triclinic'
loop_
_space_group_symop_operation_xyz
x,y,z
-x,-y,-z
loop_
_atom_site_type_symbol
_atom_site_label
_atom_site_fract_x
_atom_site_fract_y
_atom_site_fract_z
Si Si1 0.706776 0.657710 0.574282
Si Si2 0.000000 0.000000 0.000000
Si Si3 0.880800 0.176790 0.513930
Si Si4 0.496955 0.040173 0.071821
Si Si5 0.202785 0.486438 0.728080
Si Si6 0.514542 0.729654 0.292722
Si Si7 0.034885 0.036611 0.251358
Si Si8 0.702488 0.793606 0.845777
O O1 0.500000 0.500000 0.500000
O O2 0.622566 0.537189 0.655571
O O3 0.989062 0.613515 0.661863
O O4 0.721812 0.944340 0.486706
O O5 0.251132 0.135889 0.996762
O O6 0.939522 0.784889 0.978410
O O7 0.801313 0.409666 0.383664
O O8 0.190282 0.216042 0.600103
O O9 0.837965 0.084950 0.606249
O O10 0.490813 0.788662 0.185892
O O11 0.788020 0.162918 0.155373
O O12 0.500000 0.000000 0.000000
O O13 0.086508 0.204983 0.765568
O O14 0.465202 0.579991 0.828932
O O15 0.366909 0.940143 0.221791
O O16 0.216439 0.187314 0.214054
#
# Coordination Sequence:
#
# PCOD9009461 Si02
#       8
#     2   1   2   2   2   2   2   2
#     4  12  22  39  68 100 142 193 241 285 343 423
#     4  10  22  44  78  98 132 186 230 298 370 410
#     4  11  24  41  65 100 143 190 232 289 349 418
#     4  10  21  43  75  99 133 181 232 292 362 413
#     4  12  24  40  66 102 142 191 238 281 354 431
#     4  10  21  39  69 101 137 184 236 286 346 423
#     4  11  25  42  66 101 143 180 233 298 350 422
#     4  11  22  42  68  98 137 186 233 294 359 416
#
# _framework density 27.653531000000001
#
# number of rings (size 3 to 8) (size 9 to 14) (size 15 to 20)
#    0.000    1.067    5.333    1.600    0.000    2.667 
#    0.000    1.333   11.733    0.000    0.000    0.000 
#    0.000    0.000    0.000    0.000    0.000    0.000 
#
# Total GULP energy -83711.015715 kJ/mol
# GULP energy per Si atom -5580.734381 kJ/mol
# Density = 2.759059 g / cm^3
# Si number density = 27.653531 Si / 1000 Ang^3
#
#
#
# Elastic Constant Matrix: (Units=GPa)
#
#
# Indices 1 2 3 4 5 6 
#
# 1 150.9428 4.5522 27.9923 6.2357 -20.0814 24.9326
# 2 4.5522 114.2511 3.3968 9.4631 8.8608 20.3326
# 3 27.9923 3.3968 82.4772 10.2390 -20.0080 2.2543
# 4 6.2357 9.4631 10.2390 41.3300 -1.1569 3.8733
# 5 -20.0814 8.8608 -20.0080 -1.1569 53.4618 4.0443
# 6 24.9326 20.3326 2.2543 3.8733 4.0443 33.3375
#
#
#
# Elastic Compliance Matrix: (Units=1/GPa)
#
#
# Indices 1 2 3 4 5 6 
#
# 1 0.008524 0.000769 -0.002014 -0.000225 0.002847 -0.007027
# 2 0.000769 0.010103 -0.000569 -0.001725 -0.001155 -0.006358
# 3 -0.002014 -0.000569 0.014300 -0.003045 0.004572 0.000686
# 4 -0.000225 -0.001725 -0.003045 0.025512 -0.000272 -0.001505
# 5 0.002847 -0.001155 0.004572 -0.000272 0.022002 -0.004372
# 6 -0.007027 -0.006358 0.000686 -0.001505 -0.004372 0.039788
#
#
# Mechanical properties :
#
#
# Convention : Reuss Voigt Hill
#
# Bulk Modulus (GPa) = 34.13268 46.61707 40.37487
# Shear Modulus (GPa) = 37.41852 46.40786 41.91319
#
# Velocity S-wave (km/s) = 3.68247 4.10102 3.89736
# Velocity P-wave (km/s) = 5.51820 6.27045 5.90631
#
# Compressibility (1/GPa) = 0.02929744
#
# Stress axis : x y z
#
# Youngs Moduli (GPa) = 117.31372 98.98235 69.93091
#
# Poissons Ratio (x) = -0.07608 0.14084
# Poissons Ratio (y) = -0.09017 0.03981
# Poissons Ratio (z) = 0.23627 0.05635
#
# Static dielectric constant tensor:
#      x y z
#    x 2.300170 -0.055410 0.194550 
#    y -0.055410 2.103380 0.171130 
#    z 0.194550 0.171130 3.498620 
# 
# From -- ./inp_files/586639.got.cif
#   From: 2010.05.17/outbox.cif.g08.bks.cpg/sg2_294_cif.got.tgz:586639.got - 2010.06.03 11:33:40.
