data_PCOD9009886
_publ_section_title
;
Structure prediction by ZEFSAII (Michael W. Deem and Ramdas Pophale) SiO2 
 PCOD9009886
Probable space group: P -1
;
_chemical_formula_sum "Si O2"
_cell_formula_units_Z 16
_cell_length_a 22.826716
_cell_length_b 9.007886
_cell_length_c 6.848893
_cell_angle_alpha 52.922541
_cell_angle_beta 132.520416
_cell_angle_gamma 135.940418
_cell_volume 702.666753
_symmetry_space_group_name_H-M "P -1"
_symmetry_group_IT_number 2
_symmetry_cell_setting 'triclinic'
loop_
_space_group_symop_operation_xyz
x,y,z
-x,-y,-z
loop_
_atom_site_type_symbol
_atom_site_label
_atom_site_fract_x
_atom_site_fract_y
_atom_site_fract_z
Si Si1 0.559241 0.485426 0.434862
Si Si2 0.959409 0.209452 0.639952
Si Si3 0.149260 0.263657 0.128842
Si Si4 0.317150 0.573568 0.532359
Si Si5 0.061103 0.504806 0.314308
Si Si6 0.729557 0.709526 0.957440
Si Si7 0.554621 0.872095 0.232490
Si Si8 0.733951 0.146708 0.604145
O O1 0.598393 0.422118 0.390952
O O2 0.643949 0.591507 0.702507
O O3 0.536236 0.675703 0.199911
O O4 0.476450 0.268907 0.523876
O O5 0.930732 0.352343 0.588671
O O6 0.996630 0.268354 0.456404
O O7 0.872299 0.964745 0.650826
O O8 0.050809 0.246211 0.930027
O O9 0.229084 0.455955 0.281590
O O10 0.184240 0.275579 0.977619
O O11 0.326267 0.800768 0.426735
O O12 0.295795 0.433746 0.792753
O O13 0.167935 0.626747 0.387594
O O14 0.000000 0.500000 0.000000
O O15 0.750589 0.953079 0.852592
O O16 0.665270 0.052379 0.337095
O O17 0.500000 0.000000 0.000000
#
# Coordination Sequence:
#
# PCOD9009886 Si02
#       8
#     2   2   2   2   2   2   2   2
#     4   9  22  42  63  96 125 162 212 252 315 389
#     4  10  22  38  62  86 124 167 214 266 314 376
#     4  10  21  40  60  91 123 170 216 257 322 377
#     4  11  23  39  65  94 128 169 208 259 319 378
#     4  11  23  40  61  94 127 165 214 266 314 374
#     4  10  21  41  63  90 133 164 209 266 311 378
#     4  10  21  42  69  91 128 168 203 262 321 372
#     4  11  23  40  62  96 126 163 217 260 312 380
#
# _framework density 22.770396999999999
#
# number of rings (size 3 to 8) (size 9 to 14) (size 15 to 20)
#    0.000    1.750    1.250    2.250    1.750    2.500 
#    0.000   14.375    0.000    0.000    0.000    0.000 
#    0.000    0.000    0.000    0.000    0.000    0.000 
#
# Total GULP energy -89280.215186 kJ/mol
# GULP energy per Si atom -5580.013449 kJ/mol
# Density = 2.271857 g / cm^3
# Si number density = 22.770397 Si / 1000 Ang^3
#
#
#
# Elastic Constant Matrix: (Units=GPa)
#
#
# Indices 1 2 3 4 5 6 
#
# 1 121.3857 27.4616 2.0764 -0.4882 -4.4890 -12.9397
# 2 27.4616 69.8089 7.4148 -0.7693 -6.6384 -7.5362
# 3 2.0764 7.4148 50.4367 1.4443 -7.0272 -2.3668
# 4 -0.4882 -0.7693 1.4443 16.5616 1.9901 6.4387
# 5 -4.4890 -6.6384 -7.0272 1.9901 31.9289 -4.4370
# 6 -12.9397 -7.5362 -2.3668 6.4387 -4.4370 43.1989
#
#
#
# Elastic Compliance Matrix: (Units=1/GPa)
#
#
# Indices 1 2 3 4 5 6 
#
# 1 0.009288 -0.003334 0.000409 -0.001018 0.001112 0.002489
# 2 -0.003334 0.016316 -0.001756 -0.000344 0.002850 0.002096
# 3 0.000409 -0.001756 0.020915 -0.003217 0.004764 0.001931
# 4 -0.001018 -0.000344 -0.003217 0.065679 -0.006545 -0.011003
# 5 0.001112 0.002850 0.004764 -0.006545 0.034302 0.005590
# 6 0.002489 0.002096 0.001931 -0.011003 0.005590 0.026580
#
#
# Mechanical properties :
#
#
# Convention : Reuss Voigt Hill
#
# Bulk Modulus (GPa) = 26.91366 35.05965 30.98665
# Shear Modulus (GPa) = 25.66371 31.98310 28.82340
#
# Velocity S-wave (km/s) = 3.36082 3.75185 3.56171
# Velocity P-wave (km/s) = 5.18704 5.84799 5.52740
#
# Compressibility (1/GPa) = 0.03715586
#
# Stress axis : x y z
#
# Youngs Moduli (GPa) = 107.66842 61.28848 47.81325
#
# Poissons Ratio (x) = 0.20433 -0.01954
# Poissons Ratio (y) = 0.35895 0.08397
# Poissons Ratio (z) = -0.04399 0.10763
#
# Static dielectric constant tensor:
#      x y z
#    x 1.883900 0.008110 0.016070 
#    y 0.008110 1.918430 -0.034290 
#    z 0.016070 -0.034290 1.868350 
# 
# From -- ./inp_files/122847.got.cif
#   From: 2010.05.17/outbox.cif.g08.bks.cpg/sg2_62_cif.got.tgz:122847.got - 2010.06.03 11:33:40.
