data_PCOD9009300
_publ_section_title
;
Structure prediction by ZEFSAII (Michael W. Deem and Ramdas Pophale) SiO2 
 PCOD9009300
Probable space group: P -1
;
_chemical_formula_sum "Si O2"
_cell_formula_units_Z 16
_cell_length_a 11.911018
_cell_length_b 8.040761
_cell_length_c 12.031212
_cell_angle_alpha 47.271491
_cell_angle_beta 126.137767
_cell_angle_gamma 127.032997
_cell_volume 642.679224
_symmetry_space_group_name_H-M "P -1"
_symmetry_group_IT_number 2
_symmetry_cell_setting 'triclinic'
loop_
_space_group_symop_operation_xyz
x,y,z
-x,-y,-z
loop_
_atom_site_type_symbol
_atom_site_label
_atom_site_fract_x
_atom_site_fract_y
_atom_site_fract_z
Si Si1 0.757174 0.803217 0.900525
Si Si2 0.933768 0.959679 0.126871
Si Si3 0.037208 0.062742 0.365535
Si Si4 0.499126 0.229165 0.100699
Si Si5 0.625260 0.365335 0.483181
Si Si6 0.190074 0.615712 0.199410
Si Si7 0.672631 0.069612 0.437145
Si Si8 0.559239 0.352848 0.842573
O O1 0.832278 0.751178 0.081707
O O2 0.636255 0.907775 0.833737
O O3 0.669410 0.589685 0.864958
O O4 0.895559 0.980605 0.834716
O O5 0.918499 0.923545 0.265577
O O6 0.892915 0.193992 0.959460
O O7 0.077385 0.345788 0.234064
O O8 0.182297 0.995994 0.457305
O O9 0.000000 0.000000 0.500000
O O10 0.639586 0.182718 0.252832
O O11 0.500000 0.500000 0.000000
O O12 0.492248 0.185251 0.985973
O O13 0.746019 0.410281 0.629410
O O14 0.674561 0.253023 0.454284
O O15 0.576125 0.591772 0.319550
O O16 0.466700 0.171884 0.513782
O O17 0.331563 0.686116 0.167919
#
# Coordination Sequence:
#
# PCOD9009300 Si02
#       8
#     2   2   2   2   2   2   2   2
#     4  10  21  42  68  98 124 169 227 268 315 392
#     4  11  25  44  70  90 131 183 224 259 321 402
#     4  12  29  47  63  96 141 176 215 273 330 391
#     4  10  21  39  68 101 124 164 213 282 324 378
#     4  11  23  42  73 100 127 170 223 278 327 389
#     4  12  26  43  68  97 132 179 221 267 336 392
#     4  11  23  43  71  94 134 169 221 272 333 383
#     4  11  22  43  69  98 136 163 221 278 332 385
#
# _framework density 24.895779000000001
#
# number of rings (size 3 to 8) (size 9 to 14) (size 15 to 20)
#    0.000    1.000    5.000    1.500    8.750    2.000 
#    0.000    1.875    0.000    0.000    0.000    0.000 
#    0.000    0.000    0.000    0.000    0.000    0.000 
#
# Total GULP energy -89525.549035 kJ/mol
# GULP energy per Si atom -5595.346815 kJ/mol
# Density = 2.483912 g / cm^3
# Si number density = 24.895779 Si / 1000 Ang^3
#
#
#
# Elastic Constant Matrix: (Units=GPa)
#
#
# Indices 1 2 3 4 5 6 
#
# 1 124.8933 10.5427 42.2818 -2.3427 -4.4770 -20.1261
# 2 10.5427 45.2799 18.1957 8.9660 -2.4727 -0.0230
# 3 42.2818 18.1957 151.7524 17.9902 -17.6532 -13.9180
# 4 -2.3427 8.9660 17.9902 40.5470 -4.9365 -4.4928
# 5 -4.4770 -2.4727 -17.6532 -4.9365 39.4110 8.0170
# 6 -20.1261 -0.0230 -13.9180 -4.4928 8.0170 34.5880
#
#
#
# Elastic Compliance Matrix: (Units=1/GPa)
#
#
# Indices 1 2 3 4 5 6 
#
# 1 0.009858 -0.001863 -0.002439 0.002546 -0.000845 0.005280
# 2 -0.001863 0.024304 -0.002021 -0.004832 0.000329 -0.002585
# 3 -0.002439 -0.002021 0.008260 -0.002926 0.002749 0.000886
# 4 0.002546 -0.004832 -0.002926 0.027746 0.001424 0.003575
# 5 -0.000845 0.000329 0.002749 0.001424 0.027859 -0.005657
# 6 0.005280 -0.002585 0.000886 0.003575 -0.005657 0.034115
#
#
# Mechanical properties :
#
#
# Convention : Reuss Voigt Hill
#
# Bulk Modulus (GPa) = 33.58459 51.55178 42.56819
# Shear Modulus (GPa) = 32.31801 39.63623 35.97712
#
# Velocity S-wave (km/s) = 3.60687 3.99442 3.80558
# Velocity P-wave (km/s) = 5.55566 6.48274 6.03702
#
# Compressibility (1/GPa) = 0.02977556
#
# Stress axis : x y z
#
# Youngs Moduli (GPa) = 101.43860 41.14526 121.07210
#
# Poissons Ratio (x) = 0.07664 0.29532
# Poissons Ratio (y) = 0.18895 0.24472
# Poissons Ratio (z) = 0.24743 0.08316
#
# Static dielectric constant tensor:
#      x y z
#    x 1.963820 0.030090 -0.045420 
#    y 0.030090 2.086100 -0.014530 
#    z -0.045420 -0.014530 1.985650 
# 
# From -- ./inp_files/419017.got.cif
#   From: 2010.05.17/outbox.cif.g08.bks.cpg/sg2_210_cif.got.tgz:419017.got - 2010.06.03 11:33:40.
