data_PCOD9009665
_publ_section_title
;
Structure prediction by ZEFSAII (Michael W. Deem and Ramdas Pophale) SiO2 
 PCOD9009665
Probable space group: P -1
;
_chemical_formula_sum "Si O2"
_cell_formula_units_Z 12
_cell_length_a 9.004655
_cell_length_b 12.818162
_cell_length_c 11.520488
_cell_angle_alpha 136.516016
_cell_angle_beta 126.691693
_cell_angle_gamma 30.587272
_cell_volume 464.230300
_symmetry_space_group_name_H-M "P -1"
_symmetry_group_IT_number 2
_symmetry_cell_setting 'triclinic'
loop_
_space_group_symop_operation_xyz
x,y,z
-x,-y,-z
loop_
_atom_site_type_symbol
_atom_site_label
_atom_site_fract_x
_atom_site_fract_y
_atom_site_fract_z
Si Si1 0.056691 0.614681 0.773217
Si Si2 0.432863 0.495496 0.113103
Si Si3 0.260432 0.184247 0.436447
Si Si4 0.846854 0.621794 0.148783
Si Si5 0.387010 0.477505 0.535479
Si Si6 0.860700 0.943759 0.326047
O O1 0.297026 0.591557 0.896598
O O2 0.243371 0.377861 0.590131
O O3 0.989247 0.558756 0.811246
O O4 0.797308 0.824645 0.733779
O O5 0.519626 0.484039 0.276771
O O6 0.084921 0.766102 0.180514
O O7 0.428878 0.319406 0.939316
O O8 0.960446 0.310666 0.452140
O O9 0.500000 0.000000 0.500000
O O10 0.821939 0.820298 0.291345
O O11 0.000000 0.500000 0.000000
O O12 0.500000 0.500000 0.500000
O O13 0.542842 0.216075 0.375719
O O14 0.000000 0.000000 0.500000
#
# Coordination Sequence:
#
# PCOD9009665 Si02
#       6
#     2   2   2   2   2   2
#     4  10  22  40  69 104 143 184 243 293 361 428
#     4   9  20  40  66 105 142 187 236 297 362 430
#     4  10  24  42  70 106 144 186 243 303 359 417
#     4  10  21  39  72 105 149 193 233 297 365 433
#     4  10  22  39  70 102 143 188 249 298 354 429
#     4   9  20  38  66 105 142 186 240 297 355 420
#
# _framework density 25.849238
#
# number of rings (size 3 to 8) (size 9 to 14) (size 15 to 20)
#    0.000    2.333    0.000    0.500    9.333    4.000 
#    0.000    0.833    7.333    6.000    0.000    0.000 
#    0.000    0.000    0.000    0.000    0.000    0.000 
#
# Total GULP energy -66801.825783 kJ/mol
# GULP energy per Si atom -5566.818815 kJ/mol
# Density = 2.579040 g / cm^3
# Si number density = 25.849238 Si / 1000 Ang^3
#
#
#
# Elastic Constant Matrix: (Units=GPa)
#
#
# Indices 1 2 3 4 5 6 
#
# 1 200.3698 79.0376 34.8976 -11.8395 14.3981 28.2798
# 2 79.0376 194.2946 64.0788 -13.8747 8.2930 3.7991
# 3 34.8976 64.0788 88.7221 -8.7412 27.7419 17.6478
# 4 -11.8395 -13.8747 -8.7412 40.3532 -2.3524 10.3127
# 5 14.3981 8.2930 27.7419 -2.3524 68.9924 -8.8405
# 6 28.2798 3.7991 17.6478 10.3127 -8.8405 48.8685
#
#
#
# Elastic Compliance Matrix: (Units=1/GPa)
#
#
# Indices 1 2 3 4 5 6 
#
# 1 0.006942 -0.002886 0.001335 0.002536 -0.002220 -0.005211
# 2 -0.002886 0.008244 -0.006466 -0.000254 0.002703 0.003907
# 3 0.001335 -0.006466 0.020788 0.004809 -0.009032 -0.010426
# 4 0.002536 -0.000254 0.004809 0.028815 -0.002700 -0.009754
# 5 -0.002220 0.002703 -0.009032 -0.002700 0.019247 0.008388
# 6 -0.005211 0.003907 -0.010426 -0.009754 0.008388 0.030516
#
#
# Mechanical properties :
#
#
# Convention : Reuss Voigt Hill
#
# Bulk Modulus (GPa) = 50.15569 93.26828 71.71199
# Shear Modulus (GPa) = 36.43450 52.00097 44.21774
#
# Velocity S-wave (km/s) = 3.75840 4.49007 4.14043
# Velocity P-wave (km/s) = 6.18704 7.93983 7.11759
#
# Compressibility (1/GPa) = 0.01993792
#
# Stress axis : x y z
#
# Youngs Moduli (GPa) = 144.05679 121.30710 48.10461
#
# Poissons Ratio (x) = 0.35013 -0.06420
# Poissons Ratio (y) = 0.41579 0.31105
# Poissons Ratio (z) = -0.19227 0.78438
#
# Static dielectric constant tensor:
#      x y z
#    x 2.250060 -0.065140 -0.080210 
#    y -0.065140 2.315210 0.096260 
#    z -0.080210 0.096260 2.205510 
# 
# From -- ./inp_files/386148.got.cif
#   From: 2010.05.17/outbox.cif.g08.bks.cpg/sg2_194_cif.got.tgz:386148.got - 2010.06.03 11:33:40.
