data_PCOD9009530
_publ_section_title
;
Structure prediction by ZEFSAII (Michael W. Deem and Ramdas Pophale) SiO2 
 PCOD9009530
Probable space group: P -1
;
_chemical_formula_sum "Si O2"
_cell_formula_units_Z 16
_cell_length_a 11.451148
_cell_length_b 7.960595
_cell_length_c 14.015040
_cell_angle_alpha 133.700497
_cell_angle_beta 102.006072
_cell_angle_gamma 57.110492
_cell_volume 745.622161
_symmetry_space_group_name_H-M "P -1"
_symmetry_group_IT_number 2
_symmetry_cell_setting 'triclinic'
loop_
_space_group_symop_operation_xyz
x,y,z
-x,-y,-z
loop_
_atom_site_type_symbol
_atom_site_label
_atom_site_fract_x
_atom_site_fract_y
_atom_site_fract_z
Si Si1 0.832874 0.124361 0.524111
Si Si2 0.746823 0.741164 0.419793
Si Si3 0.645772 0.174871 0.329352
Si Si4 0.161153 0.250863 0.949086
Si Si5 0.552322 0.755529 0.522843
Si Si6 0.653318 0.669540 0.836784
Si Si7 0.443664 0.713592 0.982249
Si Si8 0.850357 0.185975 0.106782
O O1 0.754730 0.153553 0.420976
O O2 0.740141 0.415666 0.678863
O O3 0.828104 0.890758 0.490094
O O4 0.000000 0.000000 0.500000
O O5 0.699201 0.724841 0.511869
O O6 0.824770 0.463842 0.259665
O O7 0.589843 0.964586 0.433050
O O8 0.587733 0.459244 0.371157
O O9 0.502091 0.234149 0.376957
O O10 0.730985 0.883802 0.174253
O O11 0.144858 0.004606 0.882729
O O12 0.234449 0.332085 0.071861
O O13 0.000000 0.500000 0.000000
O O14 0.585932 0.972906 0.891145
O O15 0.547621 0.626884 0.870533
O O16 0.500000 0.500000 0.000000
O O17 0.292974 0.745652 0.946160
O O18 0.000000 0.000000 0.000000
#
# Coordination Sequence:
#
# PCOD9009530 Si02
#       8
#     2   2   2   2   2   2   2   2
#     4  11  25  43  64  95 142 184 216 275 362 416
#     4  10  22  40  67  92 131 171 222 280 336 408
#     4  10  21  39  69  97 127 174 229 280 335 413
#     4  11  24  43  70  98 137 184 237 286 345 422
#     4   9  20  36  64  99 122 159 223 279 330 386
#     4  10  25  46  68 103 145 185 232 291 357 423
#     4  10  25  45  72 102 142 186 235 295 357 415
#     4  11  26  42  70 101 138 178 240 292 346 424
#
# _framework density 21.458587999999999
#
# number of rings (size 3 to 8) (size 9 to 14) (size 15 to 20)
#    0.000    1.750    1.250    0.750   14.000    5.000 
#    0.000    0.625    0.000    0.000    0.000    0.000 
#    0.000    0.000    0.000    0.000    0.000    0.000 
#
# Total GULP energy -89170.900314 kJ/mol
# GULP energy per Si atom -5573.181270 kJ/mol
# Density = 2.140975 g / cm^3
# Si number density = 21.458588 Si / 1000 Ang^3
#
#
#
# Elastic Constant Matrix: (Units=GPa)
#
#
# Indices 1 2 3 4 5 6 
#
# 1 154.0648 42.4608 73.0541 11.7766 -20.5335 3.7406
# 2 42.4608 103.6532 57.2560 17.6034 -3.4025 -3.3680
# 3 73.0541 57.2560 153.5801 10.5124 -6.8044 -16.3623
# 4 11.7766 17.6034 10.5124 21.5697 -8.6356 2.5424
# 5 -20.5335 -3.4025 -6.8044 -8.6356 29.1542 3.6732
# 6 3.7406 -3.3680 -16.3623 2.5424 3.6732 35.4089
#
#
#
# Elastic Compliance Matrix: (Units=1/GPa)
#
#
# Indices 1 2 3 4 5 6 
#
# 1 0.009888 -0.001843 -0.004232 0.001294 0.006643 -0.003958
# 2 -0.001843 0.014131 -0.003752 -0.010282 -0.003687 0.000926
# 3 -0.004232 -0.003752 0.010469 -0.001131 -0.001967 0.005213
# 4 0.001294 -0.010282 -0.001131 0.063253 0.019213 -0.008172
# 5 0.006643 -0.003687 -0.001967 0.019213 0.044787 -0.007987
# 6 -0.003958 0.000926 0.005213 -0.008172 -0.007987 0.032572
#
#
# Mechanical properties :
#
#
# Convention : Reuss Voigt Hill
#
# Bulk Modulus (GPa) = 67.41975 84.09332 75.75654
# Shear Modulus (GPa) = 25.03765 33.12838 29.08301
#
# Velocity S-wave (km/s) = 3.41954 3.93342 3.68545
# Velocity P-wave (km/s) = 6.86132 7.73969 7.31370
#
# Compressibility (1/GPa) = 0.01483245
#
# Stress axis : x y z
#
# Youngs Moduli (GPa) = 101.13051 70.76886 95.52000
#
# Poissons Ratio (x) = 0.13044 0.40427
# Poissons Ratio (y) = 0.18640 0.35841
# Poissons Ratio (z) = 0.42802 0.26554
#
# Static dielectric constant tensor:
#      x y z
#    x 1.806960 0.048940 -0.043000 
#    y 0.048940 1.899210 -0.001170 
#    z -0.043000 -0.001170 1.846340 
# 
# From -- ./inp_files/514748.got.cif
#   From: 2010.05.17/outbox.cif.g08.bks.cpg/sg2_258_cif.got.tgz:514748.got - 2010.06.03 11:33:40.
