data_PCOD9009330
_publ_section_title
;
Structure prediction by ZEFSAII (Michael W. Deem and Ramdas Pophale) SiO2 
 PCOD9009330
Probable space group: P -1
;
_chemical_formula_sum "Si O2"
_cell_formula_units_Z 16
_cell_length_a 14.124485
_cell_length_b 14.244287
_cell_length_c 11.002931
_cell_angle_alpha 44.123504
_cell_angle_beta 62.767573
_cell_angle_gamma 31.420701
_cell_volume 726.528499
_symmetry_space_group_name_H-M "P -1"
_symmetry_group_IT_number 2
_symmetry_cell_setting 'triclinic'
loop_
_space_group_symop_operation_xyz
x,y,z
-x,-y,-z
loop_
_atom_site_type_symbol
_atom_site_label
_atom_site_fract_x
_atom_site_fract_y
_atom_site_fract_z
Si Si1 0.731052 0.754422 0.053157
Si Si2 0.080055 0.385234 0.374141
Si Si3 0.081748 0.089318 0.772719
Si Si4 0.266034 0.448470 0.309184
Si Si5 0.015931 0.775041 0.688568
Si Si6 0.468614 0.404473 0.022860
Si Si7 0.338868 0.003952 0.367541
Si Si8 0.056763 0.919384 0.717079
O O1 0.832357 0.508825 0.167286
O O2 0.875003 0.639130 0.187607
O O3 0.727401 0.860628 0.845191
O O4 0.500000 0.000000 0.000000
O O5 0.054920 0.263497 0.559202
O O6 0.160548 0.417142 0.382409
O O7 0.253988 0.187120 0.354779
O O8 0.910789 0.262975 0.812927
O O9 0.306233 0.861941 0.906828
O O10 0.055829 0.996879 0.775153
O O11 0.379754 0.381989 0.183818
O O12 0.430241 0.266696 0.488895
O O13 0.984359 0.848770 0.779667
O O14 0.799962 0.977979 0.564762
O O15 0.075005 0.842133 0.513027
O O16 0.500000 0.500000 0.000000
O O17 0.294809 0.633755 0.820044
#
# Coordination Sequence:
#
# PCOD9009330 Si02
#       8
#     2   2   2   2   2   2   2   2
#     4  11  24  40  67  98 135 166 219 278 332 389
#     4  11  22  42  64  99 132 173 219 275 337 399
#     4  11  22  43  64  94 135 168 221 280 326 395
#     4  12  25  39  70  97 135 172 222 276 337 385
#     4  10  21  41  66  91 123 175 216 264 328 392
#     4  10  23  41  63  91 129 175 220 269 325 388
#     4  11  22  40  66  94 128 172 212 275 335 386
#     4  10  21  39  68  87 129 174 218 262 323 391
#
# _framework density 22.022538000000001
#
# number of rings (size 3 to 8) (size 9 to 14) (size 15 to 20)
#    0.000    1.250    3.750    3.750    3.500    3.000 
#    0.000    0.625    5.500    0.000    0.000    0.000 
#    0.000    0.000    0.000    0.000    0.000    0.000 
#
# Total GULP energy -89151.363255 kJ/mol
# GULP energy per Si atom -5571.960203 kJ/mol
# Density = 2.197241 g / cm^3
# Si number density = 22.022538 Si / 1000 Ang^3
#
#
#
# Elastic Constant Matrix: (Units=GPa)
#
#
# Indices 1 2 3 4 5 6 
#
# 1 129.7737 32.5253 23.8949 -17.8664 5.5829 14.8548
# 2 32.5253 73.7239 13.6686 -31.8680 12.7878 -7.7329
# 3 23.8949 13.6686 120.1777 -20.0705 6.5232 -17.3907
# 4 -17.8664 -31.8680 -20.0705 32.0638 -10.4955 2.9092
# 5 5.5829 12.7878 6.5232 -10.4955 18.7154 0.8281
# 6 14.8548 -7.7329 -17.3907 2.9092 0.8281 18.1262
#
#
#
# Elastic Compliance Matrix: (Units=1/GPa)
#
#
# Indices 1 2 3 4 5 6 
#
# 1 0.012017 -0.007008 -0.004294 -0.000341 0.003263 -0.017052
# 2 -0.007008 0.029750 0.005451 0.024964 -0.007021 0.019979
# 3 -0.004294 0.005451 0.012523 0.008433 -0.002815 0.016635
# 4 -0.000341 0.024964 0.008433 0.065856 0.016696 0.007688
# 5 0.003263 -0.007021 -0.002815 0.016696 0.068227 -0.014167
# 6 -0.017052 0.019979 0.016635 0.007688 -0.014167 0.093040
#
#
# Mechanical properties :
#
#
# Convention : Reuss Voigt Hill
#
# Bulk Modulus (GPa) = 23.48041 51.53922 37.50982
# Shear Modulus (GPa) = 16.27017 30.68685 23.47851
#
# Velocity S-wave (km/s) = 2.72103 3.73692 3.26868
# Velocity P-wave (km/s) = 4.53400 6.48638 5.59599
#
# Compressibility (1/GPa) = 0.04258869
#
# Stress axis : x y z
#
# Youngs Moduli (GPa) = 83.21349 33.61380 79.85167
#
# Poissons Ratio (x) = 0.23556 0.34289
# Poissons Ratio (y) = 0.58314 -0.43528
# Poissons Ratio (z) = 0.35733 -0.18323
#
# Static dielectric constant tensor:
#      x y z
#    x 1.939090 -0.045720 -0.014360 
#    y -0.045720 1.936740 0.096200 
#    z -0.014360 0.096200 1.890350 
# 
# From -- ./inp_files/455547.got.cif
#   From: 2010.05.17/outbox.cif.g08.bks.cpg/sg2_228_cif.got.tgz:455547.got - 2010.06.03 11:33:40.
