data_PCOD9009474
_publ_section_title
;
Structure prediction by ZEFSAII (Michael W. Deem and Ramdas Pophale) SiO2 
 PCOD9009474
Probable space group: P -1
;
_chemical_formula_sum "Si O2"
_cell_formula_units_Z 16
_cell_length_a 23.931842
_cell_length_b 8.503328
_cell_length_c 8.626001
_cell_angle_alpha 108.024902
_cell_angle_beta 140.805214
_cell_angle_gamma 43.463205
_cell_volume 620.452192
_symmetry_space_group_name_H-M "P -1"
_symmetry_group_IT_number 2
_symmetry_cell_setting 'triclinic'
loop_
_space_group_symop_operation_xyz
x,y,z
-x,-y,-z
loop_
_atom_site_type_symbol
_atom_site_label
_atom_site_fract_x
_atom_site_fract_y
_atom_site_fract_z
Si Si1 0.278900 0.671328 0.253895
Si Si2 0.374604 0.080305 0.900475
Si Si3 0.519632 0.379992 0.170706
Si Si4 0.940539 0.830656 0.525918
Si Si5 0.239907 0.628445 0.803908
Si Si6 0.311950 0.292219 0.423243
Si Si7 0.018245 0.165099 0.045312
Si Si8 0.250680 0.170636 0.984745
O O1 0.415022 0.589794 0.557294
O O2 0.295875 0.483750 0.343115
O O3 0.270259 0.623076 0.045974
O O4 0.131223 0.995000 0.093493
O O5 0.543952 0.896531 0.219017
O O6 0.260352 0.405076 0.747473
O O7 0.347539 0.042189 0.000486
O O8 0.370036 0.941141 0.724243
O O9 0.500000 0.500000 0.000000
O O10 0.364159 0.536388 0.940414
O O11 0.827562 0.889023 0.201471
O O12 0.909837 0.862061 0.653455
O O13 0.107926 0.510873 0.766539
O O14 0.915935 0.055064 0.489145
O O15 0.151442 0.511421 0.228263
O O16 0.336301 0.102558 0.300232
O O17 0.000000 0.000000 0.000000
#
# Coordination Sequence:
#
# PCOD9009474 Si02
#       8
#     2   2   2   2   2   2   2   2
#     4  11  22  43  68 103 133 177 232 277 345 391
#     4  12  24  42  68 102 140 176 229 277 348 396
#     4  12  25  45  71  95 136 187 227 278 333 417
#     4  10  23  43  69 100 134 180 236 271 339 407
#     4  12  27  42  66 107 141 172 222 291 343 398
#     4  10  21  39  69 103 132 181 224 279 334 412
#     4   9  20  41  69  96 126 177 232 269 328 409
#     4  10  21  42  70  99 131 182 231 280 326 412
#
# _framework density 25.787641000000001
#
# number of rings (size 3 to 8) (size 9 to 14) (size 15 to 20)
#    0.000    1.250    2.500    3.375    1.750    1.500 
#    0.000    0.000    0.000    8.250    0.000    0.000 
#    0.000    0.000    0.000    0.000    0.000    0.000 
#
# Total GULP energy -89738.341894 kJ/mol
# GULP energy per Si atom -5608.646368 kJ/mol
# Density = 2.572895 g / cm^3
# Si number density = 25.787641 Si / 1000 Ang^3
#
#
#
# Elastic Constant Matrix: (Units=GPa)
#
#
# Indices 1 2 3 4 5 6 
#
# 1 82.8663 10.2069 8.6195 1.1668 -7.0538 -11.1745
# 2 10.2069 145.8708 33.3772 4.3019 -17.1882 -3.0789
# 3 8.6195 33.3772 83.5114 22.6478 -16.5216 5.8634
# 4 1.1668 4.3019 22.6478 56.0416 2.0718 -4.9035
# 5 -7.0538 -17.1882 -16.5216 2.0718 36.5251 7.8894
# 6 -11.1745 -3.0789 5.8634 -4.9035 7.8894 35.7799
#
#
#
# Elastic Compliance Matrix: (Units=1/GPa)
#
#
# Indices 1 2 3 4 5 6 
#
# 1 0.012888 -0.000407 -0.001527 0.000723 0.000659 0.004194
# 2 -0.000407 0.007781 -0.002830 0.000529 0.002142 0.000606
# 3 -0.001527 -0.002830 0.017371 -0.007627 0.008043 -0.006386
# 4 0.000723 0.000529 -0.007627 0.021573 -0.005515 0.005694
# 5 0.000659 0.002142 0.008043 -0.005515 0.034470 -0.009284
# 6 0.004194 0.000606 -0.006386 0.005694 -0.009284 0.033185
#
#
# Mechanical properties :
#
#
# Convention : Reuss Voigt Hill
#
# Bulk Modulus (GPa) = 35.07467 46.29508 40.68487
# Shear Modulus (GPa) = 34.17618 43.00564 38.59091
#
# Velocity S-wave (km/s) = 3.64441 4.08816 3.87264
# Velocity P-wave (km/s) = 5.59820 6.34630 5.98395
#
# Compressibility (1/GPa) = 0.02851061
#
# Stress axis : x y z
#
# Youngs Moduli (GPa) = 77.59028 128.51779 57.56690
#
# Poissons Ratio (x) = 0.05236 0.08793
# Poissons Ratio (y) = 0.03161 0.16292
# Poissons Ratio (z) = 0.11851 0.36371
#
# Static dielectric constant tensor:
#      x y z
#    x 2.028150 -0.001500 -0.019400 
#    y -0.001500 2.023510 -0.038330 
#    z -0.019400 -0.038330 2.021670 
# 
# From -- ./inp_files/356628.got.cif
#   From: 2010.05.17/outbox.cif.g08.bks.cpg/sg2_179_cif.got.tgz:356628.got - 2010.06.03 11:33:40.
