data_PCOD9009160
_publ_section_title
;
Structure prediction by ZEFSAII (Michael W. Deem and Ramdas Pophale) SiO2 
 PCOD9009160
Probable space group: P -1
;
_chemical_formula_sum "Si O2"
_cell_formula_units_Z 16
_cell_length_a 15.332164
_cell_length_b 8.075124
_cell_length_c 12.283437
_cell_angle_alpha 130.219158
_cell_angle_beta 64.480480
_cell_angle_gamma 77.304956
_cell_volume 724.396301
_symmetry_space_group_name_H-M "P -1"
_symmetry_group_IT_number 2
_symmetry_cell_setting 'triclinic'
loop_
_space_group_symop_operation_xyz
x,y,z
-x,-y,-z
loop_
_atom_site_type_symbol
_atom_site_label
_atom_site_fract_x
_atom_site_fract_y
_atom_site_fract_z
Si Si1 0.640043 0.607648 0.997027
Si Si2 0.084905 0.673536 0.374760
Si Si3 0.180500 0.565511 0.519989
Si Si4 0.689057 0.317661 0.065507
Si Si5 0.714165 0.193666 0.333471
Si Si6 0.060885 0.228186 0.145213
Si Si7 0.557036 0.126605 0.968706
Si Si8 0.488145 0.212234 0.468334
O O1 0.710044 0.347240 0.941509
O O2 0.555582 0.622354 0.954389
O O3 0.529530 0.936149 0.260005
O O4 0.757278 0.565739 0.859459
O O5 0.098103 0.683082 0.500785
O O6 0.025411 0.534080 0.321295
O O7 0.000000 0.000000 0.500000
O O8 0.250715 0.687613 0.543159
O O9 0.297230 0.189088 0.295662
O O10 0.076485 0.693076 0.730763
O O11 0.606268 0.641965 0.310874
O O12 0.827341 0.033902 0.935958
O O13 0.591345 0.261993 0.091571
O O14 0.630528 0.113340 0.375440
O O15 0.610698 0.485131 0.429509
O O16 0.856869 0.912144 0.072226
O O17 0.500000 0.000000 0.000000
#
# Coordination Sequence:
#
# PCOD9009160 Si02
#       8
#     2   2   2   2   2   2   2   2
#     4  12  23  42  64  98 131 163 215 265 316 379
#     4  12  26  43  67  92 129 170 213 265 323 382
#     4  12  23  40  68  92 131 166 216 261 322 378
#     4  11  24  40  66  95 131 168 211 263 318 381
#     4  10  21  40  67  96 122 172 213 261 316 381
#     4  11  23  44  65  92 126 174 216 257 318 389
#     4  12  23  41  65  99 127 166 211 267 320 375
#     4  10  21  39  67  93 130 167 212 258 323 376
#
# _framework density 22.087358999999999
#
# number of rings (size 3 to 8) (size 9 to 14) (size 15 to 20)
#    0.000    0.750    5.000    3.000    3.500    0.000 
#    0.000    0.625    0.000    0.000    0.000    0.000 
#    0.000    0.000    0.000    0.000    0.000    0.000 
#
# Total GULP energy -89485.472477 kJ/mol
# GULP energy per Si atom -5592.842030 kJ/mol
# Density = 2.203709 g / cm^3
# Si number density = 22.087359 Si / 1000 Ang^3
#
#
#
# Elastic Constant Matrix: (Units=GPa)
#
#
# Indices 1 2 3 4 5 6 
#
# 1 57.2069 -23.7282 3.4409 4.0648 5.4923 4.9374
# 2 -23.7282 41.2303 2.3723 -3.9876 -5.1849 1.8544
# 3 3.4409 2.3723 78.5232 -2.9624 1.0071 -0.5463
# 4 4.0648 -3.9876 -2.9624 25.2626 4.6763 -1.9629
# 5 5.4923 -5.1849 1.0071 4.6763 31.5126 -6.2874
# 6 4.9374 1.8544 -0.5463 -1.9629 -6.2874 22.4460
#
#
#
# Elastic Compliance Matrix: (Units=1/GPa)
#
#
# Indices 1 2 3 4 5 6 
#
# 1 0.024446 0.013919 -0.001577 -0.001929 -0.003154 -0.007618
# 2 0.013919 0.033004 -0.001587 0.002064 0.001718 -0.005165
# 3 -0.001577 -0.001587 0.012927 0.001672 -0.000487 0.000802
# 4 -0.001929 0.002064 0.001672 0.041545 -0.005041 0.002516
# 5 -0.003154 0.001718 -0.000487 -0.005041 0.035323 0.009993
# 6 -0.007618 -0.005165 0.000802 0.002516 0.009993 0.049692
#
#
# Mechanical properties :
#
#
# Convention : Reuss Voigt Hill
#
# Bulk Modulus (GPa) = 10.88304 15.68113 13.28208
# Shear Modulus (GPa) = 24.26518 28.83594 26.55056
#
# Velocity S-wave (km/s) = 3.31811 3.61715 3.47085
# Velocity P-wave (km/s) = 4.42920 4.95581 4.69988
#
# Compressibility (1/GPa) = 0.09188608
#
# Stress axis : x y z
#
# Youngs Moduli (GPa) = 40.90675 30.29960 77.35719
#
# Poissons Ratio (x) = -0.42174 0.12200
# Poissons Ratio (y) = -0.56938 0.12277
# Poissons Ratio (z) = 0.06451 0.04809
#
# Static dielectric constant tensor:
#      x y z
#    x 1.781610 0.017590 -0.012880 
#    y 0.017590 1.820620 -0.027420 
#    z -0.012880 -0.027420 1.846850 
# 
# From -- ./inp_files/175115.got.cif
#   From: 2010.05.17/outbox.cif.g08.bks.cpg/sg2_88_cif.got.tgz:175115.got - 2010.06.03 11:33:40.
