data_PCOD9009606
_publ_section_title
;
Structure prediction by ZEFSAII (Michael W. Deem and Ramdas Pophale) SiO2 
 PCOD9009606
Probable space group: P -1
;
_chemical_formula_sum "Si O2"
_cell_formula_units_Z 16
_cell_length_a 16.295178
_cell_length_b 10.182139
_cell_length_c 10.666985
_cell_angle_alpha 114.017416
_cell_angle_beta 75.067563
_cell_angle_gamma 153.903410
_cell_volume 685.041385
_symmetry_space_group_name_H-M "P -1"
_symmetry_group_IT_number 2
_symmetry_cell_setting 'triclinic'
loop_
_space_group_symop_operation_xyz
x,y,z
-x,-y,-z
loop_
_atom_site_type_symbol
_atom_site_label
_atom_site_fract_x
_atom_site_fract_y
_atom_site_fract_z
Si Si1 0.362719 0.254859 0.338479
Si Si2 0.648454 0.937253 0.116262
Si Si3 0.355983 0.767172 0.848870
Si Si4 0.777565 0.816002 0.000717
Si Si5 0.015001 0.244707 0.320053
Si Si6 0.356469 0.946192 0.335403
Si Si7 0.330002 0.103661 0.631414
Si Si8 0.049276 0.992457 0.259638
O O1 0.500000 0.500000 0.500000
O O2 0.512942 0.529042 0.276175
O O3 0.310883 0.008461 0.280389
O O4 0.180324 0.081915 0.323876
O O5 0.728999 0.908674 0.027158
O O6 0.699209 0.018634 0.274177
O O7 0.724447 0.194762 0.122500
O O8 0.416038 0.572135 0.059331
O O9 0.176161 0.387390 0.786145
O O10 0.483476 0.908710 0.735820
O O11 0.500000 0.000000 0.000000
O O12 0.883870 0.982851 0.156659
O O13 0.892526 0.938892 0.882282
O O14 0.178058 0.580443 0.312278
O O15 0.875695 0.137174 0.414050
O O16 0.086363 0.217010 0.360355
O O17 0.413591 0.117668 0.505829
#
# Coordination Sequence:
#
# PCOD9009606 Si02
#       8
#     2   2   2   2   2   2   2   2
#     4  10  24  46  68  97 137 184 228 281 342 406
#     4  10  22  41  68 100 131 184 225 282 340 409
#     4  12  27  43  67 104 144 177 234 282 342 408
#     4  10  21  39  70  97 137 175 226 278 346 408
#     4  11  23  42  70 107 132 177 231 286 341 413
#     4  11  25  45  69  98 143 178 224 292 338 404
#     4  10  22  46  70  94 138 181 230 283 346 404
#     4  12  24  42  72 100 139 183 228 281 345 407
#
# _framework density 23.356255000000001
#
# number of rings (size 3 to 8) (size 9 to 14) (size 15 to 20)
#    0.000    1.250    1.250    3.750    5.250    1.000 
#    2.250    5.000    0.000    0.000    0.000    0.000 
#    0.000    0.000    0.000    0.000    0.000    0.000 
#
# Total GULP energy -89449.695946 kJ/mol
# GULP energy per Si atom -5590.605997 kJ/mol
# Density = 2.330310 g / cm^3
# Si number density = 23.356255 Si / 1000 Ang^3
#
#
#
# Elastic Constant Matrix: (Units=GPa)
#
#
# Indices 1 2 3 4 5 6 
#
# 1 91.5940 38.0820 7.3336 16.3482 1.9880 -16.1737
# 2 38.0820 111.8961 -10.5709 20.0881 -17.5494 2.6602
# 3 7.3336 -10.5709 54.3741 -5.1296 -11.7917 12.2106
# 4 16.3482 20.0881 -5.1296 22.6810 2.6066 -6.8018
# 5 1.9880 -17.5494 -11.7917 2.6066 27.5547 -3.1119
# 6 -16.1737 2.6602 12.2106 -6.8018 -3.1119 42.1503
#
#
#
# Elastic Compliance Matrix: (Units=1/GPa)
#
#
# Indices 1 2 3 4 5 6 
#
# 1 0.016713 -0.006965 -0.007386 -0.004366 -0.007516 0.007733
# 2 -0.006965 0.016610 0.007788 -0.011655 0.014752 -0.006768
# 3 -0.007386 0.007788 0.026507 -0.000358 0.015752 -0.009899
# 4 -0.004366 -0.011655 -0.000358 0.061321 -0.012140 0.008163
# 5 -0.007516 0.014752 0.015752 -0.012140 0.053396 -0.006395
# 6 0.007733 -0.006768 -0.009899 0.008163 -0.006395 0.030832
#
#
# Mechanical properties :
#
#
# Convention : Reuss Voigt Hill
#
# Bulk Modulus (GPa) = 21.41174 36.39485 28.90330
# Shear Modulus (GPa) = 21.36098 33.34518 27.35308
#
# Velocity S-wave (km/s) = 3.02747 3.78256 3.42588
# Velocity P-wave (km/s) = 4.62689 5.89010 5.29629
#
# Compressibility (1/GPa) = 0.04670334
#
# Stress axis : x y z
#
# Youngs Moduli (GPa) = 59.83509 60.20568 37.72619
#
# Poissons Ratio (x) = 0.41930 0.27866
# Poissons Ratio (y) = 0.41672 -0.29381
# Poissons Ratio (z) = 0.44197 -0.46889
#
# Static dielectric constant tensor:
#      x y z
#    x 1.929190 -0.010980 0.036610 
#    y -0.010980 1.896040 0.004030 
#    z 0.036610 0.004030 1.922790 
# 
# From -- ./inp_files/447837.got.cif
#   From: 2010.05.17/outbox.cif.g08.bks.cpg/sg2_224_cif.got.tgz:447837.got - 2010.06.03 11:33:40.
