data_PCOD9009179
_publ_section_title
;
Structure prediction by ZEFSAII (Michael W. Deem and Ramdas Pophale) SiO2 
 PCOD9009179
Probable space group: P -1
;
_chemical_formula_sum "Si O2"
_cell_formula_units_Z 15
_cell_length_a 11.523847
_cell_length_b 18.316951
_cell_length_c 12.350150
_cell_angle_alpha 36.267439
_cell_angle_beta 53.548635
_cell_angle_gamma 28.372061
_cell_volume 668.355951
_symmetry_space_group_name_H-M "P -1"
_symmetry_group_IT_number 2
_symmetry_cell_setting 'triclinic'
loop_
_space_group_symop_operation_xyz
x,y,z
-x,-y,-z
loop_
_atom_site_type_symbol
_atom_site_label
_atom_site_fract_x
_atom_site_fract_y
_atom_site_fract_z
Si Si1 0.112051 0.331915 0.772227
Si Si2 0.000000 0.500000 0.000000
Si Si3 0.199880 0.769747 0.832778
Si Si4 0.574416 0.110002 0.234080
Si Si5 0.045634 0.656984 0.375227
Si Si6 0.164033 0.166443 0.153855
Si Si7 0.192005 0.800556 0.042590
Si Si8 0.521312 0.184841 0.420240
O O1 0.125146 0.252719 0.745523
O O2 0.169744 0.436748 0.605295
O O3 0.789691 0.554849 0.709935
O O4 0.251296 0.167959 0.992339
O O5 0.318709 0.247369 0.148060
O O6 0.998598 0.387524 0.046932
O O7 0.263257 0.859844 0.647619
O O8 0.023168 0.812459 0.803481
O O9 0.500000 0.500000 0.000000
O O10 0.076704 0.864138 0.909406
O O11 0.555615 0.099423 0.385279
O O12 0.843204 0.853821 0.343153
O O13 0.595474 0.243616 0.042643
O O14 0.246759 0.623520 0.270182
O O15 0.399742 0.947725 0.359861
O O16 0.000000 0.000000 0.000000
#
# Coordination Sequence:
#
# PCOD9009179 Si02
#       8
#     2   1   2   2   2   2   2   2
#     4  11  22  41  64  95 132 170 218 272 331 397
#     4  12  24  40  62 102 136 170 222 272 330 398
#     4  11  19  40  68  95 131 168 223 279 329 396
#     4  10  22  41  69  98 130 175 219 281 333 389
#     4  10  21  39  67  94 132 174 216 271 336 391
#     4  12  24  38  66  98 134 173 221 274 336 392
#     4   9  18  37  67  95 126 169 215 271 333 388
#     4  11  23  41  68  98 130 172 222 280 335 390
#
# _framework density 22.443131000000001
#
# number of rings (size 3 to 8) (size 9 to 14) (size 15 to 20)
#    0.000    1.333    4.000    2.000    1.867    1.067 
#    0.000    6.000    0.000    0.800    0.000    0.000 
#    0.000    0.000    0.000    0.000    0.000    0.000 
#
# Total GULP energy -83562.213202 kJ/mol
# GULP energy per Si atom -5570.814213 kJ/mol
# Density = 2.239205 g / cm^3
# Si number density = 22.443131 Si / 1000 Ang^3
#
#
#
# Elastic Constant Matrix: (Units=GPa)
#
#
# Indices 1 2 3 4 5 6 
#
# 1 153.0938 41.8587 33.1344 14.6063 -8.6075 6.7525
# 2 41.8587 104.4985 22.1054 14.1046 9.6758 19.7465
# 3 33.1344 22.1054 106.7630 38.4313 0.8240 -13.5509
# 4 14.6063 14.1046 38.4313 26.4716 -1.3039 -3.6517
# 5 -8.6075 9.6758 0.8240 -1.3039 36.5378 3.9636
# 6 6.7525 19.7465 -13.5509 -3.6517 3.9636 39.1016
#
#
#
# Elastic Compliance Matrix: (Units=1/GPa)
#
#
# Indices 1 2 3 4 5 6 
#
# 1 0.007940 -0.002847 -0.002064 0.000142 0.002775 -0.000917
# 2 -0.002847 0.013171 -0.000618 -0.005630 -0.003637 -0.006531
# 3 -0.002064 -0.000618 0.021154 -0.028594 -0.002425 0.005575
# 4 0.000142 -0.005630 -0.028594 0.082475 0.005102 0.000095
# 5 0.002775 -0.003637 -0.002425 0.005102 0.029439 -0.001990
# 6 -0.000917 -0.006531 0.005575 0.000095 -0.001990 0.031174
#
#
# Mechanical properties :
#
#
# Convention : Reuss Voigt Hill
#
# Bulk Modulus (GPa) = 32.04199 62.06137 47.05168
# Shear Modulus (GPa) = 24.17649 38.23931 31.20790
#
# Velocity S-wave (km/s) = 3.28568 4.13223 3.73303
# Velocity P-wave (km/s) = 5.35745 7.10492 6.29214
#
# Compressibility (1/GPa) = 0.03120904
#
# Stress axis : x y z
#
# Youngs Moduli (GPa) = 125.94633 75.92168 47.27192
#
# Poissons Ratio (x) = 0.21614 0.09755
# Poissons Ratio (y) = 0.35855 0.02920
# Poissons Ratio (z) = 0.25991 0.04690
#
# Static dielectric constant tensor:
#      x y z
#    x 1.816310 -0.003670 -0.072010 
#    y -0.003670 1.868240 0.014740 
#    z -0.072010 0.014740 1.871640 
# 
# From -- ./inp_files/436498.got.cif
#   From: 2010.05.17/outbox.cif.g08.bks.cpg/sg2_219_cif.got.tgz:436498.got - 2010.06.03 11:33:40.
