data_PCOD9009567
_publ_section_title
;
Structure prediction by ZEFSAII (Michael W. Deem and Ramdas Pophale) SiO2 
 PCOD9009567
Probable space group: P -1
;
_chemical_formula_sum "Si O2"
_cell_formula_units_Z 16
_cell_length_a 13.454787
_cell_length_b 11.984625
_cell_length_c 8.007715
_cell_angle_alpha 86.597257
_cell_angle_beta 140.888751
_cell_angle_gamma 113.193184
_cell_volume 677.865547
_symmetry_space_group_name_H-M "P -1"
_symmetry_group_IT_number 2
_symmetry_cell_setting 'triclinic'
loop_
_space_group_symop_operation_xyz
x,y,z
-x,-y,-z
loop_
_atom_site_type_symbol
_atom_site_label
_atom_site_fract_x
_atom_site_fract_y
_atom_site_fract_z
Si Si1 0.870840 0.878080 0.221115
Si Si2 0.789133 0.887858 0.784873
Si Si3 0.590835 0.202274 0.224357
Si Si4 0.776662 0.407712 0.759628
Si Si5 0.293072 0.599232 0.953781
Si Si6 0.317841 0.378603 0.461308
Si Si7 0.277727 0.389028 0.765900
Si Si8 0.273094 0.996287 0.611844
O O1 0.745040 0.731856 0.148471
O O2 0.758505 0.906288 0.934749
O O3 0.000000 0.000000 0.500000
O O4 0.050382 0.893774 0.356645
O O5 0.765332 0.745849 0.757637
O O6 0.675987 0.907595 0.491873
O O7 0.000000 0.000000 0.000000
O O8 0.665640 0.291212 0.483983
O O9 0.654616 0.099264 0.315981
O O10 0.675009 0.302835 0.165458
O O11 0.372078 0.099153 0.888220
O O12 0.764091 0.372847 0.944124
O O13 0.687610 0.497745 0.620782
O O14 0.000000 0.500000 0.000000
O O15 0.479933 0.598951 0.241911
O O16 0.178490 0.452704 0.726886
O O17 0.199318 0.334640 0.483527
O O18 0.500000 0.500000 0.000000
#
# Coordination Sequence:
#
# PCOD9009567 Si02
#       8
#     2   2   2   2   2   2   2   2
#     4  11  24  40  70 111 143 190 248 308 378 442
#     4  10  21  39  70 103 142 182 250 306 362 444
#     4  11  25  50  71  99 152 195 251 309 379 454
#     4  12  29  44  71 110 147 194 244 316 384 454
#     4  11  24  46  73 105 139 195 249 302 384 441
#     4  11  22  44  71 103 141 184 246 308 371 440
#     4  10  22  40  70 107 147 184 234 308 377 435
#     4  10  24  47  70  99 147 198 242 314 370 446
#
# _framework density 23.603501000000001
#
# number of rings (size 3 to 8) (size 9 to 14) (size 15 to 20)
#    0.000    1.250    2.500    2.625    7.000    3.500 
#    2.250    1.250    0.000    0.000    0.000    0.000 
#    0.000    0.000    0.000    0.000    0.000    0.000 
#
# Total GULP energy -89195.349964 kJ/mol
# GULP energy per Si atom -5574.709373 kJ/mol
# Density = 2.354978 g / cm^3
# Si number density = 23.603501 Si / 1000 Ang^3
#
#
#
# Elastic Constant Matrix: (Units=GPa)
#
#
# Indices 1 2 3 4 5 6 
#
# 1 118.8199 52.0335 59.9225 4.3539 -42.8811 12.8765
# 2 52.0335 137.6955 29.7096 -0.1066 -16.1100 -5.2122
# 3 59.9225 29.7096 107.3136 9.5209 -28.0715 0.2716
# 4 4.3539 -0.1066 9.5209 28.1449 7.7437 -3.9888
# 5 -42.8811 -16.1100 -28.0715 7.7437 46.4661 2.4120
# 6 12.8765 -5.2122 0.2716 -3.9888 2.4120 41.5338
#
#
#
# Elastic Compliance Matrix: (Units=1/GPa)
#
#
# Indices 1 2 3 4 5 6 
#
# 1 0.019611 -0.004885 -0.005117 -0.006556 0.014829 -0.008150
# 2 -0.004885 0.009085 -0.000539 0.001992 -0.002171 0.002976
# 3 -0.005117 -0.000539 0.013883 -0.004983 0.004272 0.000701
# 4 -0.006556 0.001992 -0.004983 0.043706 -0.016040 0.007444
# 5 0.014829 -0.002171 0.004272 -0.016040 0.040162 -0.008770
# 6 -0.008150 0.002976 0.000701 0.007444 -0.008770 0.028197
#
#
# Mechanical properties :
#
#
# Convention : Reuss Voigt Hill
#
# Bulk Modulus (GPa) = 46.52073 71.90670 59.21371
# Shear Modulus (GPa) = 27.33851 38.03985 32.68918
#
# Velocity S-wave (km/s) = 3.40698 4.01885 3.72550
# Velocity P-wave (km/s) = 5.93538 7.21564 6.60660
#
# Compressibility (1/GPa) = 0.02149579
#
# Stress axis : x y z
#
# Youngs Moduli (GPa) = 50.99157 110.07007 72.03224
#
# Poissons Ratio (x) = 0.53774 0.36857
# Poissons Ratio (y) = 0.24912 0.03885
# Poissons Ratio (z) = 0.26091 0.05936
#
# Static dielectric constant tensor:
#      x y z
#    x 1.970130 0.000630 -0.002750 
#    y 0.000630 1.900420 -0.001380 
#    z -0.002750 -0.001380 1.974610 
# 
# From -- ./inp_files/307432.got.cif
#   From: 2010.05.17/outbox.cif.g08.bks.cpg/sg2_154_cif.got.tgz:307432.got - 2010.06.03 11:33:40.
