data_PCOD9009343
_publ_section_title
;
Structure prediction by ZEFSAII (Michael W. Deem and Ramdas Pophale) SiO2 
 PCOD9009343
Probable space group: P -1
;
_chemical_formula_sum "Si O2"
_cell_formula_units_Z 14
_cell_length_a 27.966653
_cell_length_b 12.130865
_cell_length_c 4.995884
_cell_angle_alpha 64.646460
_cell_angle_beta 50.131615
_cell_angle_gamma 29.135701
_cell_volume 592.719644
_symmetry_space_group_name_H-M "P -1"
_symmetry_group_IT_number 2
_symmetry_cell_setting 'triclinic'
loop_
_space_group_symop_operation_xyz
x,y,z
-x,-y,-z
loop_
_atom_site_type_symbol
_atom_site_label
_atom_site_fract_x
_atom_site_fract_y
_atom_site_fract_z
Si Si1 0.114186 0.163170 0.269719
Si Si2 0.275713 0.123671 0.571968
Si Si3 0.316605 0.746817 0.327174
Si Si4 0.510128 0.363985 0.424657
Si Si5 0.128189 0.755565 0.141204
Si Si6 0.838320 0.575899 0.832354
Si Si7 0.783527 0.256861 0.693579
O O1 0.968876 0.427575 0.513368
O O2 0.176276 0.028426 0.478398
O O3 0.139613 0.990012 0.216216
O O4 0.197540 0.129911 0.885927
O O5 0.257291 0.200419 0.259844
O O6 0.413588 0.866310 0.451223
O O7 0.212198 0.327846 0.787316
O O8 0.380185 0.570795 0.526981
O O9 0.328905 0.623401 0.176128
O O10 0.393030 0.743406 0.031470
O O11 0.500000 0.500000 0.500000
O O12 0.140080 0.597135 0.166664
O O13 0.224987 0.630757 0.157125
O O14 0.147100 0.801895 0.753720
O O15 0.000000 0.000000 0.500000
#
# Coordination Sequence:
#
# PCOD9009343 Si02
#       7
#     2   2   2   2   2   2   2
#     4   9  21  40  64  96 131 164 204 261 334 374
#     4  11  26  40  63  96 134 168 201 262 334 392
#     4   8  20  37  62  99 118 159 217 263 320 355
#     4  10  21  39  68  91 129 164 215 266 317 384
#     4  12  23  41  64  89 128 178 221 256 299 375
#     4  12  25  41  61  93 138 171 205 254 325 393
#     4  10  23  37  67  94 123 160 224 267 302 361
#
# _framework density 23.619938000000001
#
# number of rings (size 3 to 8) (size 9 to 14) (size 15 to 20)
#    0.857    0.857    1.429    2.143   10.000    1.143 
#    2.571    0.000    0.000    5.143    0.000    0.000 
#    0.000    0.000    0.000    0.000    0.000    0.000 
#
# Total GULP energy -78083.152966 kJ/mol
# GULP energy per Si atom -5577.368069 kJ/mol
# Density = 2.356618 g / cm^3
# Si number density = 23.619938 Si / 1000 Ang^3
#
#
#
# Elastic Constant Matrix: (Units=GPa)
#
#
# Indices 1 2 3 4 5 6 
#
# 1 133.7029 22.7623 21.7883 -8.9426 11.1735 5.8163
# 2 22.7623 86.8965 4.8704 1.1746 -5.8871 -6.4653
# 3 21.7883 4.8704 61.9138 -14.9219 0.3548 7.3958
# 4 -8.9426 1.1746 -14.9219 33.3208 0.1972 2.7460
# 5 11.1735 -5.8871 0.3548 0.1972 32.0344 -2.0198
# 6 5.8163 -6.4653 7.3958 2.7460 -2.0198 53.8570
#
#
#
# Elastic Compliance Matrix: (Units=1/GPa)
#
#
# Indices 1 2 3 4 5 6 
#
# 1 0.008737 -0.002501 -0.002364 0.001488 -0.003561 -0.001129
# 2 -0.002501 0.012612 -0.000782 -0.001659 0.003342 0.002101
# 3 -0.002364 -0.000782 0.019397 0.008319 0.000231 -0.002918
# 4 0.001488 -0.001659 0.008319 0.034475 -0.001337 -0.003310
# 5 -0.003561 0.003342 0.000231 -0.001337 0.033209 0.002068
# 6 -0.001129 0.002101 -0.002918 -0.003310 0.002068 0.019589
#
#
# Mechanical properties :
#
#
# Convention : Reuss Voigt Hill
#
# Bulk Modulus (GPa) = 33.95406 42.37281 38.16343
# Shear Modulus (GPa) = 33.52783 39.38192 36.45488
#
# Velocity S-wave (km/s) = 3.77167 4.08771 3.93287
# Velocity P-wave (km/s) = 5.77700 6.34488 6.06759
#
# Compressibility (1/GPa) = 0.02945156
#
# Stress axis : x y z
#
# Youngs Moduli (GPa) = 114.46137 79.28859 51.55449
#
# Poissons Ratio (x) = 0.19833 0.12186
# Poissons Ratio (y) = 0.28631 0.04031
# Poissons Ratio (z) = 0.27056 0.06199
#
# Static dielectric constant tensor:
#      x y z
#    x 1.915960 -0.020350 -0.000770 
#    y -0.020350 1.889380 0.053950 
#    z -0.000770 0.053950 2.103190 
# 
# From -- ./inp_files/126588.got.cif
#   From: 2010.05.17/outbox.cif.g08.bks.cpg/sg2_64_cif.got.tgz:126588.got - 2010.06.03 11:33:40.
