data_PCOD9009545
_publ_section_title
;
Structure prediction by ZEFSAII (Michael W. Deem and Ramdas Pophale) SiO2 
 PCOD9009545
Probable space group: P -1
;
_chemical_formula_sum "Si O2"
_cell_formula_units_Z 16
_cell_length_a 11.346663
_cell_length_b 12.758109
_cell_length_c 9.446781
_cell_angle_alpha 133.327821
_cell_angle_beta 79.022103
_cell_angle_gamma 122.999255
_cell_volume 795.777940
_symmetry_space_group_name_H-M "P -1"
_symmetry_group_IT_number 2
_symmetry_cell_setting 'triclinic'
loop_
_space_group_symop_operation_xyz
x,y,z
-x,-y,-z
loop_
_atom_site_type_symbol
_atom_site_label
_atom_site_fract_x
_atom_site_fract_y
_atom_site_fract_z
Si Si1 0.027646 0.578390 0.284145
Si Si2 0.948748 0.232524 0.089020
Si Si3 0.375811 0.329930 0.459227
Si Si4 0.253293 0.695769 0.102320
Si Si5 0.936895 0.886739 0.267122
Si Si6 0.626841 0.014933 0.892833
Si Si7 0.955252 0.814102 0.687606
Si Si8 0.369106 0.461119 0.894335
O O1 0.172476 0.696612 0.263469
O O2 0.038972 0.441989 0.248289
O O3 0.986213 0.681343 0.487806
O O4 0.885340 0.453916 0.100633
O O5 0.012233 0.178502 0.147966
O O6 0.776950 0.137791 0.063078
O O7 0.958984 0.163259 0.869237
O O8 0.500000 0.500000 0.500000
O O9 0.211395 0.250146 0.364399
O O10 0.383896 0.400039 0.680011
O O11 0.398223 0.172698 0.302061
O O12 0.342254 0.875857 0.158487
O O13 0.351047 0.621475 0.038435
O O14 0.782734 0.705937 0.163266
O O15 0.000000 0.000000 0.500000
O O16 0.936234 0.006640 0.257857
O O17 0.500000 0.000000 0.000000
O O18 0.500000 0.500000 0.000000
#
# Coordination Sequence:
#
# PCOD9009545 Si02
#       8
#     2   2   2   2   2   2   2   2
#     4  10  21  39  69  98 135 168 230 281 341 397
#     4  11  24  43  69 102 132 179 231 286 336 406
#     4  12  27  44  68  96 139 184 223 281 354 407
#     4  10  21  42  68  96 131 182 221 281 342 406
#     4  12  23  44  72 101 134 176 236 280 337 404
#     4  11  25  44  68  95 140 180 225 275 353 418
#     4  12  25  41  72 101 137 176 237 287 336 407
#     4  12  26  46  70 103 137 178 228 286 342 410
#
# _framework density 20.106113000000001
#
# number of rings (size 3 to 8) (size 9 to 14) (size 15 to 20)
#    0.000    0.750    5.000    1.500    8.750    1.000 
#    2.250    0.625    0.000    0.000    0.000    0.000 
#    0.000    0.000    0.000    0.000    0.000    0.000 
#
# Total GULP energy -89442.230578 kJ/mol
# GULP energy per Si atom -5590.139411 kJ/mol
# Density = 2.006035 g / cm^3
# Si number density = 20.106113 Si / 1000 Ang^3
#
#
#
# Elastic Constant Matrix: (Units=GPa)
#
#
# Indices 1 2 3 4 5 6 
#
# 1 133.2585 73.0996 53.1537 -11.3366 -11.7741 -8.5136
# 2 73.0996 176.4375 49.9912 4.5782 -16.4300 -6.3274
# 3 53.1537 49.9912 90.2181 -10.4892 -27.3984 0.5649
# 4 -11.3366 4.5782 -10.4892 33.9562 -5.9493 -9.4452
# 5 -11.7741 -16.4300 -27.3984 -5.9493 40.5473 0.0031
# 6 -8.5136 -6.3274 0.5649 -9.4452 0.0031 38.8727
#
#
#
# Elastic Compliance Matrix: (Units=1/GPa)
#
#
# Indices 1 2 3 4 5 6 
#
# 1 0.011823 -0.003598 -0.004785 0.003651 -0.000723 0.002960
# 2 -0.003598 0.007992 -0.002711 -0.003198 -0.000108 -0.000225
# 3 -0.004785 -0.002711 0.019843 0.006966 0.011942 -0.000086
# 4 0.003651 -0.003198 0.006966 0.037591 0.009986 0.009311
# 5 -0.000723 -0.000108 0.011942 0.009986 0.033943 0.002074
# 6 0.002960 -0.000225 -0.000086 0.009311 0.002074 0.028600
#
#
# Mechanical properties :
#
#
# Convention : Reuss Voigt Hill
#
# Bulk Modulus (GPa) = 57.24965 83.60034 70.42500
# Shear Modulus (GPa) = 29.79651 37.58654 33.69153
#
# Velocity S-wave (km/s) = 3.85380 4.32836 4.09796
# Velocity P-wave (km/s) = 6.95255 8.16391 7.58246
#
# Compressibility (1/GPa) = 0.01746735
#
# Stress axis : x y z
#
# Youngs Moduli (GPa) = 84.58344 125.13082 50.39483
#
# Poissons Ratio (x) = 0.45025 0.24116
# Poissons Ratio (y) = 0.30435 0.13664
# Poissons Ratio (z) = 0.40476 0.33929
#
# Static dielectric constant tensor:
#      x y z
#    x 1.724420 -0.013350 -0.022660 
#    y -0.013350 1.725350 0.002780 
#    z -0.022660 0.002780 1.721100 
# 
# From -- ./inp_files/244717.got.cif
#   From: 2010.05.17/outbox.cif.g08.bks.cpg/sg2_123_cif.got.tgz:244717.got - 2010.06.03 11:33:40.
