data_PCOD9009468
_publ_section_title
;
Structure prediction by ZEFSAII (Michael W. Deem and Ramdas Pophale) SiO2 
 PCOD9009468
Probable space group: P -1
;
_chemical_formula_sum "Si O2"
_cell_formula_units_Z 12
_cell_length_a 12.754249
_cell_length_b 12.328371
_cell_length_c 9.390321
_cell_angle_alpha 145.838317
_cell_angle_beta 54.199844
_cell_angle_gamma 140.952979
_cell_volume 515.319732
_symmetry_space_group_name_H-M "P -1"
_symmetry_group_IT_number 2
_symmetry_cell_setting 'triclinic'
loop_
_space_group_symop_operation_xyz
x,y,z
-x,-y,-z
loop_
_atom_site_type_symbol
_atom_site_label
_atom_site_fract_x
_atom_site_fract_y
_atom_site_fract_z
Si Si1 0.312465 0.680022 0.463577
Si Si2 0.873919 0.024659 0.551135
Si Si3 0.240026 0.059502 0.933290
Si Si4 0.387942 0.919072 0.142411
Si Si5 0.631434 0.450105 0.032571
Si Si6 0.049776 0.190163 0.327679
O O1 0.246283 0.835951 0.688853
O O2 0.181861 0.434506 0.394557
O O3 0.493094 0.862977 0.596865
O O4 0.327980 0.616754 0.221923
O O5 0.739270 0.745091 0.287581
O O6 0.768319 0.092515 0.781694
O O7 0.000000 0.000000 0.500000
O O8 0.989325 0.232998 0.564386
O O9 0.121344 0.002328 0.834208
O O10 0.432472 0.309206 0.037711
O O11 0.144206 0.076609 0.156147
O O12 0.341083 0.673079 0.991251
O O13 0.500000 0.000000 0.000000
#
# Coordination Sequence:
#
# PCOD9009468 Si02
#       6
#     2   2   2   2   2   2
#     4  11  23  43  74 102 137 177 233 285 339 409
#     4  12  29  45  68 100 145 183 231 283 345 410
#     4  10  21  39  69 102 136 170 226 286 343 399
#     4  11  27  48  73 101 139 188 228 276 350 417
#     4  11  24  46  74  99 137 184 235 283 340 408
#     4  11  23  39  66 104 139 174 224 286 345 396
#
# _framework density 23.286511999999998
#
# number of rings (size 3 to 8) (size 9 to 14) (size 15 to 20)
#    0.000    1.000    0.000    7.500    7.000    4.667 
#    0.000    0.000    0.000    0.000    0.000    0.000 
#    0.000    0.000    0.000    0.000    0.000    0.000 
#
# Total GULP energy -67122.153816 kJ/mol
# GULP energy per Si atom -5593.512818 kJ/mol
# Density = 2.323351 g / cm^3
# Si number density = 23.286512 Si / 1000 Ang^3
#
#
#
# Elastic Constant Matrix: (Units=GPa)
#
#
# Indices 1 2 3 4 5 6 
#
# 1 126.6621 56.0683 19.8565 -14.8166 -28.8543 28.8005
# 2 56.0683 106.2495 24.5208 -23.2973 -20.9148 -2.3551
# 3 19.8565 24.5208 56.2733 -11.4186 -23.2367 8.3987
# 4 -14.8166 -23.2973 -11.4186 51.1218 11.5818 -2.9456
# 5 -28.8543 -20.9148 -23.2367 11.5818 28.3035 -9.8235
# 6 28.8005 -2.3551 8.3987 -2.9456 -9.8235 42.6200
#
#
#
# Elastic Compliance Matrix: (Units=1/GPa)
#
#
# Indices 1 2 3 4 5 6 
#
# 1 0.014471 -0.006830 0.002871 -0.000914 0.009449 -0.008607
# 2 -0.006830 0.015322 -0.003582 0.004117 0.002144 0.006947
# 3 0.002871 -0.003582 0.027924 0.000256 0.022233 -0.002499
# 4 -0.000914 0.004117 0.000256 0.022800 -0.006724 0.000821
# 5 0.009449 0.002144 0.022233 -0.006724 0.069235 0.004845
# 6 -0.008607 0.006947 -0.002499 0.000821 0.004845 0.031329
#
#
# Mechanical properties :
#
#
# Convention : Reuss Voigt Hill
#
# Bulk Modulus (GPa) = 23.45568 54.45292 38.95430
# Shear Modulus (GPa) = 23.76700 36.99166 30.37933
#
# Velocity S-wave (km/s) = 3.19820 3.98998 3.61583
# Velocity P-wave (km/s) = 4.87160 6.68291 5.84781
#
# Compressibility (1/GPa) = 0.04263360
#
# Stress axis : x y z
#
# Youngs Moduli (GPa) = 69.10241 65.26679 35.81195
#
# Poissons Ratio (x) = 0.44579 -0.10282
# Poissons Ratio (y) = 0.47199 0.12829
# Poissons Ratio (z) = -0.19839 0.23380
#
# Static dielectric constant tensor:
#      x y z
#    x 1.913780 -0.022610 0.012170 
#    y -0.022610 1.860850 -0.017930 
#    z 0.012170 -0.017930 1.943170 
# 
# From -- ./inp_files/263741.got.cif
#   From: 2010.05.17/outbox.cif.g08.bks.cpg/sg2_132_cif.got.tgz:263741.got - 2010.06.03 11:33:40.
