data_PCOD9009798
_publ_section_title
;
Structure prediction by ZEFSAII (Michael W. Deem and Ramdas Pophale) SiO2 
 PCOD9009798
Probable space group: P -1
;
_chemical_formula_sum "Si O2"
_cell_formula_units_Z 16
_cell_length_a 16.578558
_cell_length_b 13.656395
_cell_length_c 26.609817
_cell_angle_alpha 22.450862
_cell_angle_beta 21.818764
_cell_angle_gamma 21.837381
_cell_volume 743.060673
_symmetry_space_group_name_H-M "P -1"
_symmetry_group_IT_number 2
_symmetry_cell_setting 'triclinic'
loop_
_space_group_symop_operation_xyz
x,y,z
-x,-y,-z
loop_
_atom_site_type_symbol
_atom_site_label
_atom_site_fract_x
_atom_site_fract_y
_atom_site_fract_z
Si Si1 0.024701 0.453642 0.947760
Si Si2 0.259201 0.379886 0.208512
Si Si3 0.227283 0.956925 0.921901
Si Si4 0.401497 0.666342 0.743014
Si Si5 0.660209 0.983406 0.489995
Si Si6 0.257586 0.589740 0.484567
Si Si7 0.449802 0.137994 0.781002
Si Si8 0.851914 0.108227 0.700787
O O1 0.306755 0.233418 0.871168
O O2 0.841140 0.331299 0.096618
O O3 0.937578 0.771346 0.823009
O O4 0.000000 0.500000 0.000000
O O5 0.502137 0.169174 0.202074
O O6 0.995383 0.405554 0.357160
O O7 0.362903 0.204339 0.178573
O O8 0.244799 0.692682 0.071616
O O9 0.225969 0.212296 0.835238
O O10 0.000000 0.000000 0.000000
O O11 0.321038 0.883832 0.637958
O O12 0.596694 0.338078 0.766874
O O13 0.546440 0.771448 0.646384
O O14 0.461566 0.266855 0.501368
O O15 0.926914 0.838493 0.431310
O O16 0.392477 0.696110 0.395962
O O17 0.186259 0.812690 0.373090
#
# Coordination Sequence:
#
# PCOD9009798 Si02
#       8
#     2   2   2   2   2   2   2   2
#     4  12  22  42  65  92 129 170 215 272 320 372
#     4   9  22  42  65  91 134 165 209 266 318 382
#     4   9  21  43  66  95 130 164 217 264 313 391
#     4  10  22  37  63  84 125 169 212 268 325 367
#     4  10  21  40  59  92 127 161 218 269 307 391
#     4  11  22  41  64  93 132 172 209 265 324 379
#     4  10  22  42  64  95 130 168 214 265 321 375
#     4  11  22  41  60  93 126 168 224 262 314 397
#
# _framework density 21.532561999999999
#
# number of rings (size 3 to 8) (size 9 to 14) (size 15 to 20)
#    0.750    1.000    2.500    1.875    1.750    2.000 
#    0.000    1.250    0.000    0.000    0.000    0.000 
#    0.000    0.000    0.000    0.000    0.000    0.000 
#
# Total GULP energy -89175.293400 kJ/mol
# GULP energy per Si atom -5573.455838 kJ/mol
# Density = 2.148355 g / cm^3
# Si number density = 21.532562 Si / 1000 Ang^3
#
#
#
# Elastic Constant Matrix: (Units=GPa)
#
#
# Indices 1 2 3 4 5 6 
#
# 1 52.2602 5.0084 17.5740 3.7631 -29.1515 -13.3400
# 2 5.0084 31.0357 18.2164 14.3881 1.5787 -7.3913
# 3 17.5740 18.2164 133.4794 21.3684 -42.5059 0.7511
# 4 3.7631 14.3881 21.3684 41.4908 -7.4384 -13.7199
# 5 -29.1515 1.5787 -42.5059 -7.4384 39.8549 3.9937
# 6 -13.3400 -7.3913 0.7511 -13.7199 3.9937 18.5816
#
#
#
# Elastic Compliance Matrix: (Units=1/GPa)
#
#
# Indices 1 2 3 4 5 6 
#
# 1 0.049289 -0.013396 0.006497 0.015016 0.043147 0.031608
# 2 -0.013396 0.050444 -0.011959 -0.012564 -0.027658 0.007599
# 3 0.006497 -0.011959 0.015999 -0.003300 0.022476 -0.008007
# 4 0.015016 -0.012564 -0.003300 0.042465 0.012420 0.034601
# 5 0.043147 -0.027658 0.022476 0.012420 0.082993 0.010399
# 6 0.031608 0.007599 -0.008007 0.034601 0.010399 0.103168
#
#
# Mechanical properties :
#
#
# Convention : Reuss Voigt Hill
#
# Bulk Modulus (GPa) = 12.81803 33.15255 22.98529
# Shear Modulus (GPa) = 12.25248 31.71723 21.98485
#
# Velocity S-wave (km/s) = 2.38800 3.84212 3.19878
# Velocity P-wave (km/s) = 3.68364 5.92557 4.93364
#
# Compressibility (1/GPa) = 0.07801508
#
# Stress axis : x y z
#
# Youngs Moduli (GPa) = 20.28835 19.82413 62.50314
#
# Poissons Ratio (x) = 0.26557 -0.40608
# Poissons Ratio (y) = 0.27179 0.74750
# Poissons Ratio (z) = -0.13181 0.23708
#
# Static dielectric constant tensor:
#      x y z
#    x 1.765270 0.110860 -0.008630 
#    y 0.110860 1.587770 0.007810 
#    z -0.008630 0.007810 1.774990 
# 
# From -- ./inp_files/623893.got.cif
#   From: 2010.05.17/outbox.cif.g08.bks.cpg/sg2_312_cif.got.tgz:623893.got - 2010.06.03 11:33:40.
