data_PCOD9009853
_publ_section_title
;
Structure prediction by ZEFSAII (Michael W. Deem and Ramdas Pophale) SiO2 
 PCOD9009853
Probable space group: P -1
;
_chemical_formula_sum "Si O2"
_cell_formula_units_Z 16
_cell_length_a 22.130896
_cell_length_b 20.314672
_cell_length_c 14.124449
_cell_angle_alpha 154.292350
_cell_angle_beta 35.264398
_cell_angle_gamma 161.006756
_cell_volume 867.730102
_symmetry_space_group_name_H-M "P -1"
_symmetry_group_IT_number 2
_symmetry_cell_setting 'triclinic'
loop_
_space_group_symop_operation_xyz
x,y,z
-x,-y,-z
loop_
_atom_site_type_symbol
_atom_site_label
_atom_site_fract_x
_atom_site_fract_y
_atom_site_fract_z
Si Si1 0.424704 0.352029 0.109033
Si Si2 0.187203 0.301837 0.029340
Si Si3 0.939498 0.250186 0.974273
Si Si4 0.198527 0.350369 0.299638
Si Si5 0.291701 0.758153 0.830140
Si Si6 0.639033 0.625904 0.571338
Si Si7 0.720483 0.369256 0.114741
Si Si8 0.038975 0.694832 0.764917
O O1 0.619890 0.527458 0.042344
O O2 0.341850 0.395675 0.214666
O O3 0.450410 0.433698 0.290936
O O4 0.255117 0.020490 0.894729
O O5 0.220862 0.388473 0.207669
O O6 0.016973 0.970237 0.818601
O O7 0.103503 0.343980 0.134978
O O8 0.123381 0.459018 0.943683
O O9 0.832806 0.959336 0.744681
O O10 0.795183 0.193053 0.036078
O O11 0.986401 0.364133 0.167454
O O12 0.237626 0.554448 0.566888
O O13 0.217803 0.632013 0.866962
O O14 0.520427 0.052154 0.927635
O O15 0.500000 0.500000 0.500000
O O16 0.682177 0.500228 0.353055
O O17 0.000000 0.500000 0.500000
#
# Coordination Sequence:
#
# PCOD9009853 Si02
#       8
#     2   2   2   2   2   2   2   2
#     4  10  22  39  61  88 116 159 201 243 298 354
#     4  10  22  38  63  87 117 158 201 243 298 356
#     4  11  24  39  64  88 118 163 201 241 303 356
#     4  10  21  40  60  88 121 153 199 248 293 354
#     4  11  23  41  60  90 124 154 197 254 294 354
#     4  11  22  41  62  87 124 157 200 250 291 357
#     4  11  24  41  61  89 122 158 202 246 298 353
#     4  10  23  40  58  89 123 150 200 251 294 356
#
# _framework density 18.438912999999999
#
# number of rings (size 3 to 8) (size 9 to 14) (size 15 to 20)
#    0.000    1.500    2.500    1.875    1.750    3.500 
#    0.000    0.000    0.000    0.000    0.000    0.000 
#    0.000    0.000    0.000    0.000    0.000    0.000 
#
# Total GULP energy -89429.035792 kJ/mol
# GULP energy per Si atom -5589.314737 kJ/mol
# Density = 1.839695 g / cm^3
# Si number density = 18.438913 Si / 1000 Ang^3
#
#
#
# Elastic Constant Matrix: (Units=GPa)
#
#
# Indices 1 2 3 4 5 6 
#
# 1 103.2200 30.7207 13.5291 -5.0698 21.0729 -12.2318
# 2 30.7207 132.6733 26.2279 -16.6693 14.4170 -2.2752
# 3 13.5291 26.2279 103.2139 2.7010 18.5024 -3.3499
# 4 -5.0698 -16.6693 2.7010 11.4506 -3.7337 -0.7680
# 5 21.0729 14.4170 18.5024 -3.7337 28.7090 -2.5522
# 6 -12.2318 -2.2752 -3.3499 -0.7680 -2.5522 24.6231
#
#
#
# Elastic Compliance Matrix: (Units=1/GPa)
#
#
# Indices 1 2 3 4 5 6 
#
# 1 0.012482 -0.001991 0.000459 0.000279 -0.007954 0.005263
# 2 -0.001991 0.010429 -0.002771 0.014945 -0.000041 0.000059
# 3 0.000459 -0.002771 0.011991 -0.009176 -0.007822 0.000507
# 4 0.000279 0.014945 -0.009176 0.116232 0.013793 0.005326
# 5 -0.007954 -0.000041 -0.007822 0.013793 0.047556 0.000341
# 6 0.005263 0.000059 0.000507 0.005326 0.000341 0.043503
#
#
# Mechanical properties :
#
#
# Convention : Reuss Voigt Hill
#
# Bulk Modulus (GPa) = 38.02850 53.34029 45.68439
# Shear Modulus (GPa) = 19.26304 30.86518 25.06411
#
# Velocity S-wave (km/s) = 3.23568 4.09579 3.69088
# Velocity P-wave (km/s) = 5.88458 7.16647 6.55693
#
# Compressibility (1/GPa) = 0.02629607
#
# Stress axis : x y z
#
# Youngs Moduli (GPa) = 80.11735 95.88227 83.39340
#
# Poissons Ratio (x) = 0.19094 -0.03830
# Poissons Ratio (y) = 0.15955 0.23109
# Poissons Ratio (z) = -0.03680 0.26570
#
# Static dielectric constant tensor:
#      x y z
#    x 1.628300 -0.012170 0.005400 
#    y -0.012170 1.597790 0.017420 
#    z 0.005400 0.017420 1.609950 
# 
# From -- ./inp_files/90140.got.cif
#   From: 2010.05.17/outbox.cif.g08.bks.cpg/sg2_46_cif.got.tgz:90140.got - 2010.06.03 11:33:40.
