data_PCOD9009181
_publ_section_title
;
Structure prediction by ZEFSAII (Michael W. Deem and Ramdas Pophale) SiO2 
 PCOD9009181
Probable space group: P -1
;
_chemical_formula_sum "Si O2"
_cell_formula_units_Z 12
_cell_length_a 10.303473
_cell_length_b 4.764325
_cell_length_c 15.993840
_cell_angle_alpha 80.374800
_cell_angle_beta 139.867087
_cell_angle_gamma 110.588963
_cell_volume 466.965559
_symmetry_space_group_name_H-M "P -1"
_symmetry_group_IT_number 2
_symmetry_cell_setting 'triclinic'
loop_
_space_group_symop_operation_xyz
x,y,z
-x,-y,-z
loop_
_atom_site_type_symbol
_atom_site_label
_atom_site_fract_x
_atom_site_fract_y
_atom_site_fract_z
Si Si1 0.999283 0.383187 0.705340
Si Si2 0.394787 0.893555 0.659872
Si Si3 0.280102 0.256263 0.711014
Si Si4 0.289814 0.533846 0.993159
Si Si5 0.821327 0.092266 0.954336
Si Si6 0.711305 0.780560 0.564889
O O1 0.871457 0.612026 0.622286
O O2 0.843789 0.051434 0.680903
O O3 0.091241 0.296150 0.669877
O O4 0.198911 0.544951 0.856768
O O5 0.238960 0.965205 0.647589
O O6 0.356914 0.019654 0.547000
O O7 0.365687 0.542968 0.675226
O O8 0.635945 0.086406 0.798731
O O9 0.470144 0.268142 0.869350
O O10 0.281543 0.192486 0.019895
O O11 0.132748 0.618081 0.977750
O O12 0.000000 0.000000 0.000000
O O13 0.500000 0.500000 0.500000
#
# Coordination Sequence:
#
# PCOD9009181 Si02
#       6
#     2   2   2   2   2   2
#     4  12  25  44  70 100 135 184 219 274 345 399
#     4  10  23  43  67  97 134 174 228 282 326 390
#     4  10  22  43  73 101 133 168 225 286 339 392
#     4  10  22  41  64 106 133 166 221 280 340 399
#     4  10  21  39  67  94 132 181 218 273 334 393
#     4  12  28  46  65  95 140 186 227 274 326 403
#
# _framework density 25.697827
#
# number of rings (size 3 to 8) (size 9 to 14) (size 15 to 20)
#    0.000    1.333    0.000    4.500    2.333    4.000 
#    9.000    6.667    0.000    0.000    0.000    0.000 
#    0.000    0.000    0.000    0.000    0.000    0.000 
#
# Total GULP energy -67182.550980 kJ/mol
# GULP energy per Si atom -5598.545915 kJ/mol
# Density = 2.563934 g / cm^3
# Si number density = 25.697827 Si / 1000 Ang^3
#
#
#
# Elastic Constant Matrix: (Units=GPa)
#
#
# Indices 1 2 3 4 5 6 
#
# 1 62.3298 12.4689 31.2198 -8.3569 16.0117 -10.0850
# 2 12.4689 133.5643 16.5596 -17.6715 2.2269 -10.8319
# 3 31.2198 16.5596 119.0112 -15.7168 -1.0239 2.6211
# 4 -8.3569 -17.6715 -15.7168 31.4460 -15.2957 11.2601
# 5 16.0117 2.2269 -1.0239 -15.2957 33.7683 -5.9293
# 6 -10.0850 -10.8319 2.6211 11.2601 -5.9293 40.1339
#
#
#
# Elastic Compliance Matrix: (Units=1/GPa)
#
#
# Indices 1 2 3 4 5 6 
#
# 1 0.023286 -0.001490 -0.007019 -0.006634 -0.013137 0.005828
# 2 -0.001490 0.008354 -0.000068 0.005286 0.002688 0.000799
# 3 -0.007019 -0.000068 0.011539 0.008630 0.006900 -0.003937
# 4 -0.006634 0.005286 0.008630 0.054049 0.025396 -0.012216
# 5 -0.013137 0.002688 0.006900 0.025396 0.046810 -0.003236
# 6 0.005828 0.000799 -0.003937 -0.012216 -0.003236 0.029803
#
#
# Mechanical properties :
#
#
# Convention : Reuss Voigt Hill
#
# Bulk Modulus (GPa) = 38.42325 48.37798 43.40061
# Shear Modulus (GPa) = 25.04162 38.04677 31.54419
#
# Velocity S-wave (km/s) = 3.12503 3.85196 3.50738
# Velocity P-wave (km/s) = 5.29202 6.21691 5.77302
#
# Compressibility (1/GPa) = 0.02602591
#
# Stress axis : x y z
#
# Youngs Moduli (GPa) = 42.94518 119.70472 86.66286
#
# Poissons Ratio (x) = 0.17832 0.60825
# Poissons Ratio (y) = 0.06397 0.00589
# Poissons Ratio (z) = 0.30141 0.00814
#
# Static dielectric constant tensor:
#      x y z
#    x 2.091200 0.057220 0.020290 
#    y 0.057220 2.024130 0.084550 
#    z 0.020290 0.084550 2.008310 
# 
# From -- ./inp_files/20030.got.cif
#   From: 2010.05.17/outbox.cif.g08.bks.cpg/sg2_11_cif.got.tgz:20030.got - 2010.06.03 11:33:40.
