data_PCOD9009188
_publ_section_title
;
Structure prediction by ZEFSAII (Michael W. Deem and Ramdas Pophale) SiO2 
 PCOD9009188
Probable space group: P -1
;
_chemical_formula_sum "Si O2"
_cell_formula_units_Z 12
_cell_length_a 15.448983
_cell_length_b 8.878981
_cell_length_c 10.082629
_cell_angle_alpha 146.217668
_cell_angle_beta 50.513483
_cell_angle_gamma 125.064372
_cell_volume 590.101515
_symmetry_space_group_name_H-M "P -1"
_symmetry_group_IT_number 2
_symmetry_cell_setting 'triclinic'
loop_
_space_group_symop_operation_xyz
x,y,z
-x,-y,-z
loop_
_atom_site_type_symbol
_atom_site_label
_atom_site_fract_x
_atom_site_fract_y
_atom_site_fract_z
Si Si1 0.059572 0.232793 0.707228
Si Si2 0.676464 0.194556 0.928685
Si Si3 0.754282 0.362550 0.272524
Si Si4 0.881162 0.250994 0.565231
Si Si5 0.929910 0.253805 0.227443
Si Si6 0.544232 0.602451 0.674321
O O1 0.173532 0.346251 0.605696
O O2 0.000000 0.000000 0.500000
O O3 0.000000 0.500000 0.000000
O O4 0.083239 0.055497 0.682322
O O5 0.773587 0.243059 0.760125
O O6 0.613824 0.893447 0.791080
O O7 0.729026 0.266584 0.075975
O O8 0.572193 0.364658 0.113823
O O9 0.635338 0.404911 0.487587
O O10 0.838041 0.204361 0.163732
O O11 0.865546 0.309259 0.468284
O O12 0.980565 0.477937 0.684077
O O13 0.000000 0.000000 0.000000
O O14 0.500000 0.500000 0.500000
#
# Coordination Sequence:
#
# PCOD9009188 Si02
#       6
#     2   2   2   2   2   2
#     4  12  23  37  64  99 129 170 230 272 327 398
#     4  10  21  39  67  95 122 163 223 274 328 385
#     4  11  22  38  65  93 131 168 219 273 327 388
#     4  11  24  41  61  93 133 175 214 270 327 396
#     4  11  26  41  58  93 140 176 213 261 336 396
#     4   9  20  38  64  97 122 157 218 283 327 381
#
# _framework density 20.335483
#
# number of rings (size 3 to 8) (size 9 to 14) (size 15 to 20)
#    0.000    1.333    3.333    2.000    2.333    2.667 
#    0.000    0.833    0.000   10.000    0.000    0.000 
#    0.000    0.000    0.000    0.000    0.000    0.000 
#
# Total GULP energy -66905.908967 kJ/mol
# GULP energy per Si atom -5575.492414 kJ/mol
# Density = 2.028920 g / cm^3
# Si number density = 20.335483 Si / 1000 Ang^3
#
#
#
# Elastic Constant Matrix: (Units=GPa)
#
#
# Indices 1 2 3 4 5 6 
#
# 1 145.2287 51.4200 63.0655 -9.3373 -19.2578 12.5825
# 2 51.4200 90.5521 50.3229 -7.9851 -7.3912 7.1426
# 3 63.0655 50.3229 109.5950 -14.8943 -18.8455 14.8613
# 4 -9.3373 -7.9851 -14.8943 43.8097 6.3741 0.1759
# 5 -19.2578 -7.3912 -18.8455 6.3741 49.8335 8.3583
# 6 12.5825 7.1426 14.8613 0.1759 8.3583 27.8553
#
#
#
# Elastic Compliance Matrix: (Units=1/GPa)
#
#
# Indices 1 2 3 4 5 6 
#
# 1 0.010179 -0.003425 -0.003492 -0.000002 0.002545 -0.002620
# 2 -0.003425 0.015995 -0.005648 0.000449 -0.001286 0.000842
# 3 -0.003492 -0.005648 0.015841 0.002975 0.004566 -0.006815
# 4 -0.000002 0.000449 0.002975 0.024168 -0.001674 -0.001352
# 5 0.002545 -0.001286 0.004566 -0.001674 0.024582 -0.010621
# 6 -0.002620 0.000842 -0.006815 -0.001352 -0.010621 0.043699
#
#
# Mechanical properties :
#
#
# Convention : Reuss Voigt Hill
#
# Bulk Modulus (GPa) = 59.22432 74.99917 67.11175
# Shear Modulus (GPa) = 30.26227 36.33753 33.29990
#
# Velocity S-wave (km/s) = 3.86184 4.23176 4.05103
# Velocity P-wave (km/s) = 7.00514 7.79988 7.41317
#
# Compressibility (1/GPa) = 0.01688496
#
# Stress axis : x y z
#
# Youngs Moduli (GPa) = 98.23886 62.51822 63.12841
#
# Poissons Ratio (x) = 0.21415 0.22045
# Poissons Ratio (y) = 0.33651 0.35653
# Poissons Ratio (z) = 0.34306 0.35309
#
# Static dielectric constant tensor:
#      x y z
#    x 1.916310 0.007390 0.003320 
#    y 0.007390 1.711560 0.005790 
#    z 0.003320 0.005790 1.859460 
# 
# From -- ./inp_files/287702.got.cif
#   From: 2010.05.17/outbox.cif.g08.bks.cpg/sg2_144_cif.got.tgz:287702.got - 2010.06.03 11:33:40.
