data_PCOD9009679
_publ_section_title
;
Structure prediction by ZEFSAII (Michael W. Deem and Ramdas Pophale) SiO2 
 PCOD9009679
Probable space group: P -1
;
_chemical_formula_sum "Si O2"
_cell_formula_units_Z 13
_cell_length_a 13.906903
_cell_length_b 8.308815
_cell_length_c 7.478715
_cell_angle_alpha 95.635670
_cell_angle_beta 79.229644
_cell_angle_gamma 39.093844
_cell_volume 492.343338
_symmetry_space_group_name_H-M "P -1"
_symmetry_group_IT_number 2
_symmetry_cell_setting 'triclinic'
loop_
_space_group_symop_operation_xyz
x,y,z
-x,-y,-z
loop_
_atom_site_type_symbol
_atom_site_label
_atom_site_fract_x
_atom_site_fract_y
_atom_site_fract_z
Si Si1 0.864177 0.016257 0.182185
Si Si2 0.832002 0.608324 0.003637
Si Si3 0.500000 0.500000 0.500000
Si Si4 0.225635 0.111223 0.288935
Si Si5 0.423081 0.282547 0.011876
Si Si6 0.610238 0.012331 0.437749
Si Si7 0.150367 0.863819 0.201560
O O1 0.701589 0.197105 0.372263
O O2 0.803732 0.155114 0.022926
O O3 0.982396 0.703584 0.054885
O O4 0.981808 0.984314 0.248495
O O5 0.843076 0.673965 0.811971
O O6 0.728947 0.577336 0.040461
O O7 0.708711 0.873895 0.201916
O O8 0.480370 0.333379 0.529317
O O9 0.421088 0.825108 0.126416
O O10 0.250201 0.165608 0.474291
O O11 0.134504 0.061381 0.319062
O O12 0.308683 0.555046 0.203168
O O13 0.500000 0.000000 0.000000
O O14 0.500000 0.000000 0.500000
#
# Coordination Sequence:
#
# PCOD9009679 Si02
#       7
#     2   2   1   2   2   2   2
#     4  10  24  48  76 107 155 206 261 327 400 461
#     4  10  23  47  75 110 158 207 254 324 393 465
#     4  12  28  50  76 114 150 208 268 330 394 472
#     4  11  22  42  75 113 152 207 256 318 393 471
#     4   9  18  35  65 106 146 195 250 306 383 458
#     4  12  27  47  78 118 160 203 265 322 390 477
#     4  10  21  39  73 108 148 204 261 314 395 474
#
# _framework density 26.404336000000001
#
# number of rings (size 3 to 8) (size 9 to 14) (size 15 to 20)
#    0.000    1.538    1.538    2.308    4.308    4.923 
#    2.769    3.846    0.000    0.000    0.000    0.000 
#    0.000    0.000    0.000    0.000    0.000    0.000 
#
# Total GULP energy -72388.463330 kJ/mol
# GULP energy per Si atom -5568.343333 kJ/mol
# Density = 2.634424 g / cm^3
# Si number density = 26.404336 Si / 1000 Ang^3
#
#
#
# Elastic Constant Matrix: (Units=GPa)
#
#
# Indices 1 2 3 4 5 6 
#
# 1 99.6439 10.6371 6.9446 6.3328 -3.1161 8.9629
# 2 10.6371 146.6456 33.0474 7.9985 15.2528 25.8714
# 3 6.9446 33.0474 52.9782 -2.6440 2.8285 -7.3115
# 4 6.3328 7.9985 -2.6440 40.5470 -12.4864 -0.2981
# 5 -3.1161 15.2528 2.8285 -12.4864 40.3432 18.6193
# 6 8.9629 25.8714 -7.3115 -0.2981 18.6193 51.9194
#
#
#
# Elastic Compliance Matrix: (Units=1/GPa)
#
#
# Indices 1 2 3 4 5 6 
#
# 1 0.010554 0.000043 -0.001954 -0.001239 0.001838 -0.002785
# 2 0.000043 0.009574 -0.006744 -0.002884 -0.001660 -0.005149
# 3 -0.001954 -0.006744 0.024688 0.002626 -0.002202 0.007979
# 4 -0.001239 -0.002884 0.002626 0.028801 0.010444 -0.001559
# 5 0.001838 -0.001660 -0.002202 0.010444 0.034541 -0.012127
# 6 -0.002785 -0.005149 0.007979 -0.001559 -0.012127 0.027771
#
#
# Mechanical properties :
#
#
# Convention : Reuss Voigt Hill
#
# Bulk Modulus (GPa) = 36.35623 44.50288 40.42955
# Shear Modulus (GPa) = 30.78641 43.13784 36.96212
#
# Velocity S-wave (km/s) = 3.41832 4.04634 3.74552
# Velocity P-wave (km/s) = 5.42022 6.22266 5.83525
#
# Compressibility (1/GPa) = 0.02750560
#
# Stress axis : x y z
#
# Youngs Moduli (GPa) = 94.75021 104.44726 40.50484
#
# Poissons Ratio (x) = -0.00444 0.07916
# Poissons Ratio (y) = -0.00403 0.27316
# Poissons Ratio (z) = 0.18516 0.70437
#
# Static dielectric constant tensor:
#      x y z
#    x 2.251820 0.073930 0.049210 
#    y 0.073930 2.221490 0.000160 
#    z 0.049210 0.000160 2.119350 
# 
# From -- ./inp_files/292763.got.cif
#   From: 2010.05.17/outbox.cif.g08.bks.cpg/sg2_147_cif.got.tgz:292763.got - 2010.06.03 11:33:40.
