data_PCOD9009013
_publ_section_title
;
Structure prediction by ZEFSAII (Michael W. Deem and Ramdas Pophale) SiO2 
 PCOD9009013
Probable space group: P -1
;
_chemical_formula_sum "Si O2"
_cell_formula_units_Z 16
_cell_length_a 23.229099
_cell_length_b 10.029647
_cell_length_c 8.706190
_cell_angle_alpha 149.956359
_cell_angle_beta 131.441446
_cell_angle_gamma 47.565159
_cell_volume 732.716069
_symmetry_space_group_name_H-M "P -1"
_symmetry_group_IT_number 2
_symmetry_cell_setting 'triclinic'
loop_
_space_group_symop_operation_xyz
x,y,z
-x,-y,-z
loop_
_atom_site_type_symbol
_atom_site_label
_atom_site_fract_x
_atom_site_fract_y
_atom_site_fract_z
Si Si1 0.538992 0.487939 0.721701
Si Si2 0.051603 0.224529 0.495309
Si Si3 0.224574 0.145107 0.262550
Si Si4 0.049650 0.188119 0.087973
Si Si5 0.475717 0.050319 0.332497
Si Si6 0.777185 0.136883 0.509197
Si Si7 0.277793 0.600479 0.000978
Si Si8 0.291605 0.285072 0.196550
O O1 0.500000 0.500000 0.500000
O O2 0.629440 0.504492 0.896337
O O3 0.533980 0.205956 0.510537
O O4 0.486483 0.750640 0.981325
O O5 0.065126 0.213872 0.323810
O O6 0.021809 0.542144 0.808827
O O7 0.132416 0.046104 0.535969
O O8 0.980631 0.082368 0.257834
O O9 0.130103 0.180155 0.133670
O O10 0.255544 0.209683 0.216732
O O11 0.266103 0.834775 0.083053
O O12 0.244910 0.355818 0.632359
O O13 0.500000 0.000000 0.500000
O O14 0.385778 0.235338 0.335765
O O15 0.767462 0.254894 0.782892
O O16 0.750251 0.403197 0.618196
O O17 0.723466 0.928629 0.171308
#
# Coordination Sequence:
#
# PCOD9009013 Si02
#       8
#     2   2   2   2   2   2   2   2
#     4  12  25  43  66  97 130 167 218 279 328 379
#     4  10  21  39  66  97 127 167 214 266 317 382
#     4  12  25  44  66 100 129 173 218 271 318 382
#     4  10  21  39  66  97 127 165 218 268 310 376
#     4  12  25  45  68  93 129 180 222 262 327 395
#     4  12  25  44  66 100 133 175 212 268 336 386
#     4  12  24  42  69  96 128 168 227 271 319 384
#     4  12  26  44  65  95 140 172 212 270 333 392
#
# _framework density 21.836563000000002
#
# number of rings (size 3 to 8) (size 9 to 14) (size 15 to 20)
#    0.000    0.500    1.250    8.250    3.500    0.000 
#    0.000    3.750    0.000    0.000    0.000    0.000 
#    0.000    0.000    0.000    0.000    0.000    0.000 
#
# Total GULP energy -89650.420715 kJ/mol
# GULP energy per Si atom -5603.151295 kJ/mol
# Density = 2.178686 g / cm^3
# Si number density = 21.836563 Si / 1000 Ang^3
#
#
#
# Elastic Constant Matrix: (Units=GPa)
#
#
# Indices 1 2 3 4 5 6 
#
# 1 77.6460 10.7992 0.4457 -6.1247 2.9148 -11.1833
# 2 10.7992 106.5478 7.5466 17.8243 -12.8262 -13.8369
# 3 0.4457 7.5466 72.6535 7.7987 -2.5218 10.3579
# 4 -6.1247 17.8243 7.7987 30.8849 3.5964 -1.1203
# 5 2.9148 -12.8262 -2.5218 3.5964 27.4981 -2.0410
# 6 -11.1833 -13.8369 10.3579 -1.1203 -2.0410 33.6475
#
#
#
# Elastic Compliance Matrix: (Units=1/GPa)
#
#
# Indices 1 2 3 4 5 6 
#
# 1 0.014245 -0.001938 -0.001096 0.004702 -0.002813 0.004261
# 2 -0.001938 0.012528 -0.000873 -0.008075 0.007393 0.004956
# 3 -0.001096 -0.000873 0.015091 -0.003860 0.001195 -0.005424
# 4 0.004702 -0.008075 -0.003860 0.040099 -0.009851 0.000168
# 5 -0.002813 0.007393 0.001195 -0.009851 0.041804 0.003945
# 6 0.004261 0.004956 -0.005424 0.000168 0.003945 0.035089
#
#
# Mechanical properties :
#
#
# Convention : Reuss Voigt Hill
#
# Bulk Modulus (GPa) = 29.36812 32.71447 31.04130
# Shear Modulus (GPa) = 28.08692 34.27649 31.18171
#
# Velocity S-wave (km/s) = 3.59030 3.96622 3.78293
# Velocity P-wave (km/s) = 5.53762 5.99905 5.77295
#
# Compressibility (1/GPa) = 0.03405052
#
# Stress axis : x y z
#
# Youngs Moduli (GPa) = 70.19999 79.81970 66.26682
#
# Poissons Ratio (x) = 0.15470 0.07262
# Poissons Ratio (y) = 0.13606 0.05782
# Poissons Ratio (z) = 0.07693 0.06965
#
# Static dielectric constant tensor:
#      x y z
#    x 1.773170 -0.003780 -0.007190 
#    y -0.003780 1.767310 -0.000850 
#    z -0.007190 -0.000850 1.751070 
# 
# From -- ./inp_files/352527.got.cif
#   From: 2010.05.17/outbox.cif.g08.bks.cpg/sg2_177_cif.got.tgz:352527.got - 2010.06.03 11:33:40.
