data_PCOD9009342
_publ_section_title
;
Structure prediction by ZEFSAII (Michael W. Deem and Ramdas Pophale) SiO2 
 PCOD9009342
Probable space group: P -1
;
_chemical_formula_sum "Si O2"
_cell_formula_units_Z 16
_cell_length_a 9.074422
_cell_length_b 11.658924
_cell_length_c 7.736576
_cell_angle_alpha 109.482337
_cell_angle_beta 62.300475
_cell_angle_gamma 112.035931
_cell_volume 659.023589
_symmetry_space_group_name_H-M "P -1"
_symmetry_group_IT_number 2
_symmetry_cell_setting 'triclinic'
loop_
_space_group_symop_operation_xyz
x,y,z
-x,-y,-z
loop_
_atom_site_type_symbol
_atom_site_label
_atom_site_fract_x
_atom_site_fract_y
_atom_site_fract_z
Si Si1 0.070445 0.713731 0.735415
Si Si2 0.781479 0.460414 0.838605
Si Si3 0.486460 0.491043 0.764666
Si Si4 0.286475 0.056062 0.789241
Si Si5 0.349272 0.295319 0.442250
Si Si6 0.949421 0.228990 0.611879
Si Si7 0.074353 0.921289 0.129735
Si Si8 0.560681 0.183059 0.464427
O O1 0.042551 0.781109 0.605008
O O2 0.266446 0.705441 0.604924
O O3 0.935858 0.577707 0.751036
O O4 0.060633 0.798751 0.950859
O O5 0.610520 0.446108 0.808388
O O6 0.849723 0.336578 0.751558
O O7 0.703815 0.499768 0.076038
O O8 0.450469 0.392950 0.579603
O O9 0.594956 0.632240 0.728534
O O10 0.444838 0.169796 0.694787
O O11 0.116352 0.058201 0.773305
O O12 0.358597 0.936035 0.649327
O O13 0.213324 0.034786 0.014142
O O14 0.427741 0.178730 0.377865
O O15 0.149598 0.271563 0.573740
O O16 0.877775 0.111307 0.719821
#
# Coordination Sequence:
#
# PCOD9009342 Si02
#       8
#     2   2   2   2   2   2   2   2
#     4  11  24  41  64  94 130 170 202 258 315 373
#     4  11  24  41  58  93 134 168 203 258 307 369
#     4  10  24  40  60  90 134 168 206 255 305 373
#     4   9  20  42  66  89 124 164 208 269 319 365
#     4  11  22  38  64  95 123 170 214 248 308 380
#     4  12  24  41  65  96 131 165 211 254 308 380
#     4  10  22  42  68  94 121 165 214 260 317 370
#     4  10  21  39  68  91 125 167 208 260 321 370
#
# _framework density 24.278341000000001
#
# number of rings (size 3 to 8) (size 9 to 14) (size 15 to 20)
#    0.000    1.500    2.500    1.875    7.000    1.000 
#    0.000    6.250    0.000    0.000    0.000    0.000 
#    0.000    0.000    0.000    0.000    0.000    0.000 
#
# Total GULP energy -89333.973554 kJ/mol
# GULP energy per Si atom -5583.373347 kJ/mol
# Density = 2.422308 g / cm^3
# Si number density = 24.278341 Si / 1000 Ang^3
#
#
#
# Elastic Constant Matrix: (Units=GPa)
#
#
# Indices 1 2 3 4 5 6 
#
# 1 101.7730 38.3905 27.4460 -7.7024 -43.3879 -14.7223
# 2 38.3905 89.3925 37.9841 -26.0329 -21.1395 -11.5969
# 3 27.4460 37.9841 85.6122 -17.5516 -38.1814 -11.0879
# 4 -7.7024 -26.0329 -17.5516 40.6854 0.0168 5.1064
# 5 -43.3879 -21.1395 -38.1814 0.0168 50.7000 -3.3843
# 6 -14.7223 -11.5969 -11.0879 5.1064 -3.3843 32.9784
#
#
#
# Elastic Compliance Matrix: (Units=1/GPa)
#
#
# Indices 1 2 3 4 5 6 
#
# 1 0.021174 -0.004496 0.007509 0.002820 0.022721 0.012292
# 2 -0.004496 0.017685 -0.004323 0.008412 0.000368 0.001494
# 3 0.007509 -0.004323 0.025220 0.008074 0.024386 0.011564
# 4 0.002820 0.008412 0.008074 0.033599 0.012188 0.002980
# 5 0.022721 0.000368 0.024386 0.012188 0.059194 0.022659
# 6 0.012292 0.001494 0.011564 0.002980 0.022659 0.042087
#
#
# Mechanical properties :
#
#
# Convention : Reuss Voigt Hill
#
# Bulk Modulus (GPa) = 16.27072 53.82431 35.04751
# Shear Modulus (GPa) = 22.51600 36.40325 29.45963
#
# Velocity S-wave (km/s) = 3.04865 3.87643 3.48719
# Velocity P-wave (km/s) = 4.37134 6.50026 5.53904
#
# Compressibility (1/GPa) = 0.06146009
#
# Stress axis : x y z
#
# Youngs Moduli (GPa) = 47.22702 56.54594 39.65165
#
# Poissons Ratio (x) = 0.25421 -0.29776
# Poissons Ratio (y) = 0.21232 0.17142
# Poissons Ratio (z) = -0.35465 0.24445
#
# Static dielectric constant tensor:
#      x y z
#    x 1.960640 -0.039390 0.083780 
#    y -0.039390 2.095090 -0.031060 
#    z 0.083780 -0.031060 2.012430 
# 
# From -- ./inp_files/179939.got.cif
#   From: 2010.05.17/outbox.cif.g08.bks.cpg/sg2_90_cif.got.tgz:179939.got - 2010.06.03 11:33:40.
