data_PCOD9009253
_publ_section_title
;
Structure prediction by ZEFSAII (Michael W. Deem and Ramdas Pophale) SiO2 
 PCOD9009253
Probable space group: P -1
;
_chemical_formula_sum "Si O2"
_cell_formula_units_Z 16
_cell_length_a 8.875068
_cell_length_b 25.486429
_cell_length_c 8.719503
_cell_angle_alpha 130.632768
_cell_angle_beta 87.146943
_cell_angle_gamma 135.645262
_cell_volume 649.788551
_symmetry_space_group_name_H-M "P -1"
_symmetry_group_IT_number 2
_symmetry_cell_setting 'triclinic'
loop_
_space_group_symop_operation_xyz
x,y,z
-x,-y,-z
loop_
_atom_site_type_symbol
_atom_site_label
_atom_site_fract_x
_atom_site_fract_y
_atom_site_fract_z
Si Si1 0.538008 0.182286 0.048056
Si Si2 0.623997 0.093823 0.028698
Si Si3 0.689287 0.297185 0.761347
Si Si4 0.419868 0.255259 0.982913
Si Si5 0.685270 0.508633 0.441815
Si Si6 0.705217 0.822137 0.716860
Si Si7 0.231668 0.437456 0.801878
Si Si8 0.835034 0.046294 0.791372
O O1 0.372017 0.047257 0.879367
O O2 0.357611 0.158798 0.897228
O O3 0.591277 0.258690 0.328986
O O4 0.905614 0.311240 0.210414
O O5 0.941278 0.267830 0.416219
O O6 0.701291 0.068521 0.850915
O O7 0.500000 0.000000 0.000000
O O8 0.486418 0.267329 0.602993
O O9 0.033083 0.407985 0.873168
O O10 0.448302 0.129673 0.490933
O O11 0.677597 0.335071 0.990627
O O12 0.594744 0.397415 0.309583
O O13 0.018398 0.113917 0.745284
O O14 0.500000 0.500000 0.500000
O O15 0.604377 0.465827 0.181588
O O16 0.888673 0.846279 0.873173
O O17 0.000000 0.000000 0.000000
O O18 0.500000 0.500000 0.000000
#
# Coordination Sequence:
#
# PCOD9009253 Si02
#       8
#     2   2   2   2   2   2   2   2
#     4  10  21  40  62  96 126 175 230 267 323 408
#     4  11  19  41  73  95 131 178 234 277 322 395
#     4  11  21  42  64  95 141 167 221 284 336 401
#     4  11  24  39  65  97 134 175 214 278 352 395
#     4  11  24  45  66  89 133 179 229 270 331 415
#     4   9  17  36  63  89 120 165 214 265 317 385
#     4  11  25  43  65 101 137 175 223 286 342 388
#     4  10  21  39  67  98 126 174 226 274 330 402
#
# _framework density 24.623394000000001
#
# number of rings (size 3 to 8) (size 9 to 14) (size 15 to 20)
#    0.000    1.500    3.750    3.000    1.750    1.500 
#    4.500    1.875    0.000    0.000    0.000    0.000 
#    0.000    0.000    0.000    0.000    0.000    0.000 
#
# Total GULP energy -89081.066322 kJ/mol
# GULP energy per Si atom -5567.566645 kJ/mol
# Density = 2.456735 g / cm^3
# Si number density = 24.623394 Si / 1000 Ang^3
#
#
#
# Elastic Constant Matrix: (Units=GPa)
#
#
# Indices 1 2 3 4 5 6 
#
# 1 137.6134 37.1303 25.5422 -7.6412 -21.6170 15.9554
# 2 37.1303 97.6592 10.0025 0.0680 -12.1464 17.5618
# 3 25.5422 10.0025 30.7749 3.2688 -16.1627 0.2276
# 4 -7.6412 0.0680 3.2688 27.3877 -3.8534 -1.8748
# 5 -21.6170 -12.1464 -16.1627 -3.8534 36.2690 0.5687
# 6 15.9554 17.5618 0.2276 -1.8748 0.5687 58.6113
#
#
#
# Elastic Compliance Matrix: (Units=1/GPa)
#
#
# Indices 1 2 3 4 5 6 
#
# 1 0.009980 -0.002468 -0.006468 0.003812 0.002673 -0.001856
# 2 -0.002468 0.012060 -0.000587 -0.000529 0.002297 -0.002979
# 3 -0.006468 -0.000587 0.047204 -0.005028 0.016428 0.001433
# 4 0.003812 -0.000529 -0.005028 0.038759 0.003967 0.000342
# 5 0.002673 0.002297 0.016428 0.003967 0.037703 -0.001719
# 6 -0.001856 -0.002979 0.001433 0.000342 -0.001719 0.018481
#
#
# Mechanical properties :
#
#
# Convention : Reuss Voigt Hill
#
# Bulk Modulus (GPa) = 19.92106 45.71081 32.81593
# Shear Modulus (GPa) = 25.00422 37.34510 31.17466
#
# Velocity S-wave (km/s) = 3.19009 3.89865 3.56203
# Velocity P-wave (km/s) = 4.65584 6.23460 5.50214
#
# Compressibility (1/GPa) = 0.05019814
#
# Stress axis : x y z
#
# Youngs Moduli (GPa) = 100.20004 82.91955 21.18464
#
# Poissons Ratio (x) = 0.20467 0.13702
# Poissons Ratio (y) = 0.24733 0.01243
# Poissons Ratio (z) = 0.64809 0.04864
#
# Static dielectric constant tensor:
#      x y z
#    x 2.001400 -0.041600 -0.008100 
#    y -0.041600 2.195510 -0.022630 
#    z -0.008100 -0.022630 2.028090 
# 
# From -- ./inp_files/227505.got.cif
#   From: 2010.05.17/outbox.cif.g08.bks.cpg/sg2_114_cif.got.tgz:227505.got - 2010.06.03 11:33:40.
