data_PCOD9009128
_publ_section_title
;
Structure prediction by ZEFSAII (Michael W. Deem and Ramdas Pophale) SiO2 
 PCOD9009128
Probable space group: P -1
;
_chemical_formula_sum "Si O2"
_cell_formula_units_Z 16
_cell_length_a 16.138260
_cell_length_b 18.707857
_cell_length_c 6.720555
_cell_angle_alpha 77.221025
_cell_angle_beta 109.050082
_cell_angle_gamma 157.822348
_cell_volume 705.038276
_symmetry_space_group_name_H-M "P -1"
_symmetry_group_IT_number 2
_symmetry_cell_setting 'triclinic'
loop_
_space_group_symop_operation_xyz
x,y,z
-x,-y,-z
loop_
_atom_site_type_symbol
_atom_site_label
_atom_site_fract_x
_atom_site_fract_y
_atom_site_fract_z
Si Si1 0.270394 0.584395 0.896288
Si Si2 0.743210 0.157693 0.871426
Si Si3 0.354629 0.227124 0.756540
Si Si4 0.754080 0.706530 0.163764
Si Si5 0.645202 0.537795 0.543008
Si Si6 0.038501 0.876337 0.926432
Si Si7 0.496534 0.115170 0.817542
Si Si8 0.559068 0.892426 0.656077
O O1 0.003076 0.359582 0.864759
O O2 0.331427 0.671195 0.682083
O O3 0.438050 0.644319 0.021619
O O4 0.365335 0.717705 0.048824
O O5 0.666952 0.180937 0.848118
O O6 0.565567 0.980658 0.688088
O O7 0.704174 0.079148 0.089469
O O8 0.247256 0.218412 0.765460
O O9 0.463636 0.331234 0.563221
O O10 0.158866 0.014807 0.758461
O O11 0.769548 0.650048 0.363371
O O12 0.500000 0.500000 0.000000
O O13 0.928542 0.841235 0.033968
O O14 0.500000 0.500000 0.500000
O O15 0.832934 0.674740 0.780322
O O16 0.229610 0.978819 0.132470
O O17 0.405642 0.080966 0.566197
#
# Coordination Sequence:
#
# PCOD9009128 Si02
#       8
#     2   2   2   2   2   2   2   2
#     4  10  22  40  60  90 126 158 201 254 296 363
#     4  10  21  39  67  88 126 162 198 249 304 358
#     4  10  22  40  59  85 120 157 198 244 305 345
#     4  11  22  40  60  85 117 153 202 250 290 357
#     4  10  21  40  59  83 115 153 200 251 297 353
#     4  11  22  40  60  85 121 159 198 251 299 352
#     4  10  22  41  61  96 121 160 204 245 302 368
#     4  10  23  39  61  91 128 156 205 250 300 361
#
# _framework density 22.693802000000002
#
# number of rings (size 3 to 8) (size 9 to 14) (size 15 to 20)
#    0.000    1.750    2.500    1.875    0.000    7.500 
#    6.750    0.000    0.000    0.000    0.000    0.000 
#    0.000    0.000    0.000    0.000    0.000    0.000 
#
# Total GULP energy -89364.395397 kJ/mol
# GULP energy per Si atom -5585.274712 kJ/mol
# Density = 2.264215 g / cm^3
# Si number density = 22.693802 Si / 1000 Ang^3
#
#
#
# Elastic Constant Matrix: (Units=GPa)
#
#
# Indices 1 2 3 4 5 6 
#
# 1 43.5028 12.6465 3.9770 -16.7597 8.3597 5.2475
# 2 12.6465 116.5031 36.4063 -39.2263 9.0307 3.4277
# 3 3.9770 36.4063 96.5333 -21.8767 11.2400 -10.2937
# 4 -16.7597 -39.2263 -21.8767 25.6952 -4.8496 2.4596
# 5 8.3597 9.0307 11.2400 -4.8496 22.4337 -5.3173
# 6 5.2475 3.4277 -10.2937 2.4596 -5.3173 34.4735
#
#
#
# Elastic Compliance Matrix: (Units=1/GPa)
#
#
# Indices 1 2 3 4 5 6 
#
# 1 0.041656 0.011148 0.005245 0.046885 -0.015248 -0.011580
# 2 0.011148 0.021310 0.000423 0.039721 -0.006128 -0.007469
# 3 0.005245 0.000423 0.014182 0.014934 -0.005657 0.001456
# 4 0.046885 0.039721 0.014934 0.141883 -0.014782 -0.019030
# 5 -0.015248 -0.006128 -0.005657 -0.014782 0.054915 0.010766
# 6 -0.011580 -0.007469 0.001456 -0.019030 0.010766 0.034966
#
#
# Mechanical properties :
#
#
# Convention : Reuss Voigt Hill
#
# Bulk Modulus (GPa) = 9.02692 40.28875 24.65784
# Shear Modulus (GPa) = 16.01501 30.08779 23.05140
#
# Velocity S-wave (km/s) = 2.65938 3.64512 3.19055
# Velocity P-wave (km/s) = 3.66280 5.95883 4.94589
#
# Compressibility (1/GPa) = 0.11077972
#
# Stress axis : x y z
#
# Youngs Moduli (GPa) = 24.00601 46.92621 70.51244
#
# Poissons Ratio (x) = -0.52312 -0.36986
# Poissons Ratio (y) = -0.26761 -0.02981
# Poissons Ratio (z) = -0.12592 -0.01984
#
# Static dielectric constant tensor:
#      x y z
#    x 1.929940 0.013770 -0.019570 
#    y 0.013770 1.838070 -0.055100 
#    z -0.019570 -0.055100 1.892500 
# 
# From -- ./inp_files/112370.got.cif
#   From: 2010.05.17/outbox.cif.g08.bks.cpg/sg2_57_cif.got.tgz:112370.got - 2010.06.03 11:33:40.
