data_PCOD9009149
_publ_section_title
;
Structure prediction by ZEFSAII (Michael W. Deem and Ramdas Pophale) SiO2 
 PCOD9009149
Probable space group: P -1
;
_chemical_formula_sum "Si O2"
_cell_formula_units_Z 16
_cell_length_a 7.346582
_cell_length_b 15.744061
_cell_length_c 11.524153
_cell_angle_alpha 145.721026
_cell_angle_beta 122.414689
_cell_angle_gamma 66.226634
_cell_volume 631.544265
_symmetry_space_group_name_H-M "P -1"
_symmetry_group_IT_number 2
_symmetry_cell_setting 'triclinic'
loop_
_space_group_symop_operation_xyz
x,y,z
-x,-y,-z
loop_
_atom_site_type_symbol
_atom_site_label
_atom_site_fract_x
_atom_site_fract_y
_atom_site_fract_z
Si Si1 0.519821 0.631691 0.979111
Si Si2 0.676678 0.576811 0.506683
Si Si3 0.521786 0.984644 0.354294
Si Si4 0.974264 0.350920 0.469239
Si Si5 0.942202 0.160686 0.716759
Si Si6 0.295307 0.955272 0.030705
Si Si7 0.264601 0.144055 0.018568
Si Si8 0.156854 0.528503 0.926544
O O1 0.489527 0.544402 0.748145
O O2 0.683436 0.547780 0.019183
O O3 0.581442 0.808212 0.167600
O O4 0.298247 0.612051 0.960954
O O5 0.857049 0.491388 0.538013
O O6 0.797591 0.655529 0.525414
O O7 0.613998 0.698677 0.715702
O O8 0.500000 0.000000 0.500000
O O9 0.690341 0.129904 0.557574
O O10 0.310540 0.996482 0.217347
O O11 0.826190 0.205445 0.217145
O O12 0.013046 0.390778 0.661323
O O13 0.972880 0.341976 0.911974
O O14 0.061201 0.153779 0.875617
O O15 0.000000 0.000000 0.500000
O O16 0.200751 0.061803 0.024254
O O17 0.552428 0.947418 0.082803
#
# Coordination Sequence:
#
# PCOD9009149 Si02
#       8
#     2   2   2   2   2   2   2   2
#     4  10  22  41  66  99 130 169 223 271 329 392
#     4  10  21  39  67  92 128 167 214 273 328 383
#     4  12  25  42  70  98 134 175 225 275 331 398
#     4  10  21  40  65  95 125 164 225 270 323 387
#     4  12  25  45  66  95 138 179 219 269 338 397
#     4  11  26  45  65  97 133 177 224 269 331 400
#     4  11  26  45  66  93 136 180 217 272 333 396
#     4  10  22  41  67  96 132 173 214 277 332 390
#
# _framework density 25.334724999999999
#
# number of rings (size 3 to 8) (size 9 to 14) (size 15 to 20)
#    0.000    1.250    5.000    0.000    5.250    2.000 
#    2.250    0.625    0.000    0.000    0.000    0.000 
#    0.000    0.000    0.000    0.000    0.000    0.000 
#
# Total GULP energy -89274.413835 kJ/mol
# GULP energy per Si atom -5579.650865 kJ/mol
# Density = 2.527706 g / cm^3
# Si number density = 25.334725 Si / 1000 Ang^3
#
#
#
# Elastic Constant Matrix: (Units=GPa)
#
#
# Indices 1 2 3 4 5 6 
#
# 1 37.2979 5.7633 22.2254 -4.7899 2.6847 2.2648
# 2 5.7633 106.8554 42.5951 -28.2226 -3.3773 -8.6877
# 3 22.2254 42.5951 207.9244 -36.1520 -1.6776 -4.6274
# 4 -4.7899 -28.2226 -36.1520 36.9410 0.8704 8.5042
# 5 2.6847 -3.3773 -1.6776 0.8704 28.3486 -2.5273
# 6 2.2648 -8.6877 -4.6274 8.5042 -2.5273 23.0311
#
#
#
# Elastic Compliance Matrix: (Units=1/GPa)
#
#
# Indices 1 2 3 4 5 6 
#
# 1 0.029354 -0.000453 -0.002861 0.001822 -0.003477 -0.004686
# 2 -0.000453 0.012000 -0.001025 0.007691 0.001325 0.001671
# 3 -0.002861 -0.001025 0.006192 0.005059 0.000298 -0.000697
# 4 0.001822 0.007691 0.005059 0.040800 -0.001231 -0.011462
# 5 -0.003477 0.001325 0.000298 -0.001231 0.036294 0.005339
# 6 -0.004686 0.001671 -0.000697 -0.011462 0.005339 0.049189
#
#
# Mechanical properties :
#
#
# Convention : Reuss Voigt Hill
#
# Bulk Modulus (GPa) = 25.72690 54.80504 40.26597
# Shear Modulus (GPa) = 25.58027 36.43038 31.00532
#
# Velocity S-wave (km/s) = 3.18101 3.79616 3.50212
# Velocity P-wave (km/s) = 4.86504 6.39483 5.68166
#
# Compressibility (1/GPa) = 0.03886983
#
# Stress axis : x y z
#
# Youngs Moduli (GPa) = 34.06637 83.33073 161.50745
#
# Poissons Ratio (x) = 0.03773 0.46202
# Poissons Ratio (y) = 0.01542 0.16554
# Poissons Ratio (z) = 0.09745 0.08541
#
# Static dielectric constant tensor:
#      x y z
#    x 2.257800 0.012270 -0.079590 
#    y 0.012270 1.958480 0.046580 
#    z -0.079590 0.046580 2.008450 
# 
# From -- ./inp_files/186649.got.cif
#   From: 2010.05.17/outbox.cif.g08.bks.cpg/sg2_94_cif.got.tgz:186649.got - 2010.06.03 11:33:40.
