data_PCOD9009460
_publ_section_title
;
Structure prediction by ZEFSAII (Michael W. Deem and Ramdas Pophale) SiO2 
 PCOD9009460
Probable space group: P -1
;
_chemical_formula_sum "Si O2"
_cell_formula_units_Z 14
_cell_length_a 8.817475
_cell_length_b 8.404406
_cell_length_c 13.088167
_cell_angle_alpha 115.902048
_cell_angle_beta 80.395910
_cell_angle_gamma 51.738036
_cell_volume 537.923545
_symmetry_space_group_name_H-M "P -1"
_symmetry_group_IT_number 2
_symmetry_cell_setting 'triclinic'
loop_
_space_group_symop_operation_xyz
x,y,z
-x,-y,-z
loop_
_atom_site_type_symbol
_atom_site_label
_atom_site_fract_x
_atom_site_fract_y
_atom_site_fract_z
Si Si1 0.566489 0.232332 0.243197
Si Si2 0.797918 0.392030 0.262272
Si Si3 0.034625 0.002497 0.376690
Si Si4 0.002475 0.628603 0.939887
Si Si5 0.649159 0.183857 0.880334
Si Si6 0.235938 0.465495 0.150043
Si Si7 0.233609 0.408234 0.482084
O O1 0.619470 0.388772 0.305259
O O2 0.369493 0.388816 0.218791
O O3 0.480759 0.170071 0.322218
O O4 0.818024 0.943667 0.084008
O O5 0.733593 0.611367 0.406636
O O6 0.779837 0.463841 0.166208
O O7 0.084194 0.077505 0.167367
O O8 0.271119 0.890893 0.268613
O O9 0.051470 0.800278 0.256801
O O10 0.000000 0.000000 0.500000
O O11 0.828687 0.330551 0.465208
O O12 0.907241 0.587570 0.848562
O O13 0.000000 0.500000 0.000000
O O14 0.500000 0.500000 0.000000
O O15 0.446424 0.246299 0.977793
O O16 0.000000 0.500000 0.500000
#
# Coordination Sequence:
#
# PCOD9009460 Si02
#       7
#     2   2   2   2   2   2   2
#     4  12  25  46  75 103 142 191 235 295 365 422
#     4  11  25  46  68 105 148 186 236 299 356 421
#     4  10  21  39  69 101 136 174 240 284 346 422
#     4  12  29  45  71 106 145 186 243 302 353 415
#     4   9  21  37  70  99 136 184 234 282 351 419
#     4  11  23  44  71 102 138 184 241 285 356 420
#     4  11  25  46  74 104 141 190 237 291 356 426
#
# _framework density 26.026005999999999
#
# number of rings (size 3 to 8) (size 9 to 14) (size 15 to 20)
#    0.000    1.143    2.857    2.143   10.000    1.143 
#    0.000    0.714    0.000    0.000    0.000    0.000 
#    0.000    0.000    0.000    0.000    0.000    0.000 
#
# Total GULP energy -78140.125678 kJ/mol
# GULP energy per Si atom -5581.437548 kJ/mol
# Density = 2.596677 g / cm^3
# Si number density = 26.026006 Si / 1000 Ang^3
#
#
#
# Elastic Constant Matrix: (Units=GPa)
#
#
# Indices 1 2 3 4 5 6 
#
# 1 138.6129 12.5622 42.2096 -15.3392 -8.1652 -0.7092
# 2 12.5622 72.1317 14.8264 -21.5327 -7.6093 7.2457
# 3 42.2096 14.8264 147.7359 -43.0477 -20.7369 8.8712
# 4 -15.3392 -21.5327 -43.0477 45.8044 14.4004 -5.4417
# 5 -8.1652 -7.6093 -20.7369 14.4004 46.5963 -7.4323
# 6 -0.7092 7.2457 8.8712 -5.4417 -7.4323 27.0768
#
#
#
# Elastic Compliance Matrix: (Units=1/GPa)
#
#
# Indices 1 2 3 4 5 6 
#
# 1 0.008013 -0.000974 -0.002143 0.000235 0.000432 0.001338
# 2 -0.000974 0.016557 0.001201 0.008199 0.000024 -0.003195
# 3 -0.002143 0.001201 0.010084 0.008709 0.001369 -0.001555
# 4 0.000235 0.008199 0.008709 0.035817 -0.005720 0.000587
# 5 0.000432 0.000024 0.001369 -0.005720 0.024747 0.005200
# 6 0.001338 -0.003195 -0.001555 0.000587 0.005200 0.039877
#
#
# Mechanical properties :
#
#
# Convention : Reuss Voigt Hill
#
# Bulk Modulus (GPa) = 32.44400 55.29743 43.87071
# Shear Modulus (GPa) = 33.51164 43.15432 38.33298
#
# Velocity S-wave (km/s) = 3.59224 4.07642 3.84197
# Velocity P-wave (km/s) = 5.44964 6.59162 6.04765
#
# Compressibility (1/GPa) = 0.03082234
#
# Stress axis : x y z
#
# Youngs Moduli (GPa) = 124.78964 60.39620 99.17045
#
# Poissons Ratio (x) = 0.05882 0.21253
# Poissons Ratio (y) = 0.12153 -0.11909
# Poissons Ratio (z) = 0.26743 -0.07253
#
# Static dielectric constant tensor:
#      x y z
#    x 2.030630 -0.007520 -0.018230 
#    y -0.007520 2.200620 -0.057650 
#    z -0.018230 -0.057650 2.144250 
# 
# From -- ./inp_files/489915.got.cif
#   From: 2010.05.17/outbox.cif.g08.bks.cpg/sg2_245_cif.got.tgz:489915.got - 2010.06.03 11:33:40.
