data_PCOD9009490
_publ_section_title
;
Structure prediction by ZEFSAII (Michael W. Deem and Ramdas Pophale) SiO2 
 PCOD9009490
Probable space group: P -1
;
_chemical_formula_sum "Si O2"
_cell_formula_units_Z 14
_cell_length_a 7.529207
_cell_length_b 14.235803
_cell_length_c 14.482788
_cell_angle_alpha 151.769475
_cell_angle_beta 116.600794
_cell_angle_gamma 79.310499
_cell_volume 570.775654
_symmetry_space_group_name_H-M "P -1"
_symmetry_group_IT_number 2
_symmetry_cell_setting 'triclinic'
loop_
_space_group_symop_operation_xyz
x,y,z
-x,-y,-z
loop_
_atom_site_type_symbol
_atom_site_label
_atom_site_fract_x
_atom_site_fract_y
_atom_site_fract_z
Si Si1 0.235890 0.587718 0.895400
Si Si2 0.682958 0.046314 0.447300
Si Si3 0.065086 0.379620 0.488283
Si Si4 0.285497 0.564572 0.311655
Si Si5 0.110351 0.094856 0.469416
Si Si6 0.353938 0.268934 0.321905
Si Si7 0.840438 0.917564 0.081226
O O1 0.214530 0.561111 0.757023
O O2 0.256756 0.369487 0.744777
O O3 0.983169 0.537553 0.820081
O O4 0.441721 0.823843 0.180401
O O5 0.780443 0.025951 0.550738
O O6 0.670363 0.277869 0.631175
O O7 0.867409 0.042136 0.413653
O O8 0.205403 0.285928 0.383883
O O9 0.000000 0.500000 0.500000
O O10 0.845984 0.162149 0.294699
O O11 0.452436 0.744084 0.583238
O O12 0.310508 0.335938 0.127849
O O13 0.063756 0.009916 0.279560
O O14 0.500000 0.500000 0.500000
O O15 0.196931 0.124182 0.074165
#
# Coordination Sequence:
#
# PCOD9009490 Si02
#       7
#     2   2   2   2   2   2   2
#     4  10  22  40  63  93 126 159 209 254 300 370
#     4  10  21  39  69  86 127 163 208 253 308 362
#     4  11  23  38  63  95 119 168 209 243 313 372
#     4  10  23  40  60  97 125 162 205 247 314 365
#     4   9  21  42  61  97 118 164 210 256 304 361
#     4  10  22  39  60  90 130 160 196 255 309 366
#     4  10  22  40  63  85 133 154 204 261 301 366
#
# _framework density 24.528027999999999
#
# number of rings (size 3 to 8) (size 9 to 14) (size 15 to 20)
#    0.000    2.000    0.000    2.571    8.000    0.571 
#    0.000    5.714    0.000    0.000    0.000    0.000 
#    0.000    0.000    0.000    0.000    0.000    0.000 
#
# Total GULP energy -77946.500299 kJ/mol
# GULP energy per Si atom -5567.607164 kJ/mol
# Density = 2.447220 g / cm^3
# Si number density = 24.528028 Si / 1000 Ang^3
#
#
#
# Elastic Constant Matrix: (Units=GPa)
#
#
# Indices 1 2 3 4 5 6 
#
# 1 63.4101 12.4402 35.6255 9.0020 13.7393 -1.5389
# 2 12.4402 187.6512 45.3483 9.8072 10.6493 -14.0973
# 3 35.6255 45.3483 129.5848 5.2952 22.0165 1.3151
# 4 9.0020 9.8072 5.2952 38.8810 3.3325 -6.5228
# 5 13.7393 10.6493 22.0165 3.3325 21.5844 3.0566
# 6 -1.5389 -14.0973 1.3151 -6.5228 3.0566 16.9597
#
#
#
# Elastic Compliance Matrix: (Units=1/GPa)
#
#
# Indices 1 2 3 4 5 6 
#
# 1 0.020476 0.000561 -0.004205 -0.003016 -0.008996 0.003111
# 2 0.000561 0.006362 -0.002059 -0.000300 -0.002167 0.005774
# 3 -0.004205 -0.002059 0.010814 0.000387 -0.007187 -0.001487
# 4 -0.003016 -0.000300 0.000387 0.028705 -0.004355 0.011272
# 5 -0.008996 -0.002167 -0.007187 -0.004355 0.063272 -0.015139
# 6 0.003111 0.005774 -0.001487 0.011272 -0.015139 0.071224
#
#
# Mechanical properties :
#
#
# Convention : Reuss Voigt Hill
#
# Bulk Modulus (GPa) = 38.10248 63.05267 50.57758
# Shear Modulus (GPa) = 22.62361 34.63380 28.62871
#
# Velocity S-wave (km/s) = 3.04033 3.76175 3.42011
# Velocity P-wave (km/s) = 5.28136 6.68056 6.02174
#
# Compressibility (1/GPa) = 0.02624501
#
# Stress axis : x y z
#
# Youngs Moduli (GPa) = 48.83784 157.18880 92.47396
#
# Poissons Ratio (x) = -0.08814 0.38889
# Poissons Ratio (y) = -0.02739 0.19037
# Poissons Ratio (z) = 0.20538 0.32359
#
# Static dielectric constant tensor:
#      x y z
#    x 2.063880 -0.076560 -0.001570 
#    y -0.076560 2.013430 0.011790 
#    z -0.001570 0.011790 1.913220 
# 
# From -- ./inp_files/504762.got.cif
#   From: 2010.05.17/outbox.cif.g08.bks.cpg/sg2_253_cif.got.tgz:504762.got - 2010.06.03 11:33:40.
