data_PCOD9009801
_publ_section_title
;
Structure prediction by ZEFSAII (Michael W. Deem and Ramdas Pophale) SiO2 
 PCOD9009801
Probable space group: P -1
;
_chemical_formula_sum "Si O2"
_cell_formula_units_Z 16
_cell_length_a 8.928152
_cell_length_b 21.968231
_cell_length_c 9.247028
_cell_angle_alpha 121.850963
_cell_angle_beta 135.311088
_cell_angle_gamma 32.159472
_cell_volume 665.457037
_symmetry_space_group_name_H-M "P -1"
_symmetry_group_IT_number 2
_symmetry_cell_setting 'triclinic'
loop_
_space_group_symop_operation_xyz
x,y,z
-x,-y,-z
loop_
_atom_site_type_symbol
_atom_site_label
_atom_site_fract_x
_atom_site_fract_y
_atom_site_fract_z
Si Si1 0.934030 0.320220 0.002388
Si Si2 0.250208 0.349450 0.814684
Si Si3 0.017646 0.921439 0.497265
Si Si4 0.278691 0.786072 0.763230
Si Si5 0.955814 0.737142 0.330775
Si Si6 0.630624 0.998333 0.787624
Si Si7 0.119563 0.509923 0.736923
Si Si8 0.046051 0.837778 0.119008
O O1 0.528536 0.416490 0.884001
O O2 0.094983 0.206223 0.041755
O O3 0.958647 0.307663 0.830349
O O4 0.041899 0.369068 0.197129
O O5 0.031505 0.334825 0.646681
O O6 0.067255 0.469516 0.784097
O O7 0.584207 0.252684 0.818455
O O8 0.404675 0.310075 0.032772
O O9 0.281276 0.846600 0.718180
O O10 0.093892 0.843926 0.326300
O O11 0.651398 0.990810 0.396889
O O12 0.000000 0.000000 0.500000
O O13 0.196057 0.735615 0.556512
O O14 0.952531 0.892854 0.775734
O O15 0.571145 0.875830 0.235981
O O16 0.780034 0.959138 0.003666
O O17 0.000000 0.500000 0.500000
#
# Coordination Sequence:
#
# PCOD9009801 Si02
#       8
#     2   2   2   2   2   2   2   2
#     4  10  22  43  67  94 129 161 209 272 324 377
#     4  10  25  40  65  93 122 167 214 261 322 377
#     4  11  22  33  59  92 126 173 220 254 297 362
#     4  10  23  42  58  92 139 173 210 252 308 378
#     4  11  22  39  65  93 133 171 205 258 311 372
#     4  10  22  38  59  89 136 177 209 245 309 370
#     4  10  24  48  69  93 121 161 212 273 336 385
#     4  10  21  40  59  93 128 172 216 253 307 373
#
# _framework density 24.043626
#
# number of rings (size 3 to 8) (size 9 to 14) (size 15 to 20)
#    0.000    1.750    2.500    1.875    5.250    6.500 
#    2.250    1.250    0.000    0.000    0.000    0.000 
#    0.000    0.000    0.000    0.000    0.000    0.000 
#
# Total GULP energy -89531.815410 kJ/mol
# GULP energy per Si atom -5595.738463 kJ/mol
# Density = 2.398890 g / cm^3
# Si number density = 24.043626 Si / 1000 Ang^3
#
#
#
# Elastic Constant Matrix: (Units=GPa)
#
#
# Indices 1 2 3 4 5 6 
#
# 1 114.9530 47.7331 15.1014 11.6957 -6.3372 37.3557
# 2 47.7331 77.0324 29.5836 20.2471 -0.0187 19.1895
# 3 15.1014 29.5836 92.3664 9.7123 -20.5225 29.5100
# 4 11.6957 20.2471 9.7123 36.4150 10.0319 6.3364
# 5 -6.3372 -0.0187 -20.5225 10.0319 34.1113 2.7252
# 6 37.3557 19.1895 29.5100 6.3364 2.7252 49.0864
#
#
#
# Elastic Compliance Matrix: (Units=1/GPa)
#
#
# Indices 1 2 3 4 5 6 
#
# 1 0.016533 -0.008872 0.006537 -0.002216 0.008709 -0.013241
# 2 -0.008872 0.022147 -0.006825 -0.007149 -0.003907 0.003337
# 3 0.006537 -0.006825 0.021198 -0.005976 0.016937 -0.015219
# 4 -0.002216 -0.007149 -0.005976 0.037238 -0.015291 0.004115
# 5 0.008709 -0.003907 0.016937 -0.015291 0.046890 -0.015912
# 6 -0.013241 0.003337 -0.015219 0.004115 -0.015912 0.038646
#
#
# Mechanical properties :
#
#
# Convention : Reuss Voigt Hill
#
# Bulk Modulus (GPa) = 24.06373 52.13202 38.09787
# Shear Modulus (GPa) = 23.27487 36.71811 29.99649
#
# Velocity S-wave (km/s) = 3.11469 3.91211 3.53595
# Velocity P-wave (km/s) = 4.79219 6.49118 5.70529
#
# Compressibility (1/GPa) = 0.04155632
#
# Stress axis : x y z
#
# Youngs Moduli (GPa) = 60.48590 45.15275 47.17517
#
# Poissons Ratio (x) = 0.40060 -0.30837
# Poissons Ratio (y) = 0.53664 0.32198
# Poissons Ratio (z) = -0.39538 0.30818
#
# Static dielectric constant tensor:
#      x y z
#    x 1.943370 -0.012860 0.043540 
#    y -0.012860 1.949200 -0.009740 
#    z 0.043540 -0.009740 1.928340 
# 
# From -- ./inp_files/223893.got.cif
#   From: 2010.05.17/outbox.cif.g08.bks.cpg/sg2_112_cif.got.tgz:223893.got - 2010.06.03 11:33:40.
