data_PCOD9009310
_publ_section_title
;
Structure prediction by ZEFSAII (Michael W. Deem and Ramdas Pophale) SiO2 
 PCOD9009310
Probable space group: P -1
;
_chemical_formula_sum "Si O2"
_cell_formula_units_Z 16
_cell_length_a 9.078572
_cell_length_b 25.831315
_cell_length_c 5.363387
_cell_angle_alpha 99.723502
_cell_angle_beta 124.966083
_cell_angle_gamma 45.712867
_cell_volume 678.093890
_symmetry_space_group_name_H-M "P -1"
_symmetry_group_IT_number 2
_symmetry_cell_setting 'triclinic'
loop_
_space_group_symop_operation_xyz
x,y,z
-x,-y,-z
loop_
_atom_site_type_symbol
_atom_site_label
_atom_site_fract_x
_atom_site_fract_y
_atom_site_fract_z
Si Si1 0.932655 0.981824 0.166734
Si Si2 0.347495 0.131999 0.779667
Si Si3 0.358872 0.686133 0.278717
Si Si4 0.308250 0.571660 0.675334
Si Si5 0.564916 0.178914 0.326139
Si Si6 0.736496 0.525741 0.694914
Si Si7 0.746867 0.228893 0.260831
Si Si8 0.871337 0.730894 0.681140
O O1 0.148035 0.888239 0.312998
O O2 0.000000 0.000000 0.500000
O O3 0.000000 0.000000 0.000000
O O4 0.613759 0.040264 0.903153
O O5 0.278225 0.190068 0.547690
O O6 0.070703 0.160401 0.560666
O O7 0.441560 0.148743 0.113766
O O8 0.596513 0.592355 0.403912
O O9 0.378827 0.713064 0.577578
O O10 0.323844 0.728654 0.033050
O O11 0.087742 0.710960 0.054912
O O12 0.502805 0.568494 0.710056
O O13 0.201306 0.547388 0.381133
O O14 0.055887 0.656060 0.618711
O O15 0.500000 0.500000 0.000000
O O16 0.627037 0.197071 0.150551
O O17 0.343443 0.252797 0.348427
O O18 0.000000 0.500000 0.000000
#
# Coordination Sequence:
#
# PCOD9009310 Si02
#       8
#     2   2   2   2   2   2   2   2
#     4  10  21  39  68 102 137 183 235 283 349 420
#     4  10  22  43  68  97 141 185 229 292 352 407
#     4  11  24  48  68 100 143 182 234 294 352 424
#     4  11  25  46  72 103 138 186 237 295 357 432
#     4  11  24  42  69 102 138 183 237 286 350 424
#     4  11  26  49  71 102 142 186 238 299 367 426
#     4  11  26  42  70 103 137 184 240 286 349 417
#     4  11  22  43  73  93 141 187 230 289 358 416
#
# _framework density 23.595552999999999
#
# number of rings (size 3 to 8) (size 9 to 14) (size 15 to 20)
#    0.000    1.250    3.750    1.500    1.750    3.000 
#    2.250    0.000    0.000    5.250    0.000    0.000 
#    0.000    0.000    0.000    0.000    0.000    0.000 
#
# Total GULP energy -89472.453574 kJ/mol
# GULP energy per Si atom -5592.028348 kJ/mol
# Density = 2.354185 g / cm^3
# Si number density = 23.595553 Si / 1000 Ang^3
#
#
#
# Elastic Constant Matrix: (Units=GPa)
#
#
# Indices 1 2 3 4 5 6 
#
# 1 159.6598 50.6254 44.8997 -12.0034 10.9959 -13.1101
# 2 50.6254 63.3687 30.9226 -13.4687 12.7933 -21.4472
# 3 44.8997 30.9226 92.9339 -16.6427 2.6971 -0.5676
# 4 -12.0034 -13.4687 -16.6427 40.8399 1.5976 -1.7772
# 5 10.9959 12.7933 2.6971 1.5976 42.4668 3.7749
# 6 -13.1101 -21.4472 -0.5676 -1.7772 3.7749 20.0618
#
#
#
# Elastic Compliance Matrix: (Units=1/GPa)
#
#
# Indices 1 2 3 4 5 6 
#
# 1 0.008797 -0.006497 -0.002185 -0.000502 -0.000048 -0.001294
# 2 -0.006497 0.051669 -0.010681 0.013920 -0.018656 0.055433
# 3 -0.002185 -0.010681 0.015428 0.001403 0.003908 -0.013021
# 4 -0.000502 0.013920 0.001403 0.030583 -0.006958 0.018612
# 5 -0.000048 -0.018656 0.003908 -0.006958 0.031542 -0.026417
# 6 -0.001294 0.055433 -0.013021 0.018612 -0.026417 0.114513
#
#
# Mechanical properties :
#
#
# Convention : Reuss Voigt Hill
#
# Bulk Modulus (GPa) = 26.90337 63.20641 45.05489
# Shear Modulus (GPa) = 16.46648 33.30803 24.88725
#
# Velocity S-wave (km/s) = 2.64458 3.76123 3.25120
# Velocity P-wave (km/s) = 4.55540 6.76078 5.76454
#
# Compressibility (1/GPa) = 0.03717007
#
# Stress axis : x y z
#
# Youngs Moduli (GPa) = 113.67407 19.35381 64.81668
#
# Poissons Ratio (x) = 0.12574 0.14162
# Poissons Ratio (y) = 0.73850 0.69229
# Poissons Ratio (z) = 0.24836 0.20671
#
# Static dielectric constant tensor:
#      x y z
#    x 1.865160 0.029930 0.008160 
#    y 0.029930 1.968770 -0.008420 
#    z 0.008160 -0.008420 1.921730 
# 
# From -- ./inp_files/56442.got.cif
#   From: 2010.05.17/outbox.cif.g08.bks.cpg/sg2_29_cif.got.tgz:56442.got - 2010.06.03 11:33:40.
