data_PCOD9009969
_publ_section_title
;
Structure prediction by ZEFSAII (Michael W. Deem and Ramdas Pophale) SiO2 
 PCOD9009969
Probable space group: P -1
;
_chemical_formula_sum "Si O2"
_cell_formula_units_Z 10
_cell_length_a 9.106481
_cell_length_b 9.255286
_cell_length_c 13.285506
_cell_angle_alpha 125.466430
_cell_angle_beta 66.925856
_cell_angle_gamma 149.000655
_cell_volume 454.617505
_symmetry_space_group_name_H-M "P -1"
_symmetry_group_IT_number 2
_symmetry_cell_setting 'triclinic'
loop_
_space_group_symop_operation_xyz
x,y,z
-x,-y,-z
loop_
_atom_site_type_symbol
_atom_site_label
_atom_site_fract_x
_atom_site_fract_y
_atom_site_fract_z
Si Si1 0.743542 0.330304 0.927313
Si Si2 0.075464 0.243302 0.514203
Si Si3 0.123011 0.917214 0.913032
Si Si4 0.168503 0.828408 0.635750
Si Si5 0.384788 0.013453 0.347376
O O1 0.913263 0.596010 0.903460
O O2 0.457792 0.185414 0.970790
O O3 0.614161 0.034786 0.788957
O O4 0.000000 0.500000 0.000000
O O5 0.403138 0.615949 0.549075
O O6 0.885995 0.073483 0.393745
O O7 0.000000 0.000000 0.500000
O O8 0.935730 0.259043 0.631934
O O9 0.103601 0.846708 0.771172
O O10 0.000000 0.000000 0.000000
O O11 0.483288 0.030538 0.646099
O O12 0.000000 0.500000 0.500000
#
# Coordination Sequence:
#
# PCOD9009969 Si02
#       5
#     2   2   2   2   2
#     4  11  23  43  66  91 127 174 218 263 318 388
#     4  11  22  37  61  95 125 156 205 272 323 367
#     4  11  24  42  65  97 129 168 218 270 322 378
#     4   9  20  40  64  87 122 167 208 252 315 393
#     4  10  21  40  61  88 122 167 213 253 315 394
#
# _framework density 21.996514000000001
#
# number of rings (size 3 to 8) (size 9 to 14) (size 15 to 20)
#    0.000    1.600    0.000    6.000    0.000    6.400 
#    0.000    8.000    0.000    0.000    0.000    0.000 
#    0.000    0.000    0.000    0.000    0.000    0.000 
#
# Total GULP energy -55699.064303 kJ/mol
# GULP energy per Si atom -5569.906430 kJ/mol
# Density = 2.194645 g / cm^3
# Si number density = 21.996514 Si / 1000 Ang^3
#
#
#
# Elastic Constant Matrix: (Units=GPa)
#
#
# Indices 1 2 3 4 5 6 
#
# 1 123.1209 48.1796 65.7875 7.1508 13.8265 1.4843
# 2 48.1796 108.6925 13.8343 -1.4976 2.7487 7.2286
# 3 65.7875 13.8343 86.6863 6.0929 -0.8280 4.0733
# 4 7.1508 -1.4976 6.0929 20.6975 17.2115 2.7158
# 5 13.8265 2.7487 -0.8280 17.2115 35.3246 -9.2036
# 6 1.4843 7.2286 4.0733 2.7158 -9.2036 54.3197
#
#
#
# Elastic Compliance Matrix: (Units=1/GPa)
#
#
# Indices 1 2 3 4 5 6 
#
# 1 0.018587 -0.006141 -0.013577 0.005495 -0.009958 -0.000635
# 2 -0.006141 0.011733 0.002692 0.002508 -0.000122 -0.001742
# 3 -0.013577 0.002692 0.022263 -0.011144 0.011267 0.000809
# 4 0.005495 0.002508 -0.011144 0.095281 -0.052499 -0.013307
# 5 -0.009958 -0.000122 0.011267 -0.052499 0.061305 0.012455
# 6 -0.000635 -0.001742 0.000809 -0.013307 0.012455 0.021374
#
#
# Mechanical properties :
#
#
# Convention : Reuss Voigt Hill
#
# Bulk Modulus (GPa) = 53.96321 63.78917 58.87619
# Shear Modulus (GPa) = 18.46580 34.78157 26.62369
#
# Velocity S-wave (km/s) = 2.90053 3.98078 3.48280
# Velocity P-wave (km/s) = 5.98359 7.08459 6.55724
#
# Compressibility (1/GPa) = 0.01853114
#
# Stress axis : x y z
#
# Youngs Moduli (GPa) = 53.80176 85.22876 44.91758
#
# Poissons Ratio (x) = 0.52339 0.60986
# Poissons Ratio (y) = 0.33040 -0.12094
# Poissons Ratio (z) = 0.73048 -0.22947
#
# Static dielectric constant tensor:
#      x y z
#    x 1.938440 0.015410 -0.009540 
#    y 0.015410 1.810380 0.032100 
#    z -0.009540 0.032100 1.878560 
# 
# From -- ./inp_files/18025.got.cif
#   From: 2010.05.17/outbox.cif.g08.bks.cpg/sg2_10_cif.got.tgz:18025.got - 2010.06.03 11:33:40.
