data_PCOD9009176
_publ_section_title
;
Structure prediction by ZEFSAII (Michael W. Deem and Ramdas Pophale) SiO2 
 PCOD9009176
Probable space group: P -1
;
_chemical_formula_sum "Si O2"
_cell_formula_units_Z 12
_cell_length_a 8.915178
_cell_length_b 12.666045
_cell_length_c 21.803085
_cell_angle_alpha 151.601746
_cell_angle_beta 27.583104
_cell_angle_gamma 142.888675
_cell_volume 540.407305
_symmetry_space_group_name_H-M "P -1"
_symmetry_group_IT_number 2
_symmetry_cell_setting 'triclinic'
loop_
_space_group_symop_operation_xyz
x,y,z
-x,-y,-z
loop_
_atom_site_type_symbol
_atom_site_label
_atom_site_fract_x
_atom_site_fract_y
_atom_site_fract_z
Si Si1 0.376587 0.945337 0.620137
Si Si2 0.693901 0.902531 0.602078
Si Si3 0.195571 0.593174 0.304253
Si Si4 0.649161 0.470791 0.645025
Si Si5 0.333368 0.156172 0.962912
Si Si6 0.374080 0.076051 0.148463
O O1 0.415082 0.843030 0.622031
O O2 0.524042 0.770636 0.430994
O O3 0.012793 0.950932 0.731597
O O4 0.549340 0.190822 0.684240
O O5 0.843875 0.698275 0.479294
O O6 0.554408 0.089860 0.791542
O O7 0.000000 0.000000 0.500000
O O8 0.275511 0.501885 0.296334
O O9 0.251065 0.407192 0.137654
O O10 0.480611 0.666815 0.772352
O O11 0.000000 0.500000 0.500000
O O12 0.519285 0.067895 0.908602
O O13 0.000000 0.000000 0.000000
O O14 0.500000 0.000000 0.000000
#
# Coordination Sequence:
#
# PCOD9009176 Si02
#       6
#     2   2   2   2   2   2
#     4  10  23  42  69  97 134 178 229 278 344 406
#     4  10  24  45  67 101 141 181 225 278 349 408
#     4  11  24  46  69 101 139 180 232 283 348 407
#     4  10  21  39  67  94 130 173 224 278 336 403
#     4  12  27  44  72 103 140 181 234 286 343 413
#     4  11  22  44  65 101 135 174 229 284 342 402
#
# _framework density 22.205473000000001
#
# number of rings (size 3 to 8) (size 9 to 14) (size 15 to 20)
#    0.000    1.333    1.667    3.500    4.667    5.333 
#    6.000    0.000    0.000    0.000    0.000    0.000 
#    0.000    0.000    0.000    0.000    0.000    0.000 
#
# Total GULP energy -66926.683397 kJ/mol
# GULP energy per Si atom -5577.223616 kJ/mol
# Density = 2.215493 g / cm^3
# Si number density = 22.205473 Si / 1000 Ang^3
#
#
#
# Elastic Constant Matrix: (Units=GPa)
#
#
# Indices 1 2 3 4 5 6 
#
# 1 97.7839 8.6790 12.9779 3.0945 0.4907 7.8521
# 2 8.6790 82.3963 40.5235 17.8721 6.0103 20.5685
# 3 12.9779 40.5235 125.6134 20.4050 32.0138 15.2818
# 4 3.0945 17.8721 20.4050 35.7165 -4.0997 10.9085
# 5 0.4907 6.0103 32.0138 -4.0997 45.1990 0.7657
# 6 7.8521 20.5685 15.2818 10.9085 0.7657 35.5213
#
#
#
# Elastic Compliance Matrix: (Units=1/GPa)
#
#
# Indices 1 2 3 4 5 6 
#
# 1 0.010521 -0.000291 -0.001028 0.000478 0.000728 -0.001878
# 2 -0.000291 0.016607 -0.003971 -0.003947 0.000362 -0.006639
# 3 -0.001028 -0.003971 0.012717 -0.005938 -0.008991 -0.000927
# 4 0.000478 -0.003947 -0.005938 0.036266 0.008126 -0.006578
# 5 0.000728 0.000362 -0.008991 0.008126 0.029167 0.000373
# 6 -0.001878 -0.006639 -0.000927 -0.006578 0.000373 0.034823
#
#
# Mechanical properties :
#
#
# Convention : Reuss Voigt Hill
#
# Bulk Modulus (GPa) = 34.16931 47.79494 40.98213
# Shear Modulus (GPa) = 31.16522 39.52824 35.34673
#
# Velocity S-wave (km/s) = 3.75039 4.22372 3.99407
# Velocity P-wave (km/s) = 5.84594 6.73476 6.30603
#
# Compressibility (1/GPa) = 0.02926603
#
# Stress axis : x y z
#
# Youngs Moduli (GPa) = 95.04938 60.21525 78.63515
#
# Poissons Ratio (x) = 0.01751 0.08083
# Poissons Ratio (y) = 0.02764 0.31224
# Poissons Ratio (z) = 0.09770 0.23910
#
# Static dielectric constant tensor:
#      x y z
#    x 1.843550 -0.035850 -0.013600 
#    y -0.035850 1.940010 0.113160 
#    z -0.013600 0.113160 1.932580 
# 
# From -- ./inp_files/147513.got.cif
#   From: 2010.05.17/outbox.cif.g08.bks.cpg/sg2_74_cif.got.tgz:147513.got - 2010.06.03 11:33:40.
