data_PCOD9009159
_publ_section_title
;
Structure prediction by ZEFSAII (Michael W. Deem and Ramdas Pophale) SiO2 
 PCOD9009159
Probable space group: P -1
;
_chemical_formula_sum "Si O2"
_cell_formula_units_Z 16
_cell_length_a 8.969137
_cell_length_b 10.827659
_cell_length_c 14.989345
_cell_angle_alpha 152.129079
_cell_angle_beta 85.892610
_cell_angle_gamma 102.057654
_cell_volume 644.828943
_symmetry_space_group_name_H-M "P -1"
_symmetry_group_IT_number 2
_symmetry_cell_setting 'triclinic'
loop_
_space_group_symop_operation_xyz
x,y,z
-x,-y,-z
loop_
_atom_site_type_symbol
_atom_site_label
_atom_site_fract_x
_atom_site_fract_y
_atom_site_fract_z
Si Si1 0.200857 0.025506 0.569691
Si Si2 0.575747 0.604693 0.660174
Si Si3 0.762792 0.047820 0.049708
Si Si4 0.709839 0.849853 0.542013
Si Si5 0.921164 0.634733 0.864430
Si Si6 0.487413 0.188235 0.779791
Si Si7 0.753943 0.252295 0.367192
Si Si8 0.988653 0.972119 0.250097
O O1 0.199155 0.159111 0.559022
O O2 0.137425 0.693175 0.354435
O O3 0.108221 0.121154 0.713746
O O4 0.381094 0.105334 0.643800
O O5 0.500000 0.500000 0.500000
O O6 0.634226 0.914181 0.893980
O O7 0.735777 0.520169 0.588338
O O8 0.447891 0.408623 0.607031
O O9 0.797749 0.788953 0.933961
O O10 0.920850 0.231414 0.113119
O O11 0.726888 0.227781 0.246862
O O12 0.647732 0.117242 0.715456
O O13 0.831319 0.889297 0.642623
O O14 0.959851 0.726406 0.023680
O O15 0.386840 0.995215 0.739679
O O16 0.500000 0.500000 0.000000
O O17 0.913934 0.192733 0.348987
#
# Coordination Sequence:
#
# PCOD9009159 Si02
#       8
#     2   2   2   2   2   2   2   2
#     4  11  24  42  66  97 133 173 225 263 331 390
#     4  11  24  44  66  96 133 168 216 275 326 388
#     4  10  21  39  67  93 128 175 220 261 327 387
#     4  11  24  41  67 100 134 172 216 278 326 389
#     4  10  22  40  65  95 131 176 216 273 318 389
#     4  10  23  42  69  97 133 176 214 272 331 390
#     4   9  22  42  66  94 127 172 222 264 324 393
#     4  10  22  44  63  95 136 171 217 269 327 383
#
# _framework density 24.812783
#
# number of rings (size 3 to 8) (size 9 to 14) (size 15 to 20)
#    0.000    1.750    0.000    3.750    7.000    3.000 
#    2.250    7.500    0.000    0.000    0.000    0.000 
#    0.000    0.000    0.000    0.000    0.000    0.000 
#
# Total GULP energy -89650.183066 kJ/mol
# GULP energy per Si atom -5603.136442 kJ/mol
# Density = 2.475631 g / cm^3
# Si number density = 24.812783 Si / 1000 Ang^3
#
#
#
# Elastic Constant Matrix: (Units=GPa)
#
#
# Indices 1 2 3 4 5 6 
#
# 1 87.7970 -8.3944 27.4198 -10.0094 15.6008 -7.4196
# 2 -8.3944 80.2532 34.8798 -21.8570 1.4019 6.8366
# 3 27.4198 34.8798 137.8319 -25.6935 10.7504 -2.3310
# 4 -10.0094 -21.8570 -25.6935 40.5000 -0.1833 -0.3876
# 5 15.6008 1.4019 10.7504 -0.1833 36.8373 -9.4558
# 6 -7.4196 6.8366 -2.3310 -0.3876 -9.4558 23.3935
#
#
#
# Elastic Compliance Matrix: (Units=1/GPa)
#
#
# Indices 1 2 3 4 5 6 
#
# 1 0.013945 0.003583 -0.002577 0.003734 -0.004971 0.001172
# 2 0.003583 0.016915 -0.003442 0.007772 -0.002399 -0.004991
# 3 -0.002577 -0.003442 0.009401 0.003470 -0.001339 0.000641
# 4 0.003734 0.007772 0.003470 0.031982 -0.003107 -0.001467
# 5 -0.004971 -0.002399 -0.001339 -0.003107 0.032855 0.012220
# 6 0.001172 -0.004991 0.000641 -0.001467 0.012220 0.049556
#
#
# Mechanical properties :
#
#
# Convention : Reuss Voigt Hill
#
# Bulk Modulus (GPa) = 28.25776 45.96583 37.11179
# Shear Modulus (GPa) = 29.18471 36.94462 33.06466
#
# Velocity S-wave (km/s) = 3.43329 3.86286 3.65439
# Velocity P-wave (km/s) = 5.20863 6.20168 5.72672
#
# Compressibility (1/GPa) = 0.03538851
#
# Stress axis : x y z
#
# Youngs Moduli (GPa) = 71.70855 59.11932 106.37156
#
# Poissons Ratio (x) = -0.21181 0.27416
# Poissons Ratio (y) = -0.25691 0.36610
# Poissons Ratio (z) = 0.18482 0.20347
#
# Static dielectric constant tensor:
#      x y z
#    x 2.031950 -0.049710 -0.004620 
#    y -0.049710 1.984580 -0.016620 
#    z -0.004620 -0.016620 1.886500 
# 
# From -- ./inp_files/501165.got.cif
#   From: 2010.05.17/outbox.cif.g08.bks.cpg/sg2_251_cif.got.tgz:501165.got - 2010.06.03 11:33:40.
