data_PCOD9009787
_publ_section_title
;
Structure prediction by ZEFSAII (Michael W. Deem and Ramdas Pophale) SiO2 
 PCOD9009787
Probable space group: P -1
;
_chemical_formula_sum "Si O2"
_cell_formula_units_Z 16
_cell_length_a 7.759667
_cell_length_b 22.358371
_cell_length_c 12.964545
_cell_angle_alpha 37.283655
_cell_angle_beta 123.408301
_cell_angle_gamma 144.876749
_cell_volume 750.830151
_symmetry_space_group_name_H-M "P -1"
_symmetry_group_IT_number 2
_symmetry_cell_setting 'triclinic'
loop_
_space_group_symop_operation_xyz
x,y,z
-x,-y,-z
loop_
_atom_site_type_symbol
_atom_site_label
_atom_site_fract_x
_atom_site_fract_y
_atom_site_fract_z
Si Si1 0.330758 0.007073 0.659661
Si Si2 0.239496 0.360698 0.735729
Si Si3 0.863414 0.062802 0.744946
Si Si4 0.189610 0.334227 0.996906
Si Si5 0.408815 0.613449 0.787457
Si Si6 0.894633 0.553586 0.604985
Si Si7 0.630149 0.778034 0.150548
Si Si8 0.011640 0.076966 0.542703
O O1 0.247240 0.016849 0.504433
O O2 0.685463 0.100310 0.659449
O O3 0.195231 0.039090 0.649283
O O4 0.123105 0.834521 0.842458
O O5 0.184568 0.350672 0.851405
O O6 0.612329 0.509552 0.630891
O O7 0.047473 0.364299 0.592825
O O8 0.189748 0.230636 0.858128
O O9 0.210174 0.183267 0.740173
O O10 0.868098 0.047039 0.646577
O O11 0.686239 0.908807 0.953987
O O12 0.248859 0.456284 0.910249
O O13 0.470890 0.362489 0.089765
O O14 0.724831 0.748384 0.641587
O O15 0.178150 0.621382 0.676985
O O16 0.718778 0.388925 0.738402
#
# Coordination Sequence:
#
# PCOD9009787 Si02
#       8
#     2   2   2   2   2   2   2   2
#     4  10  22  41  62  87 123 158 201 247 297 362
#     4   9  20  37  61  82 123 150 198 244 299 355
#     4  11  21  39  64  82 123 161 196 248 301 345
#     4  10  21  40  59  89 117 157 199 250 297 357
#     4  10  22  38  59  89 124 146 204 251 293 363
#     4   9  20  38  58  84 118 154 190 247 297 351
#     4   9  21  38  56  89 117 151 202 249 278 375
#     4  10  23  39  61  92 120 155 204 248 295 362
#
# _framework density 21.309747999999999
#
# number of rings (size 3 to 8) (size 9 to 14) (size 15 to 20)
#    0.750    1.500    0.000    1.875    3.500    1.000 
#    4.500    3.125    0.000    0.000    0.000    0.000 
#    0.000    0.000    0.000    0.000    0.000    0.000 
#
# Total GULP energy -89259.449376 kJ/mol
# GULP energy per Si atom -5578.715586 kJ/mol
# Density = 2.126125 g / cm^3
# Si number density = 21.309748 Si / 1000 Ang^3
#
#
#
# Elastic Constant Matrix: (Units=GPa)
#
#
# Indices 1 2 3 4 5 6 
#
# 1 43.3291 -6.5262 25.0621 -8.3455 -12.0797 -2.7745
# 2 -6.5262 2.6993 14.7086 -89.3239 -76.3160 -18.5944
# 3 25.0621 14.7086 68.8793 22.5653 20.2627 9.9665
# 4 -8.3455 -89.3239 22.5653 -220.9737 -218.7959 -60.1829
# 5 -12.0797 -76.3160 20.2627 -218.7959 -143.7390 -49.0130
# 6 -2.7745 -18.5944 9.9665 -60.1829 -49.0130 9.7273
#
#
#
# Elastic Compliance Matrix: (Units=1/GPa)
#
#
# Indices 1 2 3 4 5 6 
#
# 1 0.028835 0.003490 -0.010124 -0.004306 0.000484 0.001072
# 2 0.003490 0.028392 -0.003317 -0.006838 -0.004049 -0.004040
# 3 -0.010124 -0.003317 0.017909 0.003339 0.000888 -0.002446
# 4 -0.004306 -0.006838 0.003339 0.011795 -0.011896 -0.004681
# 5 0.000484 -0.004049 0.000888 -0.011896 0.015225 -0.005397
# 6 0.001072 -0.004040 -0.002446 -0.004681 -0.005397 0.041738
#
#
# Mechanical properties :
#
#
# Convention : Reuss Voigt Hill
#
# Bulk Modulus (GPa) = 18.10455 20.15520 19.12987
# Shear Modulus (GPa) = 27.44108 -65.55285 -19.05589
#
# Velocity S-wave (km/s) = 3.59238 -5.55236 -2.99362
# Velocity P-wave (km/s) = 5.07161 5.62372 1.71827
#
# Compressibility (1/GPa) = 0.05523474
#
# Stress axis : x y z
#
# Youngs Moduli (GPa) = 34.67954 35.22089 55.83758
#
# Poissons Ratio (x) = -0.12294 0.56532
# Poissons Ratio (y) = -0.12105 0.18521
# Poissons Ratio (z) = 0.35111 0.11683
#
# Static dielectric constant tensor:
#      x y z
#    x 1.753050 0.022830 0.048170 
#    y 0.022830 1.799560 -0.014740 
#    z 0.048170 -0.014740 1.767420 
# 
# From -- ./inp_files/406624.got.cif
#   From: 2010.05.17/outbox.cif.g08.bks.cpg/sg2_204_cif.got.tgz:406624.got - 2010.06.03 11:33:40.
