data_PCOD9009935
_publ_section_title
;
Structure prediction by ZEFSAII (Michael W. Deem and Ramdas Pophale) SiO2 
 PCOD9009935
Probable space group: P -1
;
_chemical_formula_sum "Si O2"
_cell_formula_units_Z 16
_cell_length_a 18.415739
_cell_length_b 7.925770
_cell_length_c 5.418420
_cell_angle_alpha 120.714205
_cell_angle_beta 94.067378
_cell_angle_gamma 68.957228
_cell_volume 628.321502
_symmetry_space_group_name_H-M "P -1"
_symmetry_group_IT_number 2
_symmetry_cell_setting 'triclinic'
loop_
_space_group_symop_operation_xyz
x,y,z
-x,-y,-z
loop_
_atom_site_type_symbol
_atom_site_label
_atom_site_fract_x
_atom_site_fract_y
_atom_site_fract_z
Si Si1 0.857606 0.129196 0.600481
Si Si2 0.407478 0.065854 0.036247
Si Si3 0.675574 0.324841 0.784137
Si Si4 0.082096 0.498171 0.114888
Si Si5 0.092708 0.940880 0.950120
Si Si6 0.589459 0.401096 0.334782
Si Si7 0.839418 0.567897 0.407876
Si Si8 0.330476 0.146136 0.563150
O O1 0.767852 0.284265 0.745134
O O2 0.877073 0.002067 0.255208
O O3 0.913586 0.266538 0.705272
O O4 0.881152 0.982870 0.735959
O O5 0.356844 0.186250 0.874116
O O6 0.392895 0.847707 0.865123
O O7 0.392313 0.146974 0.373033
O O8 0.500000 0.000000 0.000000
O O9 0.637533 0.435162 0.602642
O O10 0.675493 0.085470 0.601424
O O11 0.624302 0.434327 0.098696
O O12 0.138666 0.382949 0.821431
O O13 0.111995 0.407791 0.324516
O O14 0.000000 0.500000 0.000000
O O15 0.138351 0.685911 0.773785
O O16 0.000000 0.000000 0.000000
O O17 0.500000 0.500000 0.500000
O O18 0.747670 0.697881 0.475809
#
# Coordination Sequence:
#
# PCOD9009935 Si02
#       8
#     2   2   2   2   2   2   2   2
#     4  10  21  40  61  89 117 162 211 247 313 372
#     4  10  21  40  63  94 126 166 206 253 314 372
#     4  10  21  40  63  87 129 164 204 258 310 371
#     4  10  21  40  61  84 124 155 199 267 310 367
#     4  10  21  40  61  84 124 155 199 267 310 367
#     4  10  21  40  63  94 126 166 206 253 314 372
#     4  10  21  40  61  89 117 162 211 247 313 372
#     4  10  21  40  63  87 129 164 204 258 310 371
#
# _framework density 25.464666999999999
#
# number of rings (size 3 to 8) (size 9 to 14) (size 15 to 20)
#    0.000    2.000    0.000    3.000    0.000    0.000 
#   27.000    0.000    0.000    0.000    0.000    0.000 
#    0.000    0.000    0.000    0.000    0.000    0.000 
#
# Total GULP energy -89324.532565 kJ/mol
# GULP energy per Si atom -5582.783285 kJ/mol
# Density = 2.540671 g / cm^3
# Si number density = 25.464667 Si / 1000 Ang^3
#
#
#
# Elastic Constant Matrix: (Units=GPa)
#
#
# Indices 1 2 3 4 5 6 
#
# 1 76.5634 -2.3286 6.6159 -9.2104 -1.8813 -2.0121
# 2 -2.3286 82.9679 29.5184 -27.1593 18.2399 23.3841
# 3 6.6159 29.5184 162.1389 -34.4257 5.7089 19.0274
# 4 -9.2104 -27.1593 -34.4257 52.1457 1.0342 5.2130
# 5 -1.8813 18.2399 5.7089 1.0342 50.3577 -8.5408
# 6 -2.0121 23.3841 19.0274 5.2130 -8.5408 41.5918
#
#
#
# Elastic Compliance Matrix: (Units=1/GPa)
#
#
# Indices 1 2 3 4 5 6 
#
# 1 0.013498 0.001831 -0.000049 0.003398 -0.000368 -0.000855
# 2 0.001831 0.025534 0.001669 0.016967 -0.013084 -0.019844
# 3 -0.000049 0.001669 0.008139 0.006895 -0.002702 -0.006083
# 4 0.003398 0.016967 0.006895 0.035296 -0.010776 -0.019166
# 5 -0.000368 -0.013084 -0.002702 -0.010776 0.027761 0.015626
# 6 -0.000855 -0.019844 -0.006083 -0.019166 0.015626 0.043553
#
#
# Mechanical properties :
#
#
# Convention : Reuss Voigt Hill
#
# Bulk Modulus (GPa) = 18.49431 43.25352 30.87392
# Shear Modulus (GPa) = 30.32053 48.01000 39.16527
#
# Velocity S-wave (km/s) = 3.45438 4.34678 3.92602
# Velocity P-wave (km/s) = 4.81548 6.49733 5.71857
#
# Compressibility (1/GPa) = 0.05407069
#
# Stress axis : x y z
#
# Youngs Moduli (GPa) = 74.08376 39.16340 122.86865
#
# Poissons Ratio (x) = -0.07169 0.00606
# Poissons Ratio (y) = -0.13561 -0.20502
# Poissons Ratio (z) = 0.00365 -0.06535
#
# Static dielectric constant tensor:
#      x y z
#    x 1.686340 0.210880 0.198100 
#    y 0.210880 2.002280 -0.056440 
#    z 0.198100 -0.056440 2.040170 
# 
# From -- ./inp_files/107627.got.cif
#   From: 2010.05.17/outbox.cif.g08.bks.cpg/sg2_54_cif.got.tgz:107627.got - 2010.06.03 11:33:40.
