data_PCOD9009438
_publ_section_title
;
Structure prediction by ZEFSAII (Michael W. Deem and Ramdas Pophale) SiO2 
 PCOD9009438
Probable space group: P -1
;
_chemical_formula_sum "Si O2"
_cell_formula_units_Z 16
_cell_length_a 16.224914
_cell_length_b 5.060709
_cell_length_c 13.271658
_cell_angle_alpha 95.289971
_cell_angle_beta 133.876634
_cell_angle_gamma 62.338957
_cell_volume 649.203218
_symmetry_space_group_name_H-M "P -1"
_symmetry_group_IT_number 2
_symmetry_cell_setting 'triclinic'
loop_
_space_group_symop_operation_xyz
x,y,z
-x,-y,-z
loop_
_atom_site_type_symbol
_atom_site_label
_atom_site_fract_x
_atom_site_fract_y
_atom_site_fract_z
Si Si1 0.137320 0.196622 0.057371
Si Si2 0.391161 0.160687 0.195730
Si Si3 0.801118 0.162841 0.709345
Si Si4 0.402196 0.940667 0.982475
Si Si5 0.943693 0.451844 0.737176
Si Si6 0.325996 0.672047 0.747310
Si Si7 0.571685 0.429515 0.376428
Si Si8 0.079343 0.636857 0.519524
O O1 0.178177 0.909602 0.157348
O O2 0.262817 0.235509 0.155787
O O3 0.000000 0.500000 0.000000
O O4 0.089082 0.190438 0.903435
O O5 0.351290 0.165291 0.044597
O O6 0.513927 0.798554 0.319239
O O7 0.448962 0.378869 0.264310
O O8 0.902954 0.810857 0.733075
O O9 0.838328 0.402133 0.707468
O O10 0.650149 0.300070 0.543476
O O11 0.511268 0.591478 0.109964
O O12 0.296933 0.919395 0.820421
O O13 0.500000 0.000000 0.000000
O O14 0.932251 0.393966 0.609922
O O15 0.319578 0.776790 0.629839
O O16 0.236534 0.520629 0.674761
O O17 0.000000 0.500000 0.500000
O O18 0.000000 0.000000 0.500000
#
# Coordination Sequence:
#
# PCOD9009438 Si02
#       8
#     2   2   2   2   2   2   2   2
#     4  10  26  48  71 101 141 187 237 295 354 410
#     4  11  25  41  68 105 138 177 236 287 350 425
#     4  11  23  44  74  96 132 185 235 288 356 414
#     4  10  21  39  68  98 136 186 225 286 348 417
#     4  11  24  45  70  98 136 190 233 282 349 424
#     4  10  23  41  64  96 141 180 229 280 353 411
#     4  11  23  42  70 101 134 179 228 292 352 418
#     4  12  28  43  67 106 140 186 232 285 346 426
#
# _framework density 24.645596999999999
#
# number of rings (size 3 to 8) (size 9 to 14) (size 15 to 20)
#    0.000    1.250    2.500    1.875    5.250    5.000 
#    0.000    0.000    0.000    0.000    0.000    0.000 
#    0.000    0.000    0.000    0.000    0.000    0.000 
#
# Total GULP energy -89531.869882 kJ/mol
# GULP energy per Si atom -5595.741868 kJ/mol
# Density = 2.458950 g / cm^3
# Si number density = 24.645597 Si / 1000 Ang^3
#
#
#
# Elastic Constant Matrix: (Units=GPa)
#
#
# Indices 1 2 3 4 5 6 
#
# 1 117.9816 6.2780 36.6038 -2.3091 6.5485 18.7480
# 2 6.2780 62.3278 16.2065 6.1353 -9.5390 9.4512
# 3 36.6038 16.2065 143.8791 9.4191 -5.5499 4.7125
# 4 -2.3091 6.1353 9.4191 22.0153 11.3725 5.5497
# 5 6.5485 -9.5390 -5.5499 11.3725 34.8530 3.4079
# 6 18.7480 9.4512 4.7125 5.5497 3.4079 34.3710
#
#
#
# Elastic Compliance Matrix: (Units=1/GPa)
#
#
# Indices 1 2 3 4 5 6 
#
# 1 0.010732 -0.000649 -0.003032 0.006214 -0.004132 -0.005853
# 2 -0.000649 0.019081 -0.000992 -0.008157 0.008264 -0.004259
# 3 -0.003032 -0.000992 0.008287 -0.005652 0.003328 0.001373
# 4 0.006214 -0.008157 -0.005652 0.065796 -0.024936 -0.008523
# 5 -0.004132 0.008264 0.003328 -0.024936 0.040441 -0.000458
# 6 -0.005853 -0.004259 0.001373 -0.008523 -0.000458 0.034692
#
#
# Mechanical properties :
#
#
# Convention : Reuss Voigt Hill
#
# Bulk Modulus (GPa) = 34.77715 49.15168 41.96442
# Shear Modulus (GPa) = 25.25783 35.92121 30.58952
#
# Velocity S-wave (km/s) = 3.20479 3.82188 3.52685
# Velocity P-wave (km/s) = 5.27596 6.28191 5.80078
#
# Compressibility (1/GPa) = 0.02875451
#
# Stress axis : x y z
#
# Youngs Moduli (GPa) = 93.17841 52.40798 120.67554
#
# Poissons Ratio (x) = 0.03402 0.36585
# Poissons Ratio (y) = 0.06049 0.11970
# Poissons Ratio (z) = 0.28248 0.05198
#
# Static dielectric constant tensor:
#      x y z
#    x 1.927120 -0.048130 -0.014410 
#    y -0.048130 1.992340 0.001430 
#    z -0.014410 0.001430 2.044380 
# 
# From -- ./inp_files/441992.got.cif
#   From: 2010.05.17/outbox.cif.g08.bks.cpg/sg2_221_cif.got.tgz:441992.got - 2010.06.03 11:33:40.
