data_PCOD9009794
_publ_section_title
;
Structure prediction by ZEFSAII (Michael W. Deem and Ramdas Pophale) SiO2 
 PCOD9009794
Probable space group: P -1
;
_chemical_formula_sum "Si O2"
_cell_formula_units_Z 14
_cell_length_a 7.875186
_cell_length_b 14.117748
_cell_length_c 5.535627
_cell_angle_alpha 98.984659
_cell_angle_beta 114.702252
_cell_angle_gamma 97.299390
_cell_volume 539.438468
_symmetry_space_group_name_H-M "P -1"
_symmetry_group_IT_number 2
_symmetry_cell_setting 'triclinic'
loop_
_space_group_symop_operation_xyz
x,y,z
-x,-y,-z
loop_
_atom_site_type_symbol
_atom_site_label
_atom_site_fract_x
_atom_site_fract_y
_atom_site_fract_z
Si Si1 0.783058 0.499957 0.807395
Si Si2 0.103777 0.311263 0.282267
Si Si3 0.461136 0.341146 0.800492
Si Si4 0.304724 0.875990 0.702204
Si Si5 0.514654 0.873363 0.347605
Si Si6 0.257268 0.660864 0.668517
Si Si7 0.053531 0.088185 0.254177
O O1 0.782864 0.613525 0.814427
O O2 0.607843 0.439686 0.837566
O O3 0.766763 0.439345 0.525360
O O4 0.000000 0.500000 0.000000
O O5 0.241725 0.336791 0.609120
O O6 0.069279 0.195006 0.174920
O O7 0.902513 0.341956 0.220757
O O8 0.507889 0.244203 0.663285
O O9 0.528811 0.321229 0.098006
O O10 0.421338 0.887099 0.034225
O O11 0.423591 0.912879 0.547610
O O12 0.230624 0.759530 0.562781
O O13 0.117548 0.917119 0.660307
O O14 0.742675 0.908585 0.502845
O O15 0.000000 0.000000 0.000000
#
# Coordination Sequence:
#
# PCOD9009794 Si02
#       7
#     2   2   2   2   2   2   2
#     4  12  22  37  63  92 130 169 213 268 333 404
#     4  10  22  40  61  91 127 172 218 271 333 399
#     4  10  21  40  59  91 131 169 218 266 325 408
#     4  10  22  43  73 100 141 182 226 287 350 407
#     4  10  22  44  71 104 139 181 231 284 345 419
#     4  10  21  40  59  90 131 171 213 268 330 401
#     4  10  24  45  71 103 137 179 236 292 346 410
#
# _framework density 25.952911
#
# number of rings (size 3 to 8) (size 9 to 14) (size 15 to 20)
#    0.000    1.714    2.857    0.857    0.000    2.857 
#    2.571    4.286    0.000    0.000    0.000    0.000 
#    0.000    0.000    0.000    0.000    0.000    0.000 
#
# Total GULP energy -78286.794688 kJ/mol
# GULP energy per Si atom -5591.913906 kJ/mol
# Density = 2.589384 g / cm^3
# Si number density = 25.952911 Si / 1000 Ang^3
#
#
#
# Elastic Constant Matrix: (Units=GPa)
#
#
# Indices 1 2 3 4 5 6 
#
# 1 180.7786 61.5933 58.7858 -0.0586 5.0859 -17.7353
# 2 61.5933 150.1956 19.5459 13.7906 -17.6289 20.9659
# 3 58.7858 19.5459 87.6749 15.5815 15.5010 -8.3011
# 4 -0.0586 13.7906 15.5815 30.3964 -1.5582 5.0936
# 5 5.0859 -17.6289 15.5010 -1.5582 41.8429 -2.3159
# 6 -17.7353 20.9659 -8.3011 5.0936 -2.3159 42.3741
#
#
#
# Elastic Compliance Matrix: (Units=1/GPa)
#
#
# Indices 1 2 3 4 5 6 
#
# 1 0.009092 -0.004022 -0.005415 0.003885 -0.000414 0.004245
# 2 -0.004022 0.009998 -0.000323 -0.003136 0.004368 -0.006078
# 3 -0.005415 -0.000323 0.018237 -0.009931 -0.006476 0.002306
# 4 0.003885 -0.003136 -0.009931 0.040156 0.003191 -0.003420
# 5 -0.000414 0.004368 -0.006476 0.003191 0.028172 -0.002447
# 6 0.004245 -0.006078 0.002306 -0.003420 -0.002447 0.029112
#
#
# Mechanical properties :
#
#
# Convention : Reuss Voigt Hill
#
# Bulk Modulus (GPa) = 56.15488 77.61101 66.88294
# Shear Modulus (GPa) = 31.20670 41.50428 36.35549
#
# Velocity S-wave (km/s) = 3.47138 4.00336 3.74682
# Velocity P-wave (km/s) = 6.14422 7.16510 6.67421
#
# Compressibility (1/GPa) = 0.01780789
#
# Stress axis : x y z
#
# Youngs Moduli (GPa) = 109.98564 100.01796 54.83475
#
# Poissons Ratio (x) = 0.40224 0.29694
# Poissons Ratio (y) = 0.44233 0.01770
# Poissons Ratio (z) = 0.59558 0.03228
#
# Static dielectric constant tensor:
#      x y z
#    x 1.989810 0.006580 -0.075000 
#    y 0.006580 2.664150 0.274810 
#    z -0.075000 0.274810 2.214330 
# 
# From -- ./inp_files/40107.got.cif
#   From: 2010.05.17/outbox.cif.g08.bks.cpg/sg2_21_cif.got.tgz:40107.got - 2010.06.03 11:33:40.
