data_PCOD9009412
_publ_section_title
;
Structure prediction by ZEFSAII (Michael W. Deem and Ramdas Pophale) SiO2 
 PCOD9009412
Probable space group: P -1
;
_chemical_formula_sum "Si O2"
_cell_formula_units_Z 16
_cell_length_a 6.533236
_cell_length_b 14.126492
_cell_length_c 8.442298
_cell_angle_alpha 82.882480
_cell_angle_beta 117.406185
_cell_angle_gamma 108.640215
_cell_volume 655.172660
_symmetry_space_group_name_H-M "P -1"
_symmetry_group_IT_number 2
_symmetry_cell_setting 'triclinic'
loop_
_space_group_symop_operation_xyz
x,y,z
-x,-y,-z
loop_
_atom_site_type_symbol
_atom_site_label
_atom_site_fract_x
_atom_site_fract_y
_atom_site_fract_z
Si Si1 0.666900 0.880214 0.159236
Si Si2 0.514342 0.173117 0.252343
Si Si3 0.058018 0.238880 0.535112
Si Si4 0.973864 0.934621 0.844693
Si Si5 0.045528 0.603665 0.328178
Si Si6 0.168291 0.757278 0.056009
Si Si7 0.992711 0.426883 0.158129
Si Si8 0.418360 0.339192 0.379132
O O1 0.427362 0.830171 0.185499
O O2 0.854684 0.821309 0.284727
O O3 0.816166 0.996410 0.205086
O O4 0.560026 0.858408 0.947972
O O5 0.476102 0.279429 0.262401
O O6 0.306175 0.092751 0.296259
O O7 0.973223 0.167687 0.068604
O O8 0.786895 0.182863 0.394973
O O9 0.061595 0.347898 0.577908
O O10 0.246580 0.259530 0.455226
O O11 0.000000 0.000000 0.000000
O O12 0.050687 0.680656 0.169389
O O13 0.324775 0.612369 0.457785
O O14 0.920986 0.488684 0.262356
O O15 0.177754 0.681941 0.930127
O O16 0.256838 0.411510 0.270555
O O17 0.000000 0.500000 0.000000
#
# Coordination Sequence:
#
# PCOD9009412 Si02
#       8
#     2   2   2   2   2   2   2   2
#     4  11  23  42  70  99 131 181 222 272 334 393
#     4  10  23  41  68  97 133 178 215 278 327 389
#     4  11  24  42  69  98 138 174 222 271 331 391
#     4  10  21  39  68  97 131 174 221 274 328 391
#     4  10  22  40  65  95 131 177 213 272 329 389
#     4  11  20  42  67  96 134 170 225 273 329 392
#     4  10  22  37  68  96 125 175 221 264 333 394
#     4  11  21  43  65  93 138 170 217 278 328 386
#
# _framework density 24.421042
#
# number of rings (size 3 to 8) (size 9 to 14) (size 15 to 20)
#    0.000    1.500    2.500    3.000    1.750    1.000 
#    0.000    3.750    0.000    0.000    0.000    0.000 
#    0.000    0.000    0.000    0.000    0.000    0.000 
#
# Total GULP energy -89436.244805 kJ/mol
# GULP energy per Si atom -5589.765300 kJ/mol
# Density = 2.436546 g / cm^3
# Si number density = 24.421042 Si / 1000 Ang^3
#
#
#
# Elastic Constant Matrix: (Units=GPa)
#
#
# Indices 1 2 3 4 5 6 
#
# 1 71.4578 15.3707 21.3377 0.4180 8.6899 6.8580
# 2 15.3707 94.1125 10.3806 -4.7909 0.8828 11.9476
# 3 21.3377 10.3806 69.4907 -6.4312 19.7445 -2.7331
# 4 0.4180 -4.7909 -6.4312 31.3671 -12.2885 1.6970
# 5 8.6899 0.8828 19.7445 -12.2885 37.4540 4.3725
# 6 6.8580 11.9476 -2.7331 1.6970 4.3725 31.1261
#
#
#
# Elastic Compliance Matrix: (Units=1/GPa)
#
#
# Indices 1 2 3 4 5 6 
#
# 1 0.016239 -0.001861 -0.004542 -0.001905 -0.001612 -0.002932
# 2 -0.001861 0.011863 -0.001877 0.002732 0.002601 -0.004823
# 3 -0.004542 -0.001877 0.018934 -0.000342 -0.009549 0.004744
# 4 -0.001905 0.002732 -0.000342 0.037790 0.013495 -0.004615
# 5 -0.001612 0.002601 -0.009549 0.013495 0.037345 -0.007463
# 6 -0.002932 -0.004823 0.004744 -0.004615 -0.007463 0.036341
#
#
# Mechanical properties :
#
#
# Convention : Reuss Voigt Hill
#
# Bulk Modulus (GPa) = 32.81121 36.58212 34.69666
# Shear Modulus (GPa) = 26.99343 32.52093 29.75718
#
# Velocity S-wave (km/s) = 3.32826 3.65317 3.49450
# Velocity P-wave (km/s) = 5.31362 5.72770 5.52454
#
# Compressibility (1/GPa) = 0.03047739
#
# Stress axis : x y z
#
# Youngs Moduli (GPa) = 61.57853 84.29279 52.81643
#
# Poissons Ratio (x) = 0.15686 0.23989
# Poissons Ratio (y) = 0.11459 0.09911
# Poissons Ratio (z) = 0.27969 0.15818
#
# Static dielectric constant tensor:
#      x y z
#    x 1.989510 0.035190 -0.051510 
#    y 0.035190 1.940690 0.019860 
#    z -0.051510 0.019860 1.992680 
# 
# From -- ./inp_files/135408.got.cif
#   From: 2010.05.17/outbox.cif.g08.bks.cpg/sg2_68_cif.got.tgz:135408.got - 2010.06.03 11:33:40.
