data_PCOD9009144
_publ_section_title
;
Structure prediction by ZEFSAII (Michael W. Deem and Ramdas Pophale) SiO2 
 PCOD9009144
Probable space group: P -1
;
_chemical_formula_sum "Si O2"
_cell_formula_units_Z 14
_cell_length_a 7.003897
_cell_length_b 16.535747
_cell_length_c 11.139762
_cell_angle_alpha 150.347542
_cell_angle_beta 65.133130
_cell_angle_gamma 117.911851
_cell_volume 563.755331
_symmetry_space_group_name_H-M "P -1"
_symmetry_group_IT_number 2
_symmetry_cell_setting 'triclinic'
loop_
_space_group_symop_operation_xyz
x,y,z
-x,-y,-z
loop_
_atom_site_type_symbol
_atom_site_label
_atom_site_fract_x
_atom_site_fract_y
_atom_site_fract_z
Si Si1 0.141397 0.738345 0.852911
Si Si2 0.856051 0.846157 0.267053
Si Si3 0.255761 0.500416 0.041294
Si Si4 0.356948 0.785212 0.234608
Si Si5 0.544085 0.856235 0.018718
Si Si6 0.868506 0.181156 0.435387
Si Si7 0.847808 0.639405 0.581946
O O1 0.167348 0.559351 0.670857
O O2 0.052102 0.707737 0.703665
O O3 0.375153 0.858956 0.961597
O O4 0.968108 0.812479 0.069600
O O5 0.597920 0.831258 0.292961
O O6 0.870753 0.684024 0.135082
O O7 0.000000 0.000000 0.500000
O O8 0.256930 0.584945 0.019248
O O9 0.206086 0.642305 0.326031
O O10 0.500000 0.500000 0.000000
O O11 0.401180 0.836741 0.153319
O O12 0.198186 0.860019 0.460862
O O13 0.732220 0.022830 0.196538
O O14 0.648278 0.695549 0.769810
O O15 0.107085 0.247897 0.405965
#
# Coordination Sequence:
#
# PCOD9009144 Si02
#       7
#     2   2   2   2   2   2   2
#     4  11  24  41  69  94 127 178 217 261 331 380
#     4  11  19  38  66  99 126 164 220 267 321 386
#     4   8  18  35  61  93 127 165 207 258 329 373
#     4   9  20  40  65  93 131 169 206 273 321 374
#     4  12  23  41  67  98 128 172 225 261 319 390
#     4  10  21  39  67  91 136 174 208 272 327 377
#     4  11  24  45  66  90 137 174 215 266 322 390
#
# _framework density 24.833466000000001
#
# number of rings (size 3 to 8) (size 9 to 14) (size 15 to 20)
#    0.857    0.857    2.857    2.143    0.000    0.571 
#    0.000    4.286    3.143    0.000    0.000    0.000 
#    0.000    0.000    0.000    0.000    0.000    0.000 
#
# Total GULP energy -78157.714000 kJ/mol
# GULP energy per Si atom -5582.693857 kJ/mol
# Density = 2.477694 g / cm^3
# Si number density = 24.833466 Si / 1000 Ang^3
#
#
#
# Elastic Constant Matrix: (Units=GPa)
#
#
# Indices 1 2 3 4 5 6 
#
# 1 92.8251 -6.1484 20.9117 -12.7031 3.4941 -11.2960
# 2 -6.1484 96.6627 21.7612 6.1023 1.5896 8.6008
# 3 20.9117 21.7612 135.0798 3.3573 -0.5836 10.7055
# 4 -12.7031 6.1023 3.3573 36.5766 8.7964 -3.2356
# 5 3.4941 1.5896 -0.5836 8.7964 32.1363 -2.1947
# 6 -11.2960 8.6008 10.7055 -3.2356 -2.1947 13.1547
#
#
#
# Elastic Compliance Matrix: (Units=1/GPa)
#
#
# Indices 1 2 3 4 5 6 
#
# 1 0.014932 -0.000187 -0.003878 0.007755 -0.002607 0.017573
# 2 -0.000187 0.011408 -0.001170 -0.002412 -0.000405 -0.007328
# 3 -0.003878 -0.001170 0.009114 -0.003113 0.000772 -0.010620
# 4 0.007755 -0.002412 -0.003113 0.034455 -0.009000 0.017743
# 5 -0.002607 -0.000405 0.000772 -0.009000 0.033956 0.000850
# 6 0.017573 -0.007328 -0.010620 0.017743 0.000850 0.109048
#
#
# Mechanical properties :
#
#
# Convention : Reuss Voigt Hill
#
# Bulk Modulus (GPa) = 40.02693 44.17963 42.10328
# Shear Modulus (GPa) = 21.57847 35.57639 28.57743
#
# Velocity S-wave (km/s) = 2.95095 3.78907 3.39597
# Velocity P-wave (km/s) = 5.26915 6.08044 5.68928
#
# Compressibility (1/GPa) = 0.02498318
#
# Stress axis : x y z
#
# Youngs Moduli (GPa) = 66.96983 87.66044 109.71869
#
# Poissons Ratio (x) = 0.01643 0.42551
# Poissons Ratio (y) = 0.01255 0.12834
# Poissons Ratio (z) = 0.25972 0.10254
#
# Static dielectric constant tensor:
#      x y z
#    x 1.965430 -0.073440 0.023110 
#    y -0.073440 2.385680 -0.250670 
#    z 0.023110 -0.250670 2.268010 
# 
# From -- ./inp_files/401514.got.cif
#   From: 2010.05.17/outbox.cif.g08.bks.cpg/sg2_201_cif.got.tgz:401514.got - 2010.06.03 11:33:40.
