data_PCOD9009975
_publ_section_title
;
Structure prediction by ZEFSAII (Michael W. Deem and Ramdas Pophale) SiO2 
 PCOD9009975
Probable space group: P -1
;
_chemical_formula_sum "Si O2"
_cell_formula_units_Z 14
_cell_length_a 20.203106
_cell_length_b 8.155188
_cell_length_c 16.310050
_cell_angle_alpha 126.848039
_cell_angle_beta 161.473556
_cell_angle_gamma 50.640174
_cell_volume 660.165235
_symmetry_space_group_name_H-M "P -1"
_symmetry_group_IT_number 2
_symmetry_cell_setting 'triclinic'
loop_
_space_group_symop_operation_xyz
x,y,z
-x,-y,-z
loop_
_atom_site_type_symbol
_atom_site_label
_atom_site_fract_x
_atom_site_fract_y
_atom_site_fract_z
Si Si1 0.907432 0.195548 0.312704
Si Si2 0.041727 0.475687 0.422569
Si Si3 0.714393 0.580377 0.767252
Si Si4 0.287163 0.095346 0.829020
Si Si5 0.613880 0.938532 0.876108
Si Si6 0.127403 0.180773 0.116748
Si Si7 0.842479 0.864657 0.672720
O O1 0.812162 0.382706 0.322830
O O2 0.036705 0.293051 0.426564
O O3 0.090248 0.030125 0.530906
O O4 0.735402 0.107427 0.035888
O O5 0.101567 0.364942 0.373274
O O6 0.810091 0.648750 0.205276
O O7 0.500000 0.500000 0.500000
O O8 0.728314 0.711778 0.905175
O O9 0.721716 0.742118 0.748915
O O10 0.913841 0.377069 0.930349
O O11 0.344287 0.036665 0.971811
O O12 0.500000 0.000000 0.000000
O O13 0.366222 0.995949 0.577492
O O14 0.213255 0.144319 0.299479
O O15 0.039132 0.976759 0.929128
#
# Coordination Sequence:
#
# PCOD9009975 Si02
#       7
#     2   2   2   2   2   2   2
#     4   9  21  40  58  91 124 169 204 267 312 378
#     4   9  20  41  61  87 130 167 208 261 317 385
#     4  11  23  46  65  98 126 169 220 271 327 377
#     4  10  21  40  61  88 125 168 209 261 316 379
#     4  12  23  38  65  93 126 166 215 265 322 386
#     4  10  24  45  68  90 136 167 216 276 317 388
#     4  11  22  42  65  98 125 175 213 263 331 381
#
# _framework density 21.206810999999998
#
# number of rings (size 3 to 8) (size 9 to 14) (size 15 to 20)
#    0.857    0.857    1.429    3.000    0.000    1.143 
#    5.143    0.000    0.000    0.000    0.000    0.000 
#    0.000    0.000    0.000    0.000    0.000    0.000 
#
# Total GULP energy -78014.849593 kJ/mol
# GULP energy per Si atom -5572.489257 kJ/mol
# Density = 2.115854 g / cm^3
# Si number density = 21.206811 Si / 1000 Ang^3
#
#
#
# Elastic Constant Matrix: (Units=GPa)
#
#
# Indices 1 2 3 4 5 6 
#
# 1 78.5923 5.0590 33.3033 2.1093 -1.0936 1.5392
# 2 5.0590 43.8663 12.4431 11.9988 0.7021 -15.8466
# 3 33.3033 12.4431 78.4280 15.5824 -5.7996 -1.3557
# 4 2.1093 11.9988 15.5824 40.2950 -0.9113 -8.5415
# 5 -1.0936 0.7021 -5.7996 -0.9113 27.0610 -1.0607
# 6 1.5392 -15.8466 -1.3557 -8.5415 -1.0607 43.6707
#
#
#
# Elastic Compliance Matrix: (Units=1/GPa)
#
#
# Indices 1 2 3 4 5 6 
#
# 1 0.015685 -0.000548 -0.007024 0.001909 -0.000817 -0.000616
# 2 -0.000548 0.028566 -0.003175 -0.005325 -0.001262 0.009214
# 3 -0.007024 -0.003175 0.017593 -0.005711 0.003322 -0.001395
# 4 0.001909 -0.005325 -0.005711 0.029266 0.000116 0.003550
# 5 -0.000817 -0.001262 0.003322 0.000116 0.037693 0.000612
# 6 -0.000616 0.009214 -0.001395 0.003550 0.000612 0.026930
#
#
# Mechanical properties :
#
#
# Convention : Reuss Voigt Hill
#
# Bulk Modulus (GPa) = 24.78387 33.61081 29.19734
# Shear Modulus (GPa) = 26.22225 32.21074 29.21650
#
# Velocity S-wave (km/s) = 3.52021 3.90152 3.71576
# Velocity P-wave (km/s) = 5.31362 6.01492 5.67511
#
# Compressibility (1/GPa) = 0.04034882
#
# Stress axis : x y z
#
# Youngs Moduli (GPa) = 63.75532 35.00685 56.84057
#
# Poissons Ratio (x) = 0.01920 0.39924
# Poissons Ratio (y) = 0.03496 0.18049
# Poissons Ratio (z) = 0.44781 0.11116
#
# Static dielectric constant tensor:
#      x y z
#    x 1.833790 0.058190 0.044890 
#    y 0.058190 1.835820 0.060050 
#    z 0.044890 0.060050 1.835850 
# 
# From -- ./inp_files/341575.got.cif
#   From: 2010.05.17/outbox.cif.g08.bks.cpg/sg2_171_cif.got.tgz:341575.got - 2010.06.03 11:33:40.
