data_PCOD9009623
_publ_section_title
;
Structure prediction by ZEFSAII (Michael W. Deem and Ramdas Pophale) SiO2 
 PCOD9009623
Probable space group: P -1
;
_chemical_formula_sum "Si O2"
_cell_formula_units_Z 14
_cell_length_a 16.921187
_cell_length_b 24.084058
_cell_length_c 8.503389
_cell_angle_alpha 147.649699
_cell_angle_beta 31.659439
_cell_angle_gamma 160.124245
_cell_volume 599.015275
_symmetry_space_group_name_H-M "P -1"
_symmetry_group_IT_number 2
_symmetry_cell_setting 'triclinic'
loop_
_space_group_symop_operation_xyz
x,y,z
-x,-y,-z
loop_
_atom_site_type_symbol
_atom_site_label
_atom_site_fract_x
_atom_site_fract_y
_atom_site_fract_z
Si Si1 0.548096 0.404772 0.527710
Si Si2 0.797425 0.915759 0.503115
Si Si3 0.510593 0.632058 0.804838
Si Si4 0.769244 0.096202 0.771668
Si Si5 0.933149 0.581147 0.782963
Si Si6 0.874944 0.024376 0.105378
Si Si7 0.073331 0.276007 0.136392
O O1 0.469023 0.258446 0.402198
O O2 0.608770 0.408207 0.257043
O O3 0.766669 0.586145 0.666775
O O4 0.290257 0.330772 0.803934
O O5 0.805601 0.034916 0.706921
O O6 0.000000 0.000000 0.500000
O O7 0.857699 0.873151 0.151101
O O8 0.500000 0.500000 0.500000
O O9 0.357935 0.574029 0.078524
O O10 0.731635 0.836276 0.910522
O O11 0.828643 0.066272 0.439093
O O12 0.957026 0.289731 0.954093
O O13 0.500000 0.000000 0.000000
O O14 0.017429 0.682080 0.722709
O O15 0.000000 0.500000 0.500000
O O16 0.855840 0.091949 0.147806
#
# Coordination Sequence:
#
# PCOD9009623 Si02
#       7
#     2   2   2   2   2   2   2
#     4  10  21  39  71 102 138 174 233 293 351 411
#     4  11  22  44  74 109 141 184 239 302 355 426
#     4  12  23  42  73 107 140 177 237 291 359 422
#     4  12  27  47  70 105 149 190 241 294 364 427
#     4  12  27  47  68 100 146 189 234 296 360 424
#     4  11  24  44  74 107 140 191 239 295 358 430
#     4  10  23  44  68 102 139 183 236 289 354 419
#
# _framework density 23.371689
#
# number of rings (size 3 to 8) (size 9 to 14) (size 15 to 20)
#    0.000    0.857    2.857    4.714    4.000    1.143 
#    2.571    3.571    0.000    0.000    0.000    0.000 
#    0.000    0.000    0.000    0.000    0.000    0.000 
#
# Total GULP energy -78033.590507 kJ/mol
# GULP energy per Si atom -5573.827893 kJ/mol
# Density = 2.331849 g / cm^3
# Si number density = 23.371689 Si / 1000 Ang^3
#
#
#
# Elastic Constant Matrix: (Units=GPa)
#
#
# Indices 1 2 3 4 5 6 
#
# 1 104.7410 48.6886 58.2814 4.3371 -5.1977 -28.3712
# 2 48.6886 145.8683 43.4415 24.5654 -2.7987 -36.3120
# 3 58.2814 43.4415 106.7070 26.9892 -7.7160 -18.1419
# 4 4.3371 24.5654 26.9892 36.4617 -4.8232 -4.4984
# 5 -5.1977 -2.7987 -7.7160 -4.8232 32.5816 9.3067
# 6 -28.3712 -36.3120 -18.1419 -4.4984 9.3067 50.9172
#
#
#
# Elastic Compliance Matrix: (Units=1/GPa)
#
#
# Indices 1 2 3 4 5 6 
#
# 1 0.016991 -0.003023 -0.009102 0.007339 0.000036 0.004710
# 2 -0.003023 0.010244 -0.000243 -0.005973 -0.002083 0.005387
# 3 -0.009102 -0.000243 0.017386 -0.011520 0.001011 -0.000253
# 4 0.007339 -0.005973 -0.011520 0.039470 0.004218 -0.001559
# 5 0.000036 -0.002083 0.001011 0.004218 0.033332 -0.006825
# 6 0.004710 0.005387 -0.000253 -0.001559 -0.006825 0.027126
#
#
# Mechanical properties :
#
#
# Convention : Reuss Voigt Hill
#
# Bulk Modulus (GPa) = 50.29298 73.12657 61.70978
# Shear Modulus (GPa) = 28.42272 37.78575 33.10424
#
# Velocity S-wave (km/s) = 3.49107 4.02522 3.76762
# Velocity P-wave (km/s) = 6.14944 7.27734 6.73703
#
# Compressibility (1/GPa) = 0.01988349
#
# Stress axis : x y z
#
# Youngs Moduli (GPa) = 58.85319 97.61643 57.51817
#
# Poissons Ratio (x) = 0.29514 0.52356
# Poissons Ratio (y) = 0.17794 0.01398
# Poissons Ratio (z) = 0.53571 0.02372
#
# Static dielectric constant tensor:
#      x y z
#    x 1.974980 -0.015770 -0.016380 
#    y -0.015770 1.967390 0.042440 
#    z -0.016380 0.042440 1.926030 
# 
# From -- ./inp_files/338703.got.cif
#   From: 2010.05.17/outbox.cif.g08.bks.cpg/sg2_170_cif.got.tgz:338703.got - 2010.06.03 11:33:40.
