data_PCOD9009373
_publ_section_title
;
Structure prediction by ZEFSAII (Michael W. Deem and Ramdas Pophale) SiO2 
 PCOD9009373
Probable space group: P -1
;
_chemical_formula_sum "Si O2"
_cell_formula_units_Z 14
_cell_length_a 8.043671
_cell_length_b 10.111858
_cell_length_c 11.667139
_cell_angle_alpha 46.909921
_cell_angle_beta 124.504833
_cell_angle_gamma 116.950706
_cell_volume 567.624748
_symmetry_space_group_name_H-M "P -1"
_symmetry_group_IT_number 2
_symmetry_cell_setting 'triclinic'
loop_
_space_group_symop_operation_xyz
x,y,z
-x,-y,-z
loop_
_atom_site_type_symbol
_atom_site_label
_atom_site_fract_x
_atom_site_fract_y
_atom_site_fract_z
Si Si1 0.311512 0.237275 0.773829
Si Si2 0.826830 0.404349 0.069502
Si Si3 0.098297 0.917414 0.198397
Si Si4 0.908849 0.885795 0.691639
Si Si5 0.252791 0.774713 0.653653
Si Si6 0.531380 0.608923 0.694936
Si Si7 0.506345 0.001886 0.809624
O O1 0.418088 0.442262 0.679262
O O2 0.364008 0.129865 0.744043
O O3 0.074417 0.223855 0.725778
O O4 0.409574 0.126640 0.982157
O O5 0.845802 0.405323 0.212977
O O6 0.879927 0.199545 0.183018
O O7 0.629910 0.494606 0.902994
O O8 0.000000 0.500000 0.000000
O O9 0.310104 0.870117 0.256950
O O10 0.137276 0.075998 0.216075
O O11 0.000000 0.000000 0.000000
O O12 0.724937 0.746907 0.649482
O O13 0.901480 0.079510 0.515361
O O14 0.366801 0.727882 0.612331
O O15 0.418519 0.869930 0.750766
#
# Coordination Sequence:
#
# PCOD9009373 Si02
#       7
#     2   2   2   2   2   2   2
#     4  10  22  40  63  98 137 175 231 292 336 405
#     4  10  23  38  63 101 136 168 230 288 334 395
#     4  10  22  39  66  97 133 183 233 272 342 425
#     4  11  24  43  68 101 138 180 229 285 345 422
#     4  12  22  42  72  98 138 182 229 282 358 403
#     4  11  23  41  67 103 134 174 233 293 329 405
#     4  10  21  39  68  94 134 185 226 276 355 415
#
# _framework density 24.664183000000001
#
# number of rings (size 3 to 8) (size 9 to 14) (size 15 to 20)
#    0.000    1.429    2.857    2.143    4.000    1.143 
#    2.571    1.429    0.000    0.000    0.000    0.000 
#    0.000    0.000    0.000    0.000    0.000    0.000 
#
# Total GULP energy -78107.249710 kJ/mol
# GULP energy per Si atom -5579.089265 kJ/mol
# Density = 2.460805 g / cm^3
# Si number density = 24.664183 Si / 1000 Ang^3
#
#
#
# Elastic Constant Matrix: (Units=GPa)
#
#
# Indices 1 2 3 4 5 6 
#
# 1 87.1665 13.5179 -0.0278 -3.1348 -3.9287 4.5676
# 2 13.5179 100.4096 -10.8557 -2.6458 -4.5494 16.7513
# 3 -0.0278 -10.8557 69.7651 -6.4772 3.0638 -0.7741
# 4 -3.1348 -2.6458 -6.4772 31.2471 -7.0388 -5.0004
# 5 -3.9287 -4.5494 3.0638 -7.0388 36.5110 -9.7605
# 6 4.5676 16.7513 -0.7741 -5.0004 -9.7605 35.5855
#
#
#
# Elastic Compliance Matrix: (Units=1/GPa)
#
#
# Indices 1 2 3 4 5 6 
#
# 1 0.011818 -0.001467 -0.000165 0.001263 0.001265 -0.000305
# 2 -0.001467 0.011184 0.001721 0.000303 -0.000201 -0.005052
# 3 -0.000165 0.001721 0.014908 0.003078 -0.000507 -0.000171
# 4 0.001263 0.000303 0.003078 0.035923 0.008770 0.007216
# 5 0.001265 -0.000201 -0.000507 0.008770 0.031879 0.009897
# 6 -0.000305 -0.005052 -0.000171 0.007216 0.009897 0.034243
#
#
# Mechanical properties :
#
#
# Convention : Reuss Voigt Hill
#
# Bulk Modulus (GPa) = 26.25625 29.17890 27.71758
# Shear Modulus (GPa) = 32.79210 37.64917 35.22063
#
# Velocity S-wave (km/s) = 3.65025 3.91125 3.78300
# Velocity P-wave (km/s) = 5.33239 5.67920 5.50852
#
# Compressibility (1/GPa) = 0.03808617
#
# Stress axis : x y z
#
# Youngs Moduli (GPa) = 84.61505 89.41001 67.07992
#
# Poissons Ratio (x) = 0.13120 0.01109
# Poissons Ratio (y) = 0.12416 -0.11542
# Poissons Ratio (z) = 0.01399 -0.15384
#
# Static dielectric constant tensor:
#      x y z
#    x 2.095020 0.112660 -0.105220 
#    y 0.112660 2.002890 -0.032180 
#    z -0.105220 -0.032180 2.081950 
# 
# From -- ./inp_files/174047.got.cif
#   From: 2010.05.17/outbox.cif.g08.bks.cpg/sg2_88_cif.got.tgz:174047.got - 2010.06.03 11:33:40.
