data_PCOD9009491
_publ_section_title
;
Structure prediction by ZEFSAII (Michael W. Deem and Ramdas Pophale) SiO2 
 PCOD9009491
Probable space group: P -1
;
_chemical_formula_sum "Si O2"
_cell_formula_units_Z 12
_cell_length_a 11.961233
_cell_length_b 11.394542
_cell_length_c 8.360252
_cell_angle_alpha 112.119792
_cell_angle_beta 40.002379
_cell_angle_gamma 85.914583
_cell_volume 540.792880
_symmetry_space_group_name_H-M "P -1"
_symmetry_group_IT_number 2
_symmetry_cell_setting 'triclinic'
loop_
_space_group_symop_operation_xyz
x,y,z
-x,-y,-z
loop_
_atom_site_type_symbol
_atom_site_label
_atom_site_fract_x
_atom_site_fract_y
_atom_site_fract_z
Si Si1 0.551713 0.514841 0.129927
Si Si2 0.801242 0.816740 0.117694
Si Si3 0.216607 0.493858 0.613947
Si Si4 0.977268 0.355072 0.754604
Si Si5 0.313374 0.043218 0.348767
Si Si6 0.400773 0.851852 0.435542
O O1 0.455090 0.444860 0.306022
O O2 0.420055 0.702762 0.400685
O O3 0.500000 0.500000 0.000000
O O4 0.805480 0.426626 0.838078
O O5 0.697874 0.857721 0.432459
O O6 0.640715 0.808400 0.177396
O O7 0.770071 0.979872 0.200647
O O8 0.041900 0.657123 0.790731
O O9 0.169182 0.374377 0.539853
O O10 0.153885 0.537307 0.890701
O O11 0.085309 0.172436 0.578705
O O12 0.343499 0.897393 0.334088
O O13 0.500000 0.000000 0.000000
#
# Coordination Sequence:
#
# PCOD9009491 Si02
#       6
#     2   2   2   2   2   2
#     4  12  26  39  60  95 129 159 202 255 309 359
#     4   8  17  37  64  89 112 160 202 248 297 354
#     4  10  21  39  69  88 119 166 201 256 303 356
#     4  10  22  43  62  90 122 159 215 242 301 375
#     4   9  19  35  65  88 115 161 198 249 308 350
#     4   9  19  39  59  88 123 151 210 241 297 370
#
# _framework density 22.189643
#
# number of rings (size 3 to 8) (size 9 to 14) (size 15 to 20)
#    1.000    1.333    1.667    0.500    2.333    2.667 
#    0.000    0.833    0.000    0.000    0.000    0.000 
#    0.000    0.000    0.000    0.000    0.000    0.000 
#
# Total GULP energy -66875.844765 kJ/mol
# GULP energy per Si atom -5572.987064 kJ/mol
# Density = 2.213914 g / cm^3
# Si number density = 22.189643 Si / 1000 Ang^3
#
#
#
# Elastic Constant Matrix: (Units=GPa)
#
#
# Indices 1 2 3 4 5 6 
#
# 1 78.4283 30.8673 1.3186 13.7119 -11.3829 -7.6915
# 2 30.8673 64.3544 3.3869 2.4619 -16.0281 -2.6618
# 3 1.3186 3.3869 27.6826 -2.4481 4.9204 2.8713
# 4 13.7119 2.4619 -2.4481 28.6736 -7.2800 -11.2266
# 5 -11.3829 -16.0281 4.9204 -7.2800 14.8334 1.3047
# 6 -7.6915 -2.6618 2.8713 -11.2266 1.3047 26.4998
#
#
#
# Elastic Compliance Matrix: (Units=1/GPa)
#
#
# Indices 1 2 3 4 5 6 
#
# 1 0.017290 -0.007337 -0.001080 -0.006541 0.002355 0.001512
# 2 -0.007337 0.026866 -0.007914 0.009883 0.030514 0.004111
# 3 -0.001080 -0.007914 0.041805 -0.003855 -0.024606 -0.006059
# 4 -0.006541 0.009883 -0.003855 0.052635 0.030987 0.020285
# 5 0.002355 0.030514 -0.024606 0.030987 0.124385 0.013418
# 6 0.001512 0.004111 -0.006059 0.020285 0.013418 0.047177
#
#
# Mechanical properties :
#
#
# Convention : Reuss Voigt Hill
#
# Bulk Modulus (GPa) = 18.76165 26.84564 22.80364
# Shear Modulus (GPa) = 13.86636 22.99418 18.43027
#
# Velocity S-wave (km/s) = 2.50252 3.22259 2.88510
# Velocity P-wave (km/s) = 4.10166 5.09620 4.62574
#
# Compressibility (1/GPa) = 0.05330022
#
# Stress axis : x y z
#
# Youngs Moduli (GPa) = 57.83747 37.22133 23.92087
#
# Poissons Ratio (x) = 0.27309 0.02583
# Poissons Ratio (y) = 0.42434 0.18930
# Poissons Ratio (z) = 0.06245 0.29456
#
# Static dielectric constant tensor:
#      x y z
#    x 1.806830 -0.022830 0.012310 
#    y -0.022830 1.916640 0.004330 
#    z 0.012310 0.004330 1.833560 
# 
# From -- ./inp_files/259290.got.cif
#   From: 2010.05.17/outbox.cif.g08.bks.cpg/sg2_130_cif.got.tgz:259290.got - 2010.06.03 11:33:40.
