data_PCOD9009855
_publ_section_title
;
Structure prediction by ZEFSAII (Michael W. Deem and Ramdas Pophale) SiO2 
 PCOD9009855
Probable space group: P -1
;
_chemical_formula_sum "Si O2"
_cell_formula_units_Z 16
_cell_length_a 11.372948
_cell_length_b 15.992714
_cell_length_c 18.687263
_cell_angle_alpha 22.292089
_cell_angle_beta 51.502160
_cell_angle_gamma 38.388169
_cell_volume 720.448497
_symmetry_space_group_name_H-M "P -1"
_symmetry_group_IT_number 2
_symmetry_cell_setting 'triclinic'
loop_
_space_group_symop_operation_xyz
x,y,z
-x,-y,-z
loop_
_atom_site_type_symbol
_atom_site_label
_atom_site_fract_x
_atom_site_fract_y
_atom_site_fract_z
Si Si1 0.785992 0.585247 0.012265
Si Si2 0.875785 0.558377 0.430335
Si Si3 0.615473 0.205014 0.762141
Si Si4 0.520837 0.271371 0.516609
Si Si5 0.720940 0.006800 0.349331
Si Si6 0.102752 0.722446 0.927116
Si Si7 0.442553 0.974416 0.929264
Si Si8 0.357070 0.052307 0.412510
O O1 0.628546 0.935181 0.766812
O O2 0.669102 0.638896 0.086655
O O3 0.826671 0.358107 0.118717
O O4 0.000000 0.500000 0.000000
O O5 0.728085 0.514006 0.550512
O O6 0.719717 0.878615 0.191517
O O7 0.000000 0.500000 0.500000
O O8 0.047164 0.321396 0.494333
O O9 0.452765 0.558957 0.571541
O O10 0.498100 0.166672 0.780712
O O11 0.851755 0.018412 0.793685
O O12 0.650908 0.038449 0.954816
O O13 0.597524 0.188189 0.471595
O O14 0.666632 0.025826 0.438105
O O15 0.753197 0.226787 0.137077
O O16 0.554799 0.020641 0.360655
O O17 0.165155 0.417013 0.176830
#
# Coordination Sequence:
#
# PCOD9009855 Si02
#       8
#     2   2   2   2   2   2   2   2
#     4  10  21  40  60  88 125 164 209 265 322 383
#     4  11  21  41  64  91 125 169 217 266 321 381
#     4  11  22  42  64  95 128 169 219 264 323 389
#     4  10  22  39  64  89 126 164 213 267 317 386
#     4  11  22  39  65  89 127 174 216 260 325 388
#     4  11  22  39  64  90 125 170 217 259 327 385
#     4  10  24  40  64  91 134 168 213 272 324 381
#     4  10  23  41  59  94 133 163 212 273 319 380
#
# _framework density 22.208389
#
# number of rings (size 3 to 8) (size 9 to 14) (size 15 to 20)
#    0.000    1.500    3.750    1.125    1.750    3.000 
#    0.000    1.250    0.000    0.000    0.000    0.000 
#    0.000    0.000    0.000    0.000    0.000    0.000 
#
# Total GULP energy -89091.362352 kJ/mol
# GULP energy per Si atom -5568.210147 kJ/mol
# Density = 2.215784 g / cm^3
# Si number density = 22.208389 Si / 1000 Ang^3
#
#
#
# Elastic Constant Matrix: (Units=GPa)
#
#
# Indices 1 2 3 4 5 6 
#
# 1 62.6654 32.2560 21.7042 2.3686 -2.8235 0.6746
# 2 32.2560 125.8576 22.8249 -20.3118 -6.8151 15.0172
# 3 21.7042 22.8249 48.5170 -0.1623 -8.5721 2.4302
# 4 2.3686 -20.3118 -0.1623 31.8361 4.6060 2.5860
# 5 -2.8235 -6.8151 -8.5721 4.6060 33.0775 -2.7848
# 6 0.6746 15.0172 2.4302 2.5860 -2.7848 36.5058
#
#
#
# Elastic Compliance Matrix: (Units=1/GPa)
#
#
# Indices 1 2 3 4 5 6 
#
# 1 0.021367 -0.005330 -0.007236 -0.005212 -0.000202 0.002633
# 2 -0.005330 0.011796 -0.002947 0.008385 -0.000392 -0.005182
# 3 -0.007236 -0.002947 0.026258 -0.002075 0.005885 0.000194
# 4 -0.005212 0.008385 -0.002075 0.038395 -0.005134 -0.006326
# 5 -0.000202 -0.000392 0.005885 -0.005134 0.032595 0.002623
# 6 0.002633 -0.005182 0.000194 -0.006326 0.002623 0.030111
#
#
# Mechanical properties :
#
#
# Convention : Reuss Voigt Hill
#
# Bulk Modulus (GPa) = 35.21718 43.40113 39.30916
# Shear Modulus (GPa) = 24.87395 30.96755 27.92075
#
# Velocity S-wave (km/s) = 3.35031 3.73823 3.54957
# Velocity P-wave (km/s) = 5.55501 6.18204 5.87689
#
# Compressibility (1/GPa) = 0.02839523
#
# Stress axis : x y z
#
# Youngs Moduli (GPa) = 46.80081 84.77223 38.08372
#
# Poissons Ratio (x) = 0.45185 0.27558
# Poissons Ratio (y) = 0.24946 0.11223
# Poissons Ratio (z) = 0.33866 0.24981
#
# Static dielectric constant tensor:
#      x y z
#    x 1.901730 0.013160 0.004080 
#    y 0.013160 1.949290 -0.033840 
#    z 0.004080 -0.033840 1.969850 
# 
# From -- ./inp_files/382029.got.cif
#   From: 2010.05.17/outbox.cif.g08.bks.cpg/sg2_192_cif.got.tgz:382029.got - 2010.06.03 11:33:40.
