data_PCOD9009448
_publ_section_title
;
Structure prediction by ZEFSAII (Michael W. Deem and Ramdas Pophale) SiO2 
 PCOD9009448
Probable space group: P -1
;
_chemical_formula_sum "Si O2"
_cell_formula_units_Z 13
_cell_length_a 12.409552
_cell_length_b 10.647750
_cell_length_c 20.170279
_cell_angle_alpha 27.004972
_cell_angle_beta 26.564367
_cell_angle_gamma 26.804044
_cell_volume 477.399640
_symmetry_space_group_name_H-M "P -1"
_symmetry_group_IT_number 2
_symmetry_cell_setting 'triclinic'
loop_
_space_group_symop_operation_xyz
x,y,z
-x,-y,-z
loop_
_atom_site_type_symbol
_atom_site_label
_atom_site_fract_x
_atom_site_fract_y
_atom_site_fract_z
Si Si1 0.000000 0.000000 0.000000
Si Si2 0.280921 0.934956 0.109289
Si Si3 0.557714 0.503006 0.367293
Si Si4 0.522898 0.800132 0.902620
Si Si5 0.692779 0.580212 0.582011
Si Si6 0.076858 0.663191 0.645178
Si Si7 0.814829 0.042761 0.233804
O O1 0.868180 0.040386 0.128725
O O2 0.689211 0.123254 0.075557
O O3 0.176333 0.768560 0.298421
O O4 0.003064 0.164782 0.113299
O O5 0.446259 0.727843 0.051137
O O6 0.500000 0.000000 0.000000
O O7 0.521350 0.399926 0.364870
O O8 0.350283 0.447076 0.555968
O O9 0.848813 0.338020 0.318949
O O10 0.477055 0.868852 0.239068
O O11 0.839474 0.564219 0.818957
O O12 0.888798 0.694334 0.385394
O O13 0.500367 0.785234 0.651057
O O14 0.000000 0.000000 0.500000
#
# Coordination Sequence:
#
# PCOD9009448 Si02
#       7
#     1   2   2   2   2   2   2
#     4  10  24  48  66  94 144 176 230 280 334 422
#     4  11  23  44  67 102 136 173 231 287 339 413
#     4  10  21  39  68  99 134 174 230 285 338 406
#     4  10  22  43  66  98 136 178 225 282 344 402
#     4  11  24  45  70  99 136 183 227 284 344 411
#     4   9  21  37  61 100 129 172 222 273 344 397
#     4  10  26  46  69  97 137 187 225 281 350 404
#
# _framework density 27.230854999999998
#
# number of rings (size 3 to 8) (size 9 to 14) (size 15 to 20)
#    0.000    1.846    1.538    0.462    8.615    3.077 
#    5.538    2.308    0.000    0.000    0.000    0.000 
#    0.000    0.000    0.000    0.000    0.000    0.000 
#
# Total GULP energy -72454.132291 kJ/mol
# GULP energy per Si atom -5573.394792 kJ/mol
# Density = 2.716888 g / cm^3
# Si number density = 27.230855 Si / 1000 Ang^3
#
#
#
# Elastic Constant Matrix: (Units=GPa)
#
#
# Indices 1 2 3 4 5 6 
#
# 1 246.3484 47.9982 81.4056 15.6258 7.8323 -21.8579
# 2 47.9982 43.9451 20.8542 32.9589 2.9083 -8.3420
# 3 81.4056 20.8542 167.5189 10.6442 15.7072 -2.2047
# 4 15.6258 32.9589 10.6442 47.5274 0.2307 -1.2897
# 5 7.8323 2.9083 15.7072 0.2307 57.8205 3.4035
# 6 -21.8579 -8.3420 -2.2047 -1.2897 3.4035 30.9655
#
#
#
# Elastic Compliance Matrix: (Units=1/GPa)
#
#
# Indices 1 2 3 4 5 6 
#
# 1 0.006497 -0.009241 -0.002292 0.004843 0.000063 0.002128
# 2 -0.009241 0.068168 -0.000859 -0.043753 -0.002371 0.010219
# 3 -0.002292 -0.000859 0.007343 -0.000319 -0.001571 -0.001167
# 4 0.004843 -0.043753 -0.000319 0.049675 0.001817 -0.006522
# 5 0.000063 -0.002371 -0.001571 0.001817 0.017979 -0.002606
# 6 0.002128 0.010219 -0.001167 -0.006522 -0.002606 0.036481
#
#
# Mechanical properties :
#
#
# Convention : Reuss Voigt Hill
#
# Bulk Modulus (GPa) = 17.47535 84.25872 50.86703
# Shear Modulus (GPa) = 21.73913 47.76631 34.75272
#
# Velocity S-wave (km/s) = 2.82853 4.19277 3.57631
# Velocity P-wave (km/s) = 4.13508 7.37893 5.98112
#
# Compressibility (1/GPa) = 0.05722347
#
# Stress axis : x y z
#
# Youngs Moduli (GPa) = 153.91981 14.66972 136.19152
#
# Poissons Ratio (x) = 0.13556 0.31221
# Poissons Ratio (y) = 1.42231 0.11696
# Poissons Ratio (z) = 0.35285 0.01260
#
# Static dielectric constant tensor:
#      x y z
#    x 2.077210 0.007970 -0.078690 
#    y 0.007970 2.107480 0.202140 
#    z -0.078690 0.202140 1.938050 
# 
# From -- ./inp_files/108424.got.cif
#   From: 2010.05.17/outbox.cif.g08.bks.cpg/sg2_55_cif.got.tgz:108424.got - 2010.06.03 11:33:40.
