data_PCOD9009850
_publ_section_title
;
Structure prediction by ZEFSAII (Michael W. Deem and Ramdas Pophale) SiO2 
 PCOD9009850
Probable space group: P -1
;
_chemical_formula_sum "Si O2"
_cell_formula_units_Z 10
_cell_length_a 15.046565
_cell_length_b 5.329837
_cell_length_c 5.170224
_cell_angle_alpha 86.345821
_cell_angle_beta 74.269208
_cell_angle_gamma 99.889254
_cell_volume 390.501649
_symmetry_space_group_name_H-M "P -1"
_symmetry_group_IT_number 2
_symmetry_cell_setting 'triclinic'
loop_
_space_group_symop_operation_xyz
x,y,z
-x,-y,-z
loop_
_atom_site_type_symbol
_atom_site_label
_atom_site_fract_x
_atom_site_fract_y
_atom_site_fract_z
Si Si1 0.153880 0.488161 0.767158
Si Si2 0.610457 0.053372 0.843895
Si Si3 0.432376 0.456683 0.309760
Si Si4 0.764745 0.968949 0.099280
Si Si5 0.087717 0.208473 0.326060
O O1 0.117158 0.415134 0.514984
O O2 0.187684 0.786494 0.784849
O O3 0.078343 0.357117 0.055020
O O4 0.232886 0.311903 0.769038
O O5 0.631865 0.333238 0.686531
O O6 0.668704 0.022025 0.053641
O O7 0.500000 0.000000 0.000000
O O8 0.622225 0.833378 0.649605
O O9 0.500000 0.500000 0.500000
O O10 0.500000 0.500000 0.000000
O O11 0.830587 0.948573 0.796962
O O12 0.000000 0.000000 0.500000
#
# Coordination Sequence:
#
# PCOD9009850 Si02
#       5
#     2   2   2   2   2
#     4  10  24  42  67  97 133 168 215 267 326 384
#     4  10  21  43  63  93 127 173 214 263 315 377
#     4  10  21  40  60  88 118 161 212 260 307 368
#     4  10  24  43  65  98 134 171 217 270 321 384
#     4  10  24  45  69  98 131 170 215 267 326 394
#
# _framework density 25.608090000000001
#
# number of rings (size 3 to 8) (size 9 to 14) (size 15 to 20)
#    1.200    0.800    0.000    2.400    2.800    1.600 
#   21.600    0.000    0.000    0.000    0.000    0.000 
#    0.000    0.000    0.000    0.000    0.000    0.000 
#
# Total GULP energy -55962.842506 kJ/mol
# GULP energy per Si atom -5596.284251 kJ/mol
# Density = 2.554981 g / cm^3
# Si number density = 25.608090 Si / 1000 Ang^3
#
#
#
# Elastic Constant Matrix: (Units=GPa)
#
#
# Indices 1 2 3 4 5 6 
#
# 1 68.2166 12.0827 23.5294 -11.3296 -5.5716 8.3370
# 2 12.0827 196.2301 54.1375 26.0355 4.2404 -5.7823
# 3 23.5294 54.1375 177.1837 18.9039 5.6640 1.9234
# 4 -11.3296 26.0355 18.9039 54.5431 10.3599 9.8225
# 5 -5.5716 4.2404 5.6640 10.3599 34.5075 -4.1759
# 6 8.3370 -5.7823 1.9234 9.8225 -4.1759 25.8904
#
#
#
# Elastic Compliance Matrix: (Units=1/GPa)
#
#
# Indices 1 2 3 4 5 6 
#
# 1 0.018028 -0.001567 -0.002566 0.006824 0.000449 -0.008481
# 2 -0.001567 0.006117 -0.001344 -0.003526 0.000688 0.003420
# 3 -0.002566 -0.001344 0.006642 -0.002225 -0.000576 0.000784
# 4 0.006824 -0.003526 -0.002225 0.026178 -0.007651 -0.013985
# 5 0.000449 0.000688 -0.000576 -0.007651 0.032348 0.008172
# 6 -0.008481 0.003420 0.000784 -0.013985 0.008172 0.048685
#
#
# Mechanical properties :
#
#
# Convention : Reuss Voigt Hill
#
# Bulk Modulus (GPa) = 50.41727 69.01440 59.71584
# Shear Modulus (GPa) = 32.14129 46.44693 39.29411
#
# Velocity S-wave (km/s) = 3.54661 4.26345 3.92144
# Velocity P-wave (km/s) = 6.04169 7.15854 6.62370
#
# Compressibility (1/GPa) = 0.01983447
#
# Stress axis : x y z
#
# Youngs Moduli (GPa) = 55.46828 163.47745 150.54591
#
# Poissons Ratio (x) = 0.25622 0.38624
# Poissons Ratio (y) = 0.08694 0.20230
# Poissons Ratio (z) = 0.14231 0.21968
#
# Static dielectric constant tensor:
#      x y z
#    x 2.018070 -0.077520 -0.059340 
#    y -0.077520 2.098870 0.022750 
#    z -0.059340 0.022750 1.976520 
# 
# From -- ./inp_files/2787.got.cif
#   From: 2010.05.17/outbox.cif.g08.bks.cpg/sg2_2_cif.got.tgz:2787.got - 2010.06.03 11:33:40.
