data_PCOD9009249
_publ_section_title
;
Structure prediction by ZEFSAII (Michael W. Deem and Ramdas Pophale) SiO2 
 PCOD9009249
Probable space group: P -1
;
_chemical_formula_sum "Si O2"
_cell_formula_units_Z 14
_cell_length_a 18.157252
_cell_length_b 8.866583
_cell_length_c 9.659353
_cell_angle_alpha 31.418075
_cell_angle_beta 121.976843
_cell_angle_gamma 121.626758
_cell_volume 678.336944
_symmetry_space_group_name_H-M "P -1"
_symmetry_group_IT_number 2
_symmetry_cell_setting 'triclinic'
loop_
_space_group_symop_operation_xyz
x,y,z
-x,-y,-z
loop_
_atom_site_type_symbol
_atom_site_label
_atom_site_fract_x
_atom_site_fract_y
_atom_site_fract_z
Si Si1 0.765435 0.308846 0.683209
Si Si2 0.492479 0.662776 0.218133
Si Si3 0.783699 0.015562 0.634439
Si Si4 0.673149 0.445444 0.062909
Si Si5 0.345492 0.268800 0.881502
Si Si6 0.975674 0.267406 0.535811
Si Si7 0.045425 0.670613 0.041255
O O1 0.790349 0.169366 0.671598
O O2 0.732035 0.604717 0.374592
O O3 0.851651 0.350258 0.829641
O O4 0.686648 0.075868 0.853359
O O5 0.500000 0.500000 0.500000
O O6 0.402645 0.575265 0.110527
O O7 0.570024 0.644716 0.198675
O O8 0.500000 0.000000 0.000000
O O9 0.876232 0.103932 0.583003
O O10 0.754453 0.674943 0.904402
O O11 0.707916 0.146817 0.372303
O O12 0.643920 0.578432 0.075613
O O13 0.000000 0.500000 0.500000
O O14 0.033947 0.009300 0.781694
O O15 0.993436 0.481545 0.258060
O O16 0.000000 0.500000 0.000000
#
# Coordination Sequence:
#
# PCOD9009249 Si02
#       7
#     2   2   2   2   2   2   2
#     4  10  21  40  67  92 127 165 220 266 313 383
#     4  12  25  44  64  96 133 161 204 263 334 391
#     4  10  21  39  67  98 121 164 225 272 309 365
#     4  10  22  42  66  93 126 164 215 263 310 394
#     4  10  22  42  68  91 118 173 214 258 317 383
#     4  12  24  42  71  95 132 178 226 272 326 383
#     4  12  26  44  62  99 139 177 219 271 333 393
#
# _framework density 20.638711000000001
#
# number of rings (size 3 to 8) (size 9 to 14) (size 15 to 20)
#    0.000    1.143    1.429    4.714    4.000    0.000 
#   15.429    5.714    0.000    0.000    0.000    0.000 
#    0.000    0.000    0.000    0.000    0.000    0.000 
#
# Total GULP energy -78226.245057 kJ/mol
# GULP energy per Si atom -5587.588933 kJ/mol
# Density = 2.059174 g / cm^3
# Si number density = 20.638711 Si / 1000 Ang^3
#
#
#
# Elastic Constant Matrix: (Units=GPa)
#
#
# Indices 1 2 3 4 5 6 
#
# 1 47.1245 17.2075 10.0289 6.8411 -16.0320 8.2464
# 2 17.2075 101.9819 38.5679 24.8953 7.4499 -0.5221
# 3 10.0289 38.5679 135.9630 3.1333 -16.0768 -11.4162
# 4 6.8411 24.8953 3.1333 40.9084 2.4386 2.6500
# 5 -16.0320 7.4499 -16.0768 2.4386 41.5340 1.6062
# 6 8.2464 -0.5221 -11.4162 2.6500 1.6062 23.8606
#
#
#
# Elastic Compliance Matrix: (Units=1/GPa)
#
#
# Indices 1 2 3 4 5 6 
#
# 1 0.029938 -0.005699 0.000062 -0.001603 0.013127 -0.011148
# 2 -0.005699 0.014568 -0.004128 -0.007336 -0.006040 0.001535
# 3 0.000062 -0.004128 0.009311 0.001288 0.004141 0.003921
# 4 -0.001603 -0.007336 0.001288 0.029248 -0.000436 -0.002209
# 5 0.013127 -0.006040 0.004141 -0.000436 0.032041 -0.004796
# 6 -0.011148 0.001535 0.003921 -0.002209 -0.004796 0.048241
#
#
# Mechanical properties :
#
#
# Convention : Reuss Voigt Hill
#
# Bulk Modulus (GPa) = 29.16759 46.29755 37.73257
# Shear Modulus (GPa) = 25.73245 35.87828 30.80537
#
# Velocity S-wave (km/s) = 3.53484 4.17393 3.86761
# Velocity P-wave (km/s) = 5.55187 6.76092 6.18601
#
# Compressibility (1/GPa) = 0.03428463
#
# Stress axis : x y z
#
# Youngs Moduli (GPa) = 33.40247 68.64128 107.40329
#
# Poissons Ratio (x) = 0.39121 -0.00662
# Poissons Ratio (y) = 0.19037 0.44341
# Poissons Ratio (z) = -0.00206 0.28338
#
# Static dielectric constant tensor:
#      x y z
#    x 1.764040 -0.037910 -0.045690 
#    y -0.037910 1.816250 0.148690 
#    z -0.045690 0.148690 1.867520 
# 
# From -- ./inp_files/98137.got.cif
#   From: 2010.05.17/outbox.cif.g08.bks.cpg/sg2_50_cif.got.tgz:98137.got - 2010.06.03 11:33:40.
