data_PCOD9009061
_publ_section_title
;
Structure prediction by ZEFSAII (Michael W. Deem and Ramdas Pophale) SiO2 
 PCOD9009061
Probable space group: P -1
;
_chemical_formula_sum "Si O2"
_cell_formula_units_Z 14
_cell_length_a 15.844160
_cell_length_b 4.938618
_cell_length_c 11.657047
_cell_angle_alpha 107.235986
_cell_angle_beta 141.211925
_cell_angle_gamma 69.263765
_cell_volume 534.067582
_symmetry_space_group_name_H-M "P -1"
_symmetry_group_IT_number 2
_symmetry_cell_setting 'triclinic'
loop_
_space_group_symop_operation_xyz
x,y,z
-x,-y,-z
loop_
_atom_site_type_symbol
_atom_site_label
_atom_site_fract_x
_atom_site_fract_y
_atom_site_fract_z
Si Si1 0.552276 0.370106 0.398356
Si Si2 0.500000 0.000000 0.500000
Si Si3 0.035809 0.321992 0.341162
Si Si4 0.000000 0.000000 0.500000
Si Si5 0.830696 0.560274 0.711938
Si Si6 0.117720 0.093762 0.982667
Si Si7 0.539609 0.676770 0.958783
Si Si8 0.802146 0.824088 0.167121
O O1 0.465712 0.684363 0.384545
O O2 0.707679 0.406400 0.590268
O O3 0.536152 0.350036 0.243355
O O4 0.514806 0.103759 0.394176
O O5 0.165518 0.331287 0.400651
O O6 0.963477 0.651380 0.342510
O O7 0.050073 0.120870 0.439385
O O8 0.929330 0.208650 0.125927
O O9 0.830182 0.106155 0.293717
O O10 0.973770 0.330376 0.851458
O O11 0.817551 0.829413 0.820464
O O12 0.209224 0.137413 0.975697
O O13 0.500000 0.500000 0.000000
O O14 0.698711 0.648612 0.086732
O O15 0.500000 0.000000 0.000000
#
# Coordination Sequence:
#
# PCOD9009061 Si02
#       8
#     2   1   2   1   2   2   2   2
#     4  11  26  49  74 107 142 195 245 305 370 434
#     4  10  26  48  74 108 138 192 248 298 364 442
#     4  10  21  39  66  99 135 179 227 293 363 433
#     4  10  22  40  66  92 130 180 228 288 350 422
#     4  10  22  39  67 101 137 175 226 297 361 433
#     4   9  21  40  63 102 133 173 222 285 371 422
#     4  12  30  49  73 105 146 201 253 305 358 437
#     4  10  24  42  67  95 134 179 236 293 359 432
#
# _framework density 26.213913000000002
#
# number of rings (size 3 to 8) (size 9 to 14) (size 15 to 20)
#    0.000    1.714    0.000    1.714   12.000    4.571 
#    0.000    0.000    0.000    0.000    0.000    0.000 
#    0.000    0.000    0.000    0.000    0.000    0.000 
#
# Total GULP energy -77978.630557 kJ/mol
# GULP energy per Si atom -5569.902183 kJ/mol
# Density = 2.615425 g / cm^3
# Si number density = 26.213913 Si / 1000 Ang^3
#
#
#
# Elastic Constant Matrix: (Units=GPa)
#
#
# Indices 1 2 3 4 5 6 
#
# 1 177.2868 60.5147 60.7698 1.9568 -3.4059 56.8633
# 2 60.5147 130.2606 24.7282 17.9756 -0.5346 30.9664
# 3 60.7698 24.7282 105.1589 14.9780 -11.1918 11.5448
# 4 1.9568 17.9756 14.9780 25.8653 -0.7610 -3.6801
# 5 -3.4059 -0.5346 -11.1918 -0.7610 48.1717 12.2632
# 6 56.8633 30.9664 11.5448 -3.6801 12.2632 53.8251
#
#
#
# Elastic Compliance Matrix: (Units=1/GPa)
#
#
# Indices 1 2 3 4 5 6 
#
# 1 0.011338 -0.002253 -0.005021 0.002265 0.002178 -0.009946
# 2 -0.002253 0.010945 0.000598 -0.008443 0.001215 -0.004899
# 3 -0.005021 0.000598 0.013508 -0.007646 0.002417 0.000989
# 4 0.002265 -0.008443 -0.007646 0.049864 -0.003010 0.008200
# 5 0.002178 0.001215 0.002417 -0.003010 0.023767 -0.009139
# 6 -0.009946 -0.004899 0.000989 0.008200 -0.009139 0.034335
#
#
# Mechanical properties :
#
#
# Convention : Reuss Voigt Hill
#
# Bulk Modulus (GPa) = 44.56621 78.30352 61.43487
# Shear Modulus (GPa) = 30.37892 43.35198 36.86545
#
# Velocity S-wave (km/s) = 3.40793 4.07108 3.75418
# Velocity P-wave (km/s) = 5.70291 7.21346 6.50220
#
# Compressibility (1/GPa) = 0.02243852
#
# Stress axis : x y z
#
# Youngs Moduli (GPa) = 88.20280 91.36721 74.03049
#
# Poissons Ratio (x) = 0.20586 0.37170
# Poissons Ratio (y) = 0.19873 -0.04428
# Poissons Ratio (z) = 0.44285 -0.05464
#
# Static dielectric constant tensor:
#      x y z
#    x 1.730590 -0.572750 -0.334190 
#    y -0.572750 1.785990 -0.331240 
#    z -0.334190 -0.331240 1.887250 
# 
# From -- ./inp_files/363180.got.cif
#   From: 2010.05.17/outbox.cif.g08.bks.cpg/sg2_182_cif.got.tgz:363180.got - 2010.06.03 11:33:40.
