data_PCOD9009028
_publ_section_title
;
Structure prediction by ZEFSAII (Michael W. Deem and Ramdas Pophale) SiO2 
 PCOD9009028
Probable space group: P -1
;
_chemical_formula_sum "Si O2"
_cell_formula_units_Z 16
_cell_length_a 11.253450
_cell_length_b 20.403644
_cell_length_c 8.574414
_cell_angle_alpha 140.296577
_cell_angle_beta 133.471168
_cell_angle_gamma 32.982014
_cell_volume 679.492968
_symmetry_space_group_name_H-M "P -1"
_symmetry_group_IT_number 2
_symmetry_cell_setting 'triclinic'
loop_
_space_group_symop_operation_xyz
x,y,z
-x,-y,-z
loop_
_atom_site_type_symbol
_atom_site_label
_atom_site_fract_x
_atom_site_fract_y
_atom_site_fract_z
Si Si1 0.834789 0.335005 0.438660
Si Si2 0.719308 0.935676 0.996594
Si Si3 0.690183 0.186620 0.146421
Si Si4 0.661395 0.637929 0.331075
Si Si5 0.269027 0.065711 0.346178
Si Si6 0.220947 0.862619 0.528484
Si Si7 0.037208 0.647616 0.758618
Si Si8 0.257175 0.419232 0.060571
O O1 0.741578 0.258599 0.205600
O O2 0.862258 0.371867 0.357720
O O3 0.717533 0.469786 0.681887
O O4 0.071758 0.213436 0.508788
O O5 0.694275 0.065680 0.195416
O O6 0.941084 0.794804 0.010776
O O7 0.500000 0.000000 0.000000
O O8 0.727222 0.894328 0.753109
O O9 0.788436 0.187070 0.401482
O O10 0.423461 0.294545 0.102885
O O11 0.768753 0.041928 0.890162
O O12 0.413065 0.745466 0.371347
O O13 0.780708 0.484422 0.215708
O O14 0.823151 0.661629 0.582550
O O15 0.672926 0.639505 0.158144
O O16 0.500000 0.000000 0.500000
O O17 0.000000 0.000000 0.500000
O O18 0.000000 0.500000 0.000000
#
# Coordination Sequence:
#
# PCOD9009028 Si02
#       8
#     2   2   2   2   2   2   2   2
#     4  11  23  45  65  98 144 186 231 289 353 420
#     4  10  21  39  66  97 133 175 233 288 347 412
#     4  11  26  45  68 102 143 187 232 294 353 426
#     4  11  24  42  71 101 138 180 241 295 347 419
#     4  10  23  40  67 100 133 178 233 288 347 414
#     4  11  26  47  70 101 142 190 233 291 359 427
#     4  10  22  42  69 100 136 183 234 294 354 413
#     4  12  25  42  71 105 138 184 241 291 353 424
#
# _framework density 23.546969000000001
#
# number of rings (size 3 to 8) (size 9 to 14) (size 15 to 20)
#    0.000    1.250    2.500    2.250    3.500    7.000 
#    0.000    1.875    0.000    0.000    0.000    0.000 
#    0.000    0.000    0.000    0.000    0.000    0.000 
#
# Total GULP energy -89241.879295 kJ/mol
# GULP energy per Si atom -5577.617456 kJ/mol
# Density = 2.349338 g / cm^3
# Si number density = 23.546969 Si / 1000 Ang^3
#
#
#
# Elastic Constant Matrix: (Units=GPa)
#
#
# Indices 1 2 3 4 5 6 
#
# 1 69.6261 16.0762 -5.8536 -0.3265 -4.6897 6.1759
# 2 16.0762 151.8719 13.9149 13.2712 -17.5974 -0.8400
# 3 -5.8536 13.9149 47.8827 22.6008 -10.4819 5.4693
# 4 -0.3265 13.2712 22.6008 47.7183 -1.8183 0.1771
# 5 -4.6897 -17.5974 -10.4819 -1.8183 28.1882 4.8179
# 6 6.1759 -0.8400 5.4693 0.1771 4.8179 28.1170
#
#
#
# Elastic Compliance Matrix: (Units=1/GPa)
#
#
# Indices 1 2 3 4 5 6 
#
# 1 0.015821 -0.001511 0.004552 -0.001450 0.004161 -0.005110
# 2 -0.001511 0.007412 -0.000719 -0.001579 0.004004 0.000017
# 3 0.004552 -0.000719 0.032500 -0.014629 0.013072 -0.009491
# 4 -0.001450 -0.001579 -0.014629 0.028089 -0.005519 0.003886
# 5 0.004161 0.004004 0.013072 -0.005519 0.045057 -0.011023
# 6 -0.005110 0.000017 -0.009491 0.003886 -0.011023 0.040399
#
#
# Mechanical properties :
#
#
# Convention : Reuss Voigt Hill
#
# Bulk Modulus (GPa) = 16.56253 35.29510 25.92882
# Shear Modulus (GPa) = 27.06205 37.15424 32.10814
#
# Velocity S-wave (km/s) = 3.39378 3.97656 3.69667
# Velocity P-wave (km/s) = 4.73351 6.00881 5.40888
#
# Compressibility (1/GPa) = 0.06037725
#
# Stress axis : x y z
#
# Youngs Moduli (GPa) = 63.20804 134.91057 30.76890
#
# Poissons Ratio (x) = 0.20387 -0.14007
# Poissons Ratio (y) = 0.09552 0.02213
# Poissons Ratio (z) = -0.28773 0.09702
#
# Static dielectric constant tensor:
#      x y z
#    x 1.775910 -0.205930 -0.012640 
#    y -0.205930 1.799010 0.021670 
#    z -0.012640 0.021670 1.972610 
# 
# From -- ./inp_files/188653.got.cif
#   From: 2010.05.17/outbox.cif.g08.bks.cpg/sg2_95_cif.got.tgz:188653.got - 2010.06.03 11:33:40.
