data_PCOD9009123
_publ_section_title
;
Structure prediction by ZEFSAII (Michael W. Deem and Ramdas Pophale) SiO2 
 PCOD9009123
Probable space group: P -1
;
_chemical_formula_sum "Si O2"
_cell_formula_units_Z 14
_cell_length_a 10.192983
_cell_length_b 9.602832
_cell_length_c 9.287131
_cell_angle_alpha 78.030692
_cell_angle_beta 78.126729
_cell_angle_gamma 48.018065
_cell_volume 658.233537
_symmetry_space_group_name_H-M "P -1"
_symmetry_group_IT_number 2
_symmetry_cell_setting 'triclinic'
loop_
_space_group_symop_operation_xyz
x,y,z
-x,-y,-z
loop_
_atom_site_type_symbol
_atom_site_label
_atom_site_fract_x
_atom_site_fract_y
_atom_site_fract_z
Si Si1 0.176992 0.792441 0.483381
Si Si2 0.998229 0.646003 0.061150
Si Si3 0.213351 0.581940 0.777624
Si Si4 0.654601 0.603204 0.770040
Si Si5 0.150621 0.499526 0.515475
Si Si6 0.620025 0.031408 0.055812
Si Si7 0.398870 0.694911 0.186465
O O1 0.249290 0.693991 0.643912
O O2 0.110435 0.692007 0.447286
O O3 0.321243 0.757203 0.352356
O O4 0.000000 0.000000 0.500000
O O5 0.072622 0.702585 0.908536
O O6 0.150987 0.521073 0.172778
O O7 0.801144 0.829777 0.111305
O O8 0.000000 0.500000 0.000000
O O9 0.165777 0.497647 0.684787
O O10 0.395020 0.410133 0.844157
O O11 0.675630 0.640404 0.591396
O O12 0.612478 0.463357 0.821141
O O13 0.509809 0.804186 0.834391
O O14 0.000000 0.500000 0.500000
O O15 0.686405 0.121343 0.927349
O O16 0.500000 0.000000 0.000000
#
# Coordination Sequence:
#
# PCOD9009123 Si02
#       7
#     2   2   2   2   2   2   2
#     4   9  20  36  61  91 122 169 214 258 317 385
#     4  12  23  42  67  94 131 168 218 265 328 381
#     4  10  21  39  67  87 126 178 206 264 327 373
#     4  11  24  43  64  97 135 167 213 277 315 383
#     4   9  21  38  64  90 128 170 210 264 324 375
#     4  12  25  41  69  96 127 176 215 264 332 391
#     4  11  22  43  62  95 134 166 224 266 323 384
#
# _framework density 21.269048000000002
#
# number of rings (size 3 to 8) (size 9 to 14) (size 15 to 20)
#    0.857    0.571    2.857    2.571    0.000    0.571 
#    5.143    0.000    0.000    3.429    0.000    0.000 
#    0.000    0.000    0.000    0.000    0.000    0.000 
#
# Total GULP energy -77989.949828 kJ/mol
# GULP energy per Si atom -5570.710702 kJ/mol
# Density = 2.122064 g / cm^3
# Si number density = 21.269048 Si / 1000 Ang^3
#
#
#
# Elastic Constant Matrix: (Units=GPa)
#
#
# Indices 1 2 3 4 5 6 
#
# 1 70.8219 12.0321 -10.9009 8.3114 3.9995 -6.6600
# 2 12.0321 132.7574 24.9925 19.1444 -4.2966 -24.5215
# 3 -10.9009 24.9925 70.6793 20.1652 -14.6912 -6.2508
# 4 8.3114 19.1444 20.1652 30.6868 -4.2124 -2.1599
# 5 3.9995 -4.2966 -14.6912 -4.2124 33.8379 -4.1709
# 6 -6.6600 -24.5215 -6.2508 -2.1599 -4.1709 33.3744
#
#
#
# Elastic Compliance Matrix: (Units=1/GPa)
#
#
# Indices 1 2 3 4 5 6 
#
# 1 0.016149 -0.000848 0.004967 -0.006943 -0.000350 0.003037
# 2 -0.000848 0.009758 -0.001609 -0.004214 0.000923 0.006542
# 3 0.004967 -0.001609 0.020988 -0.012879 0.007187 0.003805
# 4 -0.006943 -0.004214 -0.012879 0.045257 -0.000163 -0.003985
# 5 -0.000350 0.000923 0.007187 -0.000163 0.033568 0.006139
# 6 0.003037 0.006542 0.003805 -0.003985 0.006139 0.036597
#
#
# Mechanical properties :
#
#
# Convention : Reuss Voigt Hill
#
# Bulk Modulus (GPa) = 19.26171 36.27842 27.77006
# Shear Modulus (GPa) = 28.63666 36.12213 32.37939
#
# Velocity S-wave (km/s) = 3.67331 4.12557 3.90599
# Velocity P-wave (km/s) = 5.20258 6.30775 5.78163
#
# Compressibility (1/GPa) = 0.05191648
#
# Stress axis : x y z
#
# Youngs Moduli (GPa) = 61.92442 102.47931 47.64577
#
# Poissons Ratio (x) = 0.08688 -0.23667
# Poissons Ratio (y) = 0.05250 0.07665
# Poissons Ratio (z) = -0.30759 0.16486
#
# Static dielectric constant tensor:
#      x y z
#    x 1.705960 0.129630 -0.089840 
#    y 0.129630 1.650690 0.082190 
#    z -0.089840 0.082190 1.894580 
# 
# From -- ./inp_files/381945.got.cif
#   From: 2010.05.17/outbox.cif.g08.bks.cpg/sg2_191_cif.got.tgz:381945.got - 2010.06.03 11:33:40.
