data_PCOD9009228
_publ_section_title
;
Structure prediction by ZEFSAII (Michael W. Deem and Ramdas Pophale) SiO2 
 PCOD9009228
Probable space group: P -1
;
_chemical_formula_sum "Si O2"
_cell_formula_units_Z 16
_cell_length_a 22.295776
_cell_length_b 9.008749
_cell_length_c 10.717057
_cell_angle_alpha 119.319305
_cell_angle_beta 149.588626
_cell_angle_gamma 48.361306
_cell_volume 794.348376
_symmetry_space_group_name_H-M "P -1"
_symmetry_group_IT_number 2
_symmetry_cell_setting 'triclinic'
loop_
_space_group_symop_operation_xyz
x,y,z
-x,-y,-z
loop_
_atom_site_type_symbol
_atom_site_label
_atom_site_fract_x
_atom_site_fract_y
_atom_site_fract_z
Si Si1 0.045179 0.977539 0.213364
Si Si2 0.079125 0.520532 0.448560
Si Si3 0.340378 0.159626 0.125524
Si Si4 0.647107 0.578532 0.243797
Si Si5 0.047192 0.280564 0.944237
Si Si6 0.654916 0.860768 0.573889
Si Si7 0.322848 0.836774 0.795879
Si Si8 0.904666 0.393921 0.204890
O O1 0.194618 0.940348 0.509576
O O2 0.047495 0.788490 0.195784
O O3 0.915125 0.185371 0.124709
O O4 0.000000 0.000000 0.000000
O O5 0.238292 0.426414 0.646030
O O6 0.057521 0.605320 0.583419
O O7 0.979534 0.691781 0.240127
O O8 0.019000 0.377381 0.302256
O O9 0.336114 0.162128 0.269536
O O10 0.505492 0.058337 0.349266
O O11 0.236902 0.388732 0.986547
O O12 0.303902 0.006777 0.931160
O O13 0.663913 0.671292 0.441895
O O14 0.675608 0.353528 0.216683
O O15 0.480333 0.731260 0.975552
O O16 0.209306 0.135137 0.215038
O O17 0.000000 0.500000 0.000000
#
# Coordination Sequence:
#
# PCOD9009228 Si02
#       8
#     2   2   2   2   2   2   2   2
#     4  12  27  42  65  95 133 169 214 278 333 387
#     4  11  21  40  66  91 129 171 212 270 318 389
#     4  10  22  41  64  93 137 169 216 265 329 386
#     4  10  21  39  69  96 129 165 224 271 317 386
#     4  12  22  40  69  94 125 170 223 266 318 396
#     4  10  21  39  67  97 125 179 216 261 323 392
#     4  10  21  41  64 101 125 171 218 271 323 384
#     4  11  25  42  61  93 132 170 215 274 330 378
#
# _framework density 20.142296999999999
#
# number of rings (size 3 to 8) (size 9 to 14) (size 15 to 20)
#    0.000    1.250    3.750    2.250    1.750    1.500 
#    2.250    2.500    0.000    0.000    0.000    0.000 
#    0.000    0.000    0.000    0.000    0.000    0.000 
#
# Total GULP energy -89196.515929 kJ/mol
# GULP energy per Si atom -5574.782246 kJ/mol
# Density = 2.009645 g / cm^3
# Si number density = 20.142297 Si / 1000 Ang^3
#
#
#
# Elastic Constant Matrix: (Units=GPa)
#
#
# Indices 1 2 3 4 5 6 
#
# 1 78.8111 20.7481 50.2761 -4.7082 1.6729 -4.2015
# 2 20.7481 108.6608 51.5942 -14.6249 -3.7243 -11.3110
# 3 50.2761 51.5942 160.3915 -13.9509 2.1221 -5.6123
# 4 -4.7082 -14.6249 -13.9509 28.2804 -6.0075 -3.7807
# 5 1.6729 -3.7243 2.1221 -6.0075 44.4775 -1.8663
# 6 -4.2015 -11.3110 -5.6123 -3.7807 -1.8663 22.0632
#
#
#
# Elastic Compliance Matrix: (Units=1/GPa)
#
#
# Indices 1 2 3 4 5 6 
#
# 1 0.015971 -0.000643 -0.004732 0.000118 -0.000350 0.001499
# 2 -0.000643 0.012379 -0.003038 0.006186 0.002323 0.006707
# 3 -0.004732 -0.003038 0.008876 0.001987 -0.000226 0.000120
# 4 0.000118 0.006186 0.001987 0.042514 0.006646 0.011546
# 5 -0.000350 0.002323 -0.000226 0.006646 0.023776 0.004217
# 6 0.001499 0.006707 0.000120 0.011546 0.004217 0.051414
#
#
# Mechanical properties :
#
#
# Convention : Reuss Voigt Hill
#
# Bulk Modulus (GPa) = 49.02310 65.90001 57.46156
# Shear Modulus (GPa) = 28.00241 33.98056 30.99148
#
# Velocity S-wave (km/s) = 3.73262 4.11180 3.92679
# Velocity P-wave (km/s) = 6.55499 7.43846 7.01066
#
# Compressibility (1/GPa) = 0.02039855
#
# Stress axis : x y z
#
# Youngs Moduli (GPa) = 62.61381 80.78355 112.66932
#
# Poissons Ratio (x) = 0.05192 0.53316
# Poissons Ratio (y) = 0.04024 0.34235
# Poissons Ratio (z) = 0.29630 0.24546
#
# Static dielectric constant tensor:
#      x y z
#    x 1.709330 -0.030680 0.013120 
#    y -0.030680 1.773420 0.044820 
#    z 0.013120 0.044820 1.797330 
# 
# From -- ./inp_files/473977.got.cif
#   From: 2010.05.17/outbox.cif.g08.bks.cpg/sg2_237_cif.got.tgz:473977.got - 2010.06.03 11:33:40.
