data_PCOD9009313
_publ_section_title
;
Structure prediction by ZEFSAII (Michael W. Deem and Ramdas Pophale) SiO2 
 PCOD9009313
Probable space group: P -1
;
_chemical_formula_sum "Si O2"
_cell_formula_units_Z 14
_cell_length_a 5.337243
_cell_length_b 19.848501
_cell_length_c 7.779710
_cell_angle_alpha 116.697073
_cell_angle_beta 72.753025
_cell_angle_gamma 71.151550
_cell_volume 594.194856
_symmetry_space_group_name_H-M "P -1"
_symmetry_group_IT_number 2
_symmetry_cell_setting 'triclinic'
loop_
_space_group_symop_operation_xyz
x,y,z
-x,-y,-z
loop_
_atom_site_type_symbol
_atom_site_label
_atom_site_fract_x
_atom_site_fract_y
_atom_site_fract_z
Si Si1 0.354167 0.104961 0.599957
Si Si2 0.709762 0.443205 0.097882
Si Si3 0.715140 0.899550 0.797203
Si Si4 0.858301 0.279876 0.118670
Si Si5 0.385146 0.793888 0.490761
Si Si6 0.610906 0.603228 0.175482
Si Si7 0.323012 0.249621 0.277240
O O1 0.255636 0.111094 0.427339
O O2 0.087706 0.184030 0.864509
O O3 0.585746 0.141913 0.574244
O O4 0.500000 0.000000 0.500000
O O5 0.468813 0.436999 0.016834
O O6 0.795773 0.366646 0.129435
O O7 0.044048 0.416008 0.921361
O O8 0.575709 0.548689 0.277231
O O9 0.550599 0.855143 0.875054
O O10 0.070192 0.853931 0.730863
O O11 0.500000 0.000000 0.000000
O O12 0.019327 0.285381 0.266635
O O13 0.539489 0.283231 0.209775
O O14 0.384227 0.709447 0.323825
O O15 0.674105 0.744700 0.509685
#
# Coordination Sequence:
#
# PCOD9009313 Si02
#       7
#     2   2   2   2   2   2   2
#     4  11  26  39  68 101 128 171 226 285 320 395
#     4  10  21  39  68 103 134 168 219 283 331 387
#     4  11  25  46  67  93 134 186 221 268 339 402
#     4  12  23  44  66 101 134 171 226 276 333 377
#     4  11  24  45  68  95 137 181 223 268 340 403
#     4  10  21  40  68 101 133 173 220 272 338 396
#     4  11  26  42  67  92 140 181 211 273 333 403
#
# _framework density 23.561292999999999
#
# number of rings (size 3 to 8) (size 9 to 14) (size 15 to 20)
#    0.000    1.143    2.857    2.571    6.000    1.714 
#    0.000    1.429    0.000    0.000    0.000    0.000 
#    0.000    0.000    0.000    0.000    0.000    0.000 
#
# Total GULP energy -77946.229362 kJ/mol
# GULP energy per Si atom -5567.587812 kJ/mol
# Density = 2.350767 g / cm^3
# Si number density = 23.561293 Si / 1000 Ang^3
#
#
#
# Elastic Constant Matrix: (Units=GPa)
#
#
# Indices 1 2 3 4 5 6 
#
# 1 131.9558 49.0644 34.8883 10.1776 -1.0012 8.2306
# 2 49.0644 227.5608 34.8460 32.6730 -0.4560 32.8496
# 3 34.8883 34.8460 62.1268 18.1612 -11.0257 9.7378
# 4 10.1776 32.6730 18.1612 33.6743 -4.7880 11.9453
# 5 -1.0012 -0.4560 -11.0257 -4.7880 20.3932 -4.4003
# 6 8.2306 32.8496 9.7378 11.9453 -4.4003 44.8779
#
#
#
# Elastic Compliance Matrix: (Units=1/GPa)
#
#
# Indices 1 2 3 4 5 6 
#
# 1 0.009359 -0.001366 -0.005148 0.000996 -0.002137 -0.000074
# 2 -0.001366 0.005863 -0.001330 -0.003824 -0.002189 -0.002949
# 3 -0.005148 -0.001330 0.024172 -0.008673 0.010758 0.000036
# 4 0.000996 -0.003824 -0.008673 0.040373 0.003478 -0.005907
# 5 -0.002137 -0.002189 0.010758 0.003478 0.056436 0.004268
# 6 -0.000074 -0.002949 0.000036 -0.005907 0.004268 0.026438
#
#
# Mechanical properties :
#
#
# Convention : Reuss Voigt Hill
#
# Bulk Modulus (GPa) = 42.18372 73.24898 57.71635
# Shear Modulus (GPa) = 26.84843 39.97872 33.41358
#
# Velocity S-wave (km/s) = 3.37933 4.12369 3.76993
# Velocity P-wave (km/s) = 5.75927 7.33684 6.59539
#
# Compressibility (1/GPa) = 0.02370583
#
# Stress axis : x y z
#
# Youngs Moduli (GPa) = 106.84909 170.56222 41.37030
#
# Poissons Ratio (x) = 0.23301 0.21298
# Poissons Ratio (y) = 0.14597 0.05501
# Poissons Ratio (z) = 0.55007 0.22680
#
# Static dielectric constant tensor:
#      x y z
#    x 1.979770 -0.008090 0.035110 
#    y -0.008090 2.021700 -0.007250 
#    z 0.035110 -0.007250 1.958170 
# 
# From -- ./inp_files/35435.got.cif
#   From: 2010.05.17/outbox.cif.g08.bks.cpg/sg2_18_cif.got.tgz:35435.got - 2010.06.03 11:33:40.
