data_PCOD9009722
_publ_section_title
;
Structure prediction by ZEFSAII (Michael W. Deem and Ramdas Pophale) SiO2 
 PCOD9009722
Probable space group: P -1
;
_chemical_formula_sum "Si O2"
_cell_formula_units_Z 12
_cell_length_a 5.319819
_cell_length_b 12.190619
_cell_length_c 9.457656
_cell_angle_alpha 104.324410
_cell_angle_beta 122.484256
_cell_angle_gamma 83.894098
_cell_volume 501.033040
_symmetry_space_group_name_H-M "P -1"
_symmetry_group_IT_number 2
_symmetry_cell_setting 'triclinic'
loop_
_space_group_symop_operation_xyz
x,y,z
-x,-y,-z
loop_
_atom_site_type_symbol
_atom_site_label
_atom_site_fract_x
_atom_site_fract_y
_atom_site_fract_z
Si Si1 0.069632 0.127925 0.364192
Si Si2 0.650287 0.709924 0.272929
Si Si3 0.295474 0.500123 0.182620
Si Si4 0.611266 0.186784 0.050707
Si Si5 0.422619 0.047851 0.185458
Si Si6 0.928863 0.489706 0.311827
O O1 0.784903 0.050655 0.302746
O O2 0.231913 0.187538 0.562848
O O3 0.288180 0.066621 0.304061
O O4 0.902117 0.220188 0.242785
O O5 0.421802 0.629350 0.266831
O O6 0.508316 0.745438 0.094659
O O7 0.903860 0.619758 0.292255
O O8 0.190453 0.444900 0.280203
O O9 0.414008 0.557844 0.815869
O O10 0.000000 0.500000 0.000000
O O11 0.688942 0.066626 0.960708
O O12 0.373032 0.149752 0.089480
O O13 0.000000 0.500000 0.500000
#
# Coordination Sequence:
#
# PCOD9009722 Si02
#       6
#     2   2   2   2   2   2
#     4  10  21  40  57  92 122 165 204 252 304 360
#     4  10  25  38  66  94 123 159 214 254 305 372
#     4  10  23  43  63  92 120 164 207 255 319 373
#     4   9  21  41  59  92 125 164 207 249 304 366
#     4   9  21  40  62  85 130 167 197 251 310 359
#     4  10  23  44  63  89 122 162 206 257 317 373
#
# _framework density 23.950517999999999
#
# number of rings (size 3 to 8) (size 9 to 14) (size 15 to 20)
#    2.000    0.333    0.000    1.500    2.333    4.000 
#    0.000    0.000    0.000    0.000    0.000    0.000 
#    0.000    0.000    0.000    0.000    0.000    0.000 
#
# Total GULP energy -66886.901713 kJ/mol
# GULP energy per Si atom -5573.908476 kJ/mol
# Density = 2.389601 g / cm^3
# Si number density = 23.950518 Si / 1000 Ang^3
#
#
#
# Elastic Constant Matrix: (Units=GPa)
#
#
# Indices 1 2 3 4 5 6 
#
# 1 145.7033 20.8410 34.4724 13.9586 -14.3360 12.6339
# 2 20.8410 31.2610 24.9252 -12.2553 -5.6712 5.5216
# 3 34.4724 24.9252 146.1641 9.7545 -1.0662 7.5280
# 4 13.9586 -12.2553 9.7545 42.3942 3.8470 -0.5780
# 5 -14.3360 -5.6712 -1.0662 3.8470 29.4577 5.3906
# 6 12.6339 5.5216 7.5280 -0.5780 5.3906 22.0853
#
#
#
# Elastic Compliance Matrix: (Units=1/GPa)
#
#
# Indices 1 2 3 4 5 6 
#
# 1 0.009256 -0.006025 -0.000519 -0.005183 0.004908 -0.004945
# 2 -0.006025 0.052214 -0.008266 0.018344 0.005841 -0.007736
# 3 -0.000519 -0.008266 0.008668 -0.004138 -0.000902 -0.000479
# 4 -0.005183 0.018344 -0.004138 0.031895 -0.003580 0.001497
# 5 0.004908 0.005841 -0.000902 -0.003580 0.040443 -0.013925
# 6 -0.004945 -0.007736 -0.000479 0.001497 -0.013925 0.053643
#
#
# Mechanical properties :
#
#
# Convention : Reuss Voigt Hill
#
# Bulk Modulus (GPa) = 24.68086 53.73395 39.20741
# Shear Modulus (GPa) = 20.89913 34.98009 27.93961
#
# Velocity S-wave (km/s) = 2.95718 3.82581 3.41919
# Velocity P-wave (km/s) = 4.68905 6.48073 5.65628
#
# Compressibility (1/GPa) = 0.04051723
#
# Stress axis : x y z
#
# Youngs Moduli (GPa) = 108.03770 19.15211 115.36781
#
# Poissons Ratio (x) = 0.11539 0.05991
# Poissons Ratio (y) = 0.65089 0.95365
# Poissons Ratio (z) = 0.05610 0.15832
#
# Static dielectric constant tensor:
#      x y z
#    x 1.979710 -0.070780 -0.024020 
#    y -0.070780 1.994960 -0.045440 
#    z -0.024020 -0.045440 1.900950 
# 
# From -- ./inp_files/133396.got.cif
#   From: 2010.05.17/outbox.cif.g08.bks.cpg/sg2_67_cif.got.tgz:133396.got - 2010.06.03 11:33:40.
