data_PCOD9009171
_publ_section_title
;
Structure prediction by ZEFSAII (Michael W. Deem and Ramdas Pophale) SiO2 
 PCOD9009171
Probable space group: P -1
;
_chemical_formula_sum "Si O2"
_cell_formula_units_Z 14
_cell_length_a 15.899045
_cell_length_b 8.255192
_cell_length_c 6.466208
_cell_angle_alpha 67.805914
_cell_angle_beta 120.396546
_cell_angle_gamma 102.459227
_cell_volume 677.472193
_symmetry_space_group_name_H-M "P -1"
_symmetry_group_IT_number 2
_symmetry_cell_setting 'triclinic'
loop_
_space_group_symop_operation_xyz
x,y,z
-x,-y,-z
loop_
_atom_site_type_symbol
_atom_site_label
_atom_site_fract_x
_atom_site_fract_y
_atom_site_fract_z
Si Si1 0.273783 0.574126 0.092264
Si Si2 0.413071 0.762915 0.898064
Si Si3 0.109687 0.437967 0.659819
Si Si4 0.106070 0.089988 0.095076
Si Si5 0.289591 0.870662 0.307734
Si Si6 0.620809 0.897772 0.019229
Si Si7 0.207115 0.300688 0.462788
O O1 0.265309 0.737070 0.156941
O O2 0.267825 0.404369 0.311361
O O3 0.371192 0.605181 0.063546
O O4 0.182718 0.557871 0.830825
O O5 0.347202 0.776598 0.605981
O O6 0.395925 0.939752 0.924575
O O7 0.526544 0.769098 0.979001
O O8 0.150788 0.427917 0.484005
O O9 0.000000 0.500000 0.500000
O O10 0.111896 0.245068 0.858038
O O11 0.130039 0.177430 0.304422
O O12 0.191560 0.955909 0.224059
O O13 0.000000 0.000000 0.000000
O O14 0.359905 0.022206 0.221932
O O15 0.717620 0.805339 0.257312
#
# Coordination Sequence:
#
# PCOD9009171 Si02
#       7
#     2   2   2   2   2   2   2
#     4  10  25  40  64  93 130 170 206 260 315 371
#     4  10  21  40  65  97 126 168 210 260 312 378
#     4  11  26  44  64  90 129 172 208 258 318 376
#     4  11  26  39  67  97 122 166 212 263 316 374
#     4  11  21  42  64  96 130 163 212 264 311 375
#     4  10  21  39  67  94 127 168 212 258 319 365
#     4  11  23  45  63  93 133 164 207 266 310 379
#
# _framework density 20.665054999999999
#
# number of rings (size 3 to 8) (size 9 to 14) (size 15 to 20)
#    0.000    1.429    2.857    1.286    6.000    2.286 
#    0.000    2.857    0.000    0.000    0.000    0.000 
#    0.000    0.000    0.000    0.000    0.000    0.000 
#
# Total GULP energy -78277.798250 kJ/mol
# GULP energy per Si atom -5591.271304 kJ/mol
# Density = 2.061802 g / cm^3
# Si number density = 20.665055 Si / 1000 Ang^3
#
#
#
# Elastic Constant Matrix: (Units=GPa)
#
#
# Indices 1 2 3 4 5 6 
#
# 1 89.8262 21.8625 33.6189 13.4890 -7.5758 20.6848
# 2 21.8625 51.2416 25.6044 17.1271 -4.0218 22.8457
# 3 33.6189 25.6044 80.5443 10.5967 -13.3213 9.8406
# 4 13.4890 17.1271 10.5967 28.9534 0.7123 0.6749
# 5 -7.5758 -4.0218 -13.3213 0.7123 30.4273 -0.5603
# 6 20.6848 22.8457 9.8406 0.6749 -0.5603 33.8843
#
#
#
# Elastic Compliance Matrix: (Units=1/GPa)
#
#
# Indices 1 2 3 4 5 6 
#
# 1 0.015834 0.002553 -0.004976 -0.006889 0.002083 -0.009770
# 2 0.002553 0.042337 -0.007696 -0.022850 0.002893 -0.027365
# 3 -0.004976 -0.007696 0.017398 0.000294 0.005414 0.003258
# 4 -0.006889 -0.022850 0.000294 0.050862 -0.005458 0.018423
# 5 0.002083 0.002893 0.005414 -0.005458 0.036189 -0.004087
# 6 -0.009770 -0.027365 0.003258 0.018423 -0.004087 0.052546
#
#
# Mechanical properties :
#
#
# Convention : Reuss Voigt Hill
#
# Bulk Modulus (GPa) = 18.07341 42.64263 30.35802
# Shear Modulus (GPa) = 19.69699 28.02142 23.85920
#
# Velocity S-wave (km/s) = 3.09067 3.68636 3.40158
# Velocity P-wave (km/s) = 4.63694 6.22888 5.49091
#
# Compressibility (1/GPa) = 0.05532989
#
# Stress axis : x y z
#
# Youngs Moduli (GPa) = 63.15688 23.62017 57.47889
#
# Poissons Ratio (x) = -0.06030 0.28601
# Poissons Ratio (y) = -0.16124 0.44236
# Poissons Ratio (z) = 0.31427 0.18178
#
# Static dielectric constant tensor:
#      x y z
#    x 1.717440 0.022110 -0.037390 
#    y 0.022110 1.758670 -0.008690 
#    z -0.037390 -0.008690 1.699840 
# 
# From -- ./inp_files/26725.got.cif
#   From: 2010.05.17/outbox.cif.g08.bks.cpg/sg2_14_cif.got.tgz:26725.got - 2010.06.03 11:33:40.
