data_PCOD9009904
_publ_section_title
;
Structure prediction by ZEFSAII (Michael W. Deem and Ramdas Pophale) SiO2 
 PCOD9009904
Probable space group: P -1
;
_chemical_formula_sum "Si O2"
_cell_formula_units_Z 16
_cell_length_a 9.605005
_cell_length_b 17.230819
_cell_length_c 15.337834
_cell_angle_alpha 142.885795
_cell_angle_beta 36.608489
_cell_angle_gamma 141.772013
_cell_volume 835.501675
_symmetry_space_group_name_H-M "P -1"
_symmetry_group_IT_number 2
_symmetry_cell_setting 'triclinic'
loop_
_space_group_symop_operation_xyz
x,y,z
-x,-y,-z
loop_
_atom_site_type_symbol
_atom_site_label
_atom_site_fract_x
_atom_site_fract_y
_atom_site_fract_z
Si Si1 0.957519 0.873772 0.840722
Si Si2 0.097914 0.453848 0.037206
Si Si3 0.897955 0.323732 0.632826
Si Si4 0.603097 0.733654 0.270234
Si Si5 0.394603 0.643927 0.901962
Si Si6 0.799958 0.034450 0.390881
Si Si7 0.213897 0.656129 0.556901
Si Si8 0.623998 0.493402 0.525664
O O1 0.653814 0.780845 0.902217
O O2 0.074044 0.932973 0.739447
O O3 0.091048 0.771090 0.716192
O O4 0.000000 0.000000 0.000000
O O5 0.023713 0.543148 0.225246
O O6 0.842754 0.347525 0.022515
O O7 0.257532 0.367944 0.910465
O O8 0.278808 0.573371 0.988000
O O9 0.614971 0.292007 0.715145
O O10 0.908507 0.176625 0.521748
O O11 0.098378 0.378576 0.502879
O O12 0.445143 0.698867 0.409010
O O13 0.800876 0.895507 0.309525
O O14 0.462954 0.530324 0.712638
O O15 0.500000 0.000000 0.500000
O O16 0.322779 0.637228 0.580516
O O17 0.000000 0.500000 0.500000
O O18 0.500000 0.500000 0.500000
#
# Coordination Sequence:
#
# PCOD9009904 Si02
#       8
#     2   2   2   2   2   2   2   2
#     4  12  25  42  68  97 131 168 220 272 323 386
#     4  11  24  38  64  95 132 170 214 269 325 381
#     4  11  21  37  66  94 124 169 215 265 320 380
#     4  11  21  38  63  95 131 167 219 264 317 382
#     4  11  23  42  62  92 135 170 209 273 332 375
#     4  10  21  40  60  93 129 168 207 268 322 377
#     4  12  20  41  69  94 124 169 217 272 322 375
#     4  12  22  40  67  95 126 168 214 272 330 381
#
# _framework density 19.150171
#
# number of rings (size 3 to 8) (size 9 to 14) (size 15 to 20)
#    0.000    0.750    8.750    0.375    3.500    1.000 
#    0.000    1.875    0.000    3.000    0.000    0.000 
#    0.000    0.000    0.000    0.000    0.000    0.000 
#
# Total GULP energy -89169.648078 kJ/mol
# GULP energy per Si atom -5573.103005 kJ/mol
# Density = 1.910658 g / cm^3
# Si number density = 19.150171 Si / 1000 Ang^3
#
#
#
# Elastic Constant Matrix: (Units=GPa)
#
#
# Indices 1 2 3 4 5 6 
#
# 1 74.3504 46.0700 28.1055 12.1019 -4.7541 -6.0876
# 2 46.0700 110.7287 44.3253 5.0231 -9.4523 0.2519
# 3 28.1055 44.3253 94.6446 10.7542 -5.2378 -1.2147
# 4 12.1019 5.0231 10.7542 37.5810 3.2202 -3.3501
# 5 -4.7541 -9.4523 -5.2378 3.2202 16.4126 -4.7216
# 6 -6.0876 0.2519 -1.2147 -3.3501 -4.7216 22.7428
#
#
#
# Elastic Compliance Matrix: (Units=1/GPa)
#
#
# Indices 1 2 3 4 5 6 
#
# 1 0.019965 -0.007070 -0.001803 -0.004800 0.003623 0.005371
# 2 -0.007070 0.014026 -0.004399 0.001203 0.004024 -0.001270
# 3 -0.001803 -0.004399 0.013597 -0.002863 0.001923 0.000270
# 4 -0.004800 0.001203 -0.002863 0.029542 -0.006991 0.001449
# 5 0.003623 0.004024 0.001923 -0.006991 0.070490 0.014632
# 6 0.005371 -0.001270 0.000270 0.001449 0.014632 0.048688
#
#
# Mechanical properties :
#
#
# Convention : Reuss Voigt Hill
#
# Bulk Modulus (GPa) = 47.52250 57.41394 52.46822
# Shear Modulus (GPa) = 21.75181 26.09546 23.92363
#
# Velocity S-wave (km/s) = 3.37390 3.69545 3.53833
# Velocity P-wave (km/s) = 6.32828 6.94654 6.64461
#
# Compressibility (1/GPa) = 0.02104266
#
# Stress axis : x y z
#
# Youngs Moduli (GPa) = 50.08779 71.29763 73.54694
#
# Poissons Ratio (x) = 0.50409 0.13258
# Poissons Ratio (y) = 0.35413 0.32357
# Poissons Ratio (z) = 0.09029 0.31367
#
# Static dielectric constant tensor:
#      x y z
#    x 1.777810 -0.010210 -0.032230 
#    y -0.010210 1.690810 0.039380 
#    z -0.032230 0.039380 1.695330 
# 
# From -- ./inp_files/570365.got.cif
#   From: 2010.05.17/outbox.cif.g08.bks.cpg/sg2_286_cif.got.tgz:570365.got - 2010.06.03 11:33:40.
