data_PCOD9009892
_publ_section_title
;
Structure prediction by ZEFSAII (Michael W. Deem and Ramdas Pophale) SiO2 
 PCOD9009892
Probable space group: P -1
;
_chemical_formula_sum "Si O2"
_cell_formula_units_Z 16
_cell_length_a 5.592284
_cell_length_b 18.601199
_cell_length_c 10.800266
_cell_angle_alpha 141.526797
_cell_angle_beta 61.811501
_cell_angle_gamma 101.204646
_cell_volume 583.664585
_symmetry_space_group_name_H-M "P -1"
_symmetry_group_IT_number 2
_symmetry_cell_setting 'triclinic'
loop_
_space_group_symop_operation_xyz
x,y,z
-x,-y,-z
loop_
_atom_site_type_symbol
_atom_site_label
_atom_site_fract_x
_atom_site_fract_y
_atom_site_fract_z
Si Si1 0.266711 0.829871 0.102992
Si Si2 0.257921 0.937669 0.495746
Si Si3 0.081131 0.610422 0.803167
Si Si4 0.075277 0.015667 0.139740
Si Si5 0.636638 0.481713 0.656608
Si Si6 0.599040 0.358109 0.746381
Si Si7 0.400416 0.203761 0.245180
Si Si8 0.890931 0.642451 0.258011
O O1 0.323784 0.831103 0.236556
O O2 0.062054 0.750381 0.013552
O O3 0.572269 0.777625 0.883879
O O4 0.074579 0.972266 0.322045
O O5 0.215682 0.925639 0.635196
O O6 0.500000 0.000000 0.500000
O O7 0.311474 0.552175 0.780959
O O8 0.222099 0.570316 0.579214
O O9 0.801125 0.567349 0.799215
O O10 0.251929 0.110589 0.213411
O O11 0.266751 0.876540 0.934426
O O12 0.000000 0.000000 0.000000
O O13 0.688128 0.374249 0.603260
O O14 0.340784 0.304654 0.720397
O O15 0.847598 0.308151 0.716636
O O16 0.500000 0.500000 0.000000
O O17 0.265710 0.321919 0.521030
O O18 0.000000 0.500000 0.000000
#
# Coordination Sequence:
#
# PCOD9009892 Si02
#       8
#     2   2   2   2   2   2   2   2
#     4  10  22  41  65  93 126 178 224 276 344 405
#     4  10  22  42  64  95 133 169 220 283 344 414
#     4  10  22  38  63  91 122 170 215 273 323 391
#     4  10  22  42  67 100 130 172 225 287 345 405
#     4  10  21  40  60  91 129 163 221 271 320 388
#     4  10  21  40  61  88 131 179 215 271 328 399
#     4  10  22  41  68  95 129 175 227 281 336 412
#     4  10  22  40  63  98 135 178 225 274 341 409
#
# _framework density 27.413003
#
# number of rings (size 3 to 8) (size 9 to 14) (size 15 to 20)
#    0.000    2.000    0.000    2.250    3.500    3.000 
#    9.000    0.000    0.000    0.000    0.000    0.000 
#    0.000    0.000    0.000    0.000    0.000    0.000 
#
# Total GULP energy -89164.419448 kJ/mol
# GULP energy per Si atom -5572.776215 kJ/mol
# Density = 2.735061 g / cm^3
# Si number density = 27.413003 Si / 1000 Ang^3
#
#
#
# Elastic Constant Matrix: (Units=GPa)
#
#
# Indices 1 2 3 4 5 6 
#
# 1 179.7991 16.4087 29.5130 1.7578 27.9420 12.4606
# 2 16.4087 86.5517 43.2426 -18.1351 0.5644 15.0535
# 3 29.5130 43.2426 205.8088 -31.1487 11.8852 3.0675
# 4 1.7578 -18.1351 -31.1487 56.1942 -2.2705 -2.6248
# 5 27.9420 0.5644 11.8852 -2.2705 38.4014 2.1947
# 6 12.4606 15.0535 3.0675 -2.6248 2.1947 25.7287
#
#
#
# Elastic Compliance Matrix: (Units=1/GPa)
#
#
# Indices 1 2 3 4 5 6 
#
# 1 0.006619 -0.000695 -0.000672 -0.001101 -0.004523 -0.002445
# 2 -0.000695 0.014993 -0.002556 0.003141 0.001717 -0.007957
# 3 -0.000672 -0.002556 0.005920 0.002496 -0.001242 0.001476
# 4 -0.001101 0.003141 0.002496 0.020292 0.001161 0.000369
# 5 -0.004523 0.001717 -0.001242 0.001161 0.029822 -0.001091
# 6 -0.002445 -0.007957 0.001476 0.000369 -0.001091 0.044662
#
#
# Mechanical properties :
#
#
# Convention : Reuss Voigt Hill
#
# Bulk Modulus (GPa) = 50.79613 72.27646 61.53630
# Shear Modulus (GPa) = 36.57255 49.59788 43.08521
#
# Velocity S-wave (km/s) = 3.65654 4.25818 3.96878
# Velocity P-wave (km/s) = 6.03301 7.11331 6.59531
#
# Compressibility (1/GPa) = 0.01968654
#
# Stress axis : x y z
#
# Youngs Moduli (GPa) = 151.08866 66.69617 168.92460
#
# Poissons Ratio (x) = 0.04634 0.11353
# Poissons Ratio (y) = 0.10498 0.43172
# Poissons Ratio (z) = 0.10154 0.17046
#
# Static dielectric constant tensor:
#      x y z
#    x 1.964380 0.723260 -0.243950 
#    y 0.723260 0.222370 0.361520 
#    z -0.243950 0.361520 2.099390 
# 
# From -- ./inp_files/371078.got.cif
#   From: 2010.05.17/outbox.cif.g08.bks.cpg/sg2_186_cif.got.tgz:371078.got - 2010.06.03 11:33:40.
