data_PCOD9009498
_publ_section_title
;
Structure prediction by ZEFSAII (Michael W. Deem and Ramdas Pophale) SiO2 
 PCOD9009498
Probable space group: P -1
;
_chemical_formula_sum "Si O2"
_cell_formula_units_Z 16
_cell_length_a 14.425174
_cell_length_b 14.036571
_cell_length_c 9.433282
_cell_angle_alpha 117.026372
_cell_angle_beta 59.205173
_cell_angle_gamma 151.177757
_cell_volume 790.914046
_symmetry_space_group_name_H-M "P -1"
_symmetry_group_IT_number 2
_symmetry_cell_setting 'triclinic'
loop_
_space_group_symop_operation_xyz
x,y,z
-x,-y,-z
loop_
_atom_site_type_symbol
_atom_site_label
_atom_site_fract_x
_atom_site_fract_y
_atom_site_fract_z
Si Si1 0.494883 0.508155 0.679019
Si Si2 0.211485 0.625904 0.459660
Si Si3 0.098072 0.220033 0.949993
Si Si4 0.691037 0.535031 0.783209
Si Si5 0.427881 0.856225 0.179392
Si Si6 0.641488 0.810924 0.965514
Si Si7 0.716019 0.270851 0.200265
Si Si8 0.892371 0.531343 0.002918
O O1 0.500000 0.500000 0.500000
O O2 0.269251 0.308052 0.780531
O O3 0.628255 0.536981 0.686693
O O4 0.576663 0.690960 0.795700
O O5 0.213711 0.501287 0.342692
O O6 0.380365 0.817975 0.357091
O O7 0.258061 0.684960 0.625811
O O8 0.000000 0.500000 0.500000
O O9 0.108488 0.353759 0.987104
O O10 0.164131 0.275037 0.100267
O O11 0.874402 0.996715 0.943665
O O12 0.494930 0.351412 0.910719
O O13 0.509565 0.036712 0.183001
O O14 0.577634 0.881996 0.051452
O O15 0.222806 0.648223 0.128493
O O16 0.765983 0.416925 0.168821
O O17 0.885580 0.327249 0.058709
#
# Coordination Sequence:
#
# PCOD9009498 Si02
#       8
#     2   2   2   2   2   2   2   2
#     4  11  25  42  65  93 126 156 199 263 318 364
#     4  11  21  39  62  88 128 162 203 250 302 359
#     4  11  20  42  68  85 124 162 210 249 308 368
#     4  10  23  41  65  92 120 166 206 253 306 368
#     4  11  20  39  61  90 120 163 212 249 301 367
#     4  10  21  39  69  90 116 164 211 251 304 371
#     4  11  23  35  60  91 126 162 212 247 312 353
#     4  11  21  38  60  90 121 166 204 258 297 375
#
# _framework density 20.229758
#
# number of rings (size 3 to 8) (size 9 to 14) (size 15 to 20)
#    0.000    1.250    6.250    2.250    1.750    2.500 
#    0.000    0.000    0.000    0.000    0.000    0.000 
#    0.000    0.000    0.000    0.000    0.000    0.000 
#
# Total GULP energy -89358.577604 kJ/mol
# GULP energy per Si atom -5584.911100 kJ/mol
# Density = 2.018371 g / cm^3
# Si number density = 20.229758 Si / 1000 Ang^3
#
#
#
# Elastic Constant Matrix: (Units=GPa)
#
#
# Indices 1 2 3 4 5 6 
#
# 1 89.2290 22.9420 44.2029 -0.6802 5.0475 8.4825
# 2 22.9420 100.3117 39.0125 9.5865 1.0887 10.6226
# 3 44.2029 39.0125 136.2439 -0.0674 23.5784 -0.1550
# 4 -0.6802 9.5865 -0.0674 16.6981 4.9529 0.5651
# 5 5.0475 1.0887 23.5784 4.9529 38.4476 -4.6120
# 6 8.4825 10.6226 -0.1550 0.5651 -4.6120 28.2975
#
#
#
# Elastic Compliance Matrix: (Units=1/GPa)
#
#
# Indices 1 2 3 4 5 6 
#
# 1 0.013974 -0.001307 -0.004189 0.001385 0.000146 -0.003725
# 2 -0.001307 0.012877 -0.003736 -0.008126 0.002681 -0.003864
# 3 -0.004189 -0.003736 0.010864 0.003834 -0.006307 0.001613
# 4 0.001385 -0.008126 0.003834 0.067939 -0.011117 -0.000512
# 5 0.000146 0.002681 -0.006307 -0.011117 0.031731 0.004309
# 6 -0.003725 -0.003864 0.001613 -0.000512 0.004309 0.038627
#
#
# Mechanical properties :
#
#
# Convention : Reuss Voigt Hill
#
# Bulk Modulus (GPa) = 51.93849 59.78882 55.86366
# Shear Modulus (GPa) = 24.88895 31.33046 28.10971
#
# Velocity S-wave (km/s) = 3.51139 3.93966 3.73167
# Velocity P-wave (km/s) = 6.49383 7.09321 6.80013
#
# Compressibility (1/GPa) = 0.01925354
#
# Stress axis : x y z
#
# Youngs Moduli (GPa) = 71.55912 77.65623 92.05010
#
# Poissons Ratio (x) = 0.10146 0.38555
# Poissons Ratio (y) = 0.09350 0.34389
# Poissons Ratio (z) = 0.29973 0.29011
#
# Static dielectric constant tensor:
#      x y z
#    x 1.759450 -0.017220 0.020630 
#    y -0.017220 1.720940 -0.007070 
#    z 0.020630 -0.007070 1.726340 
# 
# From -- ./inp_files/285178.got.cif
#   From: 2010.05.17/outbox.cif.g08.bks.cpg/sg2_143_cif.got.tgz:285178.got - 2010.06.03 11:33:40.
