data_PCOD9009615
_publ_section_title
;
Structure prediction by ZEFSAII (Michael W. Deem and Ramdas Pophale) SiO2 
 PCOD9009615
Probable space group: P -1
;
_chemical_formula_sum "Si O2"
_cell_formula_units_Z 14
_cell_length_a 18.989902
_cell_length_b 11.855538
_cell_length_c 7.954757
_cell_angle_alpha 79.098558
_cell_angle_beta 63.751266
_cell_angle_gamma 25.483476
_cell_volume 579.643531
_symmetry_space_group_name_H-M "P -1"
_symmetry_group_IT_number 2
_symmetry_cell_setting 'triclinic'
loop_
_space_group_symop_operation_xyz
x,y,z
-x,-y,-z
loop_
_atom_site_type_symbol
_atom_site_label
_atom_site_fract_x
_atom_site_fract_y
_atom_site_fract_z
Si Si1 0.245277 0.637706 0.318979
Si Si2 0.186355 0.354476 0.039470
Si Si3 0.121298 0.691236 0.100867
Si Si4 0.025406 0.331548 0.192504
Si Si5 0.384820 0.218638 0.403290
Si Si6 0.577857 0.338329 0.193454
Si Si7 0.338492 0.569790 0.692988
O O1 0.245305 0.570703 0.163445
O O2 0.335223 0.421426 0.416636
O O3 0.383942 0.563147 0.215615
O O4 0.000000 0.000000 0.500000
O O5 0.100474 0.471520 0.904304
O O6 0.439830 0.027913 0.857537
O O7 0.091917 0.595236 0.157154
O O8 0.124602 0.311213 0.173714
O O9 0.264430 0.543773 0.835514
O O10 0.885521 0.068403 0.234634
O O11 0.846770 0.521810 0.448109
O O12 0.210142 0.995173 0.027823
O O13 0.500000 0.000000 0.500000
O O14 0.522112 0.345208 0.425449
O O15 0.597914 0.440922 0.207099
#
# Coordination Sequence:
#
# PCOD9009615 Si02
#       7
#     2   2   2   2   2   2   2
#     4  12  26  44  68 105 149 178 231 301 358 407
#     4  10  21  40  66  97 134 177 241 281 336 417
#     4  11  24  42  67  99 144 183 228 295 357 410
#     4  10  21  39  71 100 128 180 240 288 333 412
#     4  10  24  42  70 102 134 192 234 281 346 427
#     4  11  22  43  68 101 140 182 241 288 342 433
#     4  10  24  41  69 100 134 192 235 283 350 429
#
# _framework density 24.152774999999998
#
# number of rings (size 3 to 8) (size 9 to 14) (size 15 to 20)
#    0.000    1.429    4.286    0.000    6.000    1.143 
#    0.000    0.714    0.000    0.000    0.000    0.000 
#    0.000    0.000    0.000    0.000    0.000    0.000 
#
# Total GULP energy -78225.216958 kJ/mol
# GULP energy per Si atom -5587.515497 kJ/mol
# Density = 2.409780 g / cm^3
# Si number density = 24.152775 Si / 1000 Ang^3
#
#
#
# Elastic Constant Matrix: (Units=GPa)
#
#
# Indices 1 2 3 4 5 6 
#
# 1 146.7830 17.5101 36.6686 -5.9892 -8.2955 -4.7941
# 2 17.5101 77.4447 30.6177 13.2175 4.7494 5.9520
# 3 36.6686 30.6177 88.4725 18.6606 -24.1717 -3.4462
# 4 -5.9892 13.2175 18.6606 33.5532 -11.1096 -1.5404
# 5 -8.2955 4.7494 -24.1717 -11.1096 34.3928 -0.3793
# 6 -4.7941 5.9520 -3.4462 -1.5404 -0.3793 40.9174
#
#
#
# Elastic Compliance Matrix: (Units=1/GPa)
#
#
# Indices 1 2 3 4 5 6 
#
# 1 0.008112 -0.001351 -0.003460 0.004322 0.001119 0.001029
# 2 -0.001351 0.018153 -0.007182 -0.006935 -0.010162 -0.003759
# 3 -0.003460 -0.007182 0.019689 -0.004472 0.012575 0.002246
# 4 0.004322 -0.006935 -0.004472 0.039809 0.011747 0.002746
# 5 0.001119 -0.010162 0.012575 0.011747 0.043420 0.003513
# 6 0.001029 -0.003759 0.002246 0.002746 0.003513 0.025432
#
#
# Mechanical properties :
#
#
# Convention : Reuss Voigt Hill
#
# Bulk Modulus (GPa) = 45.52486 53.58812 49.55649
# Shear Modulus (GPa) = 26.89250 36.96626 31.92938
#
# Velocity S-wave (km/s) = 3.34043 3.91643 3.63984
# Velocity P-wave (km/s) = 5.81099 6.53349 6.18280
#
# Compressibility (1/GPa) = 0.02196602
#
# Stress axis : x y z
#
# Youngs Moduli (GPa) = 123.28036 55.08647 50.78981
#
# Poissons Ratio (x) = 0.07444 0.17574
# Poissons Ratio (y) = 0.16660 0.36479
# Poissons Ratio (z) = 0.42658 0.39565
#
# Static dielectric constant tensor:
#      x y z
#    x 1.920550 0.000070 0.007770 
#    y 0.000070 1.953430 -0.061760 
#    z 0.007770 -0.061760 1.956570 
# 
# From -- ./inp_files/332039.got.cif
#   From: 2010.05.17/outbox.cif.g08.bks.cpg/sg2_167_cif.got.tgz:332039.got - 2010.06.03 11:33:40.
