data_PCOD9009161
_publ_section_title
;
Structure prediction by ZEFSAII (Michael W. Deem and Ramdas Pophale) SiO2 
 PCOD9009161
Probable space group: P -1
;
_chemical_formula_sum "Si O2"
_cell_formula_units_Z 16
_cell_length_a 7.459148
_cell_length_b 6.979648
_cell_length_c 19.964800
_cell_angle_alpha 124.415316
_cell_angle_beta 127.058461
_cell_angle_gamma 60.957859
_cell_volume 667.514071
_symmetry_space_group_name_H-M "P -1"
_symmetry_group_IT_number 2
_symmetry_cell_setting 'triclinic'
loop_
_space_group_symop_operation_xyz
x,y,z
-x,-y,-z
loop_
_atom_site_type_symbol
_atom_site_label
_atom_site_fract_x
_atom_site_fract_y
_atom_site_fract_z
Si Si1 0.693953 0.790176 0.535694
Si Si2 0.918460 0.430584 0.882683
Si Si3 0.713305 0.285026 0.990710
Si Si4 0.926135 0.078131 0.139151
Si Si5 0.809744 0.221059 0.687967
Si Si6 0.495994 0.849943 0.840143
Si Si7 0.133052 0.436320 0.344651
Si Si8 0.316743 0.477062 0.650215
O O1 0.747446 0.587761 0.451785
O O2 0.671380 0.674769 0.579673
O O3 0.500000 0.000000 0.500000
O O4 0.881065 0.944951 0.630223
O O5 0.113196 0.568073 0.972906
O O6 0.962995 0.329331 0.795879
O O7 0.686361 0.632034 0.870297
O O8 0.926055 0.187726 0.875013
O O9 0.842760 0.166832 0.064213
O O10 0.500000 0.500000 0.000000
O O11 0.613830 0.069294 0.893906
O O12 0.699970 0.079900 0.133899
O O13 0.070183 0.246431 0.241226
O O14 0.556906 0.281908 0.678345
O O15 0.792657 0.365420 0.644130
O O16 0.391730 0.726061 0.730358
O O17 0.895153 0.536589 0.351667
#
# Coordination Sequence:
#
# PCOD9009161 Si02
#       8
#     2   2   2   2   2   2   2   2
#     4  10  21  39  67  93 130 170 213 270 331 390
#     4  11  22  43  67  93 132 172 215 274 333 387
#     4  12  24  42  68  97 130 173 219 267 333 399
#     4  11  23  43  67  94 130 175 217 269 335 392
#     4  10  21  41  67  93 129 171 216 271 331 390
#     4  10  23  42  64  94 132 167 220 272 321 390
#     4  11  21  40  67  92 129 173 215 269 332 390
#     4   9  22  40  62  96 128 167 220 268 321 395
#
# _framework density 23.969532000000001
#
# number of rings (size 3 to 8) (size 9 to 14) (size 15 to 20)
#    0.000    1.500    3.750    1.125    0.000    3.000 
#    2.250    2.500    2.750    0.000    0.000    0.000 
#    0.000    0.000    0.000    0.000    0.000    0.000 
#
# Total GULP energy -89383.001661 kJ/mol
# GULP energy per Si atom -5586.437604 kJ/mol
# Density = 2.391498 g / cm^3
# Si number density = 23.969532 Si / 1000 Ang^3
#
#
#
# Elastic Constant Matrix: (Units=GPa)
#
#
# Indices 1 2 3 4 5 6 
#
# 1 57.0966 23.1639 17.0117 9.0291 12.9349 -2.3016
# 2 23.1639 129.9322 31.4584 7.6215 5.3315 4.4640
# 3 17.0117 31.4584 129.2998 34.4476 -15.4646 -10.4028
# 4 9.0291 7.6215 34.4476 48.6646 -2.2838 6.9253
# 5 12.9349 5.3315 -15.4646 -2.2838 35.9704 -6.9576
# 6 -2.3016 4.4640 -10.4028 6.9253 -6.9576 32.2966
#
#
#
# Elastic Compliance Matrix: (Units=1/GPa)
#
#
# Indices 1 2 3 4 5 6 
#
# 1 0.021730 -0.002714 -0.002750 -0.002013 -0.008805 -0.000427
# 2 -0.002714 0.008926 -0.002638 0.001305 -0.001975 -0.002982
# 3 -0.002750 -0.002638 0.012625 -0.008757 0.007757 0.007784
# 4 -0.002013 0.001305 -0.008757 0.028169 -0.003363 -0.009909
# 5 -0.008805 -0.001975 0.007757 -0.003363 0.036454 0.010718
# 6 -0.000427 -0.002982 0.007784 -0.009909 0.010718 0.038286
#
#
# Mechanical properties :
#
#
# Convention : Reuss Voigt Hill
#
# Bulk Modulus (GPa) = 36.93327 51.06629 43.99978
# Shear Modulus (GPa) = 29.16810 39.69929 34.43370
#
# Velocity S-wave (km/s) = 3.49217 4.07411 3.79431
# Velocity P-wave (km/s) = 5.63047 6.59409 6.13124
#
# Compressibility (1/GPa) = 0.02707586
#
# Stress axis : x y z
#
# Youngs Moduli (GPa) = 46.01864 112.03260 79.21007
#
# Poissons Ratio (x) = 0.30408 0.21782
# Poissons Ratio (y) = 0.12491 0.20899
# Poissons Ratio (z) = 0.12655 0.29559
#
# Static dielectric constant tensor:
#      x y z
#    x 1.987170 -0.071020 -0.004660 
#    y -0.071020 1.910050 -0.012080 
#    z -0.004660 -0.012080 1.978700 
# 
# From -- ./inp_files/585885.got.cif
#   From: 2010.05.17/outbox.cif.g08.bks.cpg/sg2_293_cif.got.tgz:585885.got - 2010.06.03 11:33:40.
