data_PCOD9009728
_publ_section_title
;
Structure prediction by ZEFSAII (Michael W. Deem and Ramdas Pophale) SiO2 
 PCOD9009728
Probable space group: P -1
;
_chemical_formula_sum "Si O2"
_cell_formula_units_Z 16
_cell_length_a 18.939820
_cell_length_b 5.314320
_cell_length_c 8.008969
_cell_angle_alpha 55.819872
_cell_angle_beta 90.207559
_cell_angle_gamma 89.933903
_cell_volume 666.874689
_symmetry_space_group_name_H-M "P -1"
_symmetry_group_IT_number 2
_symmetry_cell_setting 'triclinic'
loop_
_space_group_symop_operation_xyz
x,y,z
-x,-y,-z
loop_
_atom_site_type_symbol
_atom_site_label
_atom_site_fract_x
_atom_site_fract_y
_atom_site_fract_z
Si Si1 0.070197 0.314693 0.616151
Si Si2 0.571726 0.177725 0.905224
Si Si3 0.220962 0.671731 0.889483
Si Si4 0.777178 0.599534 0.381695
Si Si5 0.622265 0.539476 0.457779
Si Si6 0.069413 0.596978 0.869074
Si Si7 0.418930 0.945237 0.560250
Si Si8 0.356117 0.302529 0.118611
O O1 0.147046 0.439803 0.512229
O O2 0.075399 0.374007 0.793227
O O3 0.000000 0.500000 0.500000
O O4 0.064182 0.960970 0.695003
O O5 0.573202 0.379406 0.656850
O O6 0.587097 0.430874 0.949617
O O7 0.631062 0.930662 0.945026
O O8 0.500000 0.000000 0.000000
O O9 0.223192 0.589153 0.721687
O O10 0.142453 0.574655 0.979700
O O11 0.228665 0.033799 0.782544
O O12 0.281747 0.471320 0.046957
O O13 0.705127 0.504158 0.507792
O O14 0.601646 0.399008 0.334271
O O15 0.602367 0.890411 0.333700
O O16 0.000000 0.500000 0.000000
O O17 0.500000 0.000000 0.500000
O O18 0.368877 0.102240 0.360620
#
# Coordination Sequence:
#
# PCOD9009728 Si02
#       8
#     2   2   2   2   2   2   2   2
#     4  10  21  40  64  96 132 170 213 259 317 376
#     4  10  21  40  59  80 117 145 193 263 302 359
#     4  10  21  40  61  87 126 162 199 250 303 367
#     4  10  21  40  61  87 126 162 199 250 303 367
#     4  10  21  40  58  84 111 155 201 237 310 363
#     4  10  21  40  64  96 132 170 213 259 317 376
#     4  10  21  40  59  80 117 145 193 263 302 359
#     4  10  21  40  58  84 111 155 201 237 310 363
#
# _framework density 23.992512999999999
#
# number of rings (size 3 to 8) (size 9 to 14) (size 15 to 20)
#    0.000    2.000    0.000    3.000    0.000    0.000 
#   36.000    0.000    0.000    0.000    0.000    0.000 
#    0.000    0.000    0.000    0.000    0.000    0.000 
#
# Total GULP energy -89409.394794 kJ/mol
# GULP energy per Si atom -5588.087175 kJ/mol
# Density = 2.393790 g / cm^3
# Si number density = 23.992513 Si / 1000 Ang^3
#
#
#
# Elastic Constant Matrix: (Units=GPa)
#
#
# Indices 1 2 3 4 5 6 
#
# 1 169.4519 8.8017 11.6915 -0.5211 -0.1383 1.3973
# 2 8.8017 168.6373 0.3291 -2.2022 -4.0687 -1.5494
# 3 11.6915 0.3291 49.9608 -7.9013 2.1223 6.5680
# 4 -0.5211 -2.2022 -7.9013 26.3411 -4.2756 2.3259
# 5 -0.1383 -4.0687 2.1223 -4.2756 45.4080 -8.1540
# 6 1.3973 -1.5494 6.5680 2.3259 -8.1540 39.1106
#
#
#
# Elastic Compliance Matrix: (Units=1/GPa)
#
#
# Indices 1 2 3 4 5 6 
#
# 1 0.006018 -0.000314 -0.001469 -0.000346 0.000035 0.000047
# 2 -0.000314 0.005973 0.000055 0.000585 0.000648 0.000339
# 3 -0.001469 0.000055 0.022045 0.006778 -0.001163 -0.004293
# 4 -0.000346 0.000585 0.006778 0.040790 0.003056 -0.002891
# 5 0.000035 0.000648 -0.001163 0.003056 0.023302 0.004896
# 6 0.000047 0.000339 -0.004293 -0.002891 0.004896 0.027494
#
#
# Mechanical properties :
#
#
# Convention : Reuss Voigt Hill
#
# Bulk Modulus (GPa) = 32.70305 47.74385 40.22345
# Shear Modulus (GPa) = 35.90140 46.65379 41.27760
#
# Velocity S-wave (km/s) = 3.87248 4.41445 4.15231
# Velocity P-wave (km/s) = 5.80128 6.77686 6.30796
#
# Compressibility (1/GPa) = 0.03057819
#
# Stress axis : x y z
#
# Youngs Moduli (GPa) = 166.17880 167.43228 45.36233
#
# Poissons Ratio (x) = 0.05265 0.06662
# Poissons Ratio (y) = 0.05226 -0.00248
# Poissons Ratio (z) = 0.24404 -0.00915
#
# Static dielectric constant tensor:
#      x y z
#    x 1.958250 -0.025040 -0.002080 
#    y -0.025040 2.037030 0.016630 
#    z -0.002080 0.016630 1.955220 
# 
# From -- ./inp_files/56828.got.cif
#   From: 2010.05.17/outbox.cif.g08.bks.cpg/sg2_29_cif.got.tgz:56828.got - 2010.06.03 11:33:40.
