data_PCOD9009733
_publ_section_title
;
Structure prediction by ZEFSAII (Michael W. Deem and Ramdas Pophale) SiO2 
 PCOD9009733
Probable space group: P -1
;
_chemical_formula_sum "Si O2"
_cell_formula_units_Z 14
_cell_length_a 19.730031
_cell_length_b 4.935246
_cell_length_c 7.262269
_cell_angle_alpha 102.979078
_cell_angle_beta 122.447772
_cell_angle_gamma 89.257038
_cell_volume 576.507580
_symmetry_space_group_name_H-M "P -1"
_symmetry_group_IT_number 2
_symmetry_cell_setting 'triclinic'
loop_
_space_group_symop_operation_xyz
x,y,z
-x,-y,-z
loop_
_atom_site_type_symbol
_atom_site_label
_atom_site_fract_x
_atom_site_fract_y
_atom_site_fract_z
Si Si1 0.340946 0.718203 0.778643
Si Si2 0.249472 0.201508 0.767269
Si Si3 0.868941 0.829266 0.087439
Si Si4 0.528061 0.391940 0.777350
Si Si5 0.966690 0.344895 0.181077
Si Si6 0.421399 0.819959 0.545540
Si Si7 0.883504 0.927316 0.717247
O O1 0.275270 0.481055 0.731273
O O2 0.350212 0.744474 0.576182
O O3 0.322869 0.020433 0.869130
O O4 0.424403 0.632445 0.969094
O O5 0.183078 0.016106 0.515880
O O6 0.205845 0.251356 0.901294
O O7 0.846384 0.793213 0.833268
O O8 0.941732 0.649086 0.204260
O O9 0.908554 0.151947 0.207854
O O10 0.497320 0.678791 0.716439
O O11 0.588500 0.307464 0.691890
O O12 0.450545 0.150661 0.625128
O O13 0.057390 0.275070 0.317289
O O14 0.937209 0.206495 0.918002
#
# Coordination Sequence:
#
# PCOD9009733 Si02
#       7
#     2   2   2   2   2   2   2
#     4  12  25  40  57  92 126 162 188 242 291 365
#     4  12  27  37  59  87 129 164 198 225 314 365
#     4  10  21  40  58  87 114 157 196 259 295 350
#     4  10  21  40  67  91 116 148 205 245 287 340
#     4   9  20  40  66  83 113 151 210 263 303 320
#     4  10  21  40  68  90 112 157 198 246 288 335
#     4   9  23  39  63  87 115 155 206 256 298 356
#
# _framework density 24.284155999999999
#
# number of rings (size 3 to 8) (size 9 to 14) (size 15 to 20)
#    0.857    0.857    0.000    3.857    2.000    3.429 
#    0.000    0.000    0.000    0.000    0.000    0.000 
#    0.000    0.000    0.000    0.000    0.000    0.000 
#
# Total GULP energy -78274.460980 kJ/mol
# GULP energy per Si atom -5591.032927 kJ/mol
# Density = 2.422888 g / cm^3
# Si number density = 24.284156 Si / 1000 Ang^3
#
#
#
# Elastic Constant Matrix: (Units=GPa)
#
#
# Indices 1 2 3 4 5 6 
#
# 1 123.2843 17.0016 -22.9035 0.6550 -19.6213 26.7264
# 2 17.0016 91.1003 -8.9019 -13.3707 -1.9083 6.1644
# 3 -22.9035 -8.9019 31.5184 -7.7295 -3.5317 -2.9830
# 4 0.6550 -13.3707 -7.7295 20.0344 -1.4054 4.7270
# 5 -19.6213 -1.9083 -3.5317 -1.4054 26.1152 -8.1475
# 6 26.7264 6.1644 -2.9830 4.7270 -8.1475 40.3985
#
#
#
# Elastic Compliance Matrix: (Units=1/GPa)
#
#
# Indices 1 2 3 4 5 6 
#
# 1 0.013249 0.000311 0.011799 0.006605 0.009828 -0.006732
# 2 0.000311 0.013724 0.007179 0.012733 0.002002 -0.002856
# 3 0.011799 0.007179 0.050024 0.026013 0.015986 -0.005027
# 4 0.006605 0.012733 0.026013 0.071465 0.009901 -0.010757
# 5 0.009828 0.002002 0.015986 0.009901 0.049516 0.003201
# 6 -0.006732 -0.002856 -0.005027 -0.010757 0.003201 0.031176
#
#
# Mechanical properties :
#
#
# Convention : Reuss Voigt Hill
#
# Bulk Modulus (GPa) = 8.65226 24.03282 16.34254
# Shear Modulus (GPa) = 21.82447 34.69008 28.25727
#
# Velocity S-wave (km/s) = 3.00111 3.78366 3.41487
# Velocity P-wave (km/s) = 3.94709 5.38573 4.72152
#
# Compressibility (1/GPa) = 0.11557673
#
# Stress axis : x y z
#
# Youngs Moduli (GPa) = 75.47740 72.86276 19.99034
#
# Poissons Ratio (x) = -0.02267 -0.23587
# Poissons Ratio (y) = -0.02349 -0.14351
# Poissons Ratio (z) = -0.89058 -0.52309
#
# Static dielectric constant tensor:
#      x y z
#    x 1.957240 0.004650 -0.000450 
#    y 0.004650 1.911230 0.023710 
#    z -0.000450 0.023710 1.940480 
# 
# From -- ./inp_files/33338.got.cif
#   From: 2010.05.17/outbox.cif.g08.bks.cpg/sg2_17_cif.got.tgz:33338.got - 2010.06.03 11:33:40.
