data_PCOD9009932
_publ_section_title
;
Structure prediction by ZEFSAII (Michael W. Deem and Ramdas Pophale) SiO2 
 PCOD9009932
Probable space group: P -1
;
_chemical_formula_sum "Si O2"
_cell_formula_units_Z 16
_cell_length_a 13.146048
_cell_length_b 7.153081
_cell_length_c 23.224559
_cell_angle_alpha 50.058862
_cell_angle_beta 144.861476
_cell_angle_gamma 104.943350
_cell_volume 767.063805
_symmetry_space_group_name_H-M "P -1"
_symmetry_group_IT_number 2
_symmetry_cell_setting 'triclinic'
loop_
_space_group_symop_operation_xyz
x,y,z
-x,-y,-z
loop_
_atom_site_type_symbol
_atom_site_label
_atom_site_fract_x
_atom_site_fract_y
_atom_site_fract_z
Si Si1 0.447157 0.933158 0.550521
Si Si2 0.339957 0.590514 0.962786
Si Si3 0.018192 0.297933 0.699347
Si Si4 0.198468 0.734009 0.182620
Si Si5 0.012177 0.487914 0.785605
Si Si6 0.363258 0.747094 0.723694
Si Si7 0.936939 0.360922 0.447785
Si Si8 0.479796 0.159525 0.635496
O O1 0.604250 0.568242 0.700948
O O2 0.500000 0.000000 0.500000
O O3 0.513948 0.071410 0.602209
O O4 0.179650 0.148174 0.388248
O O5 0.214244 0.442216 0.921532
O O6 0.153427 0.953620 0.809076
O O7 0.500000 0.500000 0.000000
O O8 0.466849 0.485577 0.103312
O O9 0.077252 0.321769 0.787172
O O10 0.076103 0.470311 0.649722
O O11 0.750707 0.498730 0.532601
O O12 0.317500 0.859113 0.243371
O O13 0.098469 0.628072 0.203547
O O14 0.000000 0.000000 0.000000
O O15 0.283974 0.622261 0.662265
O O16 0.446990 0.927103 0.697696
O O17 0.143672 0.005324 0.607226
O O18 0.000000 0.500000 0.500000
#
# Coordination Sequence:
#
# PCOD9009932 Si02
#       8
#     2   2   2   2   2   2   2   2
#     4   9  21  40  63  87 120 160 204 247 299 360
#     4  12  24  39  62  91 125 158 200 259 308 352
#     4  10  23  40  63  89 119 159 207 248 302 365
#     4  11  23  39  63  93 124 160 203 248 302 361
#     4  10  23  41  61  89 123 162 203 248 303 362
#     4  10  23  38  57  88 119 153 200 246 298 356
#     4  10  21  40  61  82 116 159 199 244 298 358
#     4  10  22  41  63  89 124 164 203 247 297 362
#
# _framework density 20.858758999999999
#
# number of rings (size 3 to 8) (size 9 to 14) (size 15 to 20)
#    0.000    1.750    0.000    3.000    0.000   17.000 
#    0.000    0.000    0.000    0.000    0.000    0.000 
#    0.000    0.000    0.000    0.000    0.000    0.000 
#
# Total GULP energy -89362.513543 kJ/mol
# GULP energy per Si atom -5585.157096 kJ/mol
# Density = 2.081128 g / cm^3
# Si number density = 20.858759 Si / 1000 Ang^3
#
#
#
# Elastic Constant Matrix: (Units=GPa)
#
#
# Indices 1 2 3 4 5 6 
#
# 1 84.8262 57.3714 41.4986 5.3023 3.0217 -3.1872
# 2 57.3714 127.3379 74.2289 27.5847 9.3559 -0.8714
# 3 41.4986 74.2289 111.5221 21.9565 -19.0629 3.6292
# 4 5.3023 27.5847 21.9565 36.6920 10.0423 12.3168
# 5 3.0217 9.3559 -19.0629 10.0423 19.3554 1.5621
# 6 -3.1872 -0.8714 3.6292 12.3168 1.5621 33.1862
#
#
#
# Elastic Compliance Matrix: (Units=1/GPa)
#
#
# Indices 1 2 3 4 5 6 
#
# 1 0.018830 -0.005168 -0.007535 0.009245 -0.012632 -0.000340
# 2 -0.005168 0.023344 -0.019539 0.002502 -0.031245 0.002795
# 3 -0.007535 -0.019539 0.041236 -0.027176 0.065231 0.001270
# 4 0.009245 0.002502 -0.027176 0.062334 -0.060439 -0.016364
# 5 -0.012632 -0.031245 0.065231 -0.060439 0.163897 0.005549
# 6 -0.000340 0.002795 0.001270 -0.016364 0.005549 0.035847
#
#
# Mechanical properties :
#
#
# Convention : Reuss Voigt Hill
#
# Bulk Modulus (GPa) = 52.84143 74.43156 63.63650
# Shear Modulus (GPa) = 12.01111 27.88587 19.94849
#
# Velocity S-wave (km/s) = 2.40225 3.66032 3.09586
# Velocity P-wave (km/s) = 5.75173 7.32291 6.58435
#
# Compressibility (1/GPa) = 0.01892454
#
# Stress axis : x y z
#
# Youngs Moduli (GPa) = 53.10699 42.83681 24.25089
#
# Poissons Ratio (x) = 0.22138 0.18274
# Poissons Ratio (y) = 0.27446 0.47385
# Poissons Ratio (z) = 0.40017 0.83701
#
# Static dielectric constant tensor:
#      x y z
#    x 1.736890 0.008570 0.014640 
#    y 0.008570 1.769490 -0.010450 
#    z 0.014640 -0.010450 1.765800 
# 
# From -- ./inp_files/39294.got.cif
#   From: 2010.05.17/outbox.cif.g08.bks.cpg/sg2_20_cif.got.tgz:39294.got - 2010.06.03 11:33:40.
