data_PCOD9009555
_publ_section_title
;
Structure prediction by ZEFSAII (Michael W. Deem and Ramdas Pophale) SiO2 
 PCOD9009555
Probable space group: P -1
;
_chemical_formula_sum "Si O2"
_cell_formula_units_Z 10
_cell_length_a 9.309299
_cell_length_b 11.668426
_cell_length_c 9.356730
_cell_angle_alpha 144.253791
_cell_angle_beta 105.803676
_cell_angle_gamma 53.418133
_cell_volume 425.660148
_symmetry_space_group_name_H-M "P -1"
_symmetry_group_IT_number 2
_symmetry_cell_setting 'triclinic'
loop_
_space_group_symop_operation_xyz
x,y,z
-x,-y,-z
loop_
_atom_site_type_symbol
_atom_site_label
_atom_site_fract_x
_atom_site_fract_y
_atom_site_fract_z
Si Si1 0.501896 0.721745 0.633592
Si Si2 0.801924 0.786701 0.432329
Si Si3 0.801936 0.680041 0.841072
Si Si4 0.505489 0.301586 0.706409
Si Si5 0.160517 0.029098 0.066803
O O1 0.712808 0.588445 0.625267
O O2 0.501100 0.620857 0.379890
O O3 0.355949 0.781701 0.781676
O O4 0.394431 0.026952 0.867314
O O5 0.674770 0.696613 0.316255
O O6 0.037325 0.536024 0.222634
O O7 0.703569 0.008394 0.509799
O O8 0.790806 0.914903 0.710879
O O9 0.912727 0.735962 0.823216
O O10 0.500000 0.500000 0.000000
O O11 0.000000 0.000000 0.000000
#
# Coordination Sequence:
#
# PCOD9009555 Si02
#       5
#     2   2   2   2   2
#     4   9  20  41  68  97 131 170 219 272 319 393
#     4  11  23  41  68  97 130 179 213 272 332 387
#     4   9  19  40  73  91 133 167 222 270 326 380
#     4  11  25  43  65  96 140 175 216 267 334 390
#     4  10  21  39  70 100 127 168 221 272 325 380
#
# _framework density 23.492920999999999
#
# number of rings (size 3 to 8) (size 9 to 14) (size 15 to 20)
#    1.200    0.800    2.000    0.600    2.800    0.800 
#    0.000   12.000    0.000    0.000    0.000    0.000 
#    0.000    0.000    0.000    0.000    0.000    0.000 
#
# Total GULP energy -55872.228186 kJ/mol
# GULP energy per Si atom -5587.222819 kJ/mol
# Density = 2.343945 g / cm^3
# Si number density = 23.492921 Si / 1000 Ang^3
#
#
#
# Elastic Constant Matrix: (Units=GPa)
#
#
# Indices 1 2 3 4 5 6 
#
# 1 130.6309 42.6906 39.4741 -3.5437 25.8287 -15.7363
# 2 42.6906 166.5051 18.8332 2.5127 13.4315 -18.0570
# 3 39.4741 18.8332 92.1484 -27.6138 26.5466 -10.8644
# 4 -3.5437 2.5127 -27.6138 43.9279 -11.7047 -2.4570
# 5 25.8287 13.4315 26.5466 -11.7047 31.9156 -1.6892
# 6 -15.7363 -18.0570 -10.8644 -2.4570 -1.6892 40.1458
#
#
#
# Elastic Compliance Matrix: (Units=1/GPa)
#
#
# Indices 1 2 3 4 5 6 
#
# 1 0.010453 -0.001585 -0.002814 -0.002363 -0.006201 0.002217
# 2 -0.001585 0.006833 -0.000293 -0.001003 -0.001598 0.002244
# 3 -0.002814 -0.000293 0.017771 0.008782 -0.008963 0.003735
# 4 -0.002363 -0.001003 0.008782 0.029973 0.006186 0.003094
# 5 -0.006201 -0.001598 -0.008963 0.006186 0.046576 -0.003236
# 6 0.002217 0.002244 0.003735 0.003094 -0.003236 0.027851
#
#
# Mechanical properties :
#
#
# Convention : Reuss Voigt Hill
#
# Bulk Modulus (GPa) = 38.95339 65.69781 52.32560
# Shear Modulus (GPa) = 31.76632 42.41696 37.09164
#
# Velocity S-wave (km/s) = 3.68117 4.25375 3.97778
# Velocity P-wave (km/s) = 5.88939 7.22160 6.58925
#
# Compressibility (1/GPa) = 0.02567171
#
# Stress axis : x y z
#
# Youngs Moduli (GPa) = 95.67006 146.35206 56.26991
#
# Poissons Ratio (x) = 0.23203 0.15835
# Poissons Ratio (y) = 0.15167 0.01649
# Poissons Ratio (z) = 0.26923 0.04290
#
# Static dielectric constant tensor:
#      x y z
#    x 1.848640 0.041690 0.032910 
#    y 0.041690 1.901360 0.109900 
#    z 0.032910 0.109900 2.086990 
# 
# From -- ./inp_files/166820.got.cif
#   From: 2010.05.17/outbox.cif.g08.bks.cpg/sg2_84_cif.got.tgz:166820.got - 2010.06.03 11:33:40.
