data_PCOD9009275
_publ_section_title
;
Structure prediction by ZEFSAII (Michael W. Deem and Ramdas Pophale) SiO2 
 PCOD9009275
Probable space group: P -1
;
_chemical_formula_sum "Si O2"
_cell_formula_units_Z 14
_cell_length_a 9.551668
_cell_length_b 13.542527
_cell_length_c 11.427544
_cell_angle_alpha 149.214780
_cell_angle_beta 135.212068
_cell_angle_gamma 51.935913
_cell_volume 532.897715
_symmetry_space_group_name_H-M "P -1"
_symmetry_group_IT_number 2
_symmetry_cell_setting 'triclinic'
loop_
_space_group_symop_operation_xyz
x,y,z
-x,-y,-z
loop_
_atom_site_type_symbol
_atom_site_label
_atom_site_fract_x
_atom_site_fract_y
_atom_site_fract_z
Si Si1 0.020501 0.955198 0.830715
Si Si2 0.602718 0.296986 0.776821
Si Si3 0.555307 0.528096 0.380303
Si Si4 0.308127 0.157172 0.627754
Si Si5 0.961168 0.624002 0.842212
Si Si6 0.677979 0.138204 0.279941
Si Si7 0.234416 0.221948 0.892471
O O1 0.185917 0.846637 0.738664
O O2 0.029193 0.163430 0.989715
O O3 0.820910 0.850048 0.572195
O O4 0.000000 0.000000 0.000000
O O5 0.485931 0.382822 0.682652
O O6 0.496818 0.274163 0.817017
O O7 0.640434 0.066866 0.537313
O O8 0.803227 0.416432 0.043315
O O9 0.784868 0.536041 0.567662
O O10 0.422972 0.670335 0.531347
O O11 0.453507 0.318535 0.114370
O O12 0.176368 0.232028 0.733356
O O13 0.883313 0.648000 0.952763
O O14 0.779556 0.998466 0.295973
O O15 0.500000 0.000000 0.000000
#
# Coordination Sequence:
#
# PCOD9009275 Si02
#       7
#     2   2   2   2   2   2   2
#     4  10  21  39  67  99 134 179 228 277 338 407
#     4  10  23  41  70  93 139 179 227 275 345 391
#     4  12  23  44  71  98 141 177 222 287 333 402
#     4  10  22  41  65 100 137 175 227 285 331 407
#     4  10  23  41  65  99 134 174 228 279 325 409
#     4  11  23  40  70 101 132 180 227 273 346 396
#     4  11  24  41  68 100 138 173 229 280 335 406
#
# _framework density 26.271457999999999
#
# number of rings (size 3 to 8) (size 9 to 14) (size 15 to 20)
#    0.000    1.429    4.286    1.286    2.000    4.000 
#    0.000    0.714    0.000    2.571    0.000    0.000 
#    0.000    0.000    0.000    0.000    0.000    0.000 
#
# Total GULP energy -78188.950556 kJ/mol
# GULP energy per Si atom -5584.925040 kJ/mol
# Density = 2.621166 g / cm^3
# Si number density = 26.271458 Si / 1000 Ang^3
#
#
#
# Elastic Constant Matrix: (Units=GPa)
#
#
# Indices 1 2 3 4 5 6 
#
# 1 148.2966 66.2449 65.9920 -21.0561 13.1085 37.2463
# 2 66.2449 119.2595 58.5624 0.7599 -0.9975 16.4635
# 3 65.9920 58.5624 113.4717 -19.1464 6.9059 15.4581
# 4 -21.0561 0.7599 -19.1464 50.2085 10.6282 1.4963
# 5 13.1085 -0.9975 6.9059 10.6282 45.3468 -13.9467
# 6 37.2463 16.4635 15.4581 1.4963 -13.9467 31.7011
#
#
#
# Elastic Compliance Matrix: (Units=1/GPa)
#
#
# Indices 1 2 3 4 5 6 
#
# 1 0.021784 -0.007610 -0.001235 0.013622 -0.018663 -0.029894
# 2 -0.007610 0.014510 -0.005881 -0.007507 0.007630 0.007985
# 3 -0.001235 -0.005881 0.014663 0.006397 -0.005102 -0.005191
# 4 0.013622 -0.007507 0.006397 0.033380 -0.020895 -0.025994
# 5 -0.018663 0.007630 -0.005102 -0.020895 0.046124 0.041731
# 6 -0.029894 0.007985 -0.005191 -0.025994 0.041731 0.084639
#
#
# Mechanical properties :
#
#
# Convention : Reuss Voigt Hill
#
# Bulk Modulus (GPa) = 46.50150 84.73628 65.61889
# Shear Modulus (GPa) = 19.86317 38.13317 28.99817
#
# Velocity S-wave (km/s) = 2.75266 3.81400 3.32594
# Velocity P-wave (km/s) = 5.27652 7.19163 6.30719
#
# Compressibility (1/GPa) = 0.02150468
#
# Stress axis : x y z
#
# Youngs Moduli (GPa) = 45.90446 68.91959 68.19701
#
# Poissons Ratio (x) = 0.52449 0.08421
# Poissons Ratio (y) = 0.34934 0.40109
# Poissons Ratio (z) = 0.05669 0.40534
#
# Static dielectric constant tensor:
#      x y z
#    x 2.165470 -0.146970 0.010310 
#    y -0.146970 2.238920 -0.043650 
#    z 0.010310 -0.043650 2.070320 
# 
# From -- ./inp_files/400192.got.cif
#   From: 2010.05.17/outbox.cif.g08.bks.cpg/sg2_201_cif.got.tgz:400192.got - 2010.06.03 11:33:40.
