data_PCOD9009948
_publ_section_title
;
Structure prediction by ZEFSAII (Michael W. Deem and Ramdas Pophale) SiO2 
 PCOD9009948
Probable space group: P -1
;
_chemical_formula_sum "Si O2"
_cell_formula_units_Z 14
_cell_length_a 13.345195
_cell_length_b 8.424453
_cell_length_c 7.437086
_cell_angle_alpha 55.854785
_cell_angle_beta 73.954065
_cell_angle_gamma 60.140341
_cell_volume 600.120319
_symmetry_space_group_name_H-M "P -1"
_symmetry_group_IT_number 2
_symmetry_cell_setting 'triclinic'
loop_
_space_group_symop_operation_xyz
x,y,z
-x,-y,-z
loop_
_atom_site_type_symbol
_atom_site_label
_atom_site_fract_x
_atom_site_fract_y
_atom_site_fract_z
Si Si1 0.964394 0.373570 0.750540
Si Si2 0.187376 0.814726 0.604862
Si Si3 0.620708 0.309198 0.988755
Si Si4 0.252381 0.465132 0.022735
Si Si5 0.593035 0.265424 0.630710
Si Si6 0.050909 0.006014 0.193824
Si Si7 0.487188 0.052621 0.261504
O O1 0.859158 0.533976 0.823972
O O2 0.919619 0.215243 0.778157
O O3 0.000000 0.500000 0.500000
O O4 0.057296 0.197960 0.952568
O O5 0.311514 0.818852 0.520150
O O6 0.124110 0.944666 0.376543
O O7 0.220970 0.561112 0.775454
O O8 0.084131 0.916012 0.735139
O O9 0.714688 0.353191 0.022117
O O10 0.646439 0.293828 0.773985
O O11 0.500000 0.500000 0.000000
O O12 0.596089 0.104267 0.147843
O O13 0.366513 0.253007 0.140699
O O14 0.500000 0.500000 0.500000
O O15 0.520229 0.128867 0.742074
O O16 0.500000 0.000000 0.500000
#
# Coordination Sequence:
#
# PCOD9009948 Si02
#       7
#     2   2   2   2   2   2   2
#     4  10  21  40  68  97 133 168 222 268 334 408
#     4  10  21  41  65  88 131 174 217 271 337 395
#     4  10  21  40  61  86 125 170 217 271 331 392
#     4  10  21  41  65  93 133 178 217 277 340 389
#     4  12  23  38  65  93 131 176 223 276 340 399
#     4   9  21  42  64  95 131 175 216 272 333 393
#     4  11  23  40  61  97 133 173 227 275 330 405
#
# _framework density 23.328655000000001
#
# number of rings (size 3 to 8) (size 9 to 14) (size 15 to 20)
#    0.000    1.714    0.000    5.571    2.000    0.000 
#    7.714    2.143    0.000    0.000    0.000    0.000 
#    0.000    0.000    0.000    0.000    0.000    0.000 
#
# Total GULP energy -77943.074416 kJ/mol
# GULP energy per Si atom -5567.362458 kJ/mol
# Density = 2.327556 g / cm^3
# Si number density = 23.328655 Si / 1000 Ang^3
#
#
#
# Elastic Constant Matrix: (Units=GPa)
#
#
# Indices 1 2 3 4 5 6 
#
# 1 64.7849 25.1499 36.5170 -11.0120 -8.8315 -14.6078
# 2 25.1499 60.2052 20.8367 -13.1869 -7.1257 1.6889
# 3 36.5170 20.8367 174.9778 -7.1166 -3.9184 -10.3490
# 4 -11.0120 -13.1869 -7.1166 35.6330 -5.1552 -4.1276
# 5 -8.8315 -7.1257 -3.9184 -5.1552 33.5882 4.8805
# 6 -14.6078 1.6889 -10.3490 -4.1276 4.8805 32.9232
#
#
#
# Elastic Compliance Matrix: (Units=1/GPa)
#
#
# Indices 1 2 3 4 5 6 
#
# 1 0.023896 -0.007477 -0.003181 0.005697 0.003726 0.010148
# 2 -0.007477 0.021940 -0.001005 0.005664 0.004118 -0.004659
# 3 -0.003181 -0.001005 0.006533 -0.000021 -0.000400 0.000750
# 4 0.005697 0.005664 -0.000021 0.033563 0.007065 0.005391
# 5 0.003726 0.004118 -0.000400 0.007065 0.033055 -0.002698
# 6 0.010148 -0.004659 0.000750 0.005391 -0.002698 0.036427
#
#
# Mechanical properties :
#
#
# Convention : Reuss Voigt Hill
#
# Bulk Modulus (GPa) = 34.43321 51.66391 43.04856
# Shear Modulus (GPa) = 26.53623 34.92651 30.73137
#
# Velocity S-wave (km/s) = 3.37634 3.87350 3.63343
# Velocity P-wave (km/s) = 5.47646 6.49612 6.00796
#
# Compressibility (1/GPa) = 0.02904173
#
# Stress axis : x y z
#
# Youngs Moduli (GPa) = 41.84826 45.57916 153.06479
#
# Poissons Ratio (x) = 0.34080 0.48694
# Poissons Ratio (y) = 0.31291 0.15386
# Poissons Ratio (z) = 0.13313 0.04582
#
# Static dielectric constant tensor:
#      x y z
#    x 1.736470 -0.051040 -0.102740 
#    y -0.051040 1.900190 -0.005260 
#    z -0.102740 -0.005260 1.852920 
# 
# From -- ./inp_files/291564.got.cif
#   From: 2010.05.17/outbox.cif.g08.bks.cpg/sg2_146_cif.got.tgz:291564.got - 2010.06.03 11:33:40.
