data_PCOD9009381
_publ_section_title
;
Structure prediction by ZEFSAII (Michael W. Deem and Ramdas Pophale) SiO2 
 PCOD9009381
Probable space group: P -1
;
_chemical_formula_sum "Si O2"
_cell_formula_units_Z 16
_cell_length_a 19.997850
_cell_length_b 23.572208
_cell_length_c 14.609694
_cell_angle_alpha 163.666553
_cell_angle_beta 29.647377
_cell_angle_gamma 158.038720
_cell_volume 709.844961
_symmetry_space_group_name_H-M "P -1"
_symmetry_group_IT_number 2
_symmetry_cell_setting 'triclinic'
loop_
_space_group_symop_operation_xyz
x,y,z
-x,-y,-z
loop_
_atom_site_type_symbol
_atom_site_label
_atom_site_fract_x
_atom_site_fract_y
_atom_site_fract_z
Si Si1 0.969230 0.209045 0.368971
Si Si2 0.206976 0.773342 0.696603
Si Si3 0.617836 0.921338 0.226854
Si Si4 0.719664 0.502490 0.690617
Si Si5 0.075475 0.036260 0.327330
Si Si6 0.893088 0.088554 0.472011
Si Si7 0.729010 0.692012 0.307694
Si Si8 0.390782 0.068295 0.288329
O O1 0.120701 0.435569 0.467594
O O2 0.769814 0.055260 0.330553
O O3 0.974828 0.269614 0.563086
O O4 0.000000 0.000000 0.000000
O O5 0.311211 0.691846 0.493140
O O6 0.000000 0.500000 0.500000
O O7 0.283942 0.943792 0.776520
O O8 0.198160 0.961915 0.061511
O O9 0.500000 0.000000 0.500000
O O10 0.472340 0.597031 0.898372
O O11 0.547676 0.348797 0.590578
O O12 0.780340 0.778234 0.087717
O O13 0.049973 0.145584 0.437041
O O14 0.870209 0.755633 0.161389
O O15 0.163633 0.245612 0.630183
O O16 0.764567 0.099620 0.706371
O O17 0.706508 0.900481 0.626789
O O18 0.500000 0.000000 0.000000
#
# Coordination Sequence:
#
# PCOD9009381 Si02
#       8
#     2   2   2   2   2   2   2   2
#     4  10  21  41  64  96 130 173 221 275 339 388
#     4  12  21  39  64  97 129 169 223 267 333 400
#     4  12  26  40  65 102 136 171 224 282 331 390
#     4  11  22  39  68  94 131 171 223 278 326 404
#     4  10  21  41  67  93 126 178 216 264 342 403
#     4  10  21  39  68  95 126 173 225 272 336 397
#     4  10  23  43  65  93 138 173 218 276 334 404
#     4  11  24  42  64  98 133 176 225 275 338 405
#
# _framework density 22.540133000000001
#
# number of rings (size 3 to 8) (size 9 to 14) (size 15 to 20)
#    0.000    1.250    2.500    4.125    3.500    0.500 
#    0.000    1.875    0.000    0.000    0.000    0.000 
#    0.000    0.000    0.000    0.000    0.000    0.000 
#
# Total GULP energy -89299.636647 kJ/mol
# GULP energy per Si atom -5581.227290 kJ/mol
# Density = 2.248883 g / cm^3
# Si number density = 22.540133 Si / 1000 Ang^3
#
#
#
# Elastic Constant Matrix: (Units=GPa)
#
#
# Indices 1 2 3 4 5 6 
#
# 1 145.3257 30.6626 14.2967 0.9563 15.6416 -4.8991
# 2 30.6626 77.3257 16.5826 -13.2361 6.6097 -10.2761
# 3 14.2967 16.5826 39.7598 -20.6162 1.8649 -7.9646
# 4 0.9563 -13.2361 -20.6162 37.1931 6.7547 1.9646
# 5 15.6416 6.6097 1.8649 6.7547 25.0355 -1.8893
# 6 -4.8991 -10.2761 -7.9646 1.9646 -1.8893 43.2108
#
#
#
# Elastic Compliance Matrix: (Units=1/GPa)
#
#
# Indices 1 2 3 4 5 6 
#
# 1 0.008114 -0.002706 -0.002714 -0.002000 -0.003635 -0.000292
# 2 -0.002706 0.016026 -0.002477 0.004889 -0.003473 0.002674
# 3 -0.002714 -0.002477 0.040020 0.022229 -0.006237 0.005196
# 4 -0.002000 0.004889 0.022229 0.043262 -0.013181 0.002490
# 5 -0.003635 -0.003473 -0.006237 -0.013181 0.047173 0.000274
# 6 -0.000292 0.002674 0.005196 0.002490 0.000274 0.024602
#
#
# Mechanical properties :
#
#
# Convention : Reuss Voigt Hill
#
# Bulk Modulus (GPa) = 20.67631 42.83278 31.75454
# Shear Modulus (GPa) = 23.68413 34.47918 29.08165
#
# Velocity S-wave (km/s) = 3.24505 3.91535 3.59586
# Velocity P-wave (km/s) = 4.82011 6.28364 5.59989
#
# Compressibility (1/GPa) = 0.04836454
#
# Stress axis : x y z
#
# Youngs Moduli (GPa) = 123.25045 62.40012 24.98755
#
# Poissons Ratio (x) = 0.16884 0.06782
# Poissons Ratio (y) = 0.33349 0.06190
# Poissons Ratio (z) = 0.33452 0.15459
#
# Static dielectric constant tensor:
#      x y z
#    x 1.774420 -0.009240 0.026230 
#    y -0.009240 1.617180 0.030040 
#    z 0.026230 0.030040 1.853060 
# 
# From -- ./inp_files/541775.got.cif
#   From: 2010.05.17/outbox.cif.g08.bks.cpg/sg2_271_cif.got.tgz:541775.got - 2010.06.03 11:33:40.
