data_PCOD9009783
_publ_section_title
;
Structure prediction by ZEFSAII (Michael W. Deem and Ramdas Pophale) SiO2 
 PCOD9009783
Probable space group: P -1
;
_chemical_formula_sum "Si O2"
_cell_formula_units_Z 14
_cell_length_a 8.141140
_cell_length_b 7.898803
_cell_length_c 17.700453
_cell_angle_alpha 43.828490
_cell_angle_beta 46.282647
_cell_angle_gamma 48.896526
_cell_volume 540.244870
_symmetry_space_group_name_H-M "P -1"
_symmetry_group_IT_number 2
_symmetry_cell_setting 'triclinic'
loop_
_space_group_symop_operation_xyz
x,y,z
-x,-y,-z
loop_
_atom_site_type_symbol
_atom_site_label
_atom_site_fract_x
_atom_site_fract_y
_atom_site_fract_z
Si Si1 0.021266 0.390994 0.272934
Si Si2 0.241374 0.633652 0.000975
Si Si3 0.569268 0.618870 0.129263
Si Si4 0.270473 0.364849 0.563417
Si Si5 0.879204 0.968056 0.912604
Si Si6 0.199895 0.856134 0.701051
Si Si7 0.744876 0.108985 0.588541
O O1 0.901625 0.538293 0.339301
O O2 0.862068 0.242805 0.326844
O O3 0.068343 0.571940 0.136227
O O4 0.266452 0.152313 0.285675
O O5 0.500000 0.500000 0.000000
O O6 0.269465 0.481181 0.963031
O O7 0.101220 0.913332 0.918186
O O8 0.585903 0.381278 0.255520
O O9 0.304793 0.753038 0.138392
O O10 0.696031 0.825057 0.051384
O O11 0.527035 0.222249 0.564921
O O12 0.259443 0.639811 0.441724
O O13 0.224389 0.140884 0.600437
O O14 0.993652 0.881993 0.821220
O O15 0.000000 0.000000 0.500000
#
# Coordination Sequence:
#
# PCOD9009783 Si02
#       7
#     2   2   2   2   2   2   2
#     4  11  23  42  66  97 132 170 219 268 322 389
#     4  11  23  37  59  96 138 172 220 267 313 384
#     4  10  21  40  59  87 135 181 216 268 313 377
#     4  10  24  43  69  94 126 170 215 273 333 386
#     4  10  21  40  60  88 134 181 216 263 321 373
#     4  11  22  41  65  96 130 170 222 262 324 387
#     4   9  22  46  67  95 131 161 213 279 330 391
#
# _framework density 25.914175
#
# number of rings (size 3 to 8) (size 9 to 14) (size 15 to 20)
#    0.000    1.714    2.857    0.857    6.000    4.571 
#    0.000    6.429    0.000    0.000    0.000    0.000 
#    0.000    0.000    0.000    0.000    0.000    0.000 
#
# Total GULP energy -78083.240390 kJ/mol
# GULP energy per Si atom -5577.374314 kJ/mol
# Density = 2.585519 g / cm^3
# Si number density = 25.914175 Si / 1000 Ang^3
#
#
#
# Elastic Constant Matrix: (Units=GPa)
#
#
# Indices 1 2 3 4 5 6 
#
# 1 82.9147 44.5950 6.3435 -14.9006 -1.1322 -11.6265
# 2 44.5950 138.8124 36.9497 -28.5673 7.5439 -20.1864
# 3 6.3435 36.9497 51.2261 -9.6645 9.2529 -7.9403
# 4 -14.9006 -28.5673 -9.6645 41.8695 0.4533 10.1331
# 5 -1.1322 7.5439 9.2529 0.4533 39.0347 -9.3366
# 6 -11.6265 -20.1864 -7.9403 10.1331 -9.3366 43.0235
#
#
#
# Elastic Compliance Matrix: (Units=1/GPa)
#
#
# Indices 1 2 3 4 5 6 
#
# 1 0.015140 -0.004744 0.002018 0.002111 0.001339 0.002031
# 2 -0.004744 0.011679 -0.006662 0.004296 -0.000419 0.001866
# 3 0.002018 -0.006662 0.025359 0.001914 -0.004528 0.000667
# 4 0.002111 0.004296 0.001914 0.029123 -0.002635 -0.004492
# 5 0.001339 -0.000419 -0.004528 -0.002635 0.028299 0.006091
# 6 0.002031 0.001866 0.000667 -0.004492 0.006091 0.027170
#
#
# Mechanical properties :
#
#
# Convention : Reuss Voigt Hill
#
# Bulk Modulus (GPa) = 29.93669 49.85885 39.89777
# Shear Modulus (GPa) = 29.99754 37.12323 33.56038
#
# Velocity S-wave (km/s) = 3.40600 3.78900 3.60260
# Velocity P-wave (km/s) = 5.20049 6.19870 5.72141
#
# Compressibility (1/GPa) = 0.03340383
#
# Stress axis : x y z
#
# Youngs Moduli (GPa) = 66.04899 85.62047 39.43419
#
# Poissons Ratio (x) = 0.40620 -0.07959
# Poissons Ratio (y) = 0.31335 0.26269
# Poissons Ratio (z) = -0.13331 0.57037
#
# Static dielectric constant tensor:
#      x y z
#    x 2.106240 0.010280 -0.079620 
#    y 0.010280 2.122030 -0.127480 
#    z -0.079620 -0.127480 2.142250 
# 
# From -- ./inp_files/586468.got.cif
#   From: 2010.05.17/outbox.cif.g08.bks.cpg/sg2_294_cif.got.tgz:586468.got - 2010.06.03 11:33:40.
