data_PCOD9009547
_publ_section_title
;
Structure prediction by ZEFSAII (Michael W. Deem and Ramdas Pophale) SiO2 
 PCOD9009547
Probable space group: P -1
;
_chemical_formula_sum "Si O2"
_cell_formula_units_Z 14
_cell_length_a 8.465182
_cell_length_b 5.632673
_cell_length_c 15.092446
_cell_angle_alpha 110.115174
_cell_angle_beta 125.287370
_cell_angle_gamma 89.194374
_cell_volume 535.342606
_symmetry_space_group_name_H-M "P -1"
_symmetry_group_IT_number 2
_symmetry_cell_setting 'triclinic'
loop_
_space_group_symop_operation_xyz
x,y,z
-x,-y,-z
loop_
_atom_site_type_symbol
_atom_site_label
_atom_site_fract_x
_atom_site_fract_y
_atom_site_fract_z
Si Si1 0.315149 0.539843 0.059708
Si Si2 0.953737 0.755189 0.387471
Si Si3 0.659890 0.944123 0.188662
Si Si4 0.425139 0.261753 0.513352
Si Si5 0.576390 0.411380 0.283069
Si Si6 0.947498 0.101966 0.900421
Si Si7 0.056757 0.277739 0.299218
O O1 0.464503 0.732852 0.065573
O O2 0.455011 0.424809 0.156084
O O3 0.201295 0.716745 0.103130
O O4 0.139803 0.297228 0.941393
O O5 0.806037 0.806242 0.270406
O O6 0.812769 0.533495 0.373338
O O7 0.094620 0.589330 0.365686
O O8 0.000000 0.000000 0.500000
O O9 0.568918 0.109644 0.253818
O O10 0.816468 0.150942 0.206813
O O11 0.500000 0.500000 0.500000
O O12 0.490076 0.403839 0.644836
O O13 0.186102 0.185699 0.407023
O O14 0.500000 0.000000 0.500000
O O15 0.875062 0.849517 0.783025
O O16 0.000000 0.000000 0.000000
#
# Coordination Sequence:
#
# PCOD9009547 Si02
#       7
#     2   2   2   2   2   2   2
#     4  10  23  43  72  98 130 191 231 297 360 437
#     4  10  21  39  69  98 138 182 231 289 357 425
#     4  10  22  42  69  97 134 180 240 293 358 428
#     4  12  29  43  70 109 148 194 240 303 369 449
#     4  10  22  42  67  97 139 181 232 294 357 428
#     4  11  25  45  69  98 142 183 236 293 366 431
#     4  11  26  44  68 106 141 186 239 303 354 436
#
# _framework density 26.151472999999999
#
# number of rings (size 3 to 8) (size 9 to 14) (size 15 to 20)
#    0.000    1.429    0.000    3.429   12.000    5.143 
#    0.000   10.000    0.000    0.000    0.000    0.000 
#    0.000    0.000    0.000    0.000    0.000    0.000 
#
# Total GULP energy -78144.433338 kJ/mol
# GULP energy per Si atom -5581.745238 kJ/mol
# Density = 2.609195 g / cm^3
# Si number density = 26.151473 Si / 1000 Ang^3
#
#
#
# Elastic Constant Matrix: (Units=GPa)
#
#
# Indices 1 2 3 4 5 6 
#
# 1 53.6086 37.2762 34.0130 26.5625 13.7168 -17.3844
# 2 37.2762 146.0837 40.5556 24.6434 -4.5894 -54.4791
# 3 34.0130 40.5556 104.5684 34.4387 -2.9543 -17.6187
# 4 26.5625 24.6434 34.4387 60.1997 -4.7978 -0.4116
# 5 13.7168 -4.5894 -2.9543 -4.7978 65.4848 22.7918
# 6 -17.3844 -54.4791 -17.6187 -0.4116 22.7918 62.5339
#
#
#
# Elastic Compliance Matrix: (Units=1/GPa)
#
#
# Indices 1 2 3 4 5 6 
#
# 1 0.037437 -0.001542 -0.005313 -0.013841 -0.013521 0.012404
# 2 -0.001542 0.012183 -0.001234 -0.003761 -0.002943 0.010885
# 3 -0.005313 -0.001234 0.013526 -0.004805 0.000982 0.000870
# 4 -0.013841 -0.003761 -0.004805 0.027598 0.008393 -0.011356
# 5 -0.013521 -0.002943 0.000982 0.008393 0.023640 -0.014607
# 6 0.012404 0.010885 0.000870 -0.011356 -0.014607 0.034417
#
#
# Mechanical properties :
#
#
# Convention : Reuss Voigt Hill
#
# Bulk Modulus (GPa) = 21.29061 58.66113 39.97587
# Shear Modulus (GPa) = 27.68039 50.47142 39.07590
#
# Velocity S-wave (km/s) = 3.25693 4.39790 3.86970
# Velocity P-wave (km/s) = 4.72254 6.94757 5.94017
#
# Compressibility (1/GPa) = 0.04696906
#
# Stress axis : x y z
#
# Youngs Moduli (GPa) = 26.71183 82.08292 73.92987
#
# Poissons Ratio (x) = 0.12656 0.39277
# Poissons Ratio (y) = 0.04118 0.09122
# Poissons Ratio (z) = 0.14191 0.10128
#
# Static dielectric constant tensor:
#      x y z
#    x 2.287510 0.081130 0.053930 
#    y 0.081130 2.070020 0.086360 
#    z 0.053930 0.086360 2.055790 
# 
# From -- ./inp_files/28148.got.cif
#   From: 2010.05.17/outbox.cif.g08.bks.cpg/sg2_15_cif.got.tgz:28148.got - 2010.06.03 11:33:40.
