data_PCOD9009914
_publ_section_title
;
Structure prediction by ZEFSAII (Michael W. Deem and Ramdas Pophale) SiO2 
 PCOD9009914
Probable space group: P -1
;
_chemical_formula_sum "Si O2"
_cell_formula_units_Z 16
_cell_length_a 10.149692
_cell_length_b 13.183799
_cell_length_c 8.112944
_cell_angle_alpha 61.264530
_cell_angle_beta 67.891204
_cell_angle_gamma 43.336485
_cell_volume 652.636632
_symmetry_space_group_name_H-M "P -1"
_symmetry_group_IT_number 2
_symmetry_cell_setting 'triclinic'
loop_
_space_group_symop_operation_xyz
x,y,z
-x,-y,-z
loop_
_atom_site_type_symbol
_atom_site_label
_atom_site_fract_x
_atom_site_fract_y
_atom_site_fract_z
Si Si1 0.336195 0.505200 0.013196
Si Si2 0.267165 0.136411 0.165442
Si Si3 0.596921 0.568776 0.450629
Si Si4 0.042332 0.340599 0.432850
Si Si5 0.872555 0.032402 0.750728
Si Si6 0.751416 0.249994 0.347222
Si Si7 0.473866 0.796946 0.027751
Si Si8 0.043630 0.342026 0.787704
O O1 0.254976 0.611129 0.802275
O O2 0.424472 0.333395 0.060644
O O3 0.500000 0.500000 0.000000
O O4 0.160186 0.608533 0.138279
O O5 0.239095 0.014494 0.249566
O O6 0.157182 0.227109 0.314780
O O7 0.464945 0.102585 0.097708
O O8 0.162310 0.244472 0.968415
O O9 0.500000 0.500000 0.500000
O O10 0.819751 0.426720 0.483183
O O11 0.468902 0.672162 0.591485
O O12 0.559664 0.688645 0.238207
O O13 0.135723 0.267751 0.625091
O O14 0.017895 0.491072 0.303795
O O15 0.099383 0.883498 0.751907
O O16 0.839837 0.161425 0.549466
O O17 0.754307 0.100751 0.922992
#
# Coordination Sequence:
#
# PCOD9009914 Si02
#       8
#     2   2   2   2   2   2   2   2
#     4  12  23  42  67  98 137 173 226 294 340 398
#     4  12  21  44  68  94 141 179 223 278 335 413
#     4  11  19  33  61  97 128 166 216 277 336 390
#     4  11  23  38  65 101 137 172 225 283 344 400
#     4  10  23  40  66  96 135 180 228 270 333 418
#     4  10  21  40  60  95 131 172 226 267 331 408
#     4  11  23  39  67 100 125 179 230 273 341 402
#     4  11  23  39  64 101 134 174 223 283 345 396
#
# _framework density 24.515940000000001
#
# number of rings (size 3 to 8) (size 9 to 14) (size 15 to 20)
#    0.000    1.000    5.000    3.000    0.000    0.000 
#    0.000    1.875    0.000    2.250    0.000    0.000 
#    0.000    0.000    0.000    0.000    0.000    0.000 
#
# Total GULP energy -89367.111934 kJ/mol
# GULP energy per Si atom -5585.444496 kJ/mol
# Density = 2.446014 g / cm^3
# Si number density = 24.515940 Si / 1000 Ang^3
#
#
#
# Elastic Constant Matrix: (Units=GPa)
#
#
# Indices 1 2 3 4 5 6 
#
# 1 47.0456 3.6925 30.7336 1.2123 -20.8935 1.8625
# 2 3.6925 88.5729 44.1664 19.6298 0.0257 0.2355
# 3 30.7336 44.1664 107.3210 21.3397 -3.5229 6.7339
# 4 1.2123 19.6298 21.3397 33.1219 9.2724 -19.0918
# 5 -20.8935 0.0257 -3.5229 9.2724 38.6910 9.9338
# 6 1.8625 0.2355 6.7339 -19.0918 9.9338 31.9298
#
#
#
# Elastic Compliance Matrix: (Units=1/GPa)
#
#
# Indices 1 2 3 4 5 6 
#
# 1 0.044999 0.008900 -0.006237 -0.034231 0.040797 -0.034535
# 2 0.008900 0.017983 -0.003614 -0.023536 0.014879 -0.018592
# 3 -0.006237 -0.003614 0.019626 -0.026416 0.010618 -0.022847
# 4 -0.034231 -0.023536 -0.026416 0.170521 -0.097711 0.140100
# 5 0.040797 0.014879 0.010618 -0.097711 0.096144 -0.093065
# 6 -0.034535 -0.018592 -0.022847 0.140100 -0.093065 0.151012
#
#
# Mechanical properties :
#
#
# Convention : Reuss Voigt Hill
#
# Bulk Modulus (GPa) = 12.39061 44.45828 28.42444
# Shear Modulus (GPa) = 9.45022 31.70502 20.57762
#
# Velocity S-wave (km/s) = 1.96547 3.60007 2.90031
# Velocity P-wave (km/s) = 3.19623 5.95436 4.77861
#
# Compressibility (1/GPa) = 0.08070626
#
# Stress axis : x y z
#
# Youngs Moduli (GPa) = 22.22264 55.60903 50.95341
#
# Poissons Ratio (x) = -0.49493 0.31778
# Poissons Ratio (y) = -0.19779 0.18416
# Poissons Ratio (z) = 0.13859 0.20099
#
# Static dielectric constant tensor:
#      x y z
#    x 2.007500 -0.019220 0.023400 
#    y -0.019220 2.004420 0.038570 
#    z 0.023400 0.038570 2.002090 
# 
# From -- ./inp_files/272097.got.cif
#   From: 2010.05.17/outbox.cif.g08.bks.cpg/sg2_137_cif.got.tgz:272097.got - 2010.06.03 11:33:40.
