data_PCOD9009604
_publ_section_title
;
Structure prediction by ZEFSAII (Michael W. Deem and Ramdas Pophale) SiO2 
 PCOD9009604
Probable space group: P -1
;
_chemical_formula_sum "Si O2"
_cell_formula_units_Z 16
_cell_length_a 12.237012
_cell_length_b 11.717236
_cell_length_c 9.524557
_cell_angle_alpha 129.257717
_cell_angle_beta 42.585023
_cell_angle_gamma 132.129085
_cell_volume 658.584591
_symmetry_space_group_name_H-M "P -1"
_symmetry_group_IT_number 2
_symmetry_cell_setting 'triclinic'
loop_
_space_group_symop_operation_xyz
x,y,z
-x,-y,-z
loop_
_atom_site_type_symbol
_atom_site_label
_atom_site_fract_x
_atom_site_fract_y
_atom_site_fract_z
Si Si1 0.223722 0.021450 0.895931
Si Si2 0.813441 0.867642 0.531301
Si Si3 0.693443 0.517646 0.373409
Si Si4 0.108666 0.947977 0.653456
Si Si5 0.772683 0.418033 0.951528
Si Si6 0.537562 0.903751 0.018731
Si Si7 0.891237 0.584670 0.502188
Si Si8 0.311259 0.394300 0.037502
O O1 0.359629 0.006894 0.869704
O O2 0.277318 0.209502 0.951201
O O3 0.031691 0.974548 0.110931
O O4 0.198567 0.931221 0.700843
O O5 0.823899 0.699887 0.359958
O O6 0.674413 0.839047 0.765218
O O7 0.760811 0.938516 0.496488
O O8 0.000000 0.000000 0.500000
O O9 0.500000 0.500000 0.500000
O O10 0.721512 0.506580 0.502936
O O11 0.751298 0.407354 0.131025
O O12 0.993013 0.778025 0.561531
O O13 0.707930 0.552304 0.059158
O O14 0.966289 0.465009 0.747413
O O15 0.638469 0.245634 0.889130
O O16 0.500000 0.000000 0.000000
O O17 0.823258 0.554815 0.701862
O O18 0.500000 0.500000 0.000000
#
# Coordination Sequence:
#
# PCOD9009604 Si02
#       8
#     2   2   2   2   2   2   2   2
#     4  10  21  42  68 102 131 178 237 284 342 418
#     4  12  21  42  70  99 134 184 240 286 341 414
#     4  12  24  43  71  99 137 187 241 288 337 423
#     4  10  21  39  70  97 132 178 236 287 338 411
#     4  12  25  44  66 101 143 183 230 291 362 411
#     4  12  25  43  67 101 144 181 226 297 355 411
#     4  11  24  43  64 101 141 180 229 291 357 412
#     4  11  21  42  73  97 133 182 232 287 340 420
#
# _framework density 24.294525
#
# number of rings (size 3 to 8) (size 9 to 14) (size 15 to 20)
#    0.000    0.750    5.000    3.750    0.000    0.000 
#    0.000    3.750    0.000    0.000    0.000    0.000 
#    0.000    0.000    0.000    0.000    0.000    0.000 
#
# Total GULP energy -89441.939112 kJ/mol
# GULP energy per Si atom -5590.121194 kJ/mol
# Density = 2.423923 g / cm^3
# Si number density = 24.294525 Si / 1000 Ang^3
#
#
#
# Elastic Constant Matrix: (Units=GPa)
#
#
# Indices 1 2 3 4 5 6 
#
# 1 141.9378 13.0992 20.2764 5.4990 28.0627 13.2246
# 2 13.0992 45.3623 -11.2764 -9.8139 -2.2058 11.0337
# 3 20.2764 -11.2764 74.0265 -8.5273 8.6402 12.9934
# 4 5.4990 -9.8139 -8.5273 32.7379 6.2986 3.9397
# 5 28.0627 -2.2058 8.6402 6.2986 45.2927 -4.2999
# 6 13.2246 11.0337 12.9934 3.9397 -4.2999 38.6001
#
#
#
# Elastic Compliance Matrix: (Units=1/GPa)
#
#
# Indices 1 2 3 4 5 6 
#
# 1 0.008940 -0.003403 -0.002287 -0.001920 -0.005163 -0.001699
# 2 -0.003403 0.031648 0.009838 0.014445 -0.001454 -0.012829
# 3 -0.002287 0.009838 0.019044 0.010282 -0.004111 -0.009946
# 4 -0.001920 0.014445 0.010282 0.040617 -0.006841 -0.011840
# 5 -0.005163 -0.001454 -0.004111 -0.006841 0.027639 0.007345
# 6 -0.001699 -0.012829 -0.009946 -0.011840 0.007345 0.035531
#
#
# Mechanical properties :
#
#
# Convention : Reuss Voigt Hill
#
# Bulk Modulus (GPa) = 14.72170 33.94724 24.33447
# Shear Modulus (GPa) = 28.12703 39.27463 33.70083
#
# Velocity S-wave (km/s) = 3.40627 4.02506 3.72852
# Velocity P-wave (km/s) = 4.64145 5.96700 5.34547
#
# Compressibility (1/GPa) = 0.06792694
#
# Stress axis : x y z
#
# Youngs Moduli (GPa) = 111.86243 31.59768 52.51041
#
# Poissons Ratio (x) = 0.10753 0.12011
# Poissons Ratio (y) = 0.38069 -0.51662
# Poissons Ratio (z) = 0.25587 -0.31087
#
# Static dielectric constant tensor:
#      x y z
#    x 2.000010 -0.033810 -0.009460 
#    y -0.033810 1.887540 0.023690 
#    z -0.009460 0.023690 1.973200 
# 
# From -- ./inp_files/262967.got.cif
#   From: 2010.05.17/outbox.cif.g08.bks.cpg/sg2_132_cif.got.tgz:262967.got - 2010.06.03 11:33:40.
