data_PCOD9009724
_publ_section_title
;
Structure prediction by ZEFSAII (Michael W. Deem and Ramdas Pophale) SiO2 
 PCOD9009724
Probable space group: P -1
;
_chemical_formula_sum "Si O2"
_cell_formula_units_Z 16
_cell_length_a 14.317502
_cell_length_b 26.117600
_cell_length_c 9.165544
_cell_angle_alpha 54.191429
_cell_angle_beta 42.785247
_cell_angle_gamma 21.450864
_cell_volume 782.330330
_symmetry_space_group_name_H-M "P -1"
_symmetry_group_IT_number 2
_symmetry_cell_setting 'triclinic'
loop_
_space_group_symop_operation_xyz
x,y,z
-x,-y,-z
loop_
_atom_site_type_symbol
_atom_site_label
_atom_site_fract_x
_atom_site_fract_y
_atom_site_fract_z
Si Si1 0.655451 0.624033 0.765437
Si Si2 0.764926 0.018597 0.659056
Si Si3 0.789893 0.762622 0.599599
Si Si4 0.830437 0.270570 0.866584
Si Si5 0.394742 0.782770 0.527328
Si Si6 0.008916 0.463143 0.207308
Si Si7 0.377653 0.013124 0.891385
Si Si8 0.755980 0.980216 0.426235
O O1 0.388824 0.772375 0.724031
O O2 0.705420 0.625336 0.870751
O O3 0.000000 0.500000 0.500000
O O4 0.548324 0.595405 0.920368
O O5 0.897613 0.955623 0.447054
O O6 0.050633 0.915542 0.619356
O O7 0.514844 0.182063 0.664818
O O8 0.618134 0.017750 0.902179
O O9 0.938644 0.633772 0.690351
O O10 0.571976 0.883661 0.777793
O O11 0.060359 0.703765 0.343201
O O12 0.526762 0.864299 0.598904
O O13 0.991416 0.156685 0.749547
O O14 0.015921 0.177059 0.961592
O O15 0.661736 0.625374 0.411580
O O16 0.000000 0.500000 0.000000
O O17 0.564066 0.000696 0.679371
#
# Coordination Sequence:
#
# PCOD9009724 Si02
#       8
#     2   2   2   2   2   2   2   2
#     4  10  21  40  58  77 116 155 190 231 288 336
#     4  11  19  34  57  84 117 141 195 227 282 330
#     4   9  19  38  60  86 115 151 188 227 289 345
#     4   9  18  37  60  84 115 150 188 236 283 338
#     4  10  23  36  53  81 114 156 181 233 281 339
#     4  11  23  39  59  81 118 147 195 238 282 336
#     4   9  17  34  59  85 116 146 183 232 286 332
#     4   9  19  32  60  90 111 145 188 234 280 336
#
# _framework density 20.451718
#
# number of rings (size 3 to 8) (size 9 to 14) (size 15 to 20)
#    0.000    2.250    1.250    3.375    1.750    0.000 
#    0.000    5.000   11.000    0.000    0.000    0.000 
#    0.000    0.000    0.000    0.000    0.000    0.000 
#
# Total GULP energy -89154.941044 kJ/mol
# GULP energy per Si atom -5572.183815 kJ/mol
# Density = 2.040517 g / cm^3
# Si number density = 20.451718 Si / 1000 Ang^3
#
#
#
# Elastic Constant Matrix: (Units=GPa)
#
#
# Indices 1 2 3 4 5 6 
#
# 1 82.8771 34.6528 23.7066 -19.7144 10.3515 -20.0524
# 2 34.6528 94.8564 28.2233 -36.5074 2.2054 4.7499
# 3 23.7066 28.2233 77.3462 -25.7253 0.5133 -10.7793
# 4 -19.7144 -36.5074 -25.7253 34.7826 -9.2534 -1.4599
# 5 10.3515 2.2054 0.5133 -9.2534 37.5957 -6.7065
# 6 -20.0524 4.7499 -10.7793 -1.4599 -6.7065 26.0454
#
#
#
# Elastic Compliance Matrix: (Units=1/GPa)
#
#
# Indices 1 2 3 4 5 6 
#
# 1 0.020009 -0.006001 0.000323 0.005786 -0.000747 0.016765
# 2 -0.006001 0.020046 -0.000381 0.018094 0.003785 -0.006445
# 3 0.000323 -0.000381 0.019950 0.016510 0.005680 0.010963
# 4 0.005786 0.018094 0.016510 0.068388 0.016834 0.016155
# 5 -0.000747 0.003785 0.005680 0.016834 0.032503 0.010398
# 6 0.016765 -0.006445 0.010963 0.016155 0.010398 0.060597
#
#
# Mechanical properties :
#
#
# Convention : Reuss Voigt Hill
#
# Bulk Modulus (GPa) = 20.88226 47.58281 34.23254
# Shear Modulus (GPa) = 20.03416 30.91786 25.47601
#
# Velocity S-wave (km/s) = 3.13322 3.89234 3.53323
# Velocity P-wave (km/s) = 4.82930 6.59673 5.78096
#
# Compressibility (1/GPa) = 0.04788753
#
# Stress axis : x y z
#
# Youngs Moduli (GPa) = 49.97808 49.88435 50.12502
#
# Poissons Ratio (x) = 0.29935 -0.01618
# Poissons Ratio (y) = 0.29991 0.01908
# Poissons Ratio (z) = -0.01613 0.01899
#
# Static dielectric constant tensor:
#      x y z
#    x 1.788980 -0.006300 -0.022480 
#    y -0.006300 1.735400 0.016500 
#    z -0.022480 0.016500 1.828580 
# 
# From -- ./inp_files/271146.got.cif
#   From: 2010.05.17/outbox.cif.g08.bks.cpg/sg2_136_cif.got.tgz:271146.got - 2010.06.03 11:33:40.
