data_PCOD9009689
_publ_section_title
;
Structure prediction by ZEFSAII (Michael W. Deem and Ramdas Pophale) SiO2 
 PCOD9009689
Probable space group: P -1
;
_chemical_formula_sum "Si O2"
_cell_formula_units_Z 14
_cell_length_a 20.243707
_cell_length_b 9.065253
_cell_length_c 9.807594
_cell_angle_alpha 129.624450
_cell_angle_beta 151.348307
_cell_angle_gamma 47.431158
_cell_volume 630.584650
_symmetry_space_group_name_H-M "P -1"
_symmetry_group_IT_number 2
_symmetry_cell_setting 'triclinic'
loop_
_space_group_symop_operation_xyz
x,y,z
-x,-y,-z
loop_
_atom_site_type_symbol
_atom_site_label
_atom_site_fract_x
_atom_site_fract_y
_atom_site_fract_z
Si Si1 0.009618 0.667462 0.008179
Si Si2 0.873305 0.002853 0.169660
Si Si3 0.671057 0.436781 0.603065
Si Si4 0.806695 0.364309 0.086511
Si Si5 0.610922 0.903645 0.763700
Si Si6 0.130443 0.251039 0.488273
Si Si7 0.600637 0.093896 0.150258
O O1 0.174870 0.612194 0.225017
O O2 0.946482 0.877349 0.096070
O O3 0.000000 0.500000 0.000000
O O4 0.911921 0.688492 0.708656
O O5 0.788685 0.229141 0.099917
O O6 0.768438 0.898332 0.991008
O O7 0.000000 0.000000 0.500000
O O8 0.608266 0.677096 0.647669
O O9 0.576474 0.325411 0.282749
O O10 0.710005 0.347005 0.772590
O O11 0.786524 0.597347 0.217828
O O12 0.977846 0.285595 0.308576
O O13 0.500000 0.000000 0.500000
O O14 0.583183 0.039107 0.929629
O O15 0.235418 0.028097 0.575776
O O16 0.500000 0.000000 0.000000
#
# Coordination Sequence:
#
# PCOD9009689 Si02
#       7
#     2   2   2   2   2   2   2
#     4  11  21  37  70 104 139 177 226 292 352 415
#     4  12  24  41  70 105 144 181 233 292 363 413
#     4  11  24  47  73 101 137 184 239 285 353 427
#     4  10  21  39  74 101 134 181 225 292 352 412
#     4  12  29  49  70 104 148 182 237 300 355 422
#     4  10  21  40  66 105 139 173 239 286 342 419
#     4  12  28  46  72  98 139 192 239 284 344 430
#
# _framework density 22.201616999999999
#
# number of rings (size 3 to 8) (size 9 to 14) (size 15 to 20)
#    0.000    0.857    2.857    4.286    6.000    4.571 
#    0.000    0.000    0.000    0.000    0.000    0.000 
#    0.000    0.000    0.000    0.000    0.000    0.000 
#
# Total GULP energy -78375.498144 kJ/mol
# GULP energy per Si atom -5598.249867 kJ/mol
# Density = 2.215109 g / cm^3
# Si number density = 22.201617 Si / 1000 Ang^3
#
#
#
# Elastic Constant Matrix: (Units=GPa)
#
#
# Indices 1 2 3 4 5 6 
#
# 1 71.1677 1.3497 46.2530 7.5905 -17.0614 12.0933
# 2 1.3497 85.7268 38.3475 23.1216 -5.2792 21.7829
# 3 46.2530 38.3475 129.4480 17.1926 -21.4677 0.1417
# 4 7.5905 23.1216 17.1926 43.1024 -4.4971 -3.6647
# 5 -17.0614 -5.2792 -21.4677 -4.4971 32.6613 -1.8385
# 6 12.0933 21.7829 0.1417 -3.6647 -1.8385 31.5704
#
#
#
# Elastic Compliance Matrix: (Units=1/GPa)
#
#
# Indices 1 2 3 4 5 6 
#
# 1 0.026237 0.011417 -0.010683 -0.007368 0.006481 -0.018357
# 2 0.011417 0.025564 -0.009713 -0.013801 0.000486 -0.023542
# 3 -0.010683 -0.009713 0.014640 0.002568 0.003457 0.011228
# 4 -0.007368 -0.013801 0.002568 0.032351 0.000971 0.016145
# 5 0.006481 0.000486 0.003457 0.000971 0.036454 -0.000598
# 6 -0.018357 -0.023542 0.011228 0.016145 -0.000598 0.056739
#
#
# Mechanical properties :
#
#
# Convention : Reuss Voigt Hill
#
# Bulk Modulus (GPa) = 20.62629 50.91587 35.77108
# Shear Modulus (GPa) = 22.11360 34.82633 28.46996
#
# Velocity S-wave (km/s) = 3.15943 3.96490 3.58486
# Velocity P-wave (km/s) = 4.75604 6.62901 5.76904
#
# Compressibility (1/GPa) = 0.04848181
#
# Stress axis : x y z
#
# Youngs Moduli (GPa) = 38.11401 39.11726 68.30703
#
# Poissons Ratio (x) = -0.44659 0.72975
# Poissons Ratio (y) = -0.43514 0.66347
# Poissons Ratio (z) = 0.40718 0.37995
#
# Static dielectric constant tensor:
#      x y z
#    x 1.850360 0.085480 -0.104670 
#    y 0.085480 2.215740 -0.385090 
#    z -0.104670 -0.385090 2.228320 
# 
# From -- ./inp_files/199459.got.cif
#   From: 2010.05.17/outbox.cif.g08.bks.cpg/sg2_100_cif.got.tgz:199459.got - 2010.06.03 11:33:40.
