data_PCOD9009581
_publ_section_title
;
Structure prediction by ZEFSAII (Michael W. Deem and Ramdas Pophale) SiO2 
 PCOD9009581
Probable space group: P -1
;
_chemical_formula_sum "Si O2"
_cell_formula_units_Z 16
_cell_length_a 8.215081
_cell_length_b 8.104354
_cell_length_c 15.053159
_cell_angle_alpha 64.486094
_cell_angle_beta 96.759151
_cell_angle_gamma 53.106454
_cell_volume 617.278158
_symmetry_space_group_name_H-M "P -1"
_symmetry_group_IT_number 2
_symmetry_cell_setting 'triclinic'
loop_
_space_group_symop_operation_xyz
x,y,z
-x,-y,-z
loop_
_atom_site_type_symbol
_atom_site_label
_atom_site_fract_x
_atom_site_fract_y
_atom_site_fract_z
Si Si1 0.508055 0.734176 0.590175
Si Si2 0.998204 0.860264 0.255873
Si Si3 0.856640 0.566551 0.886141
Si Si4 0.472394 0.794068 0.932894
Si Si5 0.335204 0.909047 0.335390
Si Si6 0.758352 0.403986 0.367104
Si Si7 0.146331 0.195181 0.566864
Si Si8 0.739355 0.672407 0.147296
O O1 0.790153 0.460986 0.674716
O O2 0.405624 0.814243 0.464578
O O3 0.388566 0.657575 0.650167
O O4 0.394004 0.997427 0.574831
O O5 0.139568 0.919017 0.288844
O O6 0.839279 0.900254 0.313701
O O7 0.791140 0.077382 0.122310
O O8 0.645201 0.614838 0.901662
O O9 0.070355 0.347248 0.883233
O O10 0.751314 0.826316 0.767356
O O11 0.000000 0.500000 0.000000
O O12 0.433932 0.046987 0.877960
O O13 0.607686 0.658800 0.066685
O O14 0.571419 0.672843 0.349611
O O15 0.843311 0.449205 0.277494
O O16 0.978206 0.204458 0.493201
O O17 0.000000 0.500000 0.500000
#
# Coordination Sequence:
#
# PCOD9009581 Si02
#       8
#     2   2   2   2   2   2   2   2
#     4  11  24  43  67 100 136 181 222 267 347 413
#     4  11  24  42  64 102 139 171 227 281 333 393
#     4  10  22  40  67  93 124 176 230 272 331 398
#     4  10  22  43  63  95 136 174 223 285 331 394
#     4  11  21  43  69  95 136 184 223 275 331 413
#     4  11  20  42  69  98 131 182 226 271 335 413
#     4  12  25  39  66 100 137 171 224 281 335 398
#     4  10  21  39  70  90 128 183 225 269 342 395
#
# _framework density 25.920245999999999
#
# number of rings (size 3 to 8) (size 9 to 14) (size 15 to 20)
#    0.000    1.250    3.750    2.625    1.750    1.500 
#    0.000    5.000    0.000    0.000    0.000    0.000 
#    0.000    0.000    0.000    0.000    0.000    0.000 
#
# Total GULP energy -89477.414222 kJ/mol
# GULP energy per Si atom -5592.338389 kJ/mol
# Density = 2.586125 g / cm^3
# Si number density = 25.920246 Si / 1000 Ang^3
#
#
#
# Elastic Constant Matrix: (Units=GPa)
#
#
# Indices 1 2 3 4 5 6 
#
# 1 86.8557 26.9019 30.1014 14.6144 27.5289 -15.6377
# 2 26.9019 127.8678 21.3111 2.7999 4.0246 -29.3818
# 3 30.1014 21.3111 100.7317 5.0467 23.7148 -7.9397
# 4 14.6144 2.7999 5.0467 29.6527 -10.2238 -0.4592
# 5 27.5289 4.0246 23.7148 -10.2238 45.8723 -2.7463
# 6 -15.6377 -29.3818 -7.9397 -0.4592 -2.7463 39.1244
#
#
#
# Elastic Compliance Matrix: (Units=1/GPa)
#
#
# Indices 1 2 3 4 5 6 
#
# 1 0.020591 -0.002176 -0.001124 -0.014688 -0.014549 0.005174
# 2 -0.002176 0.009910 -0.001419 0.001098 0.001799 0.006424
# 3 -0.001124 -0.001419 0.012266 -0.003567 -0.006308 0.000490
# 4 -0.014688 0.001098 -0.003567 0.048717 0.021198 -0.003710
# 5 -0.014549 0.001799 -0.006308 0.021198 0.038190 -0.002814
# 6 0.005174 0.006424 0.000490 -0.003710 -0.002814 0.032310
#
#
# Mechanical properties :
#
#
# Convention : Reuss Voigt Hill
#
# Bulk Modulus (GPa) = 30.00358 52.45379 41.22869
# Shear Modulus (GPa) = 27.39252 38.73928 33.06590
#
# Velocity S-wave (km/s) = 3.25437 3.87014 3.57554
# Velocity P-wave (km/s) = 5.07166 6.34439 5.74339
#
# Compressibility (1/GPa) = 0.03332936
#
# Stress axis : x y z
#
# Youngs Moduli (GPa) = 48.56469 100.90491 81.52845
#
# Poissons Ratio (x) = 0.21961 0.09163
# Poissons Ratio (y) = 0.10570 0.11565
# Poissons Ratio (z) = 0.05458 0.14314
#
# Static dielectric constant tensor:
#      x y z
#    x 2.058780 0.004280 0.058850 
#    y 0.004280 2.133740 -0.027240 
#    z 0.058850 -0.027240 1.986340 
# 
# From -- ./inp_files/494683.got.cif
#   From: 2010.05.17/outbox.cif.g08.bks.cpg/sg2_248_cif.got.tgz:494683.got - 2010.06.03 11:33:40.
