data_PCOD9009514
_publ_section_title
;
Structure prediction by ZEFSAII (Michael W. Deem and Ramdas Pophale) SiO2 
 PCOD9009514
Probable space group: P -1
;
_chemical_formula_sum "Si O2"
_cell_formula_units_Z 16
_cell_length_a 14.145827
_cell_length_b 16.032168
_cell_length_c 8.430692
_cell_angle_alpha 108.403097
_cell_angle_beta 91.195750
_cell_angle_gamma 28.516503
_cell_volume 713.857402
_symmetry_space_group_name_H-M "P -1"
_symmetry_group_IT_number 2
_symmetry_cell_setting 'triclinic'
loop_
_space_group_symop_operation_xyz
x,y,z
-x,-y,-z
loop_
_atom_site_type_symbol
_atom_site_label
_atom_site_fract_x
_atom_site_fract_y
_atom_site_fract_z
Si Si1 0.452122 0.775634 0.269834
Si Si2 0.170766 0.270331 0.832763
Si Si3 0.708321 0.096377 0.012524
Si Si4 0.470757 0.469922 0.323170
Si Si5 0.310811 0.092592 0.406104
Si Si6 0.697686 0.909425 0.947444
Si Si7 0.793263 0.329699 0.075246
Si Si8 0.992689 0.108246 0.610018
O O1 0.680261 0.522384 0.166763
O O2 0.362178 0.821670 0.120922
O O3 0.449481 0.882534 0.319397
O O4 0.253316 0.923875 0.481419
O O5 0.131822 0.265780 0.650448
O O6 0.150611 0.231067 0.969985
O O7 0.459294 0.040188 0.687909
O O8 0.000000 0.500000 0.000000
O O9 0.994449 0.849414 0.896495
O O10 0.604045 0.089905 0.050785
O O11 0.607835 0.261267 0.212241
O O12 0.500000 0.500000 0.500000
O O13 0.591836 0.430598 0.173934
O O14 0.198654 0.685191 0.392256
O O15 0.187718 0.195444 0.289017
O O16 0.500000 0.000000 0.000000
O O17 0.906127 0.201383 0.838293
O O18 0.000000 0.000000 0.500000
#
# Coordination Sequence:
#
# PCOD9009514 Si02
#       8
#     2   2   2   2   2   2   2   2
#     4  11  24  44  65  95 138 172 229 275 338 406
#     4  10  21  39  69  94 128 171 219 271 352 402
#     4  11  24  43  68  99 136 176 230 282 342 410
#     4  12  24  43  66  98 139 183 228 281 340 407
#     4   9  22  41  62  97 130 169 219 281 329 416
#     4   9  21  43  66  96 137 172 220 290 340 405
#     4  12  25  42  69  96 135 181 225 283 339 403
#     4  12  23  41  66  93 134 181 223 278 337 396
#
# _framework density 22.413439
#
# number of rings (size 3 to 8) (size 9 to 14) (size 15 to 20)
#    0.000    1.250    2.500    3.000    3.500    0.500 
#    2.250    0.000    0.000    0.000    0.000    0.000 
#    0.000    0.000    0.000    0.000    0.000    0.000 
#
# Total GULP energy -89347.260525 kJ/mol
# GULP energy per Si atom -5584.203783 kJ/mol
# Density = 2.236243 g / cm^3
# Si number density = 22.413439 Si / 1000 Ang^3
#
#
#
# Elastic Constant Matrix: (Units=GPa)
#
#
# Indices 1 2 3 4 5 6 
#
# 1 54.7353 -1.5235 28.8284 -5.3858 3.9135 12.2709
# 2 -1.5235 107.4330 59.5668 -0.5581 4.2735 13.7163
# 3 28.8284 59.5668 153.9258 -17.3791 16.5866 17.0935
# 4 -5.3858 -0.5581 -17.3791 39.8185 -0.0206 -4.1064
# 5 3.9135 4.2735 16.5866 -0.0206 26.3466 2.4034
# 6 12.2709 13.7163 17.0935 -4.1064 2.4034 33.5486
#
#
#
# Elastic Compliance Matrix: (Units=1/GPa)
#
#
# Indices 1 2 3 4 5 6 
#
# 1 0.022667 0.004005 -0.004926 0.000211 -0.000242 -0.007375
# 2 0.004005 0.013002 -0.005696 -0.002198 0.001267 -0.004239
# 3 -0.004926 -0.005696 0.010649 0.003851 -0.005003 -0.000465
# 4 0.000211 -0.002198 0.003851 0.027032 -0.002291 0.002332
# 5 -0.000242 0.001267 -0.005003 -0.002291 0.041034 -0.001100
# 6 -0.007375 -0.004239 -0.000465 0.002332 -0.001100 0.034840
#
#
# Mechanical properties :
#
#
# Convention : Reuss Voigt Hill
#
# Bulk Modulus (GPa) = 30.22524 54.42641 42.32583
# Shear Modulus (GPa) = 28.82064 35.22423 32.02244
#
# Velocity S-wave (km/s) = 3.58979 3.96860 3.78394
# Velocity P-wave (km/s) = 5.54046 6.73315 6.16571
#
# Compressibility (1/GPa) = 0.03308493
#
# Stress axis : x y z
#
# Youngs Moduli (GPa) = 44.11632 76.90902 93.90472
#
# Poissons Ratio (x) = -0.30804 0.46260
# Poissons Ratio (y) = -0.17669 0.53487
# Poissons Ratio (z) = 0.21733 0.43806
#
# Static dielectric constant tensor:
#      x y z
#    x 1.730930 -0.072520 -0.094240 
#    y -0.072520 1.829540 -0.080920 
#    z -0.094240 -0.080920 1.792540 
# 
# From -- ./inp_files/315608.got.cif
#   From: 2010.05.17/outbox.cif.g08.bks.cpg/sg2_158_cif.got.tgz:315608.got - 2010.06.03 11:33:40.
