data_PCOD9009352
_publ_section_title
;
Structure prediction by ZEFSAII (Michael W. Deem and Ramdas Pophale) SiO2 
 PCOD9009352
Probable space group: P -1
;
_chemical_formula_sum "Si O2"
_cell_formula_units_Z 16
_cell_length_a 8.195908
_cell_length_b 25.718251
_cell_length_c 7.192459
_cell_angle_alpha 50.361961
_cell_angle_beta 124.742625
_cell_angle_gamma 143.736781
_cell_volume 685.423292
_symmetry_space_group_name_H-M "P -1"
_symmetry_group_IT_number 2
_symmetry_cell_setting 'triclinic'
loop_
_space_group_symop_operation_xyz
x,y,z
-x,-y,-z
loop_
_atom_site_type_symbol
_atom_site_label
_atom_site_fract_x
_atom_site_fract_y
_atom_site_fract_z
Si Si1 0.840611 0.735977 0.015455
Si Si2 0.293733 0.890397 0.159561
Si Si3 0.757305 0.494847 0.317787
Si Si4 0.295709 0.542305 0.058185
Si Si5 0.186297 0.369290 0.424331
Si Si6 0.370630 0.128166 0.824504
Si Si7 0.209822 0.947658 0.327195
Si Si8 0.099552 0.706208 0.978686
O O1 0.513428 0.652743 0.990234
O O2 0.906207 0.696455 0.311502
O O3 0.024531 0.839941 0.970058
O O4 0.963114 0.742395 0.884181
O O5 0.458786 0.861757 0.265885
O O6 0.190163 0.880199 0.323879
O O7 0.500000 0.000000 0.000000
O O8 0.481617 0.412578 0.440588
O O9 0.000000 0.500000 0.500000
O O10 0.662617 0.468072 0.104048
O O11 0.909965 0.603168 0.187705
O O12 0.271560 0.465037 0.320464
O O13 0.000000 0.500000 0.000000
O O14 0.962908 0.316956 0.228838
O O15 0.096528 0.109066 0.654092
O O16 0.591017 0.217767 0.904139
O O17 0.275398 0.035599 0.071560
O O18 0.500000 0.000000 0.500000
#
# Coordination Sequence:
#
# PCOD9009352 Si02
#       8
#     2   2   2   2   2   2   2   2
#     4  11  21  38  67  87 124 168 204 260 319 373
#     4   9  21  41  63  93 127 160 208 267 324 382
#     4  11  22  38  58  88 126 168 208 257 308 374
#     4  11  22  37  58  90 126 164 210 259 310 369
#     4  11  22  38  61  87 124 165 207 252 310 379
#     4   9  21  41  63  90 128 165 201 268 324 377
#     4  10  21  39  68  93 122 163 210 263 326 386
#     4  10  21  41  60  87 128 165 202 260 317 370
#
# _framework density 23.343240999999999
#
# number of rings (size 3 to 8) (size 9 to 14) (size 15 to 20)
#    0.000    1.750    2.500    1.875    3.500    3.500 
#    0.000    0.000    0.000    0.000    0.000    0.000 
#    0.000    0.000    0.000    0.000    0.000    0.000 
#
# Total GULP energy -89168.322193 kJ/mol
# GULP energy per Si atom -5573.020137 kJ/mol
# Density = 2.329011 g / cm^3
# Si number density = 23.343241 Si / 1000 Ang^3
#
#
#
# Elastic Constant Matrix: (Units=GPa)
#
#
# Indices 1 2 3 4 5 6 
#
# 1 125.5047 47.9992 20.7350 25.8463 14.8000 17.5051
# 2 47.9992 173.9492 1.9310 29.3234 9.6841 9.2342
# 3 20.7350 1.9310 50.0610 12.0040 8.6128 3.1086
# 4 25.8463 29.3234 12.0040 35.5006 11.1175 -4.0902
# 5 14.8000 9.6841 8.6128 11.1175 31.2262 11.2677
# 6 17.5051 9.2342 3.1086 -4.0902 11.2677 45.8181
#
#
#
# Elastic Compliance Matrix: (Units=1/GPa)
#
#
# Indices 1 2 3 4 5 6 
#
# 1 0.010919 -0.001742 -0.002720 -0.005977 -0.000277 -0.004102
# 2 -0.001742 0.007216 0.001788 -0.005698 0.000697 -0.001590
# 3 -0.002720 0.001788 0.023154 -0.006434 -0.003108 -0.000702
# 4 -0.005977 -0.005698 -0.006434 0.044991 -0.013705 0.011255
# 5 -0.000277 0.000697 -0.003108 -0.013705 0.041760 -0.011317
# 6 -0.004102 -0.001590 -0.000702 0.011255 -0.011317 0.027548
#
#
# Mechanical properties :
#
#
# Convention : Reuss Voigt Hill
#
# Bulk Modulus (GPa) = 27.82271 54.53837 41.18054
# Shear Modulus (GPa) = 28.91581 41.09897 35.00739
#
# Velocity S-wave (km/s) = 3.52337 4.20055 3.87677
# Velocity P-wave (km/s) = 5.33826 6.85131 6.14156
#
# Compressibility (1/GPa) = 0.03594186
#
# Stress axis : x y z
#
# Youngs Moduli (GPa) = 91.58322 138.58416 43.18856
#
# Poissons Ratio (x) = 0.24143 0.11747
# Poissons Ratio (y) = 0.15955 -0.07724
# Poissons Ratio (z) = 0.24910 -0.24784
#
# Static dielectric constant tensor:
#      x y z
#    x 1.937120 0.013290 0.016460 
#    y 0.013290 1.947060 0.033670 
#    z 0.016460 0.033670 1.958200 
# 
# From -- ./inp_files/201122.got.cif
#   From: 2010.05.17/outbox.cif.g08.bks.cpg/sg2_101_cif.got.tgz:201122.got - 2010.06.03 11:33:40.
