data_PCOD9009729
_publ_section_title
;
Structure prediction by ZEFSAII (Michael W. Deem and Ramdas Pophale) SiO2 
 PCOD9009729
Probable space group: P -1
;
_chemical_formula_sum "Si O2"
_cell_formula_units_Z 14
_cell_length_a 15.784671
_cell_length_b 18.299717
_cell_length_c 8.318739
_cell_angle_alpha 42.175048
_cell_angle_beta 52.695760
_cell_angle_gamma 22.237521
_cell_volume 579.556224
_symmetry_space_group_name_H-M "P -1"
_symmetry_group_IT_number 2
_symmetry_cell_setting 'triclinic'
loop_
_space_group_symop_operation_xyz
x,y,z
-x,-y,-z
loop_
_atom_site_type_symbol
_atom_site_label
_atom_site_fract_x
_atom_site_fract_y
_atom_site_fract_z
Si Si1 0.305773 0.196115 0.036622
Si Si2 0.926994 0.243245 0.102129
Si Si3 0.055476 0.898816 0.350020
Si Si4 0.546587 0.329184 0.213895
Si Si5 0.381109 0.460867 0.539258
Si Si6 0.064259 0.285096 0.414739
Si Si7 0.350286 0.959325 0.925941
O O1 0.210650 0.174664 0.265276
O O2 0.449305 0.137597 0.096743
O O3 0.081251 0.469803 0.786865
O O4 0.500000 0.000000 0.000000
O O5 0.907886 0.207748 0.357895
O O6 0.005789 0.067564 0.186387
O O7 0.673110 0.516147 0.885676
O O8 0.128119 0.150011 0.993923
O O9 0.284279 0.668268 0.354351
O O10 0.812941 0.076261 0.260492
O O11 0.531761 0.310532 0.449391
O O12 0.500000 0.500000 0.000000
O O13 0.143093 0.611686 0.535165
O O14 0.518234 0.276171 0.824804
O O15 0.236270 0.094283 0.669451
#
# Coordination Sequence:
#
# PCOD9009729 Si02
#       7
#     2   2   2   2   2   2   2
#     4  10  24  44  70  90 120 162 199 255 318 376
#     4  10  21  40  60  90 127 168 205 259 300 356
#     4  10  23  40  60  88 131 169 211 247 302 360
#     4  10  21  40  58  84 125 168 212 255 296 350
#     4  11  23  39  64  92 126 169 207 253 304 363
#     4  10  23  44  63  94 127 153 204 258 309 372
#     4  11  22  42  64  93 131 155 205 259 309 365
#
# _framework density 24.156414000000002
#
# number of rings (size 3 to 8) (size 9 to 14) (size 15 to 20)
#    0.000    1.714    2.857    0.429    2.000    4.571 
#    2.571    0.000    0.000    0.000    0.000    0.000 
#    0.000    0.000    0.000    0.000    0.000    0.000 
#
# Total GULP energy -78302.930108 kJ/mol
# GULP energy per Si atom -5593.066436 kJ/mol
# Density = 2.410143 g / cm^3
# Si number density = 24.156414 Si / 1000 Ang^3
#
#
#
# Elastic Constant Matrix: (Units=GPa)
#
#
# Indices 1 2 3 4 5 6 
#
# 1 34.8103 4.0295 18.2786 -10.6319 6.9002 -15.6126
# 2 4.0295 77.3333 19.1538 -10.4599 12.1466 -1.0913
# 3 18.2786 19.1538 133.6732 -16.1064 32.2400 4.4064
# 4 -10.6319 -10.4599 -16.1064 41.7760 -18.3123 2.7811
# 5 6.9002 12.1466 32.2400 -18.3123 24.6406 2.4345
# 6 -15.6126 -1.0913 4.4064 2.7811 2.4345 30.3433
#
#
#
# Elastic Compliance Matrix: (Units=1/GPa)
#
#
# Indices 1 2 3 4 5 6 
#
# 1 0.044619 0.000737 -0.005403 0.006442 -0.003317 0.023445
# 2 0.000737 0.014101 -0.000666 0.000823 -0.005810 0.001374
# 3 -0.005403 -0.000666 0.011876 -0.003935 -0.016340 -0.002857
# 4 0.006442 0.000823 -0.003935 0.038247 0.031573 -0.002123
# 5 -0.003317 -0.005810 -0.016340 0.031573 0.090175 -0.009672
# 6 0.023445 0.001374 -0.002857 -0.002123 -0.009672 0.046454
#
#
# Mechanical properties :
#
#
# Convention : Reuss Voigt Hill
#
# Bulk Modulus (GPa) = 16.68601 36.52676 26.60638
# Shear Modulus (GPa) = 18.10837 32.97563 25.54200
#
# Velocity S-wave (km/s) = 2.74091 3.69872 3.25523
# Velocity P-wave (km/s) = 4.11573 5.77879 5.01666
#
# Compressibility (1/GPa) = 0.05993045
#
# Stress axis : x y z
#
# Youngs Moduli (GPa) = 22.41178 70.91756 84.20223
#
# Poissons Ratio (x) = -0.05223 0.45499
# Poissons Ratio (y) = -0.01651 0.05608
# Poissons Ratio (z) = 0.12110 0.04724
#
# Static dielectric constant tensor:
#      x y z
#    x 1.977400 0.041850 0.012350 
#    y 0.041850 1.977840 0.015160 
#    z 0.012350 0.015160 1.922710 
# 
# From -- ./inp_files/49456.got.cif
#   From: 2010.05.17/outbox.cif.g08.bks.cpg/sg2_25_cif.got.tgz:49456.got - 2010.06.03 11:33:40.
