data_PCOD9009388
_publ_section_title
;
Structure prediction by ZEFSAII (Michael W. Deem and Ramdas Pophale) SiO2 
 PCOD9009388
Probable space group: P -1
;
_chemical_formula_sum "Si O2"
_cell_formula_units_Z 16
_cell_length_a 9.971050
_cell_length_b 8.497916
_cell_length_c 9.678997
_cell_angle_alpha 101.260883
_cell_angle_beta 93.710658
_cell_angle_gamma 51.098014
_cell_volume 624.152191
_symmetry_space_group_name_H-M "P -1"
_symmetry_group_IT_number 2
_symmetry_cell_setting 'triclinic'
loop_
_space_group_symop_operation_xyz
x,y,z
-x,-y,-z
loop_
_atom_site_type_symbol
_atom_site_label
_atom_site_fract_x
_atom_site_fract_y
_atom_site_fract_z
Si Si1 0.850652 0.662813 0.689635
Si Si2 0.692977 0.716776 0.967865
Si Si3 0.315861 0.492510 0.477455
Si Si4 0.671935 0.079190 0.504394
Si Si5 0.521004 0.213945 0.804186
Si Si6 0.997000 0.114686 0.348047
Si Si7 0.796272 0.724645 0.248731
Si Si8 0.231423 0.677248 0.193960
O O1 0.772177 0.620855 0.549347
O O2 0.936560 0.771869 0.700844
O O3 0.014175 0.432053 0.707744
O O4 0.714287 0.759547 0.821517
O O5 0.507530 0.833593 0.050797
O O6 0.797928 0.747380 0.087735
O O7 0.768793 0.478257 0.927231
O O8 0.484707 0.683937 0.501853
O O9 0.288135 0.572905 0.332047
O O10 0.199749 0.698095 0.597099
O O11 0.615249 0.060681 0.651349
O O12 0.868334 0.989481 0.530395
O O13 0.691197 0.938050 0.359973
O O14 0.321416 0.348647 0.764031
O O15 0.620667 0.306222 0.836288
O O16 0.054810 0.912884 0.234534
#
# Coordination Sequence:
#
# PCOD9009388 Si02
#       8
#     2   2   2   2   2   2   2   2
#     4  11  22  40  65 103 130 170 220 273 333 381
#     4   9  22  40  67  91 137 176 217 271 320 394
#     4  11  24  41  69  98 139 165 220 277 325 398
#     4  11  23  40  66 105 125 170 217 271 342 371
#     4   9  21  35  67  88 135 169 212 268 319 386
#     4  11  24  40  70  98 135 170 217 278 322 397
#     4  10  21  39  68  95 138 164 218 280 324 383
#     4  10  22  44  61  96 133 181 219 260 332 389
#
# _framework density 25.634772000000002
#
# number of rings (size 3 to 8) (size 9 to 14) (size 15 to 20)
#    0.750    1.000    1.250    2.625    5.250    2.000 
#    0.000   13.125    0.000    0.000    0.000    0.000 
#    0.000    0.000    0.000    0.000    0.000    0.000 
#
# Total GULP energy -89317.843734 kJ/mol
# GULP energy per Si atom -5582.365233 kJ/mol
# Density = 2.557643 g / cm^3
# Si number density = 25.634772 Si / 1000 Ang^3
#
#
#
# Elastic Constant Matrix: (Units=GPa)
#
#
# Indices 1 2 3 4 5 6 
#
# 1 109.1232 18.6710 35.2065 12.6453 -22.5429 -15.7755
# 2 18.6710 120.6005 61.0291 34.8360 -14.8047 -10.4010
# 3 35.2065 61.0291 167.6617 31.0638 -11.7969 2.6660
# 4 12.6453 34.8360 31.0638 52.0099 1.5098 -8.3579
# 5 -22.5429 -14.8047 -11.7969 1.5098 43.2962 2.8262
# 6 -15.7755 -10.4010 2.6660 -8.3579 2.8262 41.2743
#
#
#
# Elastic Compliance Matrix: (Units=1/GPa)
#
#
# Indices 1 2 3 4 5 6 
#
# 1 0.011626 0.000747 -0.002096 -0.001582 0.005527 0.004068
# 2 0.000747 0.012254 -0.003228 -0.006240 0.003783 0.002059
# 3 -0.002096 -0.003228 0.008129 -0.002624 0.000287 -0.002691
# 4 -0.001582 -0.006240 -0.002624 0.026078 -0.004817 0.003603
# 5 0.005527 0.003783 0.000287 -0.004817 0.027502 0.000189
# 6 0.004068 0.002059 -0.002691 0.003603 0.000189 0.027192
#
#
# Mechanical properties :
#
#
# Convention : Reuss Voigt Hill
#
# Bulk Modulus (GPa) = 43.75398 69.68873 56.72135
# Shear Modulus (GPa) = 38.59466 46.14800 42.37133
#
# Velocity S-wave (km/s) = 3.88436 4.24749 4.06998
# Velocity P-wave (km/s) = 6.10106 7.16234 6.65290
#
# Compressibility (1/GPa) = 0.02285506
#
# Stress axis : x y z
#
# Youngs Moduli (GPa) = 86.01751 81.60511 123.02311
#
# Poissons Ratio (x) = -0.06096 0.25784
# Poissons Ratio (y) = -0.06426 0.39709
# Poissons Ratio (z) = 0.18028 0.26340
#
# Static dielectric constant tensor:
#      x y z
#    x 2.011010 0.073900 -0.054150 
#    y 0.073900 2.178720 -0.036000 
#    z -0.054150 -0.036000 2.050930 
# 
# From -- ./inp_files/415395.got.cif
#   From: 2010.05.17/outbox.cif.g08.bks.cpg/sg2_208_cif.got.tgz:415395.got - 2010.06.03 11:33:40.
