data_PCOD9009261
_publ_section_title
;
Structure prediction by ZEFSAII (Michael W. Deem and Ramdas Pophale) SiO2 
 PCOD9009261
Probable space group: P -1
;
_chemical_formula_sum "Si O2"
_cell_formula_units_Z 16
_cell_length_a 13.181514
_cell_length_b 19.204842
_cell_length_c 9.273253
_cell_angle_alpha 125.099870
_cell_angle_beta 138.315185
_cell_angle_gamma 29.886274
_cell_volume 759.056445
_symmetry_space_group_name_H-M "P -1"
_symmetry_group_IT_number 2
_symmetry_cell_setting 'triclinic'
loop_
_space_group_symop_operation_xyz
x,y,z
-x,-y,-z
loop_
_atom_site_type_symbol
_atom_site_label
_atom_site_fract_x
_atom_site_fract_y
_atom_site_fract_z
Si Si1 0.551270 0.352646 0.411921
Si Si2 0.205593 0.908410 0.234841
Si Si3 0.378060 0.124469 0.913718
Si Si4 0.904276 0.343564 0.858450
Si Si5 0.727834 0.926076 0.548314
Si Si6 0.568861 0.595227 0.320609
Si Si7 0.868673 0.342240 0.144652
Si Si8 0.804720 0.072605 0.251813
O O1 0.810283 0.290528 0.649721
O O2 0.351029 0.490980 0.261206
O O3 0.420710 0.395730 0.483330
O O4 0.634744 0.233710 0.267610
O O5 0.296458 0.965596 0.400646
O O6 0.011416 0.967124 0.222618
O O7 0.439609 0.736946 0.282296
O O8 0.000000 0.000000 0.000000
O O9 0.275212 0.129143 0.663783
O O10 0.138636 0.269122 0.920116
O O11 0.605383 0.086447 0.072183
O O12 0.500000 0.000000 0.000000
O O13 0.983938 0.313352 0.075187
O O14 0.975606 0.792586 0.749009
O O15 0.500000 0.000000 0.500000
O O16 0.807874 0.452295 0.310241
O O17 0.377786 0.600792 0.102435
O O18 0.000000 0.000000 0.500000
#
# Coordination Sequence:
#
# PCOD9009261 Si02
#       8
#     2   2   2   2   2   2   2   2
#     4  10  21  40  69  95 137 174 226 270 334 400
#     4  12  24  40  69 101 134 173 229 275 331 399
#     4  12  26  42  67  96 137 175 222 278 342 394
#     4  10  22  41  68 102 133 177 219 274 336 403
#     4  12  25  44  68  98 139 178 217 275 347 403
#     4  10  21  39  67  98 133 174 224 278 319 398
#     4  10  22  41  66  99 134 175 224 268 334 398
#     4  12  25  43  68  99 128 173 226 282 332 405
#
# _framework density 21.078800999999999
#
# number of rings (size 3 to 8) (size 9 to 14) (size 15 to 20)
#    0.000    1.000    2.500    4.500    3.500    2.500 
#    0.000    0.625    0.000    0.000    0.000    0.000 
#    0.000    0.000    0.000    0.000    0.000    0.000 
#
# Total GULP energy -89255.009334 kJ/mol
# GULP energy per Si atom -5578.438083 kJ/mol
# Density = 2.103083 g / cm^3
# Si number density = 21.078801 Si / 1000 Ang^3
#
#
#
# Elastic Constant Matrix: (Units=GPa)
#
#
# Indices 1 2 3 4 5 6 
#
# 1 69.8201 11.0750 -0.2107 -1.6138 12.9256 -1.8546
# 2 11.0750 77.5357 -16.2533 11.4553 11.4150 17.4099
# 3 -0.2107 -16.2533 35.6652 -5.4183 -5.6634 5.2289
# 4 -1.6138 11.4553 -5.4183 17.8657 8.4593 -1.0472
# 5 12.9256 11.4150 -5.6634 8.4593 37.5861 -0.8377
# 6 -1.8546 17.4099 5.2289 -1.0472 -0.8377 35.8285
#
#
#
# Elastic Compliance Matrix: (Units=1/GPa)
#
#
# Indices 1 2 3 4 5 6 
#
# 1 0.016198 -0.003321 -0.001873 0.006101 -0.006155 0.002760
# 2 -0.003321 0.019414 0.008712 -0.010090 -0.001420 -0.011205
# 3 -0.001873 0.008712 0.034158 0.002993 0.002267 -0.009175
# 4 0.006101 -0.010090 0.002993 0.071123 -0.014445 0.006523
# 5 -0.006155 -0.001420 0.002267 -0.014445 0.032755 0.000384
# 6 0.002760 -0.011205 -0.009175 0.006523 0.000384 0.035037
#
#
# Mechanical properties :
#
#
# Convention : Reuss Voigt Hill
#
# Bulk Modulus (GPa) = 13.02009 19.13810 16.07909
# Shear Modulus (GPa) = 22.00221 30.81671 26.40946
#
# Velocity S-wave (km/s) = 3.23431 3.82773 3.54346
# Velocity P-wave (km/s) = 4.48753 5.35111 4.93823
#
# Compressibility (1/GPa) = 0.07680441
#
# Stress axis : x y z
#
# Youngs Moduli (GPa) = 61.73781 51.51006 29.27609
#
# Poissons Ratio (x) = 0.17107 0.05484
# Poissons Ratio (y) = 0.20504 -0.25505
# Poissons Ratio (z) = 0.11564 -0.44876
#
# Static dielectric constant tensor:
#      x y z
#    x 1.781710 -0.045550 0.000780 
#    y -0.045550 1.723650 -0.039220 
#    z 0.000780 -0.039220 1.752650 
# 
# From -- ./inp_files/209288.got.cif
#   From: 2010.05.17/outbox.cif.g08.bks.cpg/sg2_105_cif.got.tgz:209288.got - 2010.06.03 11:33:40.
