data_PCOD9009111
_publ_section_title
;
Structure prediction by ZEFSAII (Michael W. Deem and Ramdas Pophale) SiO2 
 PCOD9009111
Probable space group: P -1
;
_chemical_formula_sum "Si O2"
_cell_formula_units_Z 14
_cell_length_a 13.316131
_cell_length_b 8.607522
_cell_length_c 11.481707
_cell_angle_alpha 119.239517
_cell_angle_beta 127.148646
_cell_angle_gamma 103.509141
_cell_volume 594.903319
_symmetry_space_group_name_H-M "P -1"
_symmetry_group_IT_number 2
_symmetry_cell_setting 'triclinic'
loop_
_space_group_symop_operation_xyz
x,y,z
-x,-y,-z
loop_
_atom_site_type_symbol
_atom_site_label
_atom_site_fract_x
_atom_site_fract_y
_atom_site_fract_z
Si Si1 0.606572 0.547387 0.831364
Si Si2 0.799060 0.973501 0.703254
Si Si3 0.161448 0.325408 0.745088
Si Si4 0.474269 0.882163 0.064992
Si Si5 0.142031 0.739712 0.381035
Si Si6 0.401028 0.165846 0.245687
Si Si7 0.202593 0.413371 0.216226
O O1 0.376597 0.318808 0.587025
O O2 0.680270 0.794029 0.897705
O O3 0.679045 0.451877 0.773431
O O4 0.691218 0.607016 0.037110
O O5 0.714815 0.952841 0.758742
O O6 0.841308 0.162978 0.702006
O O7 0.003207 0.103264 0.926673
O O8 0.042966 0.365902 0.729417
O O9 0.300701 0.551874 0.824655
O O10 0.000000 0.000000 0.500000
O O11 0.673269 0.026782 0.318291
O O12 0.414064 0.980368 0.142480
O O13 0.500000 0.000000 0.000000
O O14 0.138442 0.525269 0.274991
O O15 0.622297 0.471145 0.539385
#
# Coordination Sequence:
#
# PCOD9009111 Si02
#       7
#     2   2   2   2   2   2   2
#     4  11  24  42  65 106 144 183 231 291 354 415
#     4  11  20  39  70  99 143 179 227 287 358 416
#     4  12  28  49  72 103 142 190 246 293 344 425
#     4  11  27  51  73  98 142 193 243 294 351 417
#     4  11  24  43  72 107 135 189 234 295 356 423
#     4  10  25  41  67 106 146 178 229 294 355 421
#     4  10  21  39  67 104 139 177 230 281 356 418
#
# _framework density 23.533232999999999
#
# number of rings (size 3 to 8) (size 9 to 14) (size 15 to 20)
#    0.000    1.143    2.857    3.000    4.000    6.286 
#    5.143    0.000    0.000    0.000    0.000    0.000 
#    0.000    0.000    0.000    0.000    0.000    0.000 
#
# Total GULP energy -78125.118311 kJ/mol
# GULP energy per Si atom -5580.365594 kJ/mol
# Density = 2.347967 g / cm^3
# Si number density = 23.533233 Si / 1000 Ang^3
#
#
#
# Elastic Constant Matrix: (Units=GPa)
#
#
# Indices 1 2 3 4 5 6 
#
# 1 64.1118 31.9464 31.6180 3.8775 16.1421 -2.2296
# 2 31.9464 119.4770 70.1315 -23.2358 20.0317 25.8693
# 3 31.6180 70.1315 141.8348 15.4673 30.1001 4.9237
# 4 3.8775 -23.2358 15.4673 29.6780 -2.6208 4.8342
# 5 16.1421 20.0317 30.1001 -2.6208 34.7396 -1.3107
# 6 -2.2296 25.8693 4.9237 4.8342 -1.3107 27.1382
#
#
#
# Elastic Compliance Matrix: (Units=1/GPa)
#
#
# Indices 1 2 3 4 5 6 
#
# 1 0.030096 -0.029817 0.013435 -0.040921 -0.010189 0.035255
# 2 -0.029817 0.078212 -0.042216 0.102177 0.009757 -0.087075
# 3 0.013435 -0.042216 0.032716 -0.060432 -0.013088 0.045543
# 4 -0.040921 0.102177 -0.060432 0.171829 0.020917 -0.119395
# 5 -0.010189 0.009757 -0.013088 0.020917 0.040452 -0.009536
# 6 0.035255 -0.087075 0.045543 -0.119395 -0.009536 0.135293
#
#
# Mechanical properties :
#
#
# Convention : Reuss Voigt Hill
#
# Bulk Modulus (GPa) = 41.96706 65.86839 53.91772
# Shear Modulus (GPa) = 8.14682 31.09299 19.61991
#
# Velocity S-wave (km/s) = 1.86262 3.63883 2.89054
# Velocity P-wave (km/s) = 4.74317 6.76055 5.83963
#
# Compressibility (1/GPa) = 0.02382821
#
# Stress axis : x y z
#
# Youngs Moduli (GPa) = 33.22716 12.78584 30.56587
#
# Poissons Ratio (x) = 0.38124 -0.41066
# Poissons Ratio (y) = 0.99073 1.29037
# Poissons Ratio (z) = -0.44641 0.53977
#
# Static dielectric constant tensor:
#      x y z
#    x 1.894810 -0.011390 -0.010840 
#    y -0.011390 1.919400 0.058010 
#    z -0.010840 0.058010 1.944700 
# 
# From -- ./inp_files/447897.got.cif
#   From: 2010.05.17/outbox.cif.g08.bks.cpg/sg2_224_cif.got.tgz:447897.got - 2010.06.03 11:33:40.
