data_PCOD9009180
_publ_section_title
;
Structure prediction by ZEFSAII (Michael W. Deem and Ramdas Pophale) SiO2 
 PCOD9009180
Probable space group: P -1
;
_chemical_formula_sum "Si O2"
_cell_formula_units_Z 16
_cell_length_a 13.360400
_cell_length_b 8.583054
_cell_length_c 7.467628
_cell_angle_alpha 85.297685
_cell_angle_beta 88.517141
_cell_angle_gamma 130.617561
_cell_volume 644.268141
_symmetry_space_group_name_H-M "P -1"
_symmetry_group_IT_number 2
_symmetry_cell_setting 'triclinic'
loop_
_space_group_symop_operation_xyz
x,y,z
-x,-y,-z
loop_
_atom_site_type_symbol
_atom_site_label
_atom_site_fract_x
_atom_site_fract_y
_atom_site_fract_z
Si Si1 0.358612 0.840973 0.115736
Si Si2 0.014528 0.126486 0.272280
Si Si3 0.941796 0.762742 0.144177
Si Si4 0.344263 0.417170 0.758940
Si Si5 0.266054 0.045598 0.645425
Si Si6 0.699453 0.534403 0.656918
Si Si7 0.134669 0.617479 0.871600
Si Si8 0.375255 0.195390 0.242570
O O1 0.362932 0.697663 0.265665
O O2 0.322641 0.984547 0.163960
O O3 0.244147 0.671073 0.000650
O O4 0.500000 0.000000 0.000000
O O5 0.141640 0.323514 0.343936
O O6 0.872534 0.004779 0.381229
O O7 0.000888 0.179646 0.064698
O O8 0.030061 0.958868 0.247195
O O9 0.796925 0.690922 0.139235
O O10 0.911148 0.563804 0.244320
O O11 0.339113 0.463603 0.545631
O O12 0.468533 0.626951 0.821635
O O13 0.349772 0.234437 0.764855
O O14 0.209604 0.829895 0.747007
O O15 0.349723 0.119154 0.456402
O O16 0.668858 0.663472 0.762929
O O17 0.000000 0.500000 0.000000
#
# Coordination Sequence:
#
# PCOD9009180 Si02
#       8
#     2   2   2   2   2   2   2   2
#     4  12  29  46  67 105 138 177 230 284 339 406
#     4  10  21  42  65 100 132 176 225 276 338 402
#     4  10  21  39  67  94 132 176 219 270 343 395
#     4  10  24  44  67  97 130 182 225 273 337 407
#     4  10  22  43  70  96 137 175 224 277 336 409
#     4  11  24  46  68  98 140 171 229 283 333 405
#     4  12  24  44  66 101 139 174 224 286 335 403
#     4  11  27  45  70  99 132 185 227 272 346 400
#
# _framework density 24.834382000000002
#
# number of rings (size 3 to 8) (size 9 to 14) (size 15 to 20)
#    0.000    1.250    2.500    2.250    7.000    5.500 
#    0.000    1.250    0.000    0.000    0.000    0.000 
#    0.000    0.000    0.000    0.000    0.000    0.000 
#
# Total GULP energy -89337.399605 kJ/mol
# GULP energy per Si atom -5583.587475 kJ/mol
# Density = 2.477786 g / cm^3
# Si number density = 24.834382 Si / 1000 Ang^3
#
#
#
# Elastic Constant Matrix: (Units=GPa)
#
#
# Indices 1 2 3 4 5 6 
#
# 1 35.5354 14.1651 13.0188 -6.9654 -3.5318 -0.5424
# 2 14.1651 161.6685 27.0141 -28.3513 11.1327 -21.6201
# 3 13.0188 27.0141 62.6591 -29.8687 8.7759 -10.9476
# 4 -6.9654 -28.3513 -29.8687 45.6747 -5.2789 2.5417
# 5 -3.5318 11.1327 8.7759 -5.2789 34.5236 -14.1293
# 6 -0.5424 -21.6201 -10.9476 2.5417 -14.1293 59.5463
#
#
#
# Elastic Compliance Matrix: (Units=1/GPa)
#
#
# Indices 1 2 3 4 5 6 
#
# 1 0.031926 -0.002146 -0.006604 -0.000129 0.005452 -0.000403
# 2 -0.002146 0.007477 -0.000445 0.003780 -0.001037 0.002206
# 3 -0.006604 -0.000445 0.025658 0.014919 -0.003537 0.003019
# 4 -0.000129 0.003780 0.014919 0.033971 0.001396 0.002995
# 5 0.005452 -0.001037 -0.003537 0.001396 0.033831 0.006991
# 6 -0.000403 0.002206 0.003019 0.002995 0.006991 0.019677
#
#
# Mechanical properties :
#
#
# Convention : Reuss Voigt Hill
#
# Bulk Modulus (GPa) = 21.42635 40.91765 31.17200
# Shear Modulus (GPa) = 26.81141 41.65993 34.23567
#
# Velocity S-wave (km/s) = 3.28930 4.10019 3.71692
# Velocity P-wave (km/s) = 4.80338 6.23918 5.56775
#
# Compressibility (1/GPa) = 0.04667151
#
# Stress axis : x y z
#
# Youngs Moduli (GPa) = 31.32235 133.73892 38.97451
#
# Poissons Ratio (x) = 0.28698 0.25738
# Poissons Ratio (y) = 0.06721 0.01735
# Poissons Ratio (z) = 0.20685 0.05953
#
# Static dielectric constant tensor:
#      x y z
#    x 2.108010 -0.113100 0.039000 
#    y -0.113100 1.915830 -0.005670 
#    z 0.039000 -0.005670 1.956920 
# 
# From -- ./inp_files/298264.got.cif
#   From: 2010.05.17/outbox.cif.g08.bks.cpg/sg2_150_cif.got.tgz:298264.got - 2010.06.03 11:33:40.
