data_PCOD9009103
_publ_section_title
;
Structure prediction by ZEFSAII (Michael W. Deem and Ramdas Pophale) SiO2 
 PCOD9009103
Probable space group: P -1
;
_chemical_formula_sum "Si O2"
_cell_formula_units_Z 16
_cell_length_a 11.217866
_cell_length_b 5.609970
_cell_length_c 21.997574
_cell_angle_alpha 117.300611
_cell_angle_beta 34.168971
_cell_angle_gamma 116.223081
_cell_volume 685.477480
_symmetry_space_group_name_H-M "P -1"
_symmetry_group_IT_number 2
_symmetry_cell_setting 'triclinic'
loop_
_space_group_symop_operation_xyz
x,y,z
-x,-y,-z
loop_
_atom_site_type_symbol
_atom_site_label
_atom_site_fract_x
_atom_site_fract_y
_atom_site_fract_z
Si Si1 0.060289 0.615835 0.282989
Si Si2 0.080783 0.312843 0.117299
Si Si3 0.900473 0.510972 0.616413
Si Si4 0.625083 0.249626 0.247802
Si Si5 0.603463 0.755477 0.524666
Si Si6 0.640724 0.313194 0.603392
Si Si7 0.337421 0.831941 0.001721
Si Si8 0.599002 0.921099 0.789506
O O1 0.004492 0.437889 0.227086
O O2 0.116020 0.462527 0.301869
O O3 0.856662 0.757238 0.406966
O O4 0.276135 0.813513 0.202274
O O5 0.223619 0.561321 0.051176
O O6 0.869488 0.234545 0.157541
O O7 0.191487 0.052762 0.061581
O O8 0.758053 0.264884 0.613168
O O9 0.791101 0.762551 0.666795
O O10 0.149233 0.528256 0.498698
O O11 0.495649 0.253064 0.366502
O O12 0.563076 0.533472 0.280311
O O13 0.542586 0.040849 0.205188
O O14 0.500000 0.500000 0.500000
O O15 0.567057 0.062355 0.561098
O O16 0.463087 0.757499 0.879844
O O17 0.500000 0.000000 0.000000
#
# Coordination Sequence:
#
# PCOD9009103 Si02
#       8
#     2   2   2   2   2   2   2   2
#     4  12  23  41  70 103 137 192 236 295 357 435
#     4  12  29  48  76 106 147 183 247 302 361 432
#     4  10  21  39  67 103 134 186 239 290 356 417
#     4  11  26  46  66 108 143 189 229 293 367 431
#     4  12  24  40  63 102 147 191 231 284 363 440
#     4  10  22  40  65  98 147 185 233 289 345 443
#     4  12  27  52  78 108 136 189 250 307 360 421
#     4  11  25  44  74  98 141 185 242 301 359 422
#
# _framework density 23.341394999999999
#
# number of rings (size 3 to 8) (size 9 to 14) (size 15 to 20)
#    0.000    0.750    5.000    1.875    3.500    2.500 
#    0.000    0.000    0.000    0.000    0.000    0.000 
#    0.000    0.000    0.000    0.000    0.000    0.000 
#
# Total GULP energy -89203.880729 kJ/mol
# GULP energy per Si atom -5575.242546 kJ/mol
# Density = 2.328827 g / cm^3
# Si number density = 23.341395 Si / 1000 Ang^3
#
#
#
# Elastic Constant Matrix: (Units=GPa)
#
#
# Indices 1 2 3 4 5 6 
#
# 1 86.2152 27.6283 33.7044 -10.4202 -13.0228 2.5493
# 2 27.6283 63.7265 12.6694 -0.8384 -13.0452 5.4243
# 3 33.7044 12.6694 87.5089 -8.9701 -1.2127 -11.4202
# 4 -10.4202 -0.8384 -8.9701 27.6583 -11.2010 4.1590
# 5 -13.0228 -13.0452 -1.2127 -11.2010 56.9893 3.3926
# 6 2.5493 5.4243 -11.4202 4.1590 3.3926 33.7010
#
#
#
# Elastic Compliance Matrix: (Units=1/GPa)
#
#
# Indices 1 2 3 4 5 6 
#
# 1 0.016879 -0.004990 -0.005509 0.006624 0.004112 -0.003572
# 2 -0.004990 0.019108 -0.001229 0.000227 0.003460 -0.003491
# 3 -0.005509 -0.001229 0.014558 0.001245 -0.001315 0.005526
# 4 0.006624 0.000227 0.001245 0.044405 0.010717 -0.006674
# 5 0.004112 0.003460 -0.001315 0.010717 0.021644 -0.004815
# 6 -0.003572 -0.003491 0.005526 -0.006674 -0.004815 0.033686
#
#
# Mechanical properties :
#
#
# Convention : Reuss Voigt Hill
#
# Bulk Modulus (GPa) = 36.91430 42.82832 39.87131
# Shear Modulus (GPa) = 27.35769 34.56630 30.96200
#
# Velocity S-wave (km/s) = 3.42726 3.85242 3.64604
# Velocity P-wave (km/s) = 5.61345 6.17873 5.90286
#
# Compressibility (1/GPa) = 0.02708977
#
# Stress axis : x y z
#
# Youngs Moduli (GPa) = 59.24651 52.33409 68.69227
#
# Poissons Ratio (x) = 0.26112 0.37840
# Poissons Ratio (y) = 0.29561 0.08443
# Poissons Ratio (z) = 0.32637 0.06432
#
# Static dielectric constant tensor:
#      x y z
#    x 1.942470 -0.049220 0.011920 
#    y -0.049220 2.089760 -0.018290 
#    z 0.011920 -0.018290 1.892590 
# 
# From -- ./inp_files/93430.got.cif
#   From: 2010.05.17/outbox.cif.g08.bks.cpg/sg2_47_cif.got.tgz:93430.got - 2010.06.03 11:33:40.
