data_PCOD9009598
_publ_section_title
;
Structure prediction by ZEFSAII (Michael W. Deem and Ramdas Pophale) SiO2 
 PCOD9009598
Probable space group: P -1
;
_chemical_formula_sum "Si O2"
_cell_formula_units_Z 14
_cell_length_a 6.899467
_cell_length_b 20.966649
_cell_length_c 17.847919
_cell_angle_alpha 160.665883
_cell_angle_beta 138.880516
_cell_angle_gamma 38.130554
_cell_volume 527.017770
_symmetry_space_group_name_H-M "P -1"
_symmetry_group_IT_number 2
_symmetry_cell_setting 'triclinic'
loop_
_space_group_symop_operation_xyz
x,y,z
-x,-y,-z
loop_
_atom_site_type_symbol
_atom_site_label
_atom_site_fract_x
_atom_site_fract_y
_atom_site_fract_z
Si Si1 0.072790 0.815079 0.003629
Si Si2 0.111430 0.580809 0.314431
Si Si3 0.177875 0.669685 0.129861
Si Si4 0.558881 0.631772 0.337384
Si Si5 0.141548 0.016932 0.403609
Si Si6 0.314551 0.440006 0.445782
Si Si7 0.856806 0.881240 0.767750
O O1 0.777967 0.753849 0.820153
O O2 0.335615 0.586286 0.831258
O O3 0.070616 0.892914 0.174233
O O4 0.099195 0.995120 0.157298
O O5 0.859317 0.613548 0.346872
O O6 0.439295 0.585628 0.445449
O O7 0.007617 0.751912 0.410725
O O8 0.102484 0.382717 0.048664
O O9 0.262174 0.650804 0.220376
O O10 0.110733 0.899058 0.338174
O O11 0.500000 0.500000 0.000000
O O12 0.536522 0.838102 0.605616
O O13 0.500000 0.000000 0.500000
O O14 0.500000 0.500000 0.500000
O O15 0.020816 0.650313 0.595975
O O16 0.000000 0.000000 0.000000
#
# Coordination Sequence:
#
# PCOD9009598 Si02
#       7
#     2   2   2   2   2   2   2
#     4  11  20  33  55  78 110 149 179 221 283 318
#     4  11  19  31  49  82 115 140 171 220 275 327
#     4  10  17  29  49  80 118 140 168 224 281 322
#     4  10  18  34  52  81 114 138 180 228 269 326
#     4  12  17  27  51  79 111 141 175 217 279 327
#     4  11  21  37  53  81 117 142 178 231 276 331
#     4  11  24  39  56  78 108 150 195 226 265 327
#
# _framework density 26.564568999999999
#
# number of rings (size 3 to 8) (size 9 to 14) (size 15 to 20)
#    0.000    1.143   10.000    0.000    0.000    5.714 
#    0.000    0.000    0.000    0.857    0.000    8.000 
#    0.000    0.000    0.000    0.000    0.000    0.000 
#
# Total GULP energy -78068.810155 kJ/mol
# GULP energy per Si atom -5576.343582 kJ/mol
# Density = 2.650411 g / cm^3
# Si number density = 26.564569 Si / 1000 Ang^3
#
#
#
# Elastic Constant Matrix: (Units=GPa)
#
#
# Indices 1 2 3 4 5 6 
#
# 1 77.7840 17.3686 14.1260 -0.0107 12.0171 19.5533
# 2 17.3686 178.8166 16.3560 -6.1484 4.4497 16.2711
# 3 14.1260 16.3560 150.5369 -16.0680 19.0617 3.6624
# 4 -0.0107 -6.1484 -16.0680 67.7282 6.4709 2.9534
# 5 12.0171 4.4497 19.0617 6.4709 41.9632 -2.0144
# 6 19.5533 16.2711 3.6624 2.9534 -2.0144 29.2302
#
#
#
# Elastic Compliance Matrix: (Units=1/GPa)
#
#
# Indices 1 2 3 4 5 6 
#
# 1 0.016680 -0.000386 -0.000503 0.000837 -0.005180 -0.011321
# 2 -0.000386 0.005988 -0.000394 0.000643 -0.000595 -0.003131
# 3 -0.000503 -0.000394 0.007427 0.002102 -0.003552 -0.000832
# 4 0.000837 0.000643 0.002102 0.015823 -0.003849 -0.003045
# 5 -0.005180 -0.000595 -0.003552 -0.003849 0.027899 0.006553
# 6 -0.011321 -0.003131 -0.000832 -0.003045 0.006553 0.044391
#
#
# Mechanical properties :
#
#
# Convention : Reuss Voigt Hill
#
# Bulk Modulus (GPa) = 36.32539 55.87095 46.09817
# Shear Modulus (GPa) = 38.47646 51.73680 45.10663
#
# Velocity S-wave (km/s) = 3.80993 4.41793 4.12515
# Velocity P-wave (km/s) = 5.74962 6.86309 6.33088
#
# Compressibility (1/GPa) = 0.02752896
#
# Stress axis : x y z
#
# Youngs Moduli (GPa) = 59.95200 167.00784 134.63919
#
# Poissons Ratio (x) = 0.06452 0.06766
# Poissons Ratio (y) = 0.02316 0.05307
# Poissons Ratio (z) = 0.03013 0.06583
#
# Static dielectric constant tensor:
#      x y z
#    x 2.267740 -0.102780 -0.079210 
#    y -0.102780 2.115620 -0.063810 
#    z -0.079210 -0.063810 2.076360 
# 
# From -- ./inp_files/431524.got.cif
#   From: 2010.05.17/outbox.cif.g08.bks.cpg/sg2_216_cif.got.tgz:431524.got - 2010.06.03 11:33:40.
