data_PCOD9009528
_publ_section_title
;
Structure prediction by ZEFSAII (Michael W. Deem and Ramdas Pophale) SiO2 
 PCOD9009528
Probable space group: P -1
;
_chemical_formula_sum "Si O2"
_cell_formula_units_Z 16
_cell_length_a 26.921992
_cell_length_b 11.719894
_cell_length_c 21.573546
_cell_angle_alpha 147.982799
_cell_angle_beta 168.083004
_cell_angle_gamma 31.486952
_cell_volume 728.368008
_symmetry_space_group_name_H-M "P -1"
_symmetry_group_IT_number 2
_symmetry_cell_setting 'triclinic'
loop_
_space_group_symop_operation_xyz
x,y,z
-x,-y,-z
loop_
_atom_site_type_symbol
_atom_site_label
_atom_site_fract_x
_atom_site_fract_y
_atom_site_fract_z
Si Si1 0.584232 0.314810 0.201263
Si Si2 0.991631 0.068499 0.401795
Si Si3 0.730198 0.372010 0.774003
Si Si4 0.750904 0.682731 0.643342
Si Si5 0.064524 0.506588 0.708119
Si Si6 0.459219 0.168201 0.245124
Si Si7 0.213373 0.194554 0.601192
Si Si8 0.733468 0.183092 0.816552
O O1 0.694452 0.531650 0.447559
O O2 0.786343 0.103270 0.372634
O O3 0.343362 0.368102 0.975776
O O4 0.451416 0.275432 0.956944
O O5 0.930645 0.309646 0.470834
O O6 0.073100 0.117383 0.453525
O O7 0.755355 0.961078 0.064539
O O8 0.544609 0.272434 0.459651
O O9 0.641635 0.603223 0.808131
O O10 0.797034 0.200397 0.831319
O O11 0.962833 0.402045 0.030730
O O12 0.545572 0.686498 0.446816
O O13 0.734048 0.935249 0.721777
O O14 0.955591 0.622580 0.564271
O O15 0.082227 0.702318 0.866156
O O16 0.679795 0.012352 0.407310
#
# Coordination Sequence:
#
# PCOD9009528 Si02
#       8
#     2   2   2   2   2   2   2   2
#     4  10  21  39  69  97 127 169 211 259 320 382
#     4  11  23  43  67  96 132 167 211 266 318 382
#     4  11  24  43  60  92 131 167 214 270 306 378
#     4  10  21  41  64  96 124 163 219 252 317 383
#     4  10  22  41  67 100 127 167 216 259 323 381
#     4  11  27  40  63  96 127 171 221 254 326 378
#     4  11  24  42  66  95 134 167 207 272 317 376
#     4  10  23  39  70  91 127 172 209 259 322 378
#
# _framework density 21.966916999999999
#
# number of rings (size 3 to 8) (size 9 to 14) (size 15 to 20)
#    0.000    1.500    1.250    4.125    5.250    7.000 
#    0.000    2.500    0.000    0.000    0.000    0.000 
#    0.000    0.000    0.000    0.000    0.000    0.000 
#
# Total GULP energy -89234.438796 kJ/mol
# GULP energy per Si atom -5577.152425 kJ/mol
# Density = 2.191692 g / cm^3
# Si number density = 21.966917 Si / 1000 Ang^3
#
#
#
# Elastic Constant Matrix: (Units=GPa)
#
#
# Indices 1 2 3 4 5 6 
#
# 1 31.9876 14.5475 23.1062 7.6517 6.1555 3.2093
# 2 14.5475 112.0248 27.9357 30.6691 -0.1553 -11.6191
# 3 23.1062 27.9357 106.7545 30.6391 -0.4657 7.9355
# 4 7.6517 30.6691 30.6391 44.5009 -11.1512 -2.3898
# 5 6.1555 -0.1553 -0.4657 -11.1512 28.6083 -2.0209
# 6 3.2093 -11.6191 7.9355 -2.3898 -2.0209 14.7624
#
#
#
# Elastic Compliance Matrix: (Units=1/GPa)
#
#
# Indices 1 2 3 4 5 6 
#
# 1 0.041691 -0.004073 -0.006173 -0.003524 -0.011248 -0.011060
# 2 -0.004073 0.012727 -0.001228 -0.006936 -0.001051 0.010296
# 3 -0.006173 -0.001228 0.014302 -0.009090 -0.002635 -0.009145
# 4 -0.003524 -0.006936 -0.009090 0.038655 0.016253 0.008676
# 5 -0.011248 -0.001051 -0.002635 0.016253 0.044492 0.011756
# 6 -0.011060 0.010296 -0.009145 0.008676 0.011756 0.086178
#
#
# Mechanical properties :
#
#
# Convention : Reuss Voigt Hill
#
# Bulk Modulus (GPa) = 21.84783 42.43842 32.14312
# Shear Modulus (GPa) = 18.09957 29.91950 24.00954
#
# Velocity S-wave (km/s) = 2.87356 3.69457 3.30962
# Velocity P-wave (km/s) = 4.58009 6.12870 5.41009
#
# Compressibility (1/GPa) = 0.04577114
#
# Stress axis : x y z
#
# Youngs Moduli (GPa) = 23.98621 78.57341 69.91906
#
# Poissons Ratio (x) = 0.31999 0.43164
# Poissons Ratio (y) = 0.09768 0.08588
# Poissons Ratio (z) = 0.14808 0.09652
#
# Static dielectric constant tensor:
#      x y z
#    x 1.793990 -0.032740 -0.013180 
#    y -0.032740 1.929790 -0.078630 
#    z -0.013180 -0.078630 1.881650 
# 
# From -- ./inp_files/273573.got.cif
#   From: 2010.05.17/outbox.cif.g08.bks.cpg/sg2_137_cif.got.tgz:273573.got - 2010.06.03 11:33:40.
