data_PCOD9009965
_publ_section_title
;
Structure prediction by ZEFSAII (Michael W. Deem and Ramdas Pophale) SiO2 
 PCOD9009965
Probable space group: P -1
;
_chemical_formula_sum "Si O2"
_cell_formula_units_Z 14
_cell_length_a 5.473996
_cell_length_b 20.194220
_cell_length_c 5.159685
_cell_angle_alpha 84.328679
_cell_angle_beta 81.849957
_cell_angle_gamma 89.462152
_cell_volume 561.837033
_symmetry_space_group_name_H-M "P -1"
_symmetry_group_IT_number 2
_symmetry_cell_setting 'triclinic'
loop_
_space_group_symop_operation_xyz
x,y,z
-x,-y,-z
loop_
_atom_site_type_symbol
_atom_site_label
_atom_site_fract_x
_atom_site_fract_y
_atom_site_fract_z
Si Si1 0.072504 0.182375 0.012607
Si Si2 0.536412 0.561634 0.279684
Si Si3 0.893050 0.907701 0.464085
Si Si4 0.422266 0.945477 0.241096
Si Si5 0.934159 0.391477 0.930514
Si Si6 0.414948 0.792777 0.122894
Si Si7 0.752908 0.323857 0.496079
O O1 0.083258 0.123970 0.245137
O O2 0.804857 0.214628 0.045151
O O3 0.313654 0.227366 0.004325
O O4 0.093767 0.151507 0.731156
O O5 0.500000 0.500000 0.500000
O O6 0.688557 0.435825 0.894842
O O7 0.478960 0.627867 0.432072
O O8 0.809779 0.568772 0.121216
O O9 0.135832 0.951572 0.355611
O O10 0.628972 0.940862 0.436289
O O11 0.431893 0.871547 0.142096
O O12 0.500000 0.000000 0.000000
O O13 0.881125 0.348717 0.208780
O O14 0.934132 0.343441 0.698571
O O15 0.338551 0.750404 0.401045
#
# Coordination Sequence:
#
# PCOD9009965 Si02
#       7
#     2   2   2   2   2   2   2
#     4  10  22  39  62  89 119 162 207 255 318 376
#     4  10  24  45  69 101 135 175 220 270 326 390
#     4  10  21  40  61  88 119 158 204 260 316 379
#     4  10  21  41  64  93 125 165 214 266 322 383
#     4  10  25  41  68  99 133 176 221 268 328 388
#     4  10  23  41  63  92 127 170 211 268 322 382
#     4  10  26  42  67  97 137 173 225 269 330 391
#
# _framework density 24.918257000000001
#
# number of rings (size 3 to 8) (size 9 to 14) (size 15 to 20)
#    0.857    1.143    0.000    1.714    4.000    5.714 
#    0.000   17.143    0.000    0.000    0.000    0.000 
#    0.000    0.000    0.000    0.000    0.000    0.000 
#
# Total GULP energy -78285.821073 kJ/mol
# GULP energy per Si atom -5591.844362 kJ/mol
# Density = 2.486154 g / cm^3
# Si number density = 24.918257 Si / 1000 Ang^3
#
#
#
# Elastic Constant Matrix: (Units=GPa)
#
#
# Indices 1 2 3 4 5 6 
#
# 1 249.0147 39.8041 72.6651 -35.3254 -17.9502 23.7057
# 2 39.8041 104.4179 62.2808 -41.9571 1.7585 7.0554
# 3 72.6651 62.2808 177.0768 -53.9018 -4.1321 9.1419
# 4 -35.3254 -41.9571 -53.9018 57.0481 5.4228 -5.3537
# 5 -17.9502 1.7585 -4.1321 5.4228 31.6435 -14.2110
# 6 23.7057 7.0554 9.1419 -5.3537 -14.2110 24.7997
#
#
#
# Elastic Compliance Matrix: (Units=1/GPa)
#
#
# Indices 1 2 3 4 5 6 
#
# 1 0.005037 -0.000456 -0.001386 0.001062 0.001007 -0.003368
# 2 -0.000456 0.014921 -0.002381 0.008526 -0.004510 -0.003675
# 3 -0.001386 -0.002381 0.008804 0.005735 -0.000659 -0.000383
# 4 0.001062 0.008526 0.005735 0.030181 -0.005202 -0.002021
# 5 0.001007 -0.004510 -0.000659 -0.005202 0.044406 0.024887
# 6 -0.003368 -0.003675 -0.000383 -0.002021 0.024887 0.058554
#
#
# Mechanical properties :
#
#
# Convention : Reuss Voigt Hill
#
# Bulk Modulus (GPa) = 49.22297 97.77883 73.50090
# Shear Modulus (GPa) = 28.22937 46.41553 37.32245
#
# Velocity S-wave (km/s) = 3.36948 4.32060 3.87433
# Velocity P-wave (km/s) = 5.91054 8.01343 7.04094
#
# Compressibility (1/GPa) = 0.02031572
#
# Stress axis : x y z
#
# Youngs Moduli (GPa) = 198.52891 67.01947 113.58858
#
# Poissons Ratio (x) = 0.03056 0.15741
# Poissons Ratio (y) = 0.09053 0.27048
# Poissons Ratio (z) = 0.27513 0.15959
#
# Static dielectric constant tensor:
#      x y z
#    x 2.043480 -0.038670 -0.016270 
#    y -0.038670 2.074260 0.120450 
#    z -0.016270 0.120450 1.928740 
# 
# From -- ./inp_files/9438.got.cif
#   From: 2010.05.17/outbox.cif.g08.bks.cpg/sg2_5_cif.got.tgz:9438.got - 2010.06.03 11:33:40.
