data_PCOD9009225
_publ_section_title
;
Structure prediction by ZEFSAII (Michael W. Deem and Ramdas Pophale) SiO2 
 PCOD9009225
Probable space group: P -1
;
_chemical_formula_sum "Si O2"
_cell_formula_units_Z 14
_cell_length_a 7.102836
_cell_length_b 18.364939
_cell_length_c 13.913432
_cell_angle_alpha 158.400981
_cell_angle_beta 72.027630
_cell_angle_gamma 115.762408
_cell_volume 576.140561
_symmetry_space_group_name_H-M "P -1"
_symmetry_group_IT_number 2
_symmetry_cell_setting 'triclinic'
loop_
_space_group_symop_operation_xyz
x,y,z
-x,-y,-z
loop_
_atom_site_type_symbol
_atom_site_label
_atom_site_fract_x
_atom_site_fract_y
_atom_site_fract_z
Si Si1 0.258879 0.113734 0.410670
Si Si2 0.005002 0.613272 0.238847
Si Si3 0.411857 0.612361 0.784952
Si Si4 0.471638 0.998812 0.617234
Si Si5 0.005585 0.351834 0.109834
Si Si6 0.655400 0.219965 0.329958
Si Si7 0.664038 0.804887 0.804120
O O1 0.363234 0.087880 0.464084
O O2 0.450738 0.134534 0.331205
O O3 0.191732 0.311190 0.644658
O O4 0.029658 0.895666 0.178828
O O5 0.231952 0.826368 0.473477
O O6 0.004230 0.450756 0.125090
O O7 0.000000 0.500000 0.000000
O O8 0.226108 0.673316 0.845187
O O9 0.615509 0.695764 0.782198
O O10 0.290134 0.349481 0.468714
O O11 0.480809 0.761667 0.052642
O O12 0.500000 0.000000 0.500000
O O13 0.199209 0.534383 0.360182
O O14 0.560217 0.213409 0.231877
O O15 0.785390 0.065246 0.119284
#
# Coordination Sequence:
#
# PCOD9009225 Si02
#       7
#     2   2   2   2   2   2   2
#     4  11  25  49  70 104 149 180 235 296 350 421
#     4  12  26  45  72 105 138 189 240 287 360 422
#     4  10  21  42  65 101 138 184 233 292 349 413
#     4  11  24  46  73 103 142 182 237 294 347 423
#     4  11  23  44  70 100 142 186 239 284 353 428
#     4  11  22  43  66 102 139 186 232 287 352 419
#     4  10  21  39  67  96 145 181 229 296 347 410
#
# _framework density 24.299626
#
# number of rings (size 3 to 8) (size 9 to 14) (size 15 to 20)
#    0.000    1.143    4.286    2.571    2.000    4.000 
#    0.000    0.000    0.000    0.000    0.000    0.000 
#    0.000    0.000    0.000    0.000    0.000    0.000 
#
# Total GULP energy -78070.907733 kJ/mol
# GULP energy per Si atom -5576.493409 kJ/mol
# Density = 2.424432 g / cm^3
# Si number density = 24.299626 Si / 1000 Ang^3
#
#
#
# Elastic Constant Matrix: (Units=GPa)
#
#
# Indices 1 2 3 4 5 6 
#
# 1 40.0863 7.6858 39.9537 -1.1508 1.6476 -3.4504
# 2 7.6858 125.8017 51.1934 -18.7790 7.5343 -13.6213
# 3 39.9537 51.1934 158.2006 -3.7959 3.9546 -0.0846
# 4 -1.1508 -18.7790 -3.7959 45.1713 4.0686 7.2330
# 5 1.6476 7.5343 3.9546 4.0686 47.4157 3.0287
# 6 -3.4504 -13.6213 -0.0846 7.2330 3.0287 26.8948
#
#
#
# Elastic Compliance Matrix: (Units=1/GPa)
#
#
# Indices 1 2 3 4 5 6 
#
# 1 0.034450 0.002480 -0.009463 0.000309 -0.001192 0.005697
# 2 0.002480 0.010573 -0.003909 0.003524 -0.002058 0.004945
# 3 -0.009463 -0.003909 0.009951 -0.000575 0.000364 -0.003049
# 4 0.000309 0.003524 -0.000575 0.024494 -0.002337 -0.004502
# 5 -0.001192 -0.002058 0.000364 -0.002337 0.021822 -0.003023
# 6 0.005697 0.004945 -0.003049 -0.004502 -0.003023 0.041959
#
#
# Mechanical properties :
#
#
# Convention : Reuss Voigt Hill
#
# Bulk Modulus (GPa) = 30.12813 57.97271 44.05042
# Shear Modulus (GPa) = 28.39357 38.91340 33.65348
#
# Velocity S-wave (km/s) = 3.42201 4.00609 3.72551
# Velocity P-wave (km/s) = 5.29519 6.73109 6.05585
#
# Compressibility (1/GPa) = 0.03319157
#
# Stress axis : x y z
#
# Youngs Moduli (GPa) = 29.02725 94.58083 100.48804
#
# Poissons Ratio (x) = -0.23460 0.95091
# Poissons Ratio (y) = -0.07200 0.39283
# Poissons Ratio (z) = 0.27468 0.36973
#
# Static dielectric constant tensor:
#      x y z
#    x 1.972410 -0.001450 -0.055460 
#    y -0.001450 1.987630 0.106850 
#    z -0.055460 0.106850 2.120830 
# 
# From -- ./inp_files/508184.got.cif
#   From: 2010.05.17/outbox.cif.g08.bks.cpg/sg2_255_cif.got.tgz:508184.got - 2010.06.03 11:33:40.
