data_PCOD9009568
_publ_section_title
;
Structure prediction by ZEFSAII (Michael W. Deem and Ramdas Pophale) SiO2 
 PCOD9009568
Probable space group: P -1
;
_chemical_formula_sum "Si O2"
_cell_formula_units_Z 16
_cell_length_a 9.013845
_cell_length_b 8.349191
_cell_length_c 13.291001
_cell_angle_alpha 51.846467
_cell_angle_beta 73.653215
_cell_angle_gamma 74.861637
_cell_volume 749.699211
_symmetry_space_group_name_H-M "P -1"
_symmetry_group_IT_number 2
_symmetry_cell_setting 'triclinic'
loop_
_space_group_symop_operation_xyz
x,y,z
-x,-y,-z
loop_
_atom_site_type_symbol
_atom_site_label
_atom_site_fract_x
_atom_site_fract_y
_atom_site_fract_z
Si Si1 0.892560 0.690923 0.488016
Si Si2 0.670459 0.038032 0.915580
Si Si3 0.788168 0.454906 0.791850
Si Si4 0.048085 0.262224 0.964218
Si Si5 0.630236 0.843140 0.779648
Si Si6 0.620282 0.017689 0.376843
Si Si7 0.084260 0.026315 0.371451
Si Si8 0.873271 0.305566 0.181648
O O1 0.841545 0.611889 0.637428
O O2 0.000000 0.500000 0.500000
O O3 0.014734 0.857113 0.385552
O O4 0.732772 0.804201 0.429386
O O5 0.671612 0.924582 0.850192
O O6 0.695162 0.279726 0.825679
O O7 0.816609 0.925293 0.994457
O O8 0.500000 0.000000 0.000000
O O9 0.681375 0.604041 0.833105
O O10 0.941394 0.334684 0.861430
O O11 0.142828 0.450843 0.906658
O O12 0.924941 0.232332 0.088579
O O13 0.462121 0.914075 0.739403
O O14 0.736344 0.982552 0.640325
O O15 0.735545 0.194699 0.299612
O O16 0.500000 0.000000 0.500000
O O17 0.000000 0.000000 0.500000
O O18 0.024619 0.237264 0.247360
#
# Coordination Sequence:
#
# PCOD9009568 Si02
#       8
#     2   2   2   2   2   2   2   2
#     4  11  24  42  71 105 142 182 239 300 351 434
#     4  12  30  45  65 108 146 183 245 302 353 431
#     4  12  25  46  74 101 139 195 242 287 366 437
#     4  11  22  45  69  98 139 188 240 297 348 425
#     4  12  23  46  72 101 147 185 231 297 367 422
#     4  11  24  42  73 109 143 187 239 296 370 438
#     4  11  18  40  68 103 133 177 234 288 351 433
#     4  10  21  39  70 104 130 184 245 280 354 437
#
# _framework density 21.341892000000001
#
# number of rings (size 3 to 8) (size 9 to 14) (size 15 to 20)
#    0.000    0.750    5.000    2.625    5.250    1.500 
#    0.000    2.500    0.000    0.000    0.000    0.000 
#    0.000    0.000    0.000    0.000    0.000    0.000 
#
# Total GULP energy -89097.430341 kJ/mol
# GULP energy per Si atom -5568.589396 kJ/mol
# Density = 2.129332 g / cm^3
# Si number density = 21.341892 Si / 1000 Ang^3
#
#
#
# Elastic Constant Matrix: (Units=GPa)
#
#
# Indices 1 2 3 4 5 6 
#
# 1 107.7071 44.8337 25.5731 -9.4256 9.1899 -4.3127
# 2 44.8337 119.8738 22.3445 -17.9760 1.3822 -7.7411
# 3 25.5731 22.3445 74.8729 -11.9159 0.6274 -2.0146
# 4 -9.4256 -17.9760 -11.9159 28.6690 -1.8811 0.7953
# 5 9.1899 1.3822 0.6274 -1.8811 55.1012 -4.6034
# 6 -4.3127 -7.7411 -2.0146 0.7953 -4.6034 28.8564
#
#
#
# Elastic Compliance Matrix: (Units=1/GPa)
#
#
# Indices 1 2 3 4 5 6 
#
# 1 0.011711 -0.003791 -0.002819 0.000176 -0.001799 0.000244
# 2 -0.003791 0.010863 -0.001081 0.005102 0.000734 0.002249
# 3 -0.002819 -0.001081 0.015414 0.004827 0.000513 0.000314
# 4 0.000176 0.005102 0.004827 0.040202 0.001229 0.000820
# 5 -0.001799 0.000734 0.000513 0.001229 0.018710 0.002915
# 6 0.000244 0.002249 0.000314 0.000820 0.002915 0.035758
#
#
# Mechanical properties :
#
#
# Convention : Reuss Voigt Hill
#
# Bulk Modulus (GPa) = 44.23606 54.21738 49.22672
# Shear Modulus (GPa) = 32.13895 36.50548 34.32221
#
# Velocity S-wave (km/s) = 3.88481 4.14032 4.01460
# Velocity P-wave (km/s) = 6.39490 6.95095 6.67871
#
# Compressibility (1/GPa) = 0.02260599
#
# Stress axis : x y z
#
# Youngs Moduli (GPa) = 85.39235 92.05253 64.87800
#
# Poissons Ratio (x) = 0.34902 0.18286
# Poissons Ratio (y) = 0.32376 0.07012
# Poissons Ratio (z) = 0.24068 0.09948
#
# Static dielectric constant tensor:
#      x y z
#    x 1.707390 -0.026400 0.051400 
#    y -0.026400 2.150660 0.011270 
#    z 0.051400 0.011270 1.812510 
# 
# From -- ./inp_files/381002.got.cif
#   From: 2010.05.17/outbox.cif.g08.bks.cpg/sg2_191_cif.got.tgz:381002.got - 2010.06.03 11:33:40.
