data_PCOD9009644
_publ_section_title
;
Structure prediction by ZEFSAII (Michael W. Deem and Ramdas Pophale) SiO2 
 PCOD9009644
Probable space group: P -1
;
_chemical_formula_sum "Si O2"
_cell_formula_units_Z 16
_cell_length_a 15.377782
_cell_length_b 9.224411
_cell_length_c 9.334186
_cell_angle_alpha 135.207552
_cell_angle_beta 45.560677
_cell_angle_gamma 144.027460
_cell_volume 522.017607
_symmetry_space_group_name_H-M "P -1"
_symmetry_group_IT_number 2
_symmetry_cell_setting 'triclinic'
loop_
_space_group_symop_operation_xyz
x,y,z
-x,-y,-z
loop_
_atom_site_type_symbol
_atom_site_label
_atom_site_fract_x
_atom_site_fract_y
_atom_site_fract_z
Si Si1 0.609892 0.494778 0.982548
Si Si2 0.233652 0.488834 0.916571
Si Si3 0.222679 0.040565 0.081449
Si Si4 0.404472 0.007196 0.431188
Si Si5 0.940209 0.251733 0.291131
Si Si6 0.668131 0.949110 0.757499
Si Si7 0.000663 0.878134 0.587513
Si Si8 0.249156 0.594313 0.654390
O O1 0.660180 0.543104 0.126678
O O2 0.755895 0.777749 0.944828
O O3 0.607837 0.248864 0.771807
O O4 0.500000 0.500000 0.000000
O O5 0.066649 0.362747 0.096442
O O6 0.323424 0.802300 0.040363
O O7 0.234158 0.448122 0.717341
O O8 0.061389 0.961545 0.270670
O O9 0.358098 0.190530 0.156272
O O10 0.211706 0.791066 0.878325
O O11 0.413286 0.142792 0.366006
O O12 0.244469 0.900668 0.618685
O O13 0.568255 0.221312 0.468924
O O14 0.960497 0.086214 0.262382
O O15 0.000000 0.500000 0.500000
O O16 0.860643 0.596807 0.480303
O O17 0.842299 0.061226 0.604317
#
# Coordination Sequence:
#
# PCOD9009644 Si02
#       8
#     2   2   2   2   2   2   2   2
#     4  11  20  35  68  98 138 182 240 292 350 422
#     4  10  21  39  71  97 138 194 236 283 366 426
#     4  11  22  39  70 102 137 188 243 285 358 426
#     4  10  21  40  69 102 139 193 239 282 367 433
#     4  11  18  42  73  97 136 203 233 277 366 437
#     4   9  21  38  71  95 132 191 239 272 356 433
#     4  11  22  44  73 104 145 184 242 301 351 424
#     4  11  26  43  72 110 144 183 240 302 358 423
#
# _framework density 30.650307999999999
#
# number of rings (size 3 to 8) (size 9 to 14) (size 15 to 20)
#    0.000    1.500    6.250    0.375    1.750    3.500 
#    0.000    3.125    5.500   21.750    0.000    0.000 
#    0.000    0.000    0.000    0.000    0.000    0.000 
#
# Total GULP energy -89581.573665 kJ/mol
# GULP energy per Si atom -5598.848354 kJ/mol
# Density = 3.058055 g / cm^3
# Si number density = 30.650308 Si / 1000 Ang^3
#
#
#
# Elastic Constant Matrix: (Units=GPa)
#
#
# Indices 1 2 3 4 5 6 
#
# 1 -35.6843 -667.4154 -0.5838 441.4953 91.5242 -478.6577
# 2 -667.4154-1667.3940 -180.1374 1094.0966 300.3063-1206.6050
# 3 -0.5838 -180.1374 110.8011 144.6648 37.8890 -140.8529
# 4 441.4953 1094.0966 144.6648 -613.3519 -180.2181 734.9495
# 5 91.5242 300.3063 37.8890 -180.2181 22.4451 173.2957
# 6 -478.6577-1206.6050 -140.8529 734.9495 173.2957 -680.3425
#
#
#
# Elastic Compliance Matrix: (Units=1/GPa)
#
#
# Indices 1 2 3 4 5 6 
#
# 1 0.005614 -0.001443 -0.003244 0.000446 0.002461 0.000391
# 2 -0.001443 0.005292 -0.001315 0.005501 -0.000637 -0.002318
# 3 -0.003244 -0.001315 0.009978 -0.002403 -0.001669 -0.000473
# 4 0.000446 0.005501 -0.002403 0.012017 -0.000403 0.003307
# 5 0.002461 -0.000637 -0.001669 -0.000403 0.016167 0.003426
# 6 0.000391 -0.002318 -0.000473 0.003307 0.003426 0.006908
#
#
# Mechanical properties :
#
#
# Convention : Reuss Voigt Hill
#
# Bulk Modulus (GPa) = 112.62253 -365.39452 -126.38599
# Shear Modulus (GPa) = 70.48212 -303.85924 -116.68856
#
# Velocity S-wave (km/s) = 4.80057 -9.96758 -6.17686
# Velocity P-wave (km/s) = 8.21897 15.87271 9.60186
#
# Compressibility (1/GPa) = 0.00887922
#
# Stress axis : x y z
#
# Youngs Moduli (GPa) = 178.14012 188.96507 100.22142
#
# Poissons Ratio (x) = 0.27275 0.32514
# Poissons Ratio (y) = 0.25712 0.13175
# Poissons Ratio (z) = 0.57792 0.24841
#
# Static dielectric constant tensor:
#      x y z
#    x 2.382420 0.242700 -0.120620 
#    y 0.242700 4.538260 -1.558240 
#    z -0.120620 -1.558240 3.497920 
# 
# From -- ./inp_files/218744.got.cif
#   From: 2010.05.17/outbox.cif.g08.bks.cpg/sg2_110_cif.got.tgz:218744.got - 2010.06.03 11:33:40.
