data_PCOD9009767
_publ_section_title
;
Structure prediction by ZEFSAII (Michael W. Deem and Ramdas Pophale) SiO2 
 PCOD9009767
Probable space group: P -1
;
_chemical_formula_sum "Si O2"
_cell_formula_units_Z 14
_cell_length_a 7.787432
_cell_length_b 10.948955
_cell_length_c 28.349038
_cell_angle_alpha 144.520178
_cell_angle_beta 30.658908
_cell_angle_gamma 140.922012
_cell_volume 691.547843
_symmetry_space_group_name_H-M "P -1"
_symmetry_group_IT_number 2
_symmetry_cell_setting 'triclinic'
loop_
_space_group_symop_operation_xyz
x,y,z
-x,-y,-z
loop_
_atom_site_type_symbol
_atom_site_label
_atom_site_fract_x
_atom_site_fract_y
_atom_site_fract_z
Si Si1 0.548067 0.363631 0.746720
Si Si2 0.424342 0.694488 0.382983
Si Si3 0.617244 0.732223 0.069744
Si Si4 0.420508 0.819409 0.921735
Si Si5 0.847343 0.239352 0.728056
Si Si6 0.160355 0.016417 0.217965
Si Si7 0.932310 0.147211 0.405546
O O1 0.690342 0.398938 0.670559
O O2 0.450388 0.581703 0.855616
O O3 0.804882 0.297722 0.702691
O O4 0.196502 0.168675 0.764750
O O5 0.157506 0.676365 0.483324
O O6 0.779472 0.635896 0.298024
O O7 0.570124 0.958651 0.423577
O O8 0.465324 0.712958 0.152661
O O9 0.430411 0.895566 0.139283
O O10 0.500000 0.500000 0.000000
O O11 0.029777 0.805284 0.993293
O O12 0.684388 0.885103 0.836676
O O13 0.500000 0.000000 0.000000
O O14 0.843695 0.987721 0.659747
O O15 0.095272 0.182925 0.326095
#
# Coordination Sequence:
#
# PCOD9009767 Si02
#       7
#     2   2   2   2   2   2   2
#     4  11  21  38  61  86 123 155 197 248 293 354
#     4   8  15  35  58  88 117 151 196 236 300 357
#     4  11  20  39  62  82 116 163 201 241 299 349
#     4  12  26  38  56  90 121 159 205 245 297 352
#     4   9  18  31  58  87 116 150 197 241 289 352
#     4  10  21  40  59  85 118 156 200 247 290 359
#     4   7  15  34  58  88 116 148 200 237 295 356
#
# _framework density 20.244441999999999
#
# number of rings (size 3 to 8) (size 9 to 14) (size 15 to 20)
#    0.857    1.429    2.857    1.286    2.000    1.714 
#    2.571    0.714    0.000    0.857    0.000    0.000 
#    0.000    0.000    0.000    0.000    0.000    0.000 
#
# Total GULP energy -78023.836306 kJ/mol
# GULP energy per Si atom -5573.131165 kJ/mol
# Density = 2.019836 g / cm^3
# Si number density = 20.244442 Si / 1000 Ang^3
#
#
#
# Elastic Constant Matrix: (Units=GPa)
#
#
# Indices 1 2 3 4 5 6 
#
# 1 97.4392 31.7829 20.4483 -4.2425 24.0844 -17.9130
# 2 31.7829 57.3765 43.2516 -12.0294 16.9070 -4.5021
# 3 20.4483 43.2516 113.9712 -10.2982 32.8441 -7.4129
# 4 -4.2425 -12.0294 -10.2982 32.0787 -2.7078 9.6679
# 5 24.0844 16.9070 32.8441 -2.7078 26.7037 -1.3988
# 6 -17.9130 -4.5021 -7.4129 9.6679 -1.3988 21.7860
#
#
#
# Elastic Compliance Matrix: (Units=1/GPa)
#
#
# Indices 1 2 3 4 5 6 
#
# 1 0.020017 -0.010134 0.006402 -0.006155 -0.019191 0.018042
# 2 -0.010134 0.031689 -0.010721 0.010297 0.002792 -0.009822
# 3 0.006402 -0.010721 0.018168 -0.001723 -0.021054 0.008643
# 4 -0.006155 0.010297 -0.001723 0.040401 0.004138 -0.021182
# 5 -0.019191 0.002792 -0.021054 0.004138 0.078299 -0.019175
# 6 0.018042 -0.009822 0.008643 -0.021182 -0.019175 0.069816
#
#
# Mechanical properties :
#
#
# Convention : Reuss Voigt Hill
#
# Bulk Modulus (GPa) = 24.40891 51.08362 37.74627
# Shear Modulus (GPa) = 16.61400 27.66730 22.14065
#
# Velocity S-wave (km/s) = 2.86784 3.70085 3.31065
# Velocity P-wave (km/s) = 4.80097 6.59923 5.77058
#
# Compressibility (1/GPa) = 0.04096864
#
# Stress axis : x y z
#
# Youngs Moduli (GPa) = 49.95722 31.55632 55.04259
#
# Poissons Ratio (x) = 0.31980 -0.35239
# Poissons Ratio (y) = 0.50627 0.59010
# Poissons Ratio (z) = -0.31984 0.33831
#
# Static dielectric constant tensor:
#      x y z
#    x 1.688630 -0.022070 0.029740 
#    y -0.022070 1.769560 -0.006000 
#    z 0.029740 -0.006000 1.735400 
# 
# From -- ./inp_files/622446.got.cif
#   From: 2010.05.17/outbox.cif.g08.bks.cpg/sg2_312_cif.got.tgz:622446.got - 2010.06.03 11:33:40.
