data_PCOD9009195
_publ_section_title
;
Structure prediction by ZEFSAII (Michael W. Deem and Ramdas Pophale) SiO2 
 PCOD9009195
Probable space group: P -1
;
_chemical_formula_sum "Si O2"
_cell_formula_units_Z 14
_cell_length_a 12.193285
_cell_length_b 9.062078
_cell_length_c 21.148736
_cell_angle_alpha 128.749372
_cell_angle_beta 26.252391
_cell_angle_gamma 142.981658
_cell_volume 585.573233
_symmetry_space_group_name_H-M "P -1"
_symmetry_group_IT_number 2
_symmetry_cell_setting 'triclinic'
loop_
_space_group_symop_operation_xyz
x,y,z
-x,-y,-z
loop_
_atom_site_type_symbol
_atom_site_label
_atom_site_fract_x
_atom_site_fract_y
_atom_site_fract_z
Si Si1 0.490637 0.316011 0.502028
Si Si2 0.854643 0.184884 0.326284
Si Si3 0.073421 0.363587 0.808419
Si Si4 0.163464 0.260108 0.315892
Si Si5 0.322405 0.172299 0.791813
Si Si6 0.707220 0.094451 0.145211
Si Si7 0.475337 0.021702 0.113862
O O1 0.500000 0.500000 0.500000
O O2 0.829605 0.377629 0.358209
O O3 0.334926 0.333682 0.649599
O O4 0.208027 0.012852 0.544237
O O5 0.133326 0.286955 0.263137
O O6 0.500000 0.000000 0.500000
O O7 0.846064 0.030899 0.232859
O O8 0.238612 0.654703 0.804391
O O9 0.793853 0.218695 0.857591
O O10 0.856624 0.199735 0.938151
O O11 0.342605 0.537946 0.326068
O O12 0.397486 0.203143 0.194633
O O13 0.409139 0.071320 0.776027
O O14 0.060255 0.182236 0.962770
O O15 0.460151 0.951314 0.174584
#
# Coordination Sequence:
#
# PCOD9009195 Si02
#       7
#     2   2   2   2   2   2   2
#     4  10  22  41  66  92 124 172 216 259 312 378
#     4  10  24  43  67  91 130 178 215 260 315 386
#     4  10  21  39  67  95 129 163 219 268 318 381
#     4  10  23  42  68  96 129 169 215 269 323 381
#     4  11  25  41  62  98 136 169 211 265 328 382
#     4  11  24  39  64  99 135 166 208 271 327 385
#     4  10  22  38  68  99 125 169 214 267 330 378
#
# _framework density 23.908197000000001
#
# number of rings (size 3 to 8) (size 9 to 14) (size 15 to 20)
#    0.000    1.714    1.429    1.286    8.000    5.714 
#    0.000    4.286    0.000   16.286    0.000    0.000 
#    0.000    0.000    0.000    0.000    0.000    0.000 
#
# Total GULP energy -78298.283613 kJ/mol
# GULP energy per Si atom -5592.734544 kJ/mol
# Density = 2.385378 g / cm^3
# Si number density = 23.908197 Si / 1000 Ang^3
#
#
#
# Elastic Constant Matrix: (Units=GPa)
#
#
# Indices 1 2 3 4 5 6 
#
# 1 139.4321 29.3340 2.7029 0.7557 -12.1191 -16.5873
# 2 29.3340 118.4541 23.6519 -9.0168 -8.4281 -3.0993
# 3 2.7029 23.6519 67.5346 16.6716 -12.0037 -12.0054
# 4 0.7557 -9.0168 16.6716 22.7174 -9.1669 3.0777
# 5 -12.1191 -8.4281 -12.0037 -9.1669 22.7653 7.3500
# 6 -16.5873 -3.0993 -12.0054 3.0777 7.3500 28.0607
#
#
#
# Elastic Compliance Matrix: (Units=1/GPa)
#
#
# Indices 1 2 3 4 5 6 
#
# 1 0.008550 -0.002669 0.002814 -0.003509 0.001731 0.005895
# 2 -0.002669 0.012007 -0.007576 0.014145 0.006941 -0.006862
# 3 0.002814 -0.007576 0.025819 -0.025280 -0.002841 0.015390
# 4 -0.003509 0.014145 -0.025280 0.086206 0.034368 -0.029785
# 5 0.001731 0.006941 -0.002841 0.034368 0.066406 -0.020589
# 6 0.005895 -0.006862 0.015390 -0.029785 -0.020589 0.053608
#
#
# Mechanical properties :
#
#
# Convention : Reuss Voigt Hill
#
# Bulk Modulus (GPa) = 31.73152 48.53316 40.13234
# Shear Modulus (GPa) = 17.98812 32.69081 25.33947
#
# Velocity S-wave (km/s) = 2.74594 3.70178 3.25909
# Velocity P-wave (km/s) = 4.83266 6.21408 5.56639
#
# Compressibility (1/GPa) = 0.03151440
#
# Stress axis : x y z
#
# Youngs Moduli (GPa) = 116.96455 83.28629 38.73042
#
# Poissons Ratio (x) = 0.22228 -0.10900
# Poissons Ratio (y) = 0.31216 0.29343
# Poissons Ratio (z) = -0.32918 0.63099
#
# Static dielectric constant tensor:
#      x y z
#    x 1.946520 -0.023730 0.001960 
#    y -0.023730 1.921660 -0.039150 
#    z 0.001960 -0.039150 1.952300 
# 
# From -- ./inp_files/306295.got.cif
#   From: 2010.05.17/outbox.cif.g08.bks.cpg/sg2_154_cif.got.tgz:306295.got - 2010.06.03 11:33:40.
