data_PCOD9009470
_publ_section_title
;
Structure prediction by ZEFSAII (Michael W. Deem and Ramdas Pophale) SiO2 
 PCOD9009470
Probable space group: P -1
;
_chemical_formula_sum "Si O2"
_cell_formula_units_Z 12
_cell_length_a 8.370946
_cell_length_b 15.079887
_cell_length_c 15.022571
_cell_angle_alpha 161.197503
_cell_angle_beta 56.135747
_cell_angle_gamma 122.999204
_cell_volume 506.478396
_symmetry_space_group_name_H-M "P -1"
_symmetry_group_IT_number 2
_symmetry_cell_setting 'triclinic'
loop_
_space_group_symop_operation_xyz
x,y,z
-x,-y,-z
loop_
_atom_site_type_symbol
_atom_site_label
_atom_site_fract_x
_atom_site_fract_y
_atom_site_fract_z
Si Si1 0.473522 0.534120 0.231226
Si Si2 0.057418 0.735491 0.027441
Si Si3 0.748337 0.765364 0.839429
Si Si4 0.136372 0.689694 0.754705
Si Si5 0.359501 0.051356 0.674529
Si Si6 0.862646 0.827941 0.446217
O O1 0.425190 0.398302 0.212344
O O2 0.677065 0.701685 0.332354
O O3 0.329446 0.766813 0.468934
O O4 0.457711 0.291244 0.933702
O O5 0.136963 0.707645 0.876953
O O6 0.043464 0.436185 0.792411
O O7 0.845836 0.850896 0.198280
O O8 0.183032 0.956589 0.257609
O O9 0.813920 0.601913 0.577277
O O10 0.923802 0.754530 0.845993
O O11 0.724177 0.075733 0.112643
O O12 0.500000 0.000000 0.500000
O O13 0.000000 0.000000 0.500000
#
# Coordination Sequence:
#
# PCOD9009470 Si02
#       6
#     2   2   2   2   2   2
#     4  12  25  47  68 104 140 185 230 284 353 408
#     4  12  25  47  72 104 138 183 237 285 343 414
#     4  10  21  39  69 102 138 175 223 285 352 402
#     4  10  21  39  69 104 134 176 225 287 346 404
#     4  12  26  44  72 103 135 176 243 300 333 399
#     4  12  28  48  70  96 146 195 225 278 359 417
#
# _framework density 23.693014999999999
#
# number of rings (size 3 to 8) (size 9 to 14) (size 15 to 20)
#    0.000    0.667    1.667    6.000    4.667    2.667 
#    0.000    5.000    0.000    0.000    0.000    0.000 
#    0.000    0.000    0.000    0.000    0.000    0.000 
#
# Total GULP energy -67310.237549 kJ/mol
# GULP energy per Si atom -5609.186462 kJ/mol
# Density = 2.363909 g / cm^3
# Si number density = 23.693015 Si / 1000 Ang^3
#
#
#
# Elastic Constant Matrix: (Units=GPa)
#
#
# Indices 1 2 3 4 5 6 
#
# 1 44.8982 32.1206 41.6008 -2.8632 4.5279 -14.8368
# 2 32.1206 88.8184 38.1581 20.0030 -1.8064 -5.6592
# 3 41.6008 38.1581 151.6727 8.3938 18.8683 -23.1350
# 4 -2.8632 20.0030 8.3938 43.9402 -13.7283 5.2680
# 5 4.5279 -1.8064 18.8683 -13.7283 47.9626 2.9421
# 6 -14.8368 -5.6592 -23.1350 5.2680 2.9421 31.1892
#
#
#
# Elastic Compliance Matrix: (Units=1/GPa)
#
#
# Indices 1 2 3 4 5 6 
#
# 1 0.043056 -0.013857 -0.007167 0.009215 0.000191 0.011077
# 2 -0.013857 0.018424 -0.000655 -0.008953 -0.000168 -0.002207
# 3 -0.007167 -0.000655 0.010418 -0.004380 -0.005032 0.005414
# 4 0.009215 -0.008953 -0.004380 0.032279 0.010179 -0.006902
# 5 0.000191 -0.000168 -0.005032 0.010179 0.026201 -0.007863
# 6 0.011077 -0.002207 0.005414 -0.006902 -0.007863 0.042855
#
#
# Mechanical properties :
#
#
# Convention : Reuss Voigt Hill
#
# Bulk Modulus (GPa) = 35.03943 56.57204 45.80573
# Shear Modulus (GPa) = 22.11381 36.18572 29.14976
#
# Velocity S-wave (km/s) = 3.05839 3.91227 3.51138
# Velocity P-wave (km/s) = 5.22424 6.65859 5.98454
#
# Compressibility (1/GPa) = 0.02853928
#
# Stress axis : x y z
#
# Youngs Moduli (GPa) = 23.22565 54.27758 95.98841
#
# Poissons Ratio (x) = 0.75214 0.68798
# Poissons Ratio (y) = 0.32184 0.06283
# Poissons Ratio (z) = 0.16647 0.03553
#
# Static dielectric constant tensor:
#      x y z
#    x 1.932330 0.011620 -0.014690 
#    y 0.011620 1.882660 0.001230 
#    z -0.014690 0.001230 1.854070 
# 
# From -- ./inp_files/195456.got.cif
#   From: 2010.05.17/outbox.cif.g08.bks.cpg/sg2_98_cif.got.tgz:195456.got - 2010.06.03 11:33:40.
