data_PCOD9009368
_publ_section_title
;
Structure prediction by ZEFSAII (Michael W. Deem and Ramdas Pophale) SiO2 
 PCOD9009368
Probable space group: P -1
;
_chemical_formula_sum "Si O2"
_cell_formula_units_Z 16
_cell_length_a 12.135413
_cell_length_b 12.035998
_cell_length_c 8.167773
_cell_angle_alpha 99.332075
_cell_angle_beta 51.117610
_cell_angle_gamma 132.176245
_cell_volume 614.780012
_symmetry_space_group_name_H-M "P -1"
_symmetry_group_IT_number 2
_symmetry_cell_setting 'triclinic'
loop_
_space_group_symop_operation_xyz
x,y,z
-x,-y,-z
loop_
_atom_site_type_symbol
_atom_site_label
_atom_site_fract_x
_atom_site_fract_y
_atom_site_fract_z
Si Si1 0.614083 0.523918 0.740232
Si Si2 0.983125 0.162159 0.710315
Si Si3 0.069662 0.655013 0.668214
Si Si4 0.777857 0.258983 0.817018
Si Si5 0.640081 0.863570 0.760546
Si Si6 0.312884 0.485920 0.844228
Si Si7 0.632528 0.335471 0.481516
Si Si8 0.179044 0.104573 0.725233
O O1 0.448986 0.453064 0.729309
O O2 0.661599 0.419498 0.646120
O O3 0.840041 0.715652 0.564201
O O4 0.500000 0.500000 0.000000
O O5 0.867698 0.213910 0.838888
O O6 0.133981 0.204205 0.720738
O O7 0.799461 0.965833 0.788483
O O8 0.173342 0.744371 0.418401
O O9 0.253343 0.716468 0.628923
O O10 0.914861 0.453794 0.757173
O O11 0.910802 0.653034 0.889451
O O12 0.534328 0.141771 0.056148
O O13 0.484527 0.667113 0.824301
O O14 0.795826 0.952356 0.479836
O O15 0.281914 0.534778 0.714922
O O16 0.387242 0.184345 0.640400
O O17 0.000000 0.000000 0.000000
#
# Coordination Sequence:
#
# PCOD9009368 Si02
#       8
#     2   2   2   2   2   2   2   2
#     4  12  25  37  65 100 127 166 218 269 326 381
#     4  12  23  43  66  95 131 171 216 271 320 378
#     4  10  21  39  68  94 131 164 218 265 325 387
#     4  10  22  40  65 100 124 169 217 270 320 377
#     4  10  23  42  67  89 130 173 218 262 316 385
#     4  10  22  41  61  97 128 171 215 262 332 383
#     4  11  23  42  65  91 134 167 210 272 326 382
#     4  11  27  44  66  96 129 176 218 259 330 385
#
# _framework density 26.025572
#
# number of rings (size 3 to 8) (size 9 to 14) (size 15 to 20)
#    0.000    1.250    3.750    2.250    7.000    0.000 
#    0.000    0.625    0.000    0.000    0.000    0.000 
#    0.000    0.000    0.000    0.000    0.000    0.000 
#
# Total GULP energy -89380.183753 kJ/mol
# GULP energy per Si atom -5586.261485 kJ/mol
# Density = 2.596634 g / cm^3
# Si number density = 26.025572 Si / 1000 Ang^3
#
#
#
# Elastic Constant Matrix: (Units=GPa)
#
#
# Indices 1 2 3 4 5 6 
#
# 1 125.0542 14.1671 55.0500 -11.9931 -35.0218 18.7499
# 2 14.1671 39.9068 -3.4706 -3.4692 -7.5054 15.0392
# 3 55.0500 -3.4706 177.8932 -14.8828 -26.5027 2.8578
# 4 -11.9931 -3.4692 -14.8828 28.1782 8.3322 -13.1487
# 5 -35.0218 -7.5054 -26.5027 8.3322 55.4922 -4.7665
# 6 18.7499 15.0392 2.8578 -13.1487 -4.7665 33.6826
#
#
#
# Elastic Compliance Matrix: (Units=1/GPa)
#
#
# Indices 1 2 3 4 5 6 
#
# 1 0.011615 -0.001491 -0.002785 -0.000688 0.005467 -0.005059
# 2 -0.001491 0.031405 0.001498 -0.003618 0.003341 -0.014259
# 3 -0.002785 0.001498 0.006956 0.003025 0.001457 0.001679
# 4 -0.000688 -0.003618 0.003025 0.046798 -0.004846 0.019325
# 5 0.005467 0.003341 0.001457 -0.004846 0.023064 -0.003287
# 6 -0.005059 -0.014259 0.001679 0.019325 -0.003287 0.045808
#
#
# Mechanical properties :
#
#
# Convention : Reuss Voigt Hill
#
# Bulk Modulus (GPa) = 22.51219 52.70524 37.60872
# Shear Modulus (GPa) = 26.88037 41.94445 34.41241
#
# Velocity S-wave (km/s) = 3.21728 4.01891 3.64023
# Velocity P-wave (km/s) = 4.74025 6.46767 5.67013
#
# Compressibility (1/GPa) = 0.04442038
#
# Stress axis : x y z
#
# Youngs Moduli (GPa) = 86.09438 31.84166 143.76835
#
# Poissons Ratio (x) = 0.04747 0.40043
# Poissons Ratio (y) = 0.12835 -0.21538
# Poissons Ratio (z) = 0.23979 -0.04770
#
# Static dielectric constant tensor:
#      x y z
#    x 2.139850 -0.038550 0.036780 
#    y -0.038550 2.161650 0.027170 
#    z 0.036780 0.027170 2.004700 
# 
# From -- ./inp_files/273311.got.cif
#   From: 2010.05.17/outbox.cif.g08.bks.cpg/sg2_137_cif.got.tgz:273311.got - 2010.06.03 11:33:40.
