data_PCOD9009240
_publ_section_title
;
Structure prediction by ZEFSAII (Michael W. Deem and Ramdas Pophale) SiO2 
 PCOD9009240
Probable space group: P -1
;
_chemical_formula_sum "Si O2"
_cell_formula_units_Z 16
_cell_length_a 12.205478
_cell_length_b 5.562767
_cell_length_c 12.889571
_cell_angle_alpha 63.022438
_cell_angle_beta 63.307248
_cell_angle_gamma 67.584674
_cell_volume 679.261515
_symmetry_space_group_name_H-M "P -1"
_symmetry_group_IT_number 2
_symmetry_cell_setting 'triclinic'
loop_
_space_group_symop_operation_xyz
x,y,z
-x,-y,-z
loop_
_atom_site_type_symbol
_atom_site_label
_atom_site_fract_x
_atom_site_fract_y
_atom_site_fract_z
Si Si1 0.376044 0.330960 0.283968
Si Si2 0.215612 0.802457 0.118606
Si Si3 0.467273 0.842118 0.942431
Si Si4 0.556120 0.426468 0.375281
Si Si5 0.869447 0.194012 0.053281
Si Si6 0.964324 0.212562 0.220255
Si Si7 0.784721 0.678912 0.273330
Si Si8 0.754595 0.899645 0.445821
O O1 0.290340 0.594004 0.211483
O O2 0.460936 0.131714 0.201000
O O3 0.462973 0.430762 0.316123
O O4 0.278676 0.177299 0.410871
O O5 0.317397 0.945981 0.992800
O O6 0.098680 0.019427 0.175201
O O7 0.181593 0.645413 0.060400
O O8 0.500000 0.500000 0.000000
O O9 0.500000 0.000000 0.000000
O O10 0.500000 0.500000 0.500000
O O11 0.670405 0.584951 0.283008
O O12 0.632115 0.113221 0.415609
O O13 0.789149 0.985978 0.175859
O O14 0.902954 0.340704 0.111838
O O15 0.000000 0.000000 0.000000
O O16 0.927997 0.495482 0.242790
O O17 0.876415 0.025952 0.348242
O O18 0.761242 0.651957 0.411184
#
# Coordination Sequence:
#
# PCOD9009240 Si02
#       8
#     2   2   2   2   2   2   2   2
#     4  11  24  43  69 102 141 179 231 294 354 421
#     4  10  23  43  63  98 136 180 233 284 347 426
#     4  10  25  48  65  99 142 190 234 283 360 432
#     4  11  23  40  70 101 135 178 232 284 355 419
#     4   9  20  39  63  90 128 170 233 277 337 405
#     4   9  21  43  67  97 131 177 233 281 349 413
#     4  10  21  39  67  97 133 175 229 291 342 414
#     4  10  22  41  67 101 133 172 231 287 348 417
#
# _framework density 23.554994000000001
#
# number of rings (size 3 to 8) (size 9 to 14) (size 15 to 20)
#    0.000    2.000    1.250    0.375    5.250    6.500 
#   15.750    0.625    0.000    0.000    0.000    0.000 
#    0.000    0.000    0.000    0.000    0.000    0.000 
#
# Total GULP energy -89116.950852 kJ/mol
# GULP energy per Si atom -5569.809428 kJ/mol
# Density = 2.350138 g / cm^3
# Si number density = 23.554994 Si / 1000 Ang^3
#
#
#
# Elastic Constant Matrix: (Units=GPa)
#
#
# Indices 1 2 3 4 5 6 
#
# 1 85.3456 31.3602 65.3046 10.6665 -14.0805 -19.6024
# 2 31.3602 76.5577 50.1875 23.8835 -2.8478 -16.3819
# 3 65.3046 50.1875 180.5171 27.2183 -12.4448 -12.2212
# 4 10.6665 23.8835 27.2183 43.6807 -6.1817 -8.2936
# 5 -14.0805 -2.8478 -12.4448 -6.1817 44.5225 -3.2439
# 6 -19.6024 -16.3819 -12.2212 -8.2936 -3.2439 41.0651
#
#
#
# Elastic Compliance Matrix: (Units=1/GPa)
#
#
# Indices 1 2 3 4 5 6 
#
# 1 0.019485 -0.003374 -0.005671 0.002740 0.005269 0.007237
# 2 -0.003374 0.019407 -0.002896 -0.007490 -0.001410 0.003645
# 3 -0.005671 -0.002896 0.008689 -0.002808 -0.000074 -0.001849
# 4 0.002740 -0.007490 -0.002808 0.029334 0.003947 0.003721
# 5 0.005269 -0.001410 -0.000074 0.003947 0.024906 0.004695
# 6 0.007237 0.003645 -0.001849 0.003721 0.004695 0.029832
#
#
# Mechanical properties :
#
#
# Convention : Reuss Voigt Hill
#
# Bulk Modulus (GPa) = 42.19548 70.68056 56.43802
# Shear Modulus (GPa) = 30.59295 38.89153 34.74224
#
# Velocity S-wave (km/s) = 3.60778 4.06777 3.84466
# Velocity P-wave (km/s) = 5.94199 7.22040 6.61216
#
# Compressibility (1/GPa) = 0.02369922
#
# Stress axis : x y z
#
# Youngs Moduli (GPa) = 51.32067 51.52806 115.08383
#
# Poissons Ratio (x) = 0.17388 0.65263
# Poissons Ratio (y) = 0.17318 0.33326
# Poissons Ratio (z) = 0.29103 0.14921
#
# Static dielectric constant tensor:
#      x y z
#    x 2.039650 0.088940 -0.013380 
#    y 0.088940 1.980310 0.017710 
#    z -0.013380 0.017710 2.095110 
# 
# From -- ./inp_files/81046.got.cif
#   From: 2010.05.17/outbox.cif.g08.bks.cpg/sg2_41_cif.got.tgz:81046.got - 2010.06.03 11:33:40.
