data_PCOD9009864
_publ_section_title
;
Structure prediction by ZEFSAII (Michael W. Deem and Ramdas Pophale) SiO2 
 PCOD9009864
Probable space group: P -1
;
_chemical_formula_sum "Si O2"
_cell_formula_units_Z 14
_cell_length_a 13.376849
_cell_length_b 15.647406
_cell_length_c 11.578681
_cell_angle_alpha 37.222972
_cell_angle_beta 47.438054
_cell_angle_gamma 26.640786
_cell_volume 651.764443
_symmetry_space_group_name_H-M "P -1"
_symmetry_group_IT_number 2
_symmetry_cell_setting 'triclinic'
loop_
_space_group_symop_operation_xyz
x,y,z
-x,-y,-z
loop_
_atom_site_type_symbol
_atom_site_label
_atom_site_fract_x
_atom_site_fract_y
_atom_site_fract_z
Si Si1 0.434604 0.902830 0.197064
Si Si2 0.249692 0.651167 0.962229
Si Si3 0.700731 0.722916 0.612886
Si Si4 0.487432 0.627788 0.270538
Si Si5 0.972867 0.180300 0.279238
Si Si6 0.721393 0.322166 0.844291
Si Si7 0.829756 0.534367 0.461913
O O1 0.421862 0.820365 0.181689
O O2 0.634058 0.689776 0.353747
O O3 0.189983 0.088875 0.244152
O O4 0.500000 0.000000 0.000000
O O5 0.320881 0.426147 0.173463
O O6 0.179060 0.792765 0.982098
O O7 0.060013 0.801665 0.852032
O O8 0.460432 0.558253 0.838912
O O9 0.738117 0.689252 0.481332
O O10 0.936685 0.586864 0.625830
O O11 0.500000 0.000000 0.500000
O O12 0.500000 0.500000 0.500000
O O13 0.739591 0.434384 0.234225
O O14 0.327334 0.724256 0.183840
O O15 0.000000 0.000000 0.500000
O O16 0.857750 0.348559 0.675803
#
# Coordination Sequence:
#
# PCOD9009864 Si02
#       7
#     2   2   2   2   2   2   2
#     4  12  25  40  64  97 132 171 221 270 330 388
#     4   9  19  38  63  95 127 163 216 271 316 382
#     4  10  22  40  64  88 126 167 208 262 332 383
#     4  11  21  41  65  91 130 174 223 267 320 395
#     4  11  22  40  68  95 133 177 214 269 333 387
#     4   9  18  38  63  85 123 163 208 269 314 363
#     4  10  21  40  60  89 125 165 210 267 315 385
#
# _framework density 21.480153000000001
#
# number of rings (size 3 to 8) (size 9 to 14) (size 15 to 20)
#    0.000    1.714    2.857    1.714    0.000    4.000 
#    0.000    5.714    0.000    0.000    0.000    0.000 
#    0.000    0.000    0.000    0.000    0.000    0.000 
#
# Total GULP energy -78052.268576 kJ/mol
# GULP energy per Si atom -5575.162041 kJ/mol
# Density = 2.143126 g / cm^3
# Si number density = 21.480153 Si / 1000 Ang^3
#
#
#
# Elastic Constant Matrix: (Units=GPa)
#
#
# Indices 1 2 3 4 5 6 
#
# 1 137.6447 54.7314 30.1665 3.2844 11.4281 -6.3848
# 2 54.7314 101.9178 15.0799 -1.6799 -1.7798 -19.1482
# 3 30.1665 15.0799 70.8455 3.6857 -3.8336 -0.1420
# 4 3.2844 -1.6799 3.6857 24.4912 -6.3259 -4.5107
# 5 11.4281 -1.7798 -3.8336 -6.3259 50.6715 7.2054
# 6 -6.3848 -19.1482 -0.1420 -4.5107 7.2054 45.6449
#
#
#
# Elastic Compliance Matrix: (Units=1/GPa)
#
#
# Indices 1 2 3 4 5 6 
#
# 1 0.010358 -0.005249 -0.003345 -0.002104 -0.002965 -0.000503
# 2 -0.005249 0.013785 -0.000779 0.003039 0.001256 0.005148
# 3 -0.003345 -0.000779 0.015895 -0.001733 0.001886 -0.001214
# 4 -0.002104 0.003039 -0.001733 0.043769 0.005279 0.004467
# 5 -0.002965 0.001256 0.001886 0.005279 0.021644 -0.002777
# 6 -0.000503 0.005148 -0.001214 0.004467 -0.002777 0.024874
#
#
# Mechanical properties :
#
#
# Convention : Reuss Voigt Hill
#
# Bulk Modulus (GPa) = 46.96523 56.70708 51.83616
# Shear Modulus (GPa) = 32.01660 38.19021 35.10340
#
# Velocity S-wave (km/s) = 3.86491 4.22113 4.04694
# Velocity P-wave (km/s) = 6.46751 7.08620 6.78391
#
# Compressibility (1/GPa) = 0.02129235
#
# Stress axis : x y z
#
# Youngs Moduli (GPa) = 96.54146 72.54291 62.91141
#
# Poissons Ratio (x) = 0.38074 0.21046
# Poissons Ratio (y) = 0.50670 0.04902
# Poissons Ratio (z) = 0.32297 0.05652
#
# Static dielectric constant tensor:
#      x y z
#    x 1.788810 0.009060 0.020130 
#    y 0.009060 1.834310 0.024030 
#    z 0.020130 0.024030 1.818160 
# 
# From -- ./inp_files/432421.got.cif
#   From: 2010.05.17/outbox.cif.g08.bks.cpg/sg2_217_cif.got.tgz:432421.got - 2010.06.03 11:33:40.
