data_PCOD9009406
_publ_section_title
;
Structure prediction by ZEFSAII (Michael W. Deem and Ramdas Pophale) SiO2 
 PCOD9009406
Probable space group: P -1
;
_chemical_formula_sum "Si O2"
_cell_formula_units_Z 16
_cell_length_a 23.659797
_cell_length_b 7.512677
_cell_length_c 8.900120
_cell_angle_alpha 84.350342
_cell_angle_beta 147.846491
_cell_angle_gamma 75.394998
_cell_volume 648.266048
_symmetry_space_group_name_H-M "P -1"
_symmetry_group_IT_number 2
_symmetry_cell_setting 'triclinic'
loop_
_space_group_symop_operation_xyz
x,y,z
-x,-y,-z
loop_
_atom_site_type_symbol
_atom_site_label
_atom_site_fract_x
_atom_site_fract_y
_atom_site_fract_z
Si Si1 0.072384 0.913666 0.330660
Si Si2 0.632677 0.913967 0.149271
Si Si3 0.792896 0.593094 0.268054
Si Si4 0.478090 0.355196 0.351518
Si Si5 0.333679 0.258434 0.442510
Si Si6 0.225664 0.088147 0.019212
Si Si7 0.329242 0.720009 0.747039
Si Si8 0.181823 0.767624 0.098260
O O1 0.096056 0.681938 0.445366
O O2 0.220701 0.832810 0.632730
O O3 0.000000 0.000000 0.000000
O O4 0.972130 0.114277 0.205190
O O5 0.752165 0.729504 0.321747
O O6 0.641398 0.772265 0.320885
O O7 0.634840 0.112365 0.199847
O O8 0.483311 0.068298 0.724239
O O9 0.650731 0.637663 0.901799
O O10 0.843052 0.696870 0.264485
O O11 0.500000 0.500000 0.500000
O O12 0.623705 0.102636 0.697799
O O13 0.447722 0.468368 0.105124
O O14 0.243160 0.185935 0.200931
O O15 0.258979 0.521897 0.214138
O O16 0.174612 0.947933 0.961045
O O17 0.264338 0.725112 0.443199
#
# Coordination Sequence:
#
# PCOD9009406 Si02
#       8
#     2   2   2   2   2   2   2   2
#     4   9  21  45  68  90 125 173 226 275 310 376
#     4  11  21  40  64 100 132 166 220 270 325 387
#     4  11  24  42  66  96 134 170 220 269 320 392
#     4  11  23  39  67  96 135 176 212 265 331 393
#     4  11  24  39  66  98 136 170 207 275 327 385
#     4  12  25  40  63 101 137 169 212 263 335 396
#     4  10  21  39  68  97 125 176 224 266 323 382
#     4  11  24  44  64  93 135 175 220 269 323 378
#
# _framework density 24.681225999999999
#
# number of rings (size 3 to 8) (size 9 to 14) (size 15 to 20)
#    0.000    1.250    2.500    4.125    5.250    1.500 
#    2.250    2.500    0.000    0.000    0.000    0.000 
#    0.000    0.000    0.000    0.000    0.000    0.000 
#
# Total GULP energy -89515.532572 kJ/mol
# GULP energy per Si atom -5594.720786 kJ/mol
# Density = 2.462505 g / cm^3
# Si number density = 24.681226 Si / 1000 Ang^3
#
#
#
# Elastic Constant Matrix: (Units=GPa)
#
#
# Indices 1 2 3 4 5 6 
#
# 1 84.7625 15.4249 17.2494 -13.8194 -15.8526 13.6123
# 2 15.4249 90.3778 7.5230 -8.2356 -11.3248 13.8974
# 3 17.2494 7.5230 55.7159 -18.1924 -22.2047 2.2924
# 4 -13.8194 -8.2356 -18.1924 30.0211 1.2266 -5.9113
# 5 -15.8526 -11.3248 -22.2047 1.2266 34.4295 -7.4212
# 6 13.6123 13.8974 2.2924 -5.9113 -7.4212 43.3060
#
#
#
# Elastic Compliance Matrix: (Units=1/GPa)
#
#
# Indices 1 2 3 4 5 6 
#
# 1 0.014317 -0.000856 -0.000281 0.005465 0.005387 -0.002542
# 2 -0.000856 0.012265 0.001183 0.003007 0.003718 -0.002682
# 3 -0.000281 0.001183 0.032931 0.020137 0.021737 0.004439
# 4 0.005465 0.003007 0.020137 0.049327 0.015968 0.005721
# 5 0.005387 0.003718 0.021737 0.015968 0.047554 0.006292
# 6 -0.002542 -0.002682 0.004439 0.005721 0.006292 0.026375
#
#
# Mechanical properties :
#
#
# Convention : Reuss Voigt Hill
#
# Bulk Modulus (GPa) = 16.77752 34.58341 25.68047
# Shear Modulus (GPa) = 24.68565 34.26191 29.47378
#
# Velocity S-wave (km/s) = 3.16599 3.72987 3.45944
# Velocity P-wave (km/s) = 4.49189 5.70891 5.13657
#
# Compressibility (1/GPa) = 0.05960356
#
# Stress axis : x y z
#
# Youngs Moduli (GPa) = 69.84564 81.53557 30.36645
#
# Poissons Ratio (x) = 0.06983 0.00854
# Poissons Ratio (y) = 0.05981 -0.03592
# Poissons Ratio (z) = 0.01965 -0.09645
#
# Static dielectric constant tensor:
#      x y z
#    x 1.980960 -0.008140 0.011340 
#    y -0.008140 1.913510 -0.001170 
#    z 0.011340 -0.001170 2.033360 
# 
# From -- ./inp_files/351750.got.cif
#   From: 2010.05.17/outbox.cif.g08.bks.cpg/sg2_176_cif.got.tgz:351750.got - 2010.06.03 11:33:40.
