data_PCOD9009875
_publ_section_title
;
Structure prediction by ZEFSAII (Michael W. Deem and Ramdas Pophale) SiO2 
 PCOD9009875
Probable space group: P -1
;
_chemical_formula_sum "Si O2"
_cell_formula_units_Z 14
_cell_length_a 7.850000
_cell_length_b 22.332793
_cell_length_c 8.130866
_cell_angle_alpha 38.554448
_cell_angle_beta 59.760677
_cell_angle_gamma 77.949355
_cell_volume 720.776480
_symmetry_space_group_name_H-M "P -1"
_symmetry_group_IT_number 2
_symmetry_cell_setting 'triclinic'
loop_
_space_group_symop_operation_xyz
x,y,z
-x,-y,-z
loop_
_atom_site_type_symbol
_atom_site_label
_atom_site_fract_x
_atom_site_fract_y
_atom_site_fract_z
Si Si1 0.696515 0.079778 0.640346
Si Si2 0.531003 0.207114 0.922188
Si Si3 0.138465 0.113867 0.518128
Si Si4 0.607696 0.264451 0.402693
Si Si5 0.803906 0.085845 0.206166
Si Si6 0.180652 0.247261 0.528947
Si Si7 0.906748 0.380986 0.266713
O O1 0.662244 0.189234 0.411717
O O2 0.740033 0.049594 0.500487
O O3 0.904099 0.096816 0.610166
O O4 0.500000 0.000000 0.000000
O O5 0.517625 0.194942 0.758328
O O6 0.704214 0.320999 0.607837
O O7 0.310396 0.189262 0.151155
O O8 0.635772 0.130243 0.114302
O O9 0.176863 0.165341 0.566009
O O10 0.176015 0.006537 0.713477
O O11 0.419481 0.299071 0.357908
O O12 0.809777 0.351579 0.193455
O O13 0.026088 0.179176 0.890336
O O14 0.074073 0.325056 0.341812
O O15 0.000000 0.500000 0.000000
#
# Coordination Sequence:
#
# PCOD9009875 Si02
#       7
#     2   2   2   2   2   2   2
#     4  12  23  37  58  92 130 167 206 244 298 368
#     4   9  21  38  59  89 120 160 207 250 303 358
#     4  12  21  37  57  88 129 164 207 247 298 366
#     4  10  21  40  60  90 125 156 207 247 307 358
#     4  11  22  36  58  89 127 168 204 244 302 362
#     4  11  22  39  64  91 123 164 202 254 306 359
#     4   9  21  43  66  89 122 155 206 262 310 359
#
# _framework density 19.423497000000001
#
# number of rings (size 3 to 8) (size 9 to 14) (size 15 to 20)
#    0.857    0.571    1.429    4.714    0.000    2.857 
#    0.000    0.714    0.000    4.286    0.000    0.000 
#    0.000    0.000    0.000    0.000    0.000    0.000 
#
# Total GULP energy -78151.034074 kJ/mol
# GULP energy per Si atom -5582.216720 kJ/mol
# Density = 1.937929 g / cm^3
# Si number density = 19.423497 Si / 1000 Ang^3
#
#
#
# Elastic Constant Matrix: (Units=GPa)
#
#
# Indices 1 2 3 4 5 6 
#
# 1 124.4807 23.8238 29.6284 -12.9678 -21.3130 -7.7448
# 2 23.8238 80.9131 39.8949 -12.4700 -7.4605 -1.1295
# 3 29.6284 39.8949 72.9945 -18.6997 -14.2265 -10.3067
# 4 -12.9678 -12.4700 -18.6997 33.8510 6.8553 -1.7780
# 5 -21.3130 -7.4605 -14.2265 6.8553 21.8813 11.9853
# 6 -7.7448 -1.1295 -10.3067 -1.7780 11.9853 21.9410
#
#
#
# Elastic Compliance Matrix: (Units=1/GPa)
#
#
# Indices 1 2 3 4 5 6 
#
# 1 0.010237 -0.001163 -0.001918 0.000348 0.009633 -0.002581
# 2 -0.001163 0.017416 -0.009387 0.000339 0.001041 -0.004465
# 3 -0.001918 -0.009387 0.023679 0.008892 0.002410 0.009367
# 4 0.000348 0.000339 0.008892 0.038350 -0.014050 0.015100
# 5 0.009633 0.001041 0.002410 -0.014050 0.084932 -0.042946
# 6 -0.002581 -0.004465 0.009367 0.015100 -0.042946 0.073519
#
#
# Mechanical properties :
#
#
# Convention : Reuss Voigt Hill
#
# Bulk Modulus (GPa) = 37.88394 51.67584 44.77989
# Shear Modulus (GPa) = 17.73892 27.87075 22.80484
#
# Velocity S-wave (km/s) = 3.02532 3.79211 3.43021
# Velocity P-wave (km/s) = 5.63471 6.77023 6.22840
#
# Compressibility (1/GPa) = 0.02639641
#
# Stress axis : x y z
#
# Youngs Moduli (GPa) = 97.68183 57.41956 42.23215
#
# Poissons Ratio (x) = 0.06678 0.08098
# Poissons Ratio (y) = 0.11360 0.39643
# Poissons Ratio (z) = 0.18731 0.53900
#
# Static dielectric constant tensor:
#      x y z
#    x 1.704110 0.008060 -0.018490 
#    y 0.008060 1.678750 0.023010 
#    z -0.018490 0.023010 1.687050 
# 
# From -- ./inp_files/220218.got.cif
#   From: 2010.05.17/outbox.cif.g08.bks.cpg/sg2_111_cif.got.tgz:220218.got - 2010.06.03 11:33:40.
