data_PCOD9009877
_publ_section_title
;
Structure prediction by ZEFSAII (Michael W. Deem and Ramdas Pophale) SiO2 
 PCOD9009877
Probable space group: P -1
;
_chemical_formula_sum "Si O2"
_cell_formula_units_Z 16
_cell_length_a 5.333991
_cell_length_b 21.942126
_cell_length_c 8.086028
_cell_angle_alpha 127.373350
_cell_angle_beta 66.611349
_cell_angle_gamma 101.965037
_cell_volume 689.555253
_symmetry_space_group_name_H-M "P -1"
_symmetry_group_IT_number 2
_symmetry_cell_setting 'triclinic'
loop_
_space_group_symop_operation_xyz
x,y,z
-x,-y,-z
loop_
_atom_site_type_symbol
_atom_site_label
_atom_site_fract_x
_atom_site_fract_y
_atom_site_fract_z
Si Si1 0.073100 0.403583 0.136410
Si Si2 0.040352 0.698598 0.248469
Si Si3 0.367545 0.583818 0.147666
Si Si4 0.258438 0.948918 0.413513
Si Si5 0.540990 0.142784 0.119958
Si Si6 0.238733 0.448255 0.519363
Si Si7 0.886885 0.143155 0.365524
Si Si8 0.492234 0.312520 0.443628
O O1 0.084945 0.420968 0.353310
O O2 0.958628 0.487043 0.234677
O O3 0.386203 0.384664 0.974902
O O4 0.921561 0.327661 0.994203
O O5 0.103182 0.613916 0.169577
O O6 0.184998 0.767918 0.411886
O O7 0.730500 0.715767 0.412095
O O8 0.332429 0.630615 0.402608
O O9 0.500000 0.500000 0.000000
O O10 0.500000 0.000000 0.500000
O O11 0.363830 0.902135 0.145198
O O12 0.000000 0.000000 0.500000
O O13 0.169650 0.902280 0.524415
O O14 0.211795 0.134041 0.217777
O O15 0.608170 0.231938 0.215302
O O16 0.705938 0.122761 0.216837
O O17 0.500000 0.500000 0.500000
O O18 0.347040 0.370786 0.449847
#
# Coordination Sequence:
#
# PCOD9009877 Si02
#       8
#     2   2   2   2   2   2   2   2
#     4  10  22  35  53  84 119 169 231 284 357 406
#     4  10  21  40  60  90 127 179 231 290 361 422
#     4  11  19  34  60  84 121 168 226 284 337 405
#     4  12  28  50  80 122 150 192 248 295 372 462
#     4  11  25  49  76 112 152 200 242 304 375 440
#     4  11  22  38  53  84 127 175 233 299 366 416
#     4  11  25  49  77 110 159 195 244 304 369 448
#     4  10  22  39  59  90 128 174 237 287 354 435
#
# _framework density 23.20336
#
# number of rings (size 3 to 8) (size 9 to 14) (size 15 to 20)
#    0.000    1.250    1.250    4.500    0.000    8.000 
#    6.750    0.000    0.000    0.000    0.000    0.000 
#    0.000    0.000    0.000    0.000    0.000    0.000 
#
# Total GULP energy -89115.687130 kJ/mol
# GULP energy per Si atom -5569.730446 kJ/mol
# Density = 2.315055 g / cm^3
# Si number density = 23.203360 Si / 1000 Ang^3
#
#
#
# Elastic Constant Matrix: (Units=GPa)
#
#
# Indices 1 2 3 4 5 6 
#
# 1 103.2892 34.4987 71.4817 -2.0723 3.8712 -12.8116
# 2 34.4987 111.2791 64.3033 -7.8970 0.4841 -16.1830
# 3 71.4817 64.3033 225.9697 13.8295 20.3160 -5.9730
# 4 -2.0723 -7.8970 13.8295 26.4587 3.2800 -3.3835
# 5 3.8712 0.4841 20.3160 3.2800 44.9773 -6.0556
# 6 -12.8116 -16.1830 -5.9730 -3.3835 -6.0556 32.9074
#
#
#
# Elastic Compliance Matrix: (Units=1/GPa)
#
#
# Indices 1 2 3 4 5 6 
#
# 1 0.013481 -0.000824 -0.004221 0.003470 0.001127 0.004641
# 2 -0.000824 0.012775 -0.003775 0.006275 0.002028 0.006295
# 3 -0.004221 -0.003775 0.007342 -0.005345 -0.002962 -0.003262
# 4 0.003470 0.006275 -0.005345 0.043759 -0.000072 0.007953
# 5 0.001127 0.002028 -0.002962 -0.000072 0.024177 0.005340
# 6 0.004641 0.006295 -0.003262 0.007953 0.005340 0.036499
#
#
# Mechanical properties :
#
#
# Convention : Reuss Voigt Hill
#
# Bulk Modulus (GPa) = 62.66189 86.78947 74.72568
# Shear Modulus (GPa) = 31.05751 38.88564 34.97157
#
# Velocity S-wave (km/s) = 3.66251 4.09817 3.88645
# Velocity P-wave (km/s) = 6.70444 7.73811 7.23975
#
# Compressibility (1/GPa) = 0.01595866
#
# Stress axis : x y z
#
# Youngs Moduli (GPa) = 74.17848 78.27789 136.20372
#
# Poissons Ratio (x) = 0.06449 0.57492
# Poissons Ratio (y) = 0.06112 0.51413
# Poissons Ratio (z) = 0.31311 0.29548
#
# Static dielectric constant tensor:
#      x y z
#    x 1.892290 0.009900 0.068620 
#    y 0.009900 2.006600 -0.046150 
#    z 0.068620 -0.046150 1.921860 
# 
# From -- ./inp_files/115973.got.cif
#   From: 2010.05.17/outbox.cif.g08.bks.cpg/sg2_58_cif.got.tgz:115973.got - 2010.06.03 11:33:40.
