data_PCOD9009831
_publ_section_title
;
Structure prediction by ZEFSAII (Michael W. Deem and Ramdas Pophale) SiO2 
 PCOD9009831
Probable space group: P -1
;
_chemical_formula_sum "Si O2"
_cell_formula_units_Z 16
_cell_length_a 29.518816
_cell_length_b 29.982274
_cell_length_c 10.153151
_cell_angle_alpha 144.302776
_cell_angle_beta 145.574704
_cell_angle_gamma 10.090044
_cell_volume 890.001319
_symmetry_space_group_name_H-M "P -1"
_symmetry_group_IT_number 2
_symmetry_cell_setting 'triclinic'
loop_
_space_group_symop_operation_xyz
x,y,z
-x,-y,-z
loop_
_atom_site_type_symbol
_atom_site_label
_atom_site_fract_x
_atom_site_fract_y
_atom_site_fract_z
Si Si1 0.468641 0.000012 0.580869
Si Si2 0.868964 0.000066 0.402653
Si Si3 0.032425 0.500001 0.233186
Si Si4 0.903957 0.999950 0.783495
Si Si5 0.223610 0.500061 0.704229
Si Si6 0.278100 0.999947 0.131418
Si Si7 0.630087 0.500070 0.137259
Si Si8 0.470631 0.500102 0.577552
O O1 0.737890 0.749844 0.721100
O O2 0.372524 0.000022 0.330832
O O3 0.500000 0.000000 0.500000
O O4 0.237565 0.250178 0.721120
O O5 0.668322 0.249942 0.478496
O O6 0.865658 0.999932 0.549731
O O7 0.780628 0.000021 0.132031
O O8 0.167959 0.750335 0.478480
O O9 0.128987 0.500032 0.446066
O O10 0.000000 0.500000 0.000000
O O11 0.126816 0.750668 0.795474
O O12 0.628258 0.249194 0.795392
O O13 0.000000 0.000000 0.000000
O O14 0.490862 0.249832 0.829614
O O15 0.285443 0.499981 0.733548
O O16 0.990326 0.750383 0.829571
O O17 0.551570 0.500126 0.856869
O O18 0.500000 0.500000 0.500000
#
# Coordination Sequence:
#
# PCOD9009831 Si02
#       8
#     2   2   2   2   2   2   2   2
#     4  10  21  40  66  93 127 164 198 245 306 366
#     4  12  23  38  55  81 112 148 192 230 290 337
#     4  10  21  41  66  94 127 160 200 249 304 364
#     4  12  23  40  56  75 116 154 186 239 290 342
#     4  10  22  40  62  86 117 152 188 242 292 336
#     4  10  21  40  60  85 120 150 189 240 291 338
#     4  12  22  39  57  80 111 150 195 231 290 344
#     4  12  23  35  58  81 106 142 193 242 276 337
#
# _framework density 17.977502000000001
#
# number of rings (size 3 to 8) (size 9 to 14) (size 15 to 20)
#    0.000    1.000    2.500    5.250    0.000    0.000 
#    4.500    0.000    0.000    0.000    0.000    0.000 
#    0.000    0.000    0.000    0.000    0.000    0.000 
#
# Total GULP energy -89250.846431 kJ/mol
# GULP energy per Si atom -5578.177902 kJ/mol
# Density = 1.793658 g / cm^3
# Si number density = 17.977502 Si / 1000 Ang^3
#
#
#
# Elastic Constant Matrix: (Units=GPa)
#
#
# Indices 1 2 3 4 5 6 
#
# 1 150.9843 85.5976 56.1294 0.7945 -20.1402 0.6287
# 2 85.5976 192.5256 57.6292 4.4613 -21.3729 -0.0061
# 3 56.1294 57.6292 140.1904 -3.7895 -36.4324 2.1527
# 4 0.7945 4.4613 -3.7895 22.0167 1.3214 0.6886
# 5 -20.1402 -21.3729 -36.4324 1.3214 31.5916 0.4294
# 6 0.6287 -0.0061 2.1527 0.6886 0.4294 39.2443
#
#
#
# Elastic Compliance Matrix: (Units=1/GPa)
#
#
# Indices 1 2 3 4 5 6 
#
# 1 0.009534 -0.003476 -0.002028 -0.000071 0.001392 -0.000056
# 2 -0.003476 0.007318 -0.001336 -0.001668 0.001262 0.000146
# 3 -0.002028 -0.001336 0.011373 0.001673 0.010859 -0.000740
# 4 -0.000071 -0.001668 0.001673 0.046146 -0.001162 -0.000888
# 5 0.001392 0.001262 0.010859 -0.001162 0.045982 -0.001100
# 6 -0.000056 0.000146 -0.000740 -0.000888 -0.001100 0.025551
#
#
# Mechanical properties :
#
#
# Convention : Reuss Voigt Hill
#
# Bulk Modulus (GPa) = 68.74780 98.04584 83.39682
# Shear Modulus (GPa) = 30.40805 37.52679 33.96742
#
# Velocity S-wave (km/s) = 4.11719 4.57380 4.35149
# Velocity P-wave (km/s) = 7.80549 9.08567 8.46980
#
# Compressibility (1/GPa) = 0.01454592
#
# Stress axis : x y z
#
# Youngs Moduli (GPa) = 104.89087 136.64789 87.92898
#
# Poissons Ratio (x) = 0.47494 0.17829
# Poissons Ratio (y) = 0.36456 0.11748
# Poissons Ratio (z) = 0.21269 0.18257
#
# Static dielectric constant tensor:
#      x y z
#    x 1.601100 -0.000760 0.000800 
#    y -0.000760 1.618300 -0.000810 
#    z 0.000800 -0.000810 1.634230 
# 
# From -- ./inp_files/358027.got.cif
#   From: 2010.05.17/outbox.cif.g08.bks.cpg/sg2_180_cif.got.tgz:358027.got - 2010.06.03 11:33:40.
