data_PCOD9009117
_publ_section_title
;
Structure prediction by ZEFSAII (Michael W. Deem and Ramdas Pophale) SiO2 
 PCOD9009117
Probable space group: P -1
;
_chemical_formula_sum "Si O2"
_cell_formula_units_Z 16
_cell_length_a 9.108316
_cell_length_b 15.504014
_cell_length_c 9.346380
_cell_angle_alpha 64.754805
_cell_angle_beta 132.318050
_cell_angle_gamma 83.658175
_cell_volume 709.793145
_symmetry_space_group_name_H-M "P -1"
_symmetry_group_IT_number 2
_symmetry_cell_setting 'triclinic'
loop_
_space_group_symop_operation_xyz
x,y,z
-x,-y,-z
loop_
_atom_site_type_symbol
_atom_site_label
_atom_site_fract_x
_atom_site_fract_y
_atom_site_fract_z
Si Si1 0.023512 0.733893 0.853650
Si Si2 0.792393 0.974660 0.356499
Si Si3 0.838878 0.270241 0.729821
Si Si4 0.258098 0.031170 0.005932
Si Si5 0.498401 0.795935 0.509825
Si Si6 0.267088 0.622804 0.820900
Si Si7 0.050538 0.373387 0.620845
Si Si8 0.592685 0.199235 0.229702
O O1 0.934146 0.853076 0.624825
O O2 0.784083 0.735533 0.712037
O O3 0.226485 0.628053 0.959822
O O4 0.118477 0.735949 0.069329
O O5 0.825375 0.963817 0.214682
O O6 0.779913 0.082569 0.343184
O O7 0.504869 0.023236 0.159523
O O8 0.586613 0.287345 0.517916
O O9 0.051791 0.145765 0.880246
O O10 0.875959 0.364320 0.621319
O O11 0.335727 0.912229 0.221669
O O12 0.445525 0.833387 0.615062
O O13 0.315213 0.719275 0.748337
O O14 0.023090 0.652049 0.561450
O O15 0.500000 0.500000 0.000000
O O16 0.000000 0.500000 0.500000
O O17 0.331455 0.278329 0.920439
#
# Coordination Sequence:
#
# PCOD9009117 Si02
#       8
#     2   2   2   2   2   2   2   2
#     4  11  26  46  73 108 148 187 237 298 359 432
#     4  10  22  39  70 111 150 192 236 287 363 428
#     4  12  23  44  71 107 147 192 240 290 362 423
#     4  10  21  39  67 109 153 195 231 287 356 437
#     4  11  24  42  70 105 150 188 231 294 358 428
#     4  12  28  50  74 104 138 188 249 296 361 430
#     4  12  25  47  77 100 138 191 243 298 357 419
#     4  12  24  45  74 104 148 191 237 298 357 424
#
# _framework density 22.541781
#
# number of rings (size 3 to 8) (size 9 to 14) (size 15 to 20)
#    0.000    0.750    5.000    1.875    5.250    2.500 
#    0.000    3.125    0.000    0.000    0.000    0.000 
#    0.000    0.000    0.000    0.000    0.000    0.000 
#
# Total GULP energy -89629.717079 kJ/mol
# GULP energy per Si atom -5601.857317 kJ/mol
# Density = 2.249047 g / cm^3
# Si number density = 22.541781 Si / 1000 Ang^3
#
#
#
# Elastic Constant Matrix: (Units=GPa)
#
#
# Indices 1 2 3 4 5 6 
#
# 1 111.6543 66.3471 21.2984 -2.9959 -10.7516 -27.3742
# 2 66.3471 150.9797 52.0655 3.7929 -7.8145 -10.5130
# 3 21.2984 52.0655 84.6543 12.1209 -9.3527 -17.9224
# 4 -2.9959 3.7929 12.1209 39.1789 -2.1335 -4.9774
# 5 -10.7516 -7.8145 -9.3527 -2.1335 34.8808 10.8940
# 6 -27.3742 -10.5130 -17.9224 -4.9774 10.8940 53.2364
#
#
#
# Elastic Compliance Matrix: (Units=1/GPa)
#
#
# Indices 1 2 3 4 5 6 
#
# 1 0.014184 -0.006286 0.001525 0.002123 0.001485 0.006460
# 2 -0.006286 0.011228 -0.005955 -0.000113 -0.000085 -0.003013
# 3 0.001525 -0.005955 0.016814 -0.003828 0.002005 0.004501
# 4 0.002123 -0.000113 -0.003828 0.027193 0.000577 0.002205
# 5 0.001485 -0.000085 0.002005 0.000577 0.031215 -0.004912
# 6 0.006460 -0.003013 0.004501 0.002205 -0.004912 0.024238
#
#
# Mechanical properties :
#
#
# Convention : Reuss Voigt Hill
#
# Bulk Modulus (GPa) = 48.08951 69.63448 58.86199
# Shear Modulus (GPa) = 32.62968 39.29772 35.96370
#
# Velocity S-wave (km/s) = 3.80876 4.17985 3.99861
# Velocity P-wave (km/s) = 6.38138 7.36568 6.89112
#
# Compressibility (1/GPa) = 0.02079456
#
# Stress axis : x y z
#
# Youngs Moduli (GPa) = 70.50088 89.06334 59.47387
#
# Poissons Ratio (x) = 0.55983 -0.09071
# Poissons Ratio (y) = 0.44315 0.35418
# Poissons Ratio (z) = -0.10752 0.53040
#
# Static dielectric constant tensor:
#      x y z
#    x 1.895010 0.029080 0.071960 
#    y 0.029080 1.826320 0.019600 
#    z 0.071960 0.019600 1.867690 
# 
# From -- ./inp_files/206536.got.cif
#   From: 2010.05.17/outbox.cif.g08.bks.cpg/sg2_104_cif.got.tgz:206536.got - 2010.06.03 11:33:40.
