data_PCOD9009385
_publ_section_title
;
Structure prediction by ZEFSAII (Michael W. Deem and Ramdas Pophale) SiO2 
 PCOD9009385
Probable space group: P -1
;
_chemical_formula_sum "Si O2"
_cell_formula_units_Z 16
_cell_length_a 21.542504
_cell_length_b 6.219867
_cell_length_c 9.664076
_cell_angle_alpha 128.615351
_cell_angle_beta 43.952535
_cell_angle_gamma 106.582966
_cell_volume 669.402329
_symmetry_space_group_name_H-M "P -1"
_symmetry_group_IT_number 2
_symmetry_cell_setting 'triclinic'
loop_
_space_group_symop_operation_xyz
x,y,z
-x,-y,-z
loop_
_atom_site_type_symbol
_atom_site_label
_atom_site_fract_x
_atom_site_fract_y
_atom_site_fract_z
Si Si1 0.917210 0.353108 0.096583
Si Si2 0.011410 0.818186 0.546942
Si Si3 0.097864 0.558991 0.538021
Si Si4 0.720933 0.601563 0.389558
Si Si5 0.457696 0.499214 0.219805
Si Si6 0.582766 0.339811 0.198355
Si Si7 0.347572 0.127789 0.667482
Si Si8 0.743212 0.006616 0.984037
O O1 0.911438 0.283613 0.239818
O O2 0.817768 0.576514 0.299969
O O3 0.000000 0.500000 0.000000
O O4 0.940190 0.054088 0.855563
O O5 0.994014 0.529545 0.394927
O O6 0.105943 0.731236 0.454273
O O7 0.000000 0.000000 0.500000
O O8 0.173981 0.250343 0.311496
O O9 0.639899 0.569824 0.612869
O O10 0.678185 0.851165 0.445580
O O11 0.750225 0.323735 0.127426
O O12 0.534936 0.295456 0.115520
O O13 0.432709 0.836701 0.438933
O O14 0.500000 0.500000 0.000000
O O15 0.500000 0.500000 0.500000
O O16 0.632121 0.586332 0.196834
O O17 0.652295 0.067890 0.055283
O O18 0.268226 0.091454 0.881067
#
# Coordination Sequence:
#
# PCOD9009385 Si02
#       8
#     2   2   2   2   2   2   2   2
#     4  12  25  46  72 103 142 184 228 285 352 414
#     4  11  24  45  71  98 133 180 231 282 350 413
#     4  11  25  43  71 101 133 181 225 291 347 403
#     4  10  23  43  64  97 141 174 226 289 335 411
#     4  11  24  41  64  99 136 177 223 283 341 395
#     4  11  20  40  67  92 129 177 227 270 331 416
#     4  10  21  39  68  95 129 181 220 278 343 399
#     4  10  22  39  67  98 132 175 232 284 335 409
#
# _framework density 23.90192
#
# number of rings (size 3 to 8) (size 9 to 14) (size 15 to 20)
#    0.000    1.250    6.250    0.750    1.750    2.500 
#    4.500    0.000    0.000    0.000    0.000    0.000 
#    0.000    0.000    0.000    0.000    0.000    0.000 
#
# Total GULP energy -89217.126469 kJ/mol
# GULP energy per Si atom -5576.070404 kJ/mol
# Density = 2.384752 g / cm^3
# Si number density = 23.901920 Si / 1000 Ang^3
#
#
#
# Elastic Constant Matrix: (Units=GPa)
#
#
# Indices 1 2 3 4 5 6 
#
# 1 134.1655 41.2001 41.4559 -20.8922 -13.1866 -36.4177
# 2 41.2001 73.3008 21.8248 -3.9768 -5.3255 -25.4805
# 3 41.4559 21.8248 98.3777 -4.3113 15.0309 -19.5661
# 4 -20.8922 -3.9768 -4.3113 26.3747 -10.4459 7.9859
# 5 -13.1866 -5.3255 15.0309 -10.4459 43.0105 -0.0068
# 6 -36.4177 -25.4805 -19.5661 7.9859 -0.0068 44.1860
#
#
#
# Elastic Compliance Matrix: (Units=1/GPa)
#
#
# Indices 1 2 3 4 5 6 
#
# 1 0.014094 -0.003334 -0.004899 0.011552 0.008427 0.005438
# 2 -0.003334 0.018623 -0.001490 -0.001863 0.001353 0.007668
# 3 -0.004899 -0.001490 0.013988 -0.005671 -0.007952 0.002321
# 4 0.011552 -0.001863 -0.005671 0.054360 0.018495 -0.003886
# 5 0.008427 0.001353 -0.007952 0.018495 0.033272 0.000867
# 6 0.005438 0.007668 0.002321 -0.003886 0.000867 0.033265
#
#
# Mechanical properties :
#
#
# Convention : Reuss Voigt Hill
#
# Bulk Modulus (GPa) = 36.68534 57.20063 46.94299
# Shear Modulus (GPa) = 25.49263 36.13846 30.81554
#
# Velocity S-wave (km/s) = 3.26935 3.89260 3.59451
# Velocity P-wave (km/s) = 5.44363 6.64729 6.07534
#
# Compressibility (1/GPa) = 0.02725884
#
# Stress axis : x y z
#
# Youngs Moduli (GPa) = 70.95042 53.69745 71.49002
#
# Poissons Ratio (x) = 0.17903 0.35026
# Poissons Ratio (y) = 0.23655 0.10650
# Poissons Ratio (z) = 0.34762 0.07999
#
# Static dielectric constant tensor:
#      x y z
#    x 1.951580 -0.160680 -0.049000 
#    y -0.160680 2.299780 0.000810 
#    z -0.049000 0.000810 1.964140 
# 
# From -- ./inp_files/351071.got.cif
#   From: 2010.05.17/outbox.cif.g08.bks.cpg/sg2_176_cif.got.tgz:351071.got - 2010.06.03 11:33:40.
