data_PCOD9009952
_publ_section_title
;
Structure prediction by ZEFSAII (Michael W. Deem and Ramdas Pophale) SiO2 
 PCOD9009952
Probable space group: P -1
;
_chemical_formula_sum "Si O2"
_cell_formula_units_Z 16
_cell_length_a 27.027255
_cell_length_b 5.531704
_cell_length_c 5.026616
_cell_angle_alpha 78.857279
_cell_angle_beta 59.344869
_cell_angle_gamma 67.273927
_cell_volume 596.292005
_symmetry_space_group_name_H-M "P -1"
_symmetry_group_IT_number 2
_symmetry_cell_setting 'triclinic'
loop_
_space_group_symop_operation_xyz
x,y,z
-x,-y,-z
loop_
_atom_site_type_symbol
_atom_site_label
_atom_site_fract_x
_atom_site_fract_y
_atom_site_fract_z
Si Si1 0.295056 0.125884 0.468169
Si Si2 0.189128 0.738938 0.123138
Si Si3 0.672062 0.457064 0.415225
Si Si4 0.458547 0.714875 0.864271
Si Si5 0.427945 0.291717 0.784961
Si Si6 0.919154 0.015855 0.951585
Si Si7 0.017675 0.248572 0.688722
Si Si8 0.212010 0.191579 0.187778
O O1 0.319754 0.366987 0.395156
O O2 0.268169 0.112393 0.254996
O O3 0.336315 0.826412 0.483905
O O4 0.238672 0.192420 0.817379
O O5 0.171890 0.487622 0.307657
O O6 0.152326 0.853254 0.932023
O O7 0.180330 0.975295 0.299037
O O8 0.262001 0.622974 0.894917
O O9 0.618232 0.652795 0.346525
O O10 0.412964 0.568272 0.919904
O O11 0.503813 0.742009 0.500493
O O12 0.432199 0.016627 0.967441
O O13 0.500000 0.500000 0.000000
O O14 0.942540 0.962025 0.592740
O O15 0.944681 0.773238 0.136760
O O16 0.954303 0.200450 0.932772
O O17 0.000000 0.500000 0.500000
#
# Coordination Sequence:
#
# PCOD9009952 Si02
#       8
#     2   2   2   2   2   2   2   2
#     4  10  21  40  61  86 131 172 215 261 318 395
#     4  10  23  42  64  97 133 173 217 271 333 408
#     4  10  21  41  62  95 131 173 214 271 336 406
#     4  10  21  40  64  94 122 171 221 276 328 387
#     4  10  21  40  64  89 133 164 218 275 330 394
#     4  10  23  40  65  97 127 172 222 274 335 394
#     4  10  22  43  66  95 128 171 225 279 329 390
#     4  10  22  40  62  88 130 174 215 261 318 393
#
# _framework density 26.832488999999999
#
# number of rings (size 3 to 8) (size 9 to 14) (size 15 to 20)
#    0.000    2.000    0.000    2.250    1.750    4.000 
#   13.500    0.000    0.000    0.000    0.000    0.000 
#    0.000    0.000    0.000    0.000    0.000    0.000 
#
# Total GULP energy -89441.012860 kJ/mol
# GULP energy per Si atom -5590.063304 kJ/mol
# Density = 2.677142 g / cm^3
# Si number density = 26.832489 Si / 1000 Ang^3
#
#
#
# Elastic Constant Matrix: (Units=GPa)
#
#
# Indices 1 2 3 4 5 6 
#
# 1 139.2497 71.8024 28.5147 -12.3443 24.7355 12.1593
# 2 71.8024 184.9210 37.9395 -47.8171 4.8578 42.8128
# 3 28.5147 37.9395 82.9404 -14.6501 7.9524 6.2383
# 4 -12.3443 -47.8171 -14.6501 44.6081 -6.6938 2.8912
# 5 24.7355 4.8578 7.9524 -6.6938 42.7121 -5.4724
# 6 12.1593 42.8128 6.2383 2.8912 -5.4724 45.2108
#
#
#
# Elastic Compliance Matrix: (Units=1/GPa)
#
#
# Indices 1 2 3 4 5 6 
#
# 1 0.010641 -0.005094 -0.001625 -0.004016 -0.005685 0.001755
# 2 -0.005094 0.014357 -0.001491 0.014653 0.002266 -0.012683
# 3 -0.001625 -0.001491 0.013849 0.002351 -0.001145 -0.000351
# 4 -0.004016 0.014653 0.002351 0.039434 0.004467 -0.015101
# 5 -0.005685 0.002266 -0.001145 0.004467 0.027695 0.002608
# 6 0.001755 -0.012683 -0.000351 -0.015101 0.002608 0.034986
#
#
# Mechanical properties :
#
#
# Convention : Reuss Voigt Hill
#
# Bulk Modulus (GPa) = 44.58744 75.95826 60.27285
# Shear Modulus (GPa) = 30.32910 44.42985 37.37947
#
# Velocity S-wave (km/s) = 3.36566 4.07359 3.73643
# Velocity P-wave (km/s) = 5.63530 7.10601 6.41295
#
# Compressibility (1/GPa) = 0.02242784
#
# Stress axis : x y z
#
# Youngs Moduli (GPa) = 93.97339 69.65110 72.20766
#
# Poissons Ratio (x) = 0.35480 0.11731
# Poissons Ratio (y) = 0.47869 0.10769
# Poissons Ratio (z) = 0.15267 0.10388
#
# Static dielectric constant tensor:
#      x y z
#    x 2.086330 0.019990 -0.050130 
#    y 0.019990 2.201340 0.035410 
#    z -0.050130 0.035410 2.223060 
# 
# From -- ./inp_files/121158.got.cif
#   From: 2010.05.17/outbox.cif.g08.bks.cpg/sg2_61_cif.got.tgz:121158.got - 2010.06.03 11:33:40.
