data_PCOD9009203
_publ_section_title
;
Structure prediction by ZEFSAII (Michael W. Deem and Ramdas Pophale) SiO2 
 PCOD9009203
Probable space group: P -1
;
_chemical_formula_sum "Si O2"
_cell_formula_units_Z 16
_cell_length_a 14.905377
_cell_length_b 11.483824
_cell_length_c 19.621686
_cell_angle_alpha 30.065879
_cell_angle_beta 149.838773
_cell_angle_gamma 150.437797
_cell_volume 740.352872
_symmetry_space_group_name_H-M "P -1"
_symmetry_group_IT_number 2
_symmetry_cell_setting 'triclinic'
loop_
_space_group_symop_operation_xyz
x,y,z
-x,-y,-z
loop_
_atom_site_type_symbol
_atom_site_label
_atom_site_fract_x
_atom_site_fract_y
_atom_site_fract_z
Si Si1 0.981455 0.066714 0.033457
Si Si2 0.406546 0.158735 0.782279
Si Si3 0.615196 0.379438 0.950558
Si Si4 0.209163 0.352438 0.757518
Si Si5 0.768925 0.398489 0.704718
Si Si6 0.366421 0.375894 0.397685
Si Si7 0.830590 0.149179 0.509542
Si Si8 0.964106 0.791288 0.522710
O O1 0.817067 0.173194 0.874782
O O2 0.197394 0.324226 0.066564
O O3 0.899589 0.820396 0.158048
O O4 0.000000 0.000000 0.000000
O O5 0.550680 0.287403 0.876719
O O6 0.526708 0.328904 0.710411
O O7 0.221423 0.220038 0.636487
O O8 0.332577 0.851055 0.875405
O O9 0.410441 0.336969 0.876110
O O10 0.268811 0.662370 0.643058
O O11 0.034808 0.251111 0.636076
O O12 0.537678 0.328305 0.571508
O O13 0.815799 0.626760 0.676478
O O14 0.893038 0.521075 0.654683
O O15 0.295652 0.161562 0.399871
O O16 0.867136 0.152381 0.450572
O O17 0.000000 0.000000 0.500000
#
# Coordination Sequence:
#
# PCOD9009203 Si02
#       8
#     2   2   2   2   2   2   2   2
#     4  12  27  46  67  98 136 181 226 273 336 401
#     4  10  22  40  66 102 130 171 223 274 340 397
#     4  11  24  45  68  97 138 177 220 280 337 400
#     4  11  26  46  66  98 134 180 228 264 335 411
#     4  10  22  39  60  99 127 165 224 271 331 392
#     4  10  21  39  67  95 132 169 217 281 332 383
#     4  11  23  43  67  97 131 178 222 275 332 398
#     4  11  19  37  65  94 133 165 217 275 326 386
#
# _framework density 21.611315999999999
#
# number of rings (size 3 to 8) (size 9 to 14) (size 15 to 20)
#    0.000    1.250    2.500    3.000    1.750    0.500 
#    2.250    5.000    0.000    0.000    0.000    0.000 
#    0.000    0.000    0.000    0.000    0.000    0.000 
#
# Total GULP energy -89185.545243 kJ/mol
# GULP energy per Si atom -5574.096578 kJ/mol
# Density = 2.156213 g / cm^3
# Si number density = 21.611316 Si / 1000 Ang^3
#
#
#
# Elastic Constant Matrix: (Units=GPa)
#
#
# Indices 1 2 3 4 5 6 
#
# 1 86.0719 6.9561 21.4488 -1.5897 -5.3207 1.2532
# 2 6.9561 53.0835 13.8869 -5.3396 -1.1689 -3.6058
# 3 21.4488 13.8869 83.0693 -12.6048 -2.3474 0.8492
# 4 -1.5897 -5.3396 -12.6048 27.3462 1.5427 -0.4158
# 5 -5.3207 -1.1689 -2.3474 1.5427 24.7515 -6.3289
# 6 1.2532 -3.6058 0.8492 -0.4158 -6.3289 34.6665
#
#
#
# Elastic Compliance Matrix: (Units=1/GPa)
#
#
# Indices 1 2 3 4 5 6 
#
# 1 0.012618 -0.000870 -0.003203 -0.001050 0.002423 -0.000038
# 2 -0.000870 0.020114 -0.002741 0.002596 0.000954 0.002396
# 3 -0.003203 -0.002741 0.014213 0.005820 0.000055 -0.000438
# 4 -0.001050 0.002596 0.005820 0.039811 -0.001960 0.000285
# 5 0.002423 0.000954 0.000055 -0.001960 0.043104 0.007856
# 6 -0.000038 0.002396 -0.000438 0.000285 0.007856 0.030545
#
#
# Mechanical properties :
#
#
# Convention : Reuss Voigt Hill
#
# Bulk Modulus (GPa) = 30.01651 34.08981 32.05316
# Shear Modulus (GPa) = 27.00669 29.34837 28.17753
#
# Velocity S-wave (km/s) = 3.53888 3.68912 3.61478
# Velocity P-wave (km/s) = 5.53332 5.82704 5.68208
#
# Compressibility (1/GPa) = 0.03331500
#
# Stress axis : x y z
#
# Youngs Moduli (GPa) = 79.25414 49.71579 70.36040
#
# Poissons Ratio (x) = 0.04327 0.22536
# Poissons Ratio (y) = 0.06898 0.19289
# Poissons Ratio (z) = 0.25384 0.13629
#
# Static dielectric constant tensor:
#      x y z
#    x 1.859440 0.000570 -0.041000 
#    y 0.000570 1.917950 -0.027900 
#    z -0.041000 -0.027900 1.793200 
# 
# From -- ./inp_files/425310.got.cif
#   From: 2010.05.17/outbox.cif.g08.bks.cpg/sg2_213_cif.got.tgz:425310.got - 2010.06.03 11:33:40.
