data_PCOD9009788
_publ_section_title
;
Structure prediction by ZEFSAII (Michael W. Deem and Ramdas Pophale) SiO2 
 PCOD9009788
Probable space group: P -1
;
_chemical_formula_sum "Si O2"
_cell_formula_units_Z 12
_cell_length_a 18.324809
_cell_length_b 7.001660
_cell_length_c 6.574945
_cell_angle_alpha 71.329665
_cell_angle_beta 44.124201
_cell_angle_gamma 67.302071
_cell_volume 540.612557
_symmetry_space_group_name_H-M "P -1"
_symmetry_group_IT_number 2
_symmetry_cell_setting 'triclinic'
loop_
_space_group_symop_operation_xyz
x,y,z
-x,-y,-z
loop_
_atom_site_type_symbol
_atom_site_label
_atom_site_fract_x
_atom_site_fract_y
_atom_site_fract_z
Si Si1 0.496045 0.779043 0.488957
Si Si2 0.872874 0.796309 0.569325
Si Si3 0.198166 0.867481 0.720793
Si Si4 0.903726 0.322242 0.665194
Si Si5 0.427889 0.606447 0.295178
Si Si6 0.262574 0.911758 0.005744
O O1 0.417764 0.413095 0.525049
O O2 0.500000 0.000000 0.500000
O O3 0.485988 0.746711 0.277843
O O4 0.379226 0.762323 0.815398
O O5 0.884994 0.560367 0.562019
O O6 0.969788 0.782673 0.541922
O O7 0.874769 0.957251 0.330592
O O8 0.758747 0.891265 0.874326
O O9 0.308391 0.741340 0.437855
O O10 0.137583 0.711384 0.010120
O O11 0.238318 0.979494 0.797110
O O12 0.829265 0.211148 0.718423
O O13 0.500000 0.500000 0.000000
#
# Coordination Sequence:
#
# PCOD9009788 Si02
#       6
#     2   2   2   2   2   2
#     4  10  22  38  63  86 122 163 201 254 302 361
#     4  11  19  39  63  84 121 159 192 247 310 361
#     4   9  21  39  57  89 121 152 200 250 297 364
#     4   9  22  38  58  91 118 153 203 245 299 371
#     4  10  21  40  59  89 122 159 204 251 308 360
#     4   9  21  38  57  87 120 154 199 251 300 359
#
# _framework density 22.197042
#
# number of rings (size 3 to 8) (size 9 to 14) (size 15 to 20)
#    1.000    1.333    0.000    2.000    2.333    0.667 
#    3.000    5.000    0.000    0.000    0.000    0.000 
#    0.000    0.000    0.000    0.000    0.000    0.000 
#
# Total GULP energy -66823.432286 kJ/mol
# GULP energy per Si atom -5568.619357 kJ/mol
# Density = 2.214652 g / cm^3
# Si number density = 22.197042 Si / 1000 Ang^3
#
#
#
# Elastic Constant Matrix: (Units=GPa)
#
#
# Indices 1 2 3 4 5 6 
#
# 1 64.7719 48.5359 1.0545 -1.4141 1.7928 -8.0180
# 2 48.5359 129.0876 20.0024 5.8013 -8.3829 -10.1727
# 3 1.0545 20.0024 59.8985 15.3858 11.1966 -2.8430
# 4 -1.4141 5.8013 15.3858 28.8086 1.1023 -0.2579
# 5 1.7928 -8.3829 11.1966 1.1023 19.8591 8.0415
# 6 -8.0180 -10.1727 -2.8430 -0.2579 8.0415 41.9457
#
#
#
# Elastic Compliance Matrix: (Units=1/GPa)
#
#
# Indices 1 2 3 4 5 6 
#
# 1 0.023875 -0.010166 0.005028 0.001004 -0.011196 0.004592
# 2 -0.010166 0.013114 -0.006130 -0.000275 0.010400 -0.001174
# 3 0.005028 -0.006130 0.025226 -0.011240 -0.018530 0.004668
# 4 0.001004 -0.000275 -0.011240 0.040641 0.004371 -0.001225
# 5 -0.011196 0.010400 -0.018530 0.004371 0.071884 -0.014628
# 6 0.004592 -0.001174 0.004668 -0.001225 -0.014628 0.027547
#
#
# Mechanical properties :
#
#
# Convention : Reuss Voigt Hill
#
# Bulk Modulus (GPa) = 25.20236 43.66041 34.43139
# Shear Modulus (GPa) = 21.00409 30.40035 25.70222
#
# Velocity S-wave (km/s) = 3.07946 3.70478 3.40650
# Velocity P-wave (km/s) = 4.90130 6.16545 5.56936
#
# Compressibility (1/GPa) = 0.03967882
#
# Stress axis : x y z
#
# Youngs Moduli (GPa) = 41.88470 76.25381 39.64192
#
# Poissons Ratio (x) = 0.77521 -0.19931
# Poissons Ratio (y) = 0.42581 0.24299
# Poissons Ratio (z) = -0.21058 0.46740
#
# Static dielectric constant tensor:
#      x y z
#    x 1.875200 0.021710 0.007250 
#    y 0.021710 1.776320 -0.031620 
#    z 0.007250 -0.031620 1.844120 
# 
# From -- ./inp_files/132529.got.cif
#   From: 2010.05.17/outbox.cif.g08.bks.cpg/sg2_67_cif.got.tgz:132529.got - 2010.06.03 11:33:40.
