data_PCOD9009742
_publ_section_title
;
Structure prediction by ZEFSAII (Michael W. Deem and Ramdas Pophale) SiO2 
 PCOD9009742
Probable space group: P -1
;
_chemical_formula_sum "Si O2"
_cell_formula_units_Z 16
_cell_length_a 16.528805
_cell_length_b 13.411714
_cell_length_c 9.059813
_cell_angle_alpha 132.737047
_cell_angle_beta 62.459168
_cell_angle_gamma 144.101532
_cell_volume 846.949023
_symmetry_space_group_name_H-M "P -1"
_symmetry_group_IT_number 2
_symmetry_cell_setting 'triclinic'
loop_
_space_group_symop_operation_xyz
x,y,z
-x,-y,-z
loop_
_atom_site_type_symbol
_atom_site_label
_atom_site_fract_x
_atom_site_fract_y
_atom_site_fract_z
Si Si1 0.670057 0.944849 0.487651
Si Si2 0.403137 0.855344 0.079034
Si Si3 0.903093 0.141941 0.877143
Si Si4 0.579185 0.975354 0.316560
Si Si5 0.173004 0.365410 0.749822
Si Si6 0.647651 0.696782 0.496926
Si Si7 0.984190 0.291636 0.646242
Si Si8 0.116963 0.648122 0.674171
O O1 0.620270 0.765493 0.451632
O O2 0.639230 0.051820 0.709309
O O3 0.601812 0.879805 0.318018
O O4 0.838555 0.114732 0.503451
O O5 0.494048 0.866097 0.126911
O O6 0.265379 0.608246 0.914692
O O7 0.500000 0.000000 0.000000
O O8 0.932881 0.269836 0.834522
O O9 0.051013 0.228359 0.839632
O O10 0.763206 0.901799 0.710437
O O11 0.883848 0.205654 0.103199
O O12 0.731982 0.204242 0.374938
O O13 0.500000 0.000000 0.500000
O O14 0.274672 0.353969 0.663643
O O15 0.077074 0.263875 0.579427
O O16 0.500000 0.500000 0.500000
O O17 0.080490 0.503956 0.691067
O O18 0.000000 0.500000 0.500000
#
# Coordination Sequence:
#
# PCOD9009742 Si02
#       8
#     2   2   2   2   2   2   2   2
#     4  10  21  40  58  90 129 163 204 266 321 373
#     4  11  22  35  63  96 125 160 214 263 312 376
#     4   9  23  37  63  90 127 158 218 262 310 370
#     4  10  24  38  57  89 139 164 200 255 330 376
#     4  10  22  37  65  90 124 163 210 265 314 359
#     4  11  23  40  66  92 124 170 219 263 319 378
#     4   9  20  35  63  91 125 153 213 256 319 361
#     4  12  21  36  64  96 126 165 208 256 325 384
#
# _framework density 18.891338000000001
#
# number of rings (size 3 to 8) (size 9 to 14) (size 15 to 20)
#    0.750    1.000    1.250    3.000   10.500    1.000 
#    0.000    0.625    0.000    1.500    0.000    0.000 
#    0.000    0.000    0.000    0.000    0.000    0.000 
#
# Total GULP energy -89109.013658 kJ/mol
# GULP energy per Si atom -5569.313354 kJ/mol
# Density = 1.884834 g / cm^3
# Si number density = 18.891338 Si / 1000 Ang^3
#
#
#
# Elastic Constant Matrix: (Units=GPa)
#
#
# Indices 1 2 3 4 5 6 
#
# 1 131.5464 52.9732 30.4567 -0.9536 10.8136 -1.3214
# 2 52.9732 151.4683 45.0016 8.5166 -2.8837 18.2552
# 3 30.4567 45.0016 60.9413 -3.1523 8.8950 -1.2619
# 4 -0.9536 8.5166 -3.1523 19.7374 -0.8669 0.3712
# 5 10.8136 -2.8837 8.8950 -0.8669 28.5487 2.4747
# 6 -1.3214 18.2552 -1.2619 0.3712 2.4747 36.1884
#
#
#
# Elastic Compliance Matrix: (Units=1/GPa)
#
#
# Indices 1 2 3 4 5 6 
#
# 1 0.009650 -0.003251 -0.001784 0.001387 -0.003573 0.002160
# 2 -0.003251 0.011294 -0.007916 -0.005946 0.005212 -0.006388
# 3 -0.001784 -0.007916 0.024791 0.006834 -0.008098 0.005276
# 4 0.001387 -0.005946 0.006834 0.054254 -0.001855 0.002859
# 5 -0.003573 0.005212 -0.008098 -0.001855 0.039873 -0.005750
# 6 0.002160 -0.006388 0.005276 0.002859 -0.005750 0.031482
#
#
# Mechanical properties :
#
#
# Convention : Reuss Voigt Hill
#
# Bulk Modulus (GPa) = 50.42100 66.75766 58.58933
# Shear Modulus (GPa) = 24.52709 31.26321 27.89515
#
# Velocity S-wave (km/s) = 3.60714 4.07246 3.84684
# Velocity P-wave (km/s) = 6.64052 7.58470 7.12826
#
# Compressibility (1/GPa) = 0.01983300
#
# Stress axis : x y z
#
# Youngs Moduli (GPa) = 103.63183 88.54076 40.33738
#
# Poissons Ratio (x) = 0.28785 0.07196
# Poissons Ratio (y) = 0.33692 0.31931
# Poissons Ratio (z) = 0.18487 0.70088
#
# Static dielectric constant tensor:
#      x y z
#    x 1.712830 0.005950 0.019310 
#    y 0.005950 1.655150 0.004430 
#    z 0.019310 0.004430 1.674020 
# 
# From -- ./inp_files/308529.got.cif
#   From: 2010.05.17/outbox.cif.g08.bks.cpg/sg2_155_cif.got.tgz:308529.got - 2010.06.03 11:33:40.
