data_PCOD9009560
_publ_section_title
;
Structure prediction by ZEFSAII (Michael W. Deem and Ramdas Pophale) SiO2 
 PCOD9009560
Probable space group: P -1
;
_chemical_formula_sum "Si O2"
_cell_formula_units_Z 14
_cell_length_a 24.706787
_cell_length_b 9.400023
_cell_length_c 9.035131
_cell_angle_alpha 67.672976
_cell_angle_beta 37.487678
_cell_angle_gamma 39.301423
_cell_volume 642.596076
_symmetry_space_group_name_H-M "P -1"
_symmetry_group_IT_number 2
_symmetry_cell_setting 'triclinic'
loop_
_space_group_symop_operation_xyz
x,y,z
-x,-y,-z
loop_
_atom_site_type_symbol
_atom_site_label
_atom_site_fract_x
_atom_site_fract_y
_atom_site_fract_z
Si Si1 0.885738 0.611106 0.072033
Si Si2 0.521976 0.103282 0.795728
Si Si3 0.502528 0.526679 0.163232
Si Si4 0.991031 0.829281 0.227523
Si Si5 0.267875 0.623088 0.611515
Si Si6 0.573363 0.964330 0.206726
Si Si7 0.191759 0.114430 0.168767
O O1 0.703061 0.846653 0.433942
O O2 0.871892 0.747448 0.908909
O O3 0.000000 0.500000 0.000000
O O4 0.963437 0.343904 0.942041
O O5 0.495759 0.301874 0.855812
O O6 0.403062 0.214984 0.880223
O O7 0.500000 0.000000 0.000000
O O8 0.340728 0.670796 0.507555
O O9 0.500000 0.500000 0.000000
O O10 0.652725 0.223457 0.034360
O O11 0.936067 0.792762 0.489284
O O12 0.844255 0.156045 0.368772
O O13 0.153048 0.696211 0.944053
O O14 0.422815 0.295437 0.354189
O O15 0.500000 0.000000 0.500000
O O16 0.730268 0.844219 0.941894
#
# Coordination Sequence:
#
# PCOD9009560 Si02
#       7
#     2   2   2   2   2   2   2
#     4  12  27  45  64 107 146 183 237 292 350 420
#     4  12  26  44  73 104 139 183 232 296 351 415
#     4  11  23  44  73 105 137 183 237 293 352 413
#     4  11  22  42  72  99 140 192 230 276 356 426
#     4  10  21  39  70 100 136 182 230 280 346 414
#     4  11  22  45  70 106 140 181 238 291 344 415
#     4  11  24  44  75 101 141 189 237 285 354 422
#
# _framework density 21.786625999999998
#
# number of rings (size 3 to 8) (size 9 to 14) (size 15 to 20)
#    0.000    0.857    4.286    3.000    2.000    0.571 
#    2.571    0.000    0.000    8.571    0.000    0.000 
#    0.000    0.000    0.000    0.000    0.000    0.000 
#
# Total GULP energy -78223.288271 kJ/mol
# GULP energy per Si atom -5587.377734 kJ/mol
# Density = 2.173704 g / cm^3
# Si number density = 21.786626 Si / 1000 Ang^3
#
#
#
# Elastic Constant Matrix: (Units=GPa)
#
#
# Indices 1 2 3 4 5 6 
#
# 1 151.4367 82.4631 49.0006 -25.9710 -7.4615 15.7816
# 2 82.4631 128.0045 59.5213 -11.7166 -9.6483 5.6498
# 3 49.0006 59.5213 128.3094 -38.8786 -20.5521 -1.0205
# 4 -25.9710 -11.7166 -38.8786 49.1006 5.1283 -12.4040
# 5 -7.4615 -9.6483 -20.5521 5.1283 33.9145 -5.3357
# 6 15.7816 5.6498 -1.0205 -12.4040 -5.3357 43.4965
#
#
#
# Elastic Compliance Matrix: (Units=1/GPa)
#
#
# Indices 1 2 3 4 5 6 
#
# 1 0.011139 -0.006729 -0.000093 0.003710 -0.000421 -0.002163
# 2 -0.006729 0.014320 -0.005552 -0.004752 -0.000199 -0.000928
# 3 -0.000093 -0.005552 0.014799 0.010932 0.006505 0.005018
# 4 0.003710 -0.004752 0.010932 0.031828 0.002682 0.008933
# 5 -0.000421 -0.000199 0.006505 0.002682 0.033696 0.005230
# 6 -0.002163 -0.000928 0.005018 0.008933 0.005230 0.027203
#
#
# Mechanical properties :
#
#
# Convention : Reuss Voigt Hill
#
# Bulk Modulus (GPa) = 64.47730 87.74671 76.11201
# Shear Modulus (GPa) = 30.69320 39.75334 35.22327
#
# Velocity S-wave (km/s) = 3.75748 4.27625 4.02523
# Velocity P-wave (km/s) = 6.96305 8.04641 7.52425
#
# Compressibility (1/GPa) = 0.01550934
#
# Stress axis : x y z
#
# Youngs Moduli (GPa) = 89.77655 69.83122 67.57185
#
# Poissons Ratio (x) = 0.46992 0.00626
# Poissons Ratio (y) = 0.60414 0.37518
# Poissons Ratio (z) = 0.00832 0.38772
#
# Static dielectric constant tensor:
#      x y z
#    x 1.761090 0.012450 -0.037510 
#    y 0.012450 1.844740 0.005430 
#    z -0.037510 0.005430 1.826030 
# 
# From -- ./inp_files/352134.got.cif
#   From: 2010.05.17/outbox.cif.g08.bks.cpg/sg2_177_cif.got.tgz:352134.got - 2010.06.03 11:33:40.
