data_PCOD9009768
_publ_section_title
;
Structure prediction by ZEFSAII (Michael W. Deem and Ramdas Pophale) SiO2 
 PCOD9009768
Probable space group: P -1
;
_chemical_formula_sum "Si O2"
_cell_formula_units_Z 16
_cell_length_a 14.897798
_cell_length_b 14.720053
_cell_length_c 8.195591
_cell_angle_alpha 69.979766
_cell_angle_beta 80.544329
_cell_angle_gamma 139.493887
_cell_volume 787.862708
_symmetry_space_group_name_H-M "P -1"
_symmetry_group_IT_number 2
_symmetry_cell_setting 'triclinic'
loop_
_space_group_symop_operation_xyz
x,y,z
-x,-y,-z
loop_
_atom_site_type_symbol
_atom_site_label
_atom_site_fract_x
_atom_site_fract_y
_atom_site_fract_z
Si Si1 0.592830 0.178802 0.543817
Si Si2 0.557269 0.318057 0.933557
Si Si3 0.793497 0.726605 0.563412
Si Si4 0.992543 0.421151 0.704044
Si Si5 0.219342 0.172940 0.816814
Si Si6 0.747608 0.814522 0.834746
Si Si7 0.319300 0.760327 0.895774
Si Si8 0.298398 0.023177 0.890487
O O1 0.657141 0.216177 0.318990
O O2 0.418376 0.091484 0.661916
O O3 0.786472 0.394693 0.438117
O O4 0.496294 0.992588 0.765550
O O5 0.388954 0.221362 0.133856
O O6 0.654172 0.323240 0.000700
O O7 0.713845 0.544081 0.698000
O O8 0.451760 0.173906 0.897895
O O9 0.715967 0.709358 0.436109
O O10 0.728875 0.720505 0.752424
O O11 0.026681 0.946026 0.366076
O O12 0.000000 0.500000 0.500000
O O13 0.878097 0.375991 0.902785
O O14 0.870208 0.207676 0.862940
O O15 0.230763 0.068586 0.849965
O O16 0.304064 0.270141 0.913765
O O17 0.000000 0.000000 0.000000
#
# Coordination Sequence:
#
# PCOD9009768 Si02
#       8
#     2   2   2   2   2   2   2   2
#     4  10  22  42  61  87 125 158 199 252 305 365
#     4  11  22  38  59  90 118 153 202 247 298 366
#     4  10  21  40  59  85 123 164 200 250 313 350
#     4  11  22  40  65  89 121 160 199 252 307 364
#     4   9  20  39  61  86 125 161 200 258 296 363
#     4   9  21  39  57  86 121 159 207 249 299 365
#     4  10  23  40  60  91 123 157 201 251 305 363
#     4  10  23  39  60  94 117 158 211 244 305 368
#
# _framework density 20.308108000000001
#
# number of rings (size 3 to 8) (size 9 to 14) (size 15 to 20)
#    0.000    2.000    0.000    2.250    1.750   11.000 
#    9.000    0.000    0.000    0.000    0.000    0.000 
#    0.000    0.000    0.000    0.000    0.000    0.000 
#
# Total GULP energy -89268.050633 kJ/mol
# GULP energy per Si atom -5579.253165 kJ/mol
# Density = 2.026189 g / cm^3
# Si number density = 20.308108 Si / 1000 Ang^3
#
#
#
# Elastic Constant Matrix: (Units=GPa)
#
#
# Indices 1 2 3 4 5 6 
#
# 1 98.1512 8.0291 56.0872 2.9072 11.5225 -1.8544
# 2 8.0291 62.2643 45.5493 -7.8726 5.9639 -8.0136
# 3 56.0872 45.5493 128.0429 -13.7582 5.6730 -6.8390
# 4 2.9072 -7.8726 -13.7582 30.3267 0.4467 -7.2542
# 5 11.5225 5.9639 5.6730 0.4467 39.7609 0.1366
# 6 -1.8544 -8.0136 -6.8390 -7.2542 0.1366 19.9797
#
#
#
# Elastic Compliance Matrix: (Units=1/GPa)
#
#
# Indices 1 2 3 4 5 6 
#
# 1 0.015247 0.003768 -0.008440 -0.004646 -0.003722 -0.001624
# 2 0.003768 0.024230 -0.009270 0.003755 -0.003474 0.008282
# 3 -0.008440 -0.009270 0.015563 0.006171 0.001536 0.003056
# 4 -0.004646 0.003755 0.006171 0.041578 -0.000627 0.018288
# 5 -0.003722 -0.003474 0.001536 -0.000627 0.026543 -0.001622
# 6 -0.001624 0.008282 0.003056 0.018288 -0.001622 0.060919
#
#
# Mechanical properties :
#
#
# Convention : Reuss Voigt Hill
#
# Bulk Modulus (GPa) = 36.82494 56.42107 46.62300
# Shear Modulus (GPa) = 22.62275 29.93298 26.27786
#
# Velocity S-wave (km/s) = 3.34125 3.84336 3.60107
# Velocity P-wave (km/s) = 5.74959 6.89479 6.34806
#
# Compressibility (1/GPa) = 0.02715551
#
# Stress axis : x y z
#
# Youngs Moduli (GPa) = 65.58635 41.27142 64.25454
#
# Poissons Ratio (x) = -0.15553 0.54233
# Poissons Ratio (y) = -0.24716 0.59566
# Poissons Ratio (z) = 0.55357 0.38260
#
# Static dielectric constant tensor:
#      x y z
#    x 1.698930 -0.013910 -0.020830 
#    y -0.013910 1.757510 0.001630 
#    z -0.020830 0.001630 1.747470 
# 
# From -- ./inp_files/312780.got.cif
#   From: 2010.05.17/outbox.cif.g08.bks.cpg/sg2_157_cif.got.tgz:312780.got - 2010.06.03 11:33:40.
