data_PCOD9009825
_publ_section_title
;
Structure prediction by ZEFSAII (Michael W. Deem and Ramdas Pophale) SiO2 
 PCOD9009825
Probable space group: P -1
;
_chemical_formula_sum "Si O2"
_cell_formula_units_Z 16
_cell_length_a 22.816588
_cell_length_b 7.915840
_cell_length_c 17.867612
_cell_angle_alpha 130.729778
_cell_angle_beta 160.865138
_cell_angle_gamma 58.662589
_cell_volume 738.834725
_symmetry_space_group_name_H-M "P -1"
_symmetry_group_IT_number 2
_symmetry_cell_setting 'triclinic'
loop_
_space_group_symop_operation_xyz
x,y,z
-x,-y,-z
loop_
_atom_site_type_symbol
_atom_site_label
_atom_site_fract_x
_atom_site_fract_y
_atom_site_fract_z
Si Si1 0.502805 0.063757 0.436477
Si Si2 0.379914 0.517736 0.744834
Si Si3 0.365151 0.742267 0.642758
Si Si4 0.983005 0.752247 0.128171
Si Si5 0.641258 0.273175 0.068802
Si Si6 0.149753 0.016210 0.250291
Si Si7 0.782856 0.043279 0.051734
Si Si8 0.568317 0.462663 0.480495
O O1 0.304533 0.882822 0.105919
O O2 0.504729 0.332252 0.523631
O O3 0.500000 0.000000 0.500000
O O4 0.677470 0.040675 0.594878
O O5 0.433942 0.718273 0.802483
O O6 0.545986 0.429291 0.951073
O O7 0.229486 0.286381 0.455633
O O8 0.290371 0.591256 0.731207
O O9 0.403427 0.552717 0.578789
O O10 0.136600 0.680658 0.338540
O O11 0.476080 0.013407 0.820734
O O12 0.945459 0.953694 0.192577
O O13 0.777651 0.544165 0.796900
O O14 0.069086 0.858204 0.181652
O O15 0.795790 0.217259 0.187133
O O16 0.000000 0.000000 0.000000
O O17 0.597260 0.797910 0.777995
#
# Coordination Sequence:
#
# PCOD9009825 Si02
#       8
#     2   2   2   2   2   2   2   2
#     4  11  20  35  55  86 122 160 202 248 300 376
#     4  11  22  40  67  91 117 168 207 258 313 365
#     4  11  21  39  64  93 121 156 212 261 313 366
#     4  11  21  37  58  90 130 164 200 260 319 366
#     4  10  22  43  66  86 123 160 221 254 298 381
#     4  12  23  38  60  95 130 157 205 262 315 371
#     4  10  21  40  60  83 121 171 205 252 309 372
#     4  10  22  36  59  87 121 170 202 243 318 377
#
# _framework density 21.655723999999999
#
# number of rings (size 3 to 8) (size 9 to 14) (size 15 to 20)
#    0.000    1.250    2.500    6.000    0.000    3.000 
#    0.000    1.250    0.000    0.000    0.000    0.000 
#    0.000    0.000    0.000    0.000    0.000    0.000 
#
# Total GULP energy -89314.110487 kJ/mol
# GULP energy per Si atom -5582.131905 kJ/mol
# Density = 2.160643 g / cm^3
# Si number density = 21.655724 Si / 1000 Ang^3
#
#
#
# Elastic Constant Matrix: (Units=GPa)
#
#
# Indices 1 2 3 4 5 6 
#
# 1 179.8358 63.4510 33.2694 -10.6460 -30.5376 -30.5378
# 2 63.4510 89.7557 25.8434 -7.0971 -10.2895 -13.7558
# 3 33.2694 25.8434 46.0017 -3.4297 -12.4101 -11.0334
# 4 -10.6460 -7.0971 -3.4297 23.3270 1.3843 -7.6112
# 5 -30.5376 -10.2895 -12.4101 1.3843 37.0207 7.4163
# 6 -30.5378 -13.7558 -11.0334 -7.6112 7.4163 60.0103
#
#
#
# Elastic Compliance Matrix: (Units=1/GPa)
#
#
# Indices 1 2 3 4 5 6 
#
# 1 0.009033 -0.004636 -0.001647 0.003168 0.004885 0.003029
# 2 -0.004636 0.016219 -0.005808 0.002305 -0.001504 0.000769
# 3 -0.001647 -0.005808 0.028606 0.002187 0.006009 0.002625
# 4 0.003168 0.002305 0.002187 0.048111 0.000468 0.008587
# 5 0.004885 -0.001504 0.006009 0.000468 0.032769 -0.000745
# 6 0.003029 0.000769 0.002625 0.008587 -0.000745 0.020045
#
#
# Mechanical properties :
#
#
# Convention : Reuss Voigt Hill
#
# Bulk Modulus (GPa) = 33.69949 62.30230 48.00089
# Shear Modulus (GPa) = 26.47493 36.94023 31.70758
#
# Velocity S-wave (km/s) = 3.50027 4.13461 3.83059
# Velocity P-wave (km/s) = 5.65076 7.18507 6.46360
#
# Compressibility (1/GPa) = 0.02967404
#
# Stress axis : x y z
#
# Youngs Moduli (GPa) = 110.71046 61.65646 34.95749
#
# Poissons Ratio (x) = 0.28586 0.05759
# Poissons Ratio (y) = 0.51330 0.20303
# Poissons Ratio (z) = 0.18239 0.35810
#
# Static dielectric constant tensor:
#      x y z
#    x 1.986770 0.127830 -0.001990 
#    y 0.127830 1.917320 0.019430 
#    z -0.001990 0.019430 1.797470 
# 
# From -- ./inp_files/578963.got.cif
#   From: 2010.05.17/outbox.cif.g08.bks.cpg/sg2_290_cif.got.tgz:578963.got - 2010.06.03 11:33:40.
