data_PCOD9009575
_publ_section_title
;
Structure prediction by ZEFSAII (Michael W. Deem and Ramdas Pophale) SiO2 
 PCOD9009575
Probable space group: P -1
;
_chemical_formula_sum "Si O2"
_cell_formula_units_Z 15
_cell_length_a 19.549115
_cell_length_b 7.681371
_cell_length_c 14.865910
_cell_angle_alpha 54.505037
_cell_angle_beta 159.395527
_cell_angle_gamma 126.205705
_cell_volume 630.862215
_symmetry_space_group_name_H-M "P -1"
_symmetry_group_IT_number 2
_symmetry_cell_setting 'triclinic'
loop_
_space_group_symop_operation_xyz
x,y,z
-x,-y,-z
loop_
_atom_site_type_symbol
_atom_site_label
_atom_site_fract_x
_atom_site_fract_y
_atom_site_fract_z
Si Si1 0.387266 0.247511 0.197522
Si Si2 0.493656 0.867926 0.328701
Si Si3 0.014321 0.254891 0.615372
Si Si4 0.171402 0.203651 0.126920
Si Si5 0.398731 0.811015 0.788199
Si Si6 0.922172 0.346585 0.175283
Si Si7 0.000000 0.000000 0.500000
Si Si8 0.362388 0.420409 0.711278
O O1 0.329905 0.194868 0.244598
O O2 0.512190 0.475307 0.250276
O O3 0.496054 0.067990 0.340088
O O4 0.178613 0.244358 0.894210
O O5 0.679505 0.753662 0.617312
O O6 0.524033 0.976290 0.236219
O O7 0.272144 0.738504 0.096401
O O8 0.802004 0.160921 0.419874
O O9 0.000000 0.500000 0.500000
O O10 0.079376 0.119208 0.653783
O O11 0.064674 0.396678 0.900776
O O12 0.000000 0.000000 0.000000
O O13 0.359233 0.612005 0.725812
O O14 0.545290 0.753046 0.063515
O O15 0.147312 0.315282 0.443978
O O16 0.901829 0.223362 0.283096
#
# Coordination Sequence:
#
# PCOD9009575 Si02
#       8
#     2   2   2   2   2   2   1   2
#     4  11  22  44  71 104 139 192 249 306 368 440
#     4  11  24  45  69 102 147 189 243 307 365 444
#     4  12  22  42  74 108 152 199 241 306 384 444
#     4  12  26  48  76 102 138 199 259 295 365 456
#     4  10  21  40  71 104 145 194 243 298 370 443
#     4  12  25  46  68 104 151 186 232 319 372 426
#     4  12  26  44  74 116 154 188 252 310 378 456
#     4  10  21  39  70 107 140 190 246 299 375 448
#
# _framework density 23.776983999999999
#
# number of rings (size 3 to 8) (size 9 to 14) (size 15 to 20)
#    0.000    0.800    2.667    6.400    1.867    0.000 
#    2.400    4.000    0.000    0.000    0.000    0.000 
#    0.000    0.000    0.000    0.000    0.000    0.000 
#
# Total GULP energy -83557.766385 kJ/mol
# GULP energy per Si atom -5570.517759 kJ/mol
# Density = 2.372287 g / cm^3
# Si number density = 23.776984 Si / 1000 Ang^3
#
#
#
# Elastic Constant Matrix: (Units=GPa)
#
#
# Indices 1 2 3 4 5 6 
#
# 1 365.3174 199.0956 66.5616 -168.2499 21.7450 76.3280
# 2 199.0956 186.4365 70.2555 -109.7150 -2.7144 45.7075
# 3 66.5616 70.2555 190.6674 -35.2847 -1.7692 39.1041
# 4 -168.2499 -109.7150 -35.2847 149.1738 -5.0667 -24.8743
# 5 21.7450 -2.7144 -1.7692 -5.0667 32.3022 -3.0031
# 6 76.3280 45.7075 39.1041 -24.8743 -3.0031 38.3800
#
#
#
# Elastic Compliance Matrix: (Units=1/GPa)
#
#
# Indices 1 2 3 4 5 6 
#
# 1 0.014484 -0.007375 0.002862 0.008143 -0.010655 -0.018494
# 2 -0.007375 0.016051 -0.002914 0.003217 0.006764 0.001135
# 3 0.002862 -0.002914 0.007402 0.001226 -0.002425 -0.009158
# 4 0.008143 0.003217 0.001226 0.016627 -0.003538 -0.010776
# 5 -0.010655 0.006764 -0.002425 -0.003538 0.039536 0.016407
# 6 -0.018494 0.001135 -0.009158 -0.010776 0.016407 0.065115
#
#
# Mechanical properties :
#
#
# Convention : Reuss Voigt Hill
#
# Bulk Modulus (GPa) = 43.32216 157.13854 100.23035
# Shear Modulus (GPa) = 27.50838 71.07177 49.29007
#
# Velocity S-wave (km/s) = 3.40506 5.47320 4.55798
# Velocity P-wave (km/s) = 5.80681 10.30404 8.36338
#
# Compressibility (1/GPa) = 0.02308287
#
# Stress axis : x y z
#
# Youngs Moduli (GPa) = 69.04333 62.30200 135.09709
#
# Poissons Ratio (x) = 0.45945 -0.38667
# Poissons Ratio (y) = 0.50917 0.39373
# Poissons Ratio (z) = -0.19761 0.18157
#
# Static dielectric constant tensor:
#      x y z
#    x 1.817710 -0.005110 0.068850 
#    y -0.005110 2.076540 -0.040470 
#    z 0.068850 -0.040470 1.897180 
# 
# From -- ./inp_files/540429.got.cif
#   From: 2010.05.17/outbox.cif.g08.bks.cpg/sg2_271_cif.got.tgz:540429.got - 2010.06.03 11:33:40.
