data_PCOD9009002
_publ_section_title
;
Structure prediction by ZEFSAII (Michael W. Deem and Ramdas Pophale) SiO2 
 PCOD9009002
Probable space group: P -1
;
_chemical_formula_sum "Si O2"
_cell_formula_units_Z 14
_cell_length_a 15.386694
_cell_length_b 11.615222
_cell_length_c 9.133231
_cell_angle_alpha 118.169468
_cell_angle_beta 150.436370
_cell_angle_gamma 50.972405
_cell_volume 613.333046
_symmetry_space_group_name_H-M "P -1"
_symmetry_group_IT_number 2
_symmetry_cell_setting 'triclinic'
loop_
_space_group_symop_operation_xyz
x,y,z
-x,-y,-z
loop_
_atom_site_type_symbol
_atom_site_label
_atom_site_fract_x
_atom_site_fract_y
_atom_site_fract_z
Si Si1 0.773378 0.430203 0.215424
Si Si2 0.521952 0.937963 0.829217
Si Si3 0.874239 0.941939 0.876542
Si Si4 0.788881 0.051931 0.143361
Si Si5 0.068598 0.372449 0.150603
Si Si6 0.530879 0.648696 0.232387
Si Si7 0.817171 0.628662 0.169597
O O1 0.686825 0.491274 0.287312
O O2 0.749224 0.572340 0.175935
O O3 0.017324 0.319964 0.514153
O O4 0.621120 0.376001 0.900901
O O5 0.316368 0.021462 0.485285
O O6 0.690301 0.958680 0.004250
O O7 0.621561 0.758215 0.881172
O O8 0.500000 0.000000 0.000000
O O9 0.971839 0.767672 0.973398
O O10 0.810924 0.034074 0.990536
O O11 0.000000 0.000000 0.000000
O O12 0.000000 0.000000 0.500000
O O13 0.625239 0.227115 0.035159
O O14 0.314854 0.296785 0.457701
O O15 0.951250 0.479318 0.180661
O O16 0.000000 0.500000 0.000000
#
# Coordination Sequence:
#
# PCOD9009002 Si02
#       7
#     2   2   2   2   2   2   2
#     4   9  20  38  63  99 135 171 234 285 344 429
#     4  12  25  44  74 107 146 188 239 297 367 437
#     4  12  29  48  70 106 149 189 248 306 364 438
#     4  12  25  44  73  99 141 188 242 293 370 427
#     4  11  25  45  68  97 144 189 237 295 361 430
#     4  10  21  39  66  96 133 177 228 290 350 424
#     4  10  22  38  68  98 137 181 233 281 357 418
#
# _framework density 22.826098999999999
#
# number of rings (size 3 to 8) (size 9 to 14) (size 15 to 20)
#    0.000    1.143    1.429    3.857    8.000    3.429 
#    0.000    1.429    0.000    0.000    0.000    0.000 
#    0.000    0.000    0.000    0.000    0.000    0.000 
#
# Total GULP energy -78086.483941 kJ/mol
# GULP energy per Si atom -5577.605996 kJ/mol
# Density = 2.277415 g / cm^3
# Si number density = 22.826099 Si / 1000 Ang^3
#
#
#
# Elastic Constant Matrix: (Units=GPa)
#
#
# Indices 1 2 3 4 5 6 
#
# 1 137.0993 25.9530 43.7140 13.0093 4.1822 16.2607
# 2 25.9530 100.4411 21.3927 -9.3746 -0.1485 19.5522
# 3 43.7140 21.3927 105.5409 -9.3230 4.4173 11.4887
# 4 13.0093 -9.3746 -9.3230 35.0023 8.6018 -3.6246
# 5 4.1822 -0.1485 4.4173 8.6018 37.7178 6.4540
# 6 16.2607 19.5522 11.4887 -3.6246 6.4540 42.9797
#
#
#
# Elastic Compliance Matrix: (Units=1/GPa)
#
#
# Indices 1 2 3 4 5 6 
#
# 1 0.009661 -0.001702 -0.003930 -0.005615 0.001085 -0.002467
# 2 -0.001702 0.011702 -0.000960 0.002976 0.000392 -0.004231
# 3 -0.003930 -0.000960 0.011862 0.004786 -0.001955 -0.000550
# 4 -0.005615 0.002976 0.004786 0.035232 -0.008603 0.003754
# 5 0.001085 0.000392 -0.001955 -0.008603 0.029478 -0.005219
# 6 -0.002467 -0.004231 -0.000550 0.003754 -0.005219 0.027372
#
#
# Mechanical properties :
#
#
# Convention : Reuss Voigt Hill
#
# Bulk Modulus (GPa) = 49.89387 58.35564 54.12475
# Shear Modulus (GPa) = 34.44213 39.94139 37.19176
#
# Velocity S-wave (km/s) = 3.88866 4.18761 4.04090
# Velocity P-wave (km/s) = 6.48598 7.00016 6.74797
#
# Compressibility (1/GPa) = 0.02004254
#
# Stress axis : x y z
#
# Youngs Moduli (GPa) = 103.50401 85.45338 84.30496
#
# Poissons Ratio (x) = 0.14542 0.33129
# Poissons Ratio (y) = 0.17613 0.08094
# Poissons Ratio (z) = 0.40673 0.08204
#
# Static dielectric constant tensor:
#      x y z
#    x 1.193990 -0.968750 -0.533420 
#    y -0.968750 0.902870 -0.332140 
#    z -0.533420 -0.332140 1.878890 
# 
# From -- ./inp_files/199845.got.cif
#   From: 2010.05.17/outbox.cif.g08.bks.cpg/sg2_100_cif.got.tgz:199845.got - 2010.06.03 11:33:40.
