data_PCOD9009039
_publ_section_title
;
Structure prediction by ZEFSAII (Michael W. Deem and Ramdas Pophale) SiO2 
 PCOD9009039
Probable space group: P -1
;
_chemical_formula_sum "Si O2"
_cell_formula_units_Z 14
_cell_length_a 14.611150
_cell_length_b 11.335542
_cell_length_c 20.971703
_cell_angle_alpha 30.824726
_cell_angle_beta 19.666750
_cell_angle_gamma 28.003174
_cell_volume 540.595307
_symmetry_space_group_name_H-M "P -1"
_symmetry_group_IT_number 2
_symmetry_cell_setting 'triclinic'
loop_
_space_group_symop_operation_xyz
x,y,z
-x,-y,-z
loop_
_atom_site_type_symbol
_atom_site_label
_atom_site_fract_x
_atom_site_fract_y
_atom_site_fract_z
Si Si1 0.608101 0.890768 0.793059
Si Si2 0.807638 0.620117 0.658327
Si Si3 0.123215 0.290111 0.162108
Si Si4 0.010778 0.064556 0.789025
Si Si5 0.540919 0.888397 0.425588
Si Si6 0.393232 0.698758 0.244180
Si Si7 0.478935 0.589922 0.385879
O O1 0.690273 0.693188 0.773314
O O2 0.779598 0.755116 0.807294
O O3 0.693464 0.120787 0.609253
O O4 0.249625 0.016189 0.983639
O O5 0.824079 0.351236 0.751309
O O6 0.150653 0.587305 0.446667
O O7 0.600827 0.860335 0.640754
O O8 0.781537 0.457035 0.289635
O O9 0.216871 0.003289 0.207197
O O10 0.327758 0.401881 0.939494
O O11 0.191667 0.099147 0.714645
O O12 0.268732 0.905523 0.643302
O O13 0.638999 0.628099 0.442725
O O14 0.507740 0.653681 0.262824
#
# Coordination Sequence:
#
# PCOD9009039 Si02
#       7
#     2   2   2   2   2   2   2
#     4  11  28  42  67 102 139 177 217 270 340 402
#     4  12  24  46  67  95 141 180 220 265 335 407
#     4  10  22  40  68 100 134 167 219 280 336 382
#     4  11  26  47  67  97 134 177 231 274 322 396
#     4  11  25  44  74  98 126 177 230 280 329 383
#     4  10  21  39  66  98 129 172 217 273 325 387
#     4  11  23  42  70 103 133 166 224 283 332 390
#
# _framework density 25.897376000000001
#
# number of rings (size 3 to 8) (size 9 to 14) (size 15 to 20)
#    0.000    1.143    2.857    2.143    6.000    5.714 
#    0.000    0.000    0.000    0.000    0.000    0.000 
#    0.000    0.000    0.000    0.000    0.000    0.000 
#
# Total GULP energy -78533.416399 kJ/mol
# GULP energy per Si atom -5609.529743 kJ/mol
# Density = 2.583843 g / cm^3
# Si number density = 25.897376 Si / 1000 Ang^3
#
#
#
# Elastic Constant Matrix: (Units=GPa)
#
#
# Indices 1 2 3 4 5 6 
#
# 1 102.6628 17.0362 22.2115 8.6243 -10.0573 -29.4150
# 2 17.0362 102.5202 19.3010 0.3616 -10.1462 -5.0300
# 3 22.2115 19.3010 92.7289 -0.2501 -21.1664 -10.7677
# 4 8.6243 0.3616 -0.2501 35.2115 -3.1300 -5.4802
# 5 -10.0573 -10.1462 -21.1664 -3.1300 32.0188 0.0622
# 6 -29.4150 -5.0300 -10.7677 -5.4802 0.0622 45.2619
#
#
#
# Elastic Compliance Matrix: (Units=1/GPa)
#
#
# Indices 1 2 3 4 5 6 
#
# 1 0.012830 -0.001243 -0.001343 -0.001718 0.002566 0.007669
# 2 -0.001243 0.010427 -0.001403 0.000377 0.002023 0.000060
# 3 -0.001343 -0.001403 0.013559 0.001542 0.008243 0.002372
# 4 -0.001718 0.000377 0.001542 0.029584 0.003485 0.002870
# 5 0.002566 0.002023 0.008243 0.003485 0.038460 0.004222
# 6 0.007669 0.000060 0.002372 0.002870 0.004222 0.027990
#
#
# Mechanical properties :
#
#
# Convention : Reuss Voigt Hill
#
# Bulk Modulus (GPa) = 34.67580 46.11216 40.39398
# Shear Modulus (GPa) = 33.23556 38.45598 35.84577
#
# Velocity S-wave (km/s) = 3.58628 3.85767 3.72445
# Velocity P-wave (km/s) = 5.52877 6.13894 5.84183
#
# Compressibility (1/GPa) = 0.02883855
#
# Stress axis : x y z
#
# Youngs Moduli (GPa) = 77.93949 95.90817 73.75165
#
# Poissons Ratio (x) = 0.11921 0.09905
# Poissons Ratio (y) = 0.09688 0.10346
# Poissons Ratio (z) = 0.10468 0.13454
#
# Static dielectric constant tensor:
#      x y z
#    x 1.981390 0.003430 0.051140 
#    y 0.003430 2.003410 0.001370 
#    z 0.051140 0.001370 2.062830 
# 
# From -- ./inp_files/597914.got.cif
#   From: 2010.05.17/outbox.cif.g08.bks.cpg/sg2_299_cif.got.tgz:597914.got - 2010.06.03 11:33:40.
