data_PCOD9009793
_publ_section_title
;
Structure prediction by ZEFSAII (Michael W. Deem and Ramdas Pophale) SiO2 
 PCOD9009793
Probable space group: P -1
;
_chemical_formula_sum "Si O2"
_cell_formula_units_Z 16
_cell_length_a 14.981617
_cell_length_b 19.807679
_cell_length_c 11.914891
_cell_angle_alpha 49.196031
_cell_angle_beta 27.674475
_cell_angle_gamma 31.632019
_cell_volume 784.442944
_symmetry_space_group_name_H-M "P -1"
_symmetry_group_IT_number 2
_symmetry_cell_setting 'triclinic'
loop_
_space_group_symop_operation_xyz
x,y,z
-x,-y,-z
loop_
_atom_site_type_symbol
_atom_site_label
_atom_site_fract_x
_atom_site_fract_y
_atom_site_fract_z
Si Si1 0.718865 0.156434 0.086829
Si Si2 0.265220 0.162078 0.551253
Si Si3 0.230498 0.499164 0.611840
Si Si4 0.436788 0.107072 0.875668
Si Si5 0.899952 0.865867 0.466797
Si Si6 0.598458 0.384012 0.099767
Si Si7 0.571134 0.711890 0.205614
Si Si8 0.192644 0.684780 0.562595
O O1 0.443833 0.189287 0.334495
O O2 0.608173 0.281923 0.144643
O O3 0.855953 0.149918 0.828909
O O4 0.000000 0.000000 0.000000
O O5 0.166484 0.174343 0.520458
O O6 0.500000 0.000000 0.500000
O O7 0.956196 0.272359 0.848269
O O8 0.375356 0.460023 0.371748
O O9 0.321150 0.374200 0.705633
O O10 0.359241 0.532916 0.510326
O O11 0.863489 0.630801 0.891181
O O12 0.571230 0.144402 0.749845
O O13 0.599321 0.027159 0.665199
O O14 0.072109 0.244959 0.130308
O O15 0.500000 0.000000 0.000000
O O16 0.030773 0.766564 0.534992
O O17 0.500000 0.500000 0.000000
O O18 0.366890 0.711128 0.374603
#
# Coordination Sequence:
#
# PCOD9009793 Si02
#       8
#     2   2   2   2   2   2   2   2
#     4  11  23  42  65  94 129 168 219 267 327 390
#     4  11  23  42  65  91 130 171 215 272 329 381
#     4  10  22  40  62  90 129 162 214 265 319 389
#     4   9  21  37  56  89 125 154 209 256 310 387
#     4  10  22  37  62  89 126 164 210 267 317 386
#     4  11  25  43  66 100 134 169 222 271 323 395
#     4  10  22  38  63  90 125 169 208 265 325 380
#     4  10  21  40  59  90 127 161 212 262 326 379
#
# _framework density 20.396639
#
# number of rings (size 3 to 8) (size 9 to 14) (size 15 to 20)
#    0.000    1.750    2.500    1.875    1.750    9.500 
#    0.000    0.000    0.000    0.000    0.000    0.000 
#    0.000    0.000    0.000    0.000    0.000    0.000 
#
# Total GULP energy -89261.854817 kJ/mol
# GULP energy per Si atom -5578.865926 kJ/mol
# Density = 2.035021 g / cm^3
# Si number density = 20.396639 Si / 1000 Ang^3
#
#
#
# Elastic Constant Matrix: (Units=GPa)
#
#
# Indices 1 2 3 4 5 6 
#
# 1 76.6249 18.0122 55.8424 -10.9635 -7.5527 28.4273
# 2 18.0122 92.4736 19.6091 -12.9549 -0.1497 26.6744
# 3 55.8424 19.6091 150.1928 -15.9009 7.6279 22.4162
# 4 -10.9635 -12.9549 -15.9009 31.3177 10.4996 -5.3834
# 5 -7.5527 -0.1497 7.6279 10.4996 50.3150 -5.7262
# 6 28.4273 26.6744 22.4162 -5.3834 -5.7262 40.4880
#
#
#
# Elastic Compliance Matrix: (Units=1/GPa)
#
#
# Indices 1 2 3 4 5 6 
#
# 1 0.022801 0.000763 -0.006692 0.001918 0.002653 -0.012177
# 2 0.000763 0.014100 -0.000085 0.005102 -0.001963 -0.009377
# 3 -0.006692 -0.000085 0.009806 0.003599 -0.003318 -0.000665
# 4 0.001918 0.005102 0.003599 0.038981 -0.008690 -0.002746
# 5 0.002653 -0.001963 -0.003318 -0.008690 0.022966 0.003360
# 6 -0.012177 -0.009377 -0.000665 -0.002746 0.003360 0.039904
#
#
# Mechanical properties :
#
#
# Convention : Reuss Voigt Hill
#
# Bulk Modulus (GPa) = 28.83531 56.24652 42.54091
# Shear Modulus (GPa) = 29.04504 39.47931 34.26217
#
# Velocity S-wave (km/s) = 3.77770 4.40429 4.10298
# Velocity P-wave (km/s) = 5.76160 7.31437 6.58392
#
# Compressibility (1/GPa) = 0.03467970
#
# Stress axis : x y z
#
# Youngs Moduli (GPa) = 43.85705 70.92295 101.97755
#
# Poissons Ratio (x) = -0.05412 0.68240
# Poissons Ratio (y) = -0.03347 0.00869
# Poissons Ratio (z) = 0.29348 0.00604
#
# Static dielectric constant tensor:
#      x y z
#    x 1.726090 -0.002880 -0.003340 
#    y -0.002880 1.803700 0.044310 
#    z -0.003340 0.044310 1.739330 
# 
# From -- ./inp_files/457684.got.cif
#   From: 2010.05.17/outbox.cif.g08.bks.cpg/sg2_229_cif.got.tgz:457684.got - 2010.06.03 11:33:40.
