data_PCOD9009248
_publ_section_title
;
Structure prediction by ZEFSAII (Michael W. Deem and Ramdas Pophale) SiO2 
 PCOD9009248
Probable space group: P -1
;
_chemical_formula_sum "Si O2"
_cell_formula_units_Z 14
_cell_length_a 16.728907
_cell_length_b 14.564443
_cell_length_c 7.463754
_cell_angle_alpha 54.924498
_cell_angle_beta 135.037973
_cell_angle_gamma 154.024182
_cell_volume 551.634426
_symmetry_space_group_name_H-M "P -1"
_symmetry_group_IT_number 2
_symmetry_cell_setting 'triclinic'
loop_
_space_group_symop_operation_xyz
x,y,z
-x,-y,-z
loop_
_atom_site_type_symbol
_atom_site_label
_atom_site_fract_x
_atom_site_fract_y
_atom_site_fract_z
Si Si1 0.773503 0.649985 0.313394
Si Si2 0.053400 0.264351 0.882346
Si Si3 0.753166 0.024653 0.193709
Si Si4 0.339121 0.193552 0.051790
Si Si5 0.760906 0.225128 0.453325
Si Si6 0.718940 0.245816 0.755692
Si Si7 0.673685 0.349696 0.889827
O O1 0.711465 0.723171 0.187101
O O2 0.812857 0.676027 0.132382
O O3 0.562574 0.393740 0.291147
O O4 0.005776 0.815399 0.575567
O O5 0.934150 0.278317 0.615026
O O6 0.208640 0.439800 0.089744
O O7 0.866875 0.024832 0.922020
O O8 0.645045 0.874487 0.017556
O O9 0.585907 0.859019 0.275400
O O10 0.763175 0.164583 0.011756
O O11 0.813482 0.324000 0.619322
O O12 0.716129 0.283265 0.173152
O O13 0.540703 0.972231 0.426167
O O14 0.227962 0.612042 0.181431
#
# Coordination Sequence:
#
# PCOD9009248 Si02
#       7
#     2   2   2   2   2   2   2
#     4  11  25  46  77  94 138 183 232 304 360 410
#     4  12  23  45  67 102 141 181 230 293 346 421
#     4  11  21  47  69 101 140 179 235 294 347 421
#     4  11  25  48  69 105 131 181 243 290 361 423
#     4  10  21  39  67  97 149 188 229 287 343 420
#     4  10  21  40  66 104 141 186 238 278 343 435
#     4  11  23  41  69 105 148 185 235 282 351 428
#
# _framework density 25.379128000000001
#
# number of rings (size 3 to 8) (size 9 to 14) (size 15 to 20)
#    0.000    1.143    2.857    4.714    0.000    0.571 
#    7.714    0.714    0.000    0.000    0.000    0.000 
#    0.000    0.000    0.000    0.000    0.000    0.000 
#
# Total GULP energy -78505.840896 kJ/mol
# GULP energy per Si atom -5607.560064 kJ/mol
# Density = 2.532136 g / cm^3
# Si number density = 25.379128 Si / 1000 Ang^3
#
#
#
# Elastic Constant Matrix: (Units=GPa)
#
#
# Indices 1 2 3 4 5 6 
#
# 1 77.8265 21.8479 0.6099 -8.4077 4.3469 0.0874
# 2 21.8479 166.1468 29.5876 22.2303 1.8707 0.3303
# 3 0.6099 29.5876 87.0679 20.9345 19.5038 -15.7230
# 4 -8.4077 22.2303 20.9345 36.6807 8.4868 1.1271
# 5 4.3469 1.8707 19.5038 8.4868 36.8467 6.0511
# 6 0.0874 0.3303 -15.7230 1.1271 6.0511 28.5715
#
#
#
# Elastic Compliance Matrix: (Units=1/GPa)
#
#
# Indices 1 2 3 4 5 6 
#
# 1 0.014337 -0.002625 0.000276 0.005406 -0.003043 0.000570
# 2 -0.002625 0.007314 -0.002291 -0.004231 0.002401 -0.001679
# 3 0.000276 -0.002291 0.018552 -0.007174 -0.010165 0.012670
# 4 0.005406 -0.004231 -0.007174 0.036280 -0.004252 -0.004446
# 5 -0.003043 0.002401 -0.010165 -0.004252 0.035878 -0.013043
# 6 0.000570 -0.001679 0.012670 -0.004446 -0.013043 0.044928
#
#
# Mechanical properties :
#
#
# Convention : Reuss Voigt Hill
#
# Bulk Modulus (GPa) = 32.33700 48.34803 40.34251
# Shear Modulus (GPa) = 28.26841 39.01952 33.64396
#
# Velocity S-wave (km/s) = 3.34105 3.92531 3.64490
# Velocity P-wave (km/s) = 5.25859 6.29569 5.80036
#
# Compressibility (1/GPa) = 0.03092433
#
# Stress axis : x y z
#
# Youngs Moduli (GPa) = 69.74930 136.71892 53.90346
#
# Poissons Ratio (x) = 0.35884 -0.01489
# Poissons Ratio (y) = 0.18307 0.12349
# Poissons Ratio (z) = -0.01927 0.31322
#
# Static dielectric constant tensor:
#      x y z
#    x 1.945000 0.007140 -0.038250 
#    y 0.007140 1.997850 0.051260 
#    z -0.038250 0.051260 2.043210 
# 
# From -- ./inp_files/285646.got.cif
#   From: 2010.05.17/outbox.cif.g08.bks.cpg/sg2_143_cif.got.tgz:285646.got - 2010.06.03 11:33:40.
