data_PCOD9009946
_publ_section_title
;
Structure prediction by ZEFSAII (Michael W. Deem and Ramdas Pophale) SiO2 
 PCOD9009946
Probable space group: P -1
;
_chemical_formula_sum "Si O2"
_cell_formula_units_Z 16
_cell_length_a 8.429265
_cell_length_b 21.385301
_cell_length_c 5.472274
_cell_angle_alpha 116.692889
_cell_angle_beta 59.872252
_cell_angle_gamma 119.795910
_cell_volume 713.681598
_symmetry_space_group_name_H-M "P -1"
_symmetry_group_IT_number 2
_symmetry_cell_setting 'triclinic'
loop_
_space_group_symop_operation_xyz
x,y,z
-x,-y,-z
loop_
_atom_site_type_symbol
_atom_site_label
_atom_site_fract_x
_atom_site_fract_y
_atom_site_fract_z
Si Si1 0.454793 0.154407 0.530532
Si Si2 0.325370 0.940690 0.673246
Si Si3 0.804371 0.432960 0.101671
Si Si4 0.324352 0.728995 0.045450
Si Si5 0.100868 0.820025 0.234135
Si Si6 0.328119 0.268900 0.510915
Si Si7 0.976413 0.933535 0.211342
Si Si8 0.569266 0.430035 0.783395
O O1 0.563301 0.095721 0.282676
O O2 0.375728 0.200300 0.480429
O O3 0.253298 0.105717 0.744915
O O4 0.613831 0.218265 0.676601
O O5 0.210151 0.879930 0.456663
O O6 0.500000 0.000000 0.500000
O O7 0.156231 0.968878 0.949962
O O8 0.833187 0.353221 0.955097
O O9 0.706768 0.443474 0.455264
O O10 0.672361 0.424996 0.949271
O O11 0.000000 0.500000 0.000000
O O12 0.526618 0.716749 0.804164
O O13 0.241635 0.773253 0.989783
O O14 0.036850 0.865152 0.153328
O O15 0.902351 0.761988 0.401689
O O16 0.401588 0.348346 0.731478
O O17 0.000000 0.000000 0.500000
O O18 0.500000 0.500000 0.000000
#
# Coordination Sequence:
#
# PCOD9009946 Si02
#       8
#     2   2   2   2   2   2   2   2
#     4  10  21  40  61  86 124 160 214 270 325 392
#     4  11  24  40  62  91 124 165 212 267 332 400
#     4  11  24  44  69 102 140 183 226 279 341 402
#     4  10  21  40  64  89 127 167 219 269 331 390
#     4  10  23  40  63  94 120 168 220 268 333 390
#     4  10  21  40  64  89 127 167 219 269 331 390
#     4  11  24  40  62  91 124 165 212 267 332 400
#     4  11  24  44  69 102 140 183 226 279 341 402
#
# _framework density 22.418963999999999
#
# number of rings (size 3 to 8) (size 9 to 14) (size 15 to 20)
#    0.000    1.500    1.250    3.000    1.750    8.000 
#    0.000    1.250    0.000    0.000    0.000    0.000 
#    0.000    0.000    0.000    0.000    0.000    0.000 
#
# Total GULP energy -89219.016833 kJ/mol
# GULP energy per Si atom -5576.188552 kJ/mol
# Density = 2.236794 g / cm^3
# Si number density = 22.418964 Si / 1000 Ang^3
#
#
#
# Elastic Constant Matrix: (Units=GPa)
#
#
# Indices 1 2 3 4 5 6 
#
# 1 73.7335 35.9546 23.0606 0.9647 -15.0254 4.0789
# 2 35.9546 148.5297 45.0910 -3.9084 -13.7232 18.0318
# 3 23.0606 45.0910 91.7472 -0.0459 -18.8747 3.6156
# 4 0.9647 -3.9084 -0.0459 33.9916 -0.8248 -5.1316
# 5 -15.0254 -13.7232 -18.8747 -0.8248 37.2522 -5.3468
# 6 4.0789 18.0318 3.6156 -5.1316 -5.3468 45.3300
#
#
#
# Elastic Compliance Matrix: (Units=1/GPa)
#
#
# Indices 1 2 3 4 5 6 
#
# 1 0.016560 -0.003128 -0.001669 -0.000662 0.004720 0.000369
# 2 -0.003128 0.008914 -0.003513 0.000663 -0.000163 -0.002929
# 3 -0.001669 -0.003513 0.014100 -0.000050 0.005326 0.001045
# 4 -0.000662 0.000663 -0.000050 0.030043 0.001095 0.003330
# 5 0.004720 -0.000163 0.005326 0.001095 0.031855 0.003097
# 6 0.000369 -0.002929 0.001045 0.003330 0.003097 0.023851
#
#
# Mechanical properties :
#
#
# Convention : Reuss Voigt Hill
#
# Bulk Modulus (GPa) = 43.56462 58.02474 50.79468
# Shear Modulus (GPa) = 33.42400 37.30839 35.36620
#
# Velocity S-wave (km/s) = 3.86538 4.08382 3.97610
# Velocity P-wave (km/s) = 6.27661 6.94082 6.61705
#
# Compressibility (1/GPa) = 0.02295441
#
# Stress axis : x y z
#
# Youngs Moduli (GPa) = 60.38770 112.18120 70.92326
#
# Poissons Ratio (x) = 0.35092 0.11836
# Poissons Ratio (y) = 0.18890 0.24913
# Poissons Ratio (z) = 0.10078 0.39405
#
# Static dielectric constant tensor:
#      x y z
#    x 1.889880 -0.078000 -0.007400 
#    y -0.078000 1.943930 -0.070910 
#    z -0.007400 -0.070910 1.889830 
# 
# From -- ./inp_files/53633.got.cif
#   From: 2010.05.17/outbox.cif.g08.bks.cpg/sg2_27_cif.got.tgz:53633.got - 2010.06.03 11:33:40.
