data_PCOD9009126
_publ_section_title
;
Structure prediction by ZEFSAII (Michael W. Deem and Ramdas Pophale) SiO2 
 PCOD9009126
Probable space group: P -1
;
_chemical_formula_sum "Si O2"
_cell_formula_units_Z 12
_cell_length_a 9.072509
_cell_length_b 16.781941
_cell_length_c 6.568234
_cell_angle_alpha 132.971135
_cell_angle_beta 128.873331
_cell_angle_gamma 41.111568
_cell_volume 467.419457
_symmetry_space_group_name_H-M "P -1"
_symmetry_group_IT_number 2
_symmetry_cell_setting 'triclinic'
loop_
_space_group_symop_operation_xyz
x,y,z
-x,-y,-z
loop_
_atom_site_type_symbol
_atom_site_label
_atom_site_fract_x
_atom_site_fract_y
_atom_site_fract_z
Si Si1 0.236376 0.951524 0.003415
Si Si2 0.012756 0.645000 0.113210
Si Si3 0.264615 0.530181 0.755853
Si Si4 0.414907 0.671550 0.628921
Si Si5 0.169661 0.197756 0.147140
Si Si6 0.391177 0.256423 0.764892
O O1 0.303035 0.820269 0.709560
O O2 0.440112 0.888851 0.238071
O O3 0.221218 0.062954 0.046707
O O4 0.000000 0.000000 0.000000
O O5 0.848155 0.659473 0.172027
O O6 0.229601 0.638719 0.380615
O O7 0.853010 0.780335 0.075826
O O8 0.119914 0.532834 0.831494
O O9 0.355111 0.427432 0.472378
O O10 0.087446 0.681496 0.796830
O O11 0.500000 0.500000 0.000000
O O12 0.478265 0.678184 0.929430
O O13 0.339323 0.231484 0.452383
#
# Coordination Sequence:
#
# PCOD9009126 Si02
#       6
#     2   2   2   2   2   2
#     4  10  22  40  61  93 127 157 209 258 300 370
#     4   9  20  41  62  89 129 156 203 254 306 360
#     4   8  18  40  61  89 127 157 206 252 299 369
#     4   9  20  38  63  88 126 160 200 258 298 359
#     4  10  21  39  67  88 125 169 198 249 322 350
#     4  10  22  39  64  92 124 160 207 257 299 366
#
# _framework density 25.672872000000002
#
# number of rings (size 3 to 8) (size 9 to 14) (size 15 to 20)
#    2.000    0.667    0.000    1.500    0.000    2.667 
#    3.000    7.500    0.000    0.000    0.000    0.000 
#    0.000    0.000    0.000    0.000    0.000    0.000 
#
# Total GULP energy -67005.690879 kJ/mol
# GULP energy per Si atom -5583.807573 kJ/mol
# Density = 2.561444 g / cm^3
# Si number density = 25.672872 Si / 1000 Ang^3
#
#
#
# Elastic Constant Matrix: (Units=GPa)
#
#
# Indices 1 2 3 4 5 6 
#
# 1 112.6879 31.6122 28.9155 -8.4232 -2.4255 -5.8772
# 2 31.6122 137.7101 20.9965 10.3482 2.2442 5.1541
# 3 28.9155 20.9965 92.3676 -10.5130 20.8619 4.2011
# 4 -8.4232 10.3482 -10.5130 47.1265 -4.5505 4.2560
# 5 -2.4255 2.2442 20.8619 -4.5505 14.8807 -4.5249
# 6 -5.8772 5.1541 4.2011 4.2560 -4.5249 51.3288
#
#
#
# Elastic Compliance Matrix: (Units=1/GPa)
#
#
# Indices 1 2 3 4 5 6 
#
# 1 0.011495 -0.002245 -0.005583 0.002162 0.011563 0.002839
# 2 -0.002245 0.008192 -0.001186 -0.002479 -0.000959 -0.000861
# 3 -0.005583 -0.001186 0.019936 0.001276 -0.029774 -0.004882
# 4 0.002162 -0.002479 0.001276 0.023076 0.005684 -0.001020
# 5 0.011563 -0.000959 -0.029774 0.005684 0.116872 0.013689
# 6 0.002839 -0.000861 -0.004882 -0.001020 0.013689 0.021585
#
#
# Mechanical properties :
#
#
# Convention : Reuss Voigt Hill
#
# Bulk Modulus (GPa) = 46.30605 56.20155 51.25380
# Shear Modulus (GPa) = 22.08669 40.08331 31.08500
#
# Velocity S-wave (km/s) = 2.93629 3.95563 3.48345
# Velocity P-wave (km/s) = 5.43800 6.54229 6.01554
#
# Compressibility (1/GPa) = 0.02159545
#
# Stress axis : x y z
#
# Youngs Moduli (GPa) = 86.99533 122.07186 50.16171
#
# Poissons Ratio (x) = 0.27401 0.28005
# Poissons Ratio (y) = 0.19528 0.05949
# Poissons Ratio (z) = 0.48568 0.14476
#
# Static dielectric constant tensor:
#      x y z
#    x 2.004720 0.044900 -0.001720 
#    y 0.044900 2.066130 0.018450 
#    z -0.001720 0.018450 2.047020 
# 
# From -- ./inp_files/284489.got.cif
#   From: 2010.05.17/outbox.cif.g08.bks.cpg/sg2_143_cif.got.tgz:284489.got - 2010.06.03 11:33:40.
