data_PCOD9009034
_publ_section_title
;
Structure prediction by ZEFSAII (Michael W. Deem and Ramdas Pophale) SiO2 
 PCOD9009034
Probable space group: P -1
;
_chemical_formula_sum "Si O2"
_cell_formula_units_Z 14
_cell_length_a 8.444940
_cell_length_b 20.718443
_cell_length_c 18.767456
_cell_angle_alpha 158.007971
_cell_angle_beta 34.321031
_cell_angle_gamma 132.258997
_cell_volume 621.935108
_symmetry_space_group_name_H-M "P -1"
_symmetry_group_IT_number 2
_symmetry_cell_setting 'triclinic'
loop_
_space_group_symop_operation_xyz
x,y,z
-x,-y,-z
loop_
_atom_site_type_symbol
_atom_site_label
_atom_site_fract_x
_atom_site_fract_y
_atom_site_fract_z
Si Si1 0.642911 0.095797 0.255691
Si Si2 0.664417 0.416369 0.927729
Si Si3 0.350482 0.333461 0.313690
Si Si4 0.846734 0.026495 0.712164
Si Si5 0.386452 0.372235 0.498874
Si Si6 0.664760 0.430263 0.655575
Si Si7 0.949855 0.361422 0.992671
O O1 0.477894 0.219928 0.372786
O O2 0.631038 0.232629 0.465060
O O3 0.444424 0.980005 0.229492
O O4 0.000000 0.000000 0.000000
O O5 0.853062 0.535903 0.007467
O O6 0.500000 0.500000 0.000000
O O7 0.418344 0.456234 0.123480
O O8 0.903561 0.194614 0.600146
O O9 0.341871 0.292700 0.359138
O O10 0.372351 0.535397 0.507015
O O11 0.020514 0.370078 0.439993
O O12 0.647750 0.158396 0.987998
O O13 0.042021 0.138076 0.725306
O O14 0.088723 0.558424 0.830102
O O15 0.399492 0.554900 0.825209
#
# Coordination Sequence:
#
# PCOD9009034 Si02
#       7
#     2   2   2   2   2   2   2
#     4  11  22  38  62  98 129 163 211 262 313 376
#     4  12  26  46  66  91 130 170 210 263 320 380
#     4  10  21  39  66  98 123 169 208 262 319 375
#     4  11  24  41  68  93 129 167 214 259 314 375
#     4   9  20  38  62  91 138 159 206 263 319 366
#     4  11  23  40  67  92 130 166 211 261 323 367
#     4  10  23  43  65  94 130 165 213 265 312 377
#
# _framework density 22.510386
#
# number of rings (size 3 to 8) (size 9 to 14) (size 15 to 20)
#    0.000    1.429    4.286    1.286    2.000    4.571 
#    0.000    0.000    0.000    0.000    0.000    0.000 
#    0.000    0.000    0.000    0.000    0.000    0.000 
#
# Total GULP energy -78003.570815 kJ/mol
# GULP energy per Si atom -5571.683630 kJ/mol
# Density = 2.245915 g / cm^3
# Si number density = 22.510386 Si / 1000 Ang^3
#
#
#
# Elastic Constant Matrix: (Units=GPa)
#
#
# Indices 1 2 3 4 5 6 
#
# 1 64.9698 -3.5661 24.3804 3.4121 7.9081 6.1749
# 2 -3.5661 65.3394 25.2527 23.6233 -10.2182 19.1280
# 3 24.3804 25.2527 134.0678 7.4758 3.0850 3.5648
# 4 3.4121 23.6233 7.4758 30.1501 -1.8018 10.4438
# 5 7.9081 -10.2182 3.0850 -1.8018 25.2986 -7.0784
# 6 6.1749 19.1280 3.5648 10.4438 -7.0784 27.4375
#
#
#
# Elastic Compliance Matrix: (Units=1/GPa)
#
#
# Indices 1 2 3 4 5 6 
#
# 1 0.018621 0.004724 -0.003800 -0.002621 -0.005726 -0.007470
# 2 0.004724 0.027981 -0.005014 -0.016690 0.005876 -0.012050
# 3 -0.003800 -0.005014 0.008989 0.001223 -0.001171 0.002415
# 4 -0.002621 -0.016690 0.001223 0.048608 -0.004753 -0.007662
# 5 -0.005726 0.005876 -0.001171 -0.004753 0.046624 0.011182
# 6 -0.007470 -0.012050 0.002415 -0.007662 0.011182 0.052015
#
#
# Mechanical properties :
#
#
# Convention : Reuss Voigt Hill
#
# Bulk Modulus (GPa) = 21.09157 39.61232 30.35194
# Shear Modulus (GPa) = 22.04379 31.13123 26.58751
#
# Velocity S-wave (km/s) = 3.13273 3.72287 3.44047
# Velocity P-wave (km/s) = 4.74082 6.00959 5.41251
#
# Compressibility (1/GPa) = 0.04741231
#
# Stress axis : x y z
#
# Youngs Moduli (GPa) = 53.70144 35.73864 111.25023
#
# Poissons Ratio (x) = -0.16882 0.42270
# Poissons Ratio (y) = -0.25367 0.55777
# Poissons Ratio (z) = 0.20404 0.17918
#
# Static dielectric constant tensor:
#      x y z
#    x 1.854060 0.003950 0.000550 
#    y 0.003950 1.957430 0.014890 
#    z 0.000550 0.014890 1.865450 
# 
# From -- ./inp_files/217667.got.cif
#   From: 2010.05.17/outbox.cif.g08.bks.cpg/sg2_109_cif.got.tgz:217667.got - 2010.06.03 11:33:40.
