data_PCOD9009732
_publ_section_title
;
Structure prediction by ZEFSAII (Michael W. Deem and Ramdas Pophale) SiO2 
 PCOD9009732
Probable space group: P -1
;
_chemical_formula_sum "Si O2"
_cell_formula_units_Z 16
_cell_length_a 8.021612
_cell_length_b 13.422801
_cell_length_c 10.833543
_cell_angle_alpha 47.183390
_cell_angle_beta 46.792665
_cell_angle_gamma 65.955842
_cell_volume 620.000200
_symmetry_space_group_name_H-M "P -1"
_symmetry_group_IT_number 2
_symmetry_cell_setting 'triclinic'
loop_
_space_group_symop_operation_xyz
x,y,z
-x,-y,-z
loop_
_atom_site_type_symbol
_atom_site_label
_atom_site_fract_x
_atom_site_fract_y
_atom_site_fract_z
Si Si1 0.996996 0.839309 0.141696
Si Si2 0.525240 0.249609 0.589499
Si Si3 0.463198 0.568458 0.777201
Si Si4 0.141428 0.403541 0.249046
Si Si5 0.083931 0.693573 0.993424
Si Si6 0.968861 0.122777 0.635028
Si Si7 0.268149 0.016640 0.396546
Si Si8 0.669802 0.838574 0.987930
O O1 0.743573 0.777414 0.286319
O O2 0.045714 0.810278 0.280921
O O3 0.144382 0.783404 0.007253
O O4 0.000000 0.000000 0.000000
O O5 0.573930 0.398796 0.375192
O O6 0.680688 0.316832 0.187478
O O7 0.631082 0.122887 0.574170
O O8 0.512974 0.226340 0.763898
O O9 0.706356 0.585334 0.711275
O O10 0.322613 0.432503 0.019340
O O11 0.988310 0.260792 0.426031
O O12 0.006037 0.536814 0.203468
O O13 0.889849 0.754084 0.960657
O O14 0.211776 0.061792 0.526504
O O15 0.775178 0.993139 0.844645
O O16 0.395299 0.132305 0.144579
O O17 0.000000 0.000000 0.500000
#
# Coordination Sequence:
#
# PCOD9009732 Si02
#       8
#     2   2   2   2   2   2   2   2
#     4  11  21  34  55  94 122 138 189 240 297 345
#     4  11  20  35  64  85 114 151 185 248 285 345
#     4   9  18  35  54  84 117 155 189 221 289 357
#     4   9  20  35  55  84 119 156 188 227 284 357
#     4   9  19  36  57  79 115 158 179 229 291 339
#     4  11  20  38  56  86 118 146 194 236 285 344
#     4  10  23  38  61  83 113 155 199 240 286 331
#     4  10  21  40  58  87 112 150 199 240 284 330
#
# _framework density 25.806442000000001
#
# number of rings (size 3 to 8) (size 9 to 14) (size 15 to 20)
#    0.750    1.250    3.750    1.875    0.000    2.000 
#    0.000    0.625    0.000    0.750    0.000    0.000 
#    0.000    0.000    0.000    0.000    0.000    0.000 
#
# Total GULP energy -89191.031757 kJ/mol
# GULP energy per Si atom -5574.439485 kJ/mol
# Density = 2.574771 g / cm^3
# Si number density = 25.806442 Si / 1000 Ang^3
#
#
#
# Elastic Constant Matrix: (Units=GPa)
#
#
# Indices 1 2 3 4 5 6 
#
# 1 75.4033 19.7112 29.7206 -4.3272 13.4297 -7.7417
# 2 19.7112 54.1711 17.9612 -20.1386 1.4297 1.1352
# 3 29.7206 17.9612 158.7386 -16.4457 23.4258 6.7398
# 4 -4.3272 -20.1386 -16.4457 47.0094 -2.1549 10.4530
# 5 13.4297 1.4297 23.4258 -2.1549 34.0321 -5.3611
# 6 -7.7417 1.1352 6.7398 10.4530 -5.3611 36.0272
#
#
#
# Elastic Compliance Matrix: (Units=1/GPa)
#
#
# Indices 1 2 3 4 5 6 
#
# 1 0.016957 -0.006610 -0.002332 -0.003308 -0.004292 0.004610
# 2 -0.006610 0.025281 -0.000504 0.011268 0.001799 -0.005124
# 3 -0.002332 -0.000504 0.007974 0.002925 -0.004923 -0.003558
# 4 -0.003308 0.011268 0.002925 0.029038 -0.000946 -0.010179
# 5 -0.004292 0.001799 -0.004923 -0.000946 0.035190 0.005453
# 6 0.004610 -0.005124 -0.003558 -0.010179 0.005453 0.033339
#
#
# Mechanical properties :
#
#
# Convention : Reuss Voigt Hill
#
# Bulk Modulus (GPa) = 31.92823 47.01100 39.46961
# Shear Modulus (GPa) = 28.23103 38.14174 33.18639
#
# Velocity S-wave (km/s) = 3.31108 3.84864 3.58994
# Velocity P-wave (km/s) = 5.19776 6.16487 5.70186
#
# Compressibility (1/GPa) = 0.03132025
#
# Stress axis : x y z
#
# Youngs Moduli (GPa) = 58.97266 39.55556 125.41097
#
# Poissons Ratio (x) = 0.26147 0.29246
# Poissons Ratio (y) = 0.38982 0.06315
# Poissons Ratio (z) = 0.13752 0.01992
#
# Static dielectric constant tensor:
#      x y z
#    x 1.604350 0.201100 -0.298170 
#    y 0.201100 2.089110 0.169630 
#    z -0.298170 0.169630 1.972210 
# 
# From -- ./inp_files/433697.got.cif
#   From: 2010.05.17/outbox.cif.g08.bks.cpg/sg2_217_cif.got.tgz:433697.got - 2010.06.03 11:33:40.
