data_PCOD9009848
_publ_section_title
;
Structure prediction by ZEFSAII (Michael W. Deem and Ramdas Pophale) SiO2 
 PCOD9009848
Probable space group: P -1
;
_chemical_formula_sum "Si O2"
_cell_formula_units_Z 16
_cell_length_a 8.384209
_cell_length_b 17.681208
_cell_length_c 14.307565
_cell_angle_alpha 143.086409
_cell_angle_beta 30.180450
_cell_angle_gamma 138.155462
_cell_volume 630.170241
_symmetry_space_group_name_H-M "P -1"
_symmetry_group_IT_number 2
_symmetry_cell_setting 'triclinic'
loop_
_space_group_symop_operation_xyz
x,y,z
-x,-y,-z
loop_
_atom_site_type_symbol
_atom_site_label
_atom_site_fract_x
_atom_site_fract_y
_atom_site_fract_z
Si Si1 0.468551 0.159645 0.248372
Si Si2 0.429455 0.748498 0.077397
Si Si3 0.872005 0.670577 0.929339
Si Si4 0.267014 0.078782 0.069087
Si Si5 0.116493 0.450454 0.491644
Si Si6 0.741470 0.612310 0.299616
Si Si7 0.495466 0.718668 0.345319
Si Si8 0.519710 0.004530 0.382551
O O1 0.266254 0.117045 0.216434
O O2 0.355252 0.271861 0.475298
O O3 0.825438 0.221547 0.092837
O O4 0.525716 0.036083 0.155382
O O5 0.125519 0.634059 0.125782
O O6 0.345999 0.871855 0.296596
O O7 0.722983 0.706521 0.942787
O O8 0.552868 0.806160 0.972278
O O9 0.997349 0.539170 0.719285
O O10 0.610190 0.674710 0.144969
O O11 0.894074 0.024682 0.180293
O O12 0.503828 0.484290 0.328208
O O13 0.000000 0.500000 0.500000
O O14 0.893939 0.313720 0.484424
O O15 0.637045 0.639966 0.275200
O O16 0.610923 0.868107 0.452486
O O17 0.500000 0.000000 0.500000
#
# Coordination Sequence:
#
# PCOD9009848 Si02
#       8
#     2   2   2   2   2   2   2   2
#     4  10  21  40  60  87 130 172 212 252 312 383
#     4  12  24  38  62 101 132 163 207 264 322 371
#     4  11  22  40  66  92 128 166 210 264 312 377
#     4  11  23  36  61  91 131 172 210 254 316 380
#     4   9  22  43  68  89 120 172 219 257 310 375
#     4  10  23  41  64  94 126 167 212 263 312 375
#     4  11  22  41  68  90 127 172 213 256 316 377
#     4  12  23  38  63  98 134 161 206 261 320 378
#
# _framework density 25.389965
#
# number of rings (size 3 to 8) (size 9 to 14) (size 15 to 20)
#    0.000    1.250    2.500    3.000    5.250    4.000 
#    0.000    3.125    2.750    0.000    0.000    0.000 
#    0.000    0.000    0.000    0.000    0.000    0.000 
#
# Total GULP energy -89652.808610 kJ/mol
# GULP energy per Si atom -5603.300538 kJ/mol
# Density = 2.533218 g / cm^3
# Si number density = 25.389965 Si / 1000 Ang^3
#
#
#
# Elastic Constant Matrix: (Units=GPa)
#
#
# Indices 1 2 3 4 5 6 
#
# 1 45.6182 8.7294 10.6894 -9.4276 7.0513 9.3313
# 2 8.7294 104.5112 27.9399 -13.6174 -3.7144 27.0986
# 3 10.6894 27.9399 111.4729 -7.5763 19.7006 -1.5802
# 4 -9.4276 -13.6174 -7.5763 45.8123 5.9457 -4.7024
# 5 7.0513 -3.7144 19.7006 5.9457 28.7715 -13.2882
# 6 9.3313 27.0986 -1.5802 -4.7024 -13.2882 31.7766
#
#
#
# Elastic Compliance Matrix: (Units=1/GPa)
#
#
# Indices 1 2 3 4 5 6 
#
# 1 0.028477 0.002060 -0.000357 0.006777 -0.014981 -0.015399
# 2 0.002060 0.014080 -0.003069 0.003153 -0.003616 -0.013810
# 3 -0.000357 -0.003069 0.011420 0.002012 -0.008535 0.000019
# 4 0.006777 0.003153 0.002012 0.025295 -0.010219 -0.005109
# 5 -0.014981 -0.003616 -0.008535 -0.010219 0.060083 0.030671
# 6 -0.015399 -0.013810 0.000019 -0.005109 0.030671 0.059839
#
#
# Mechanical properties :
#
#
# Convention : Reuss Voigt Hill
#
# Bulk Modulus (GPa) = 19.51436 39.59107 29.55271
# Shear Modulus (GPa) = 22.83034 35.55498 29.19266
#
# Velocity S-wave (km/s) = 3.00190 3.74619 3.39451
# Velocity P-wave (km/s) = 4.44047 5.85995 5.19888
#
# Compressibility (1/GPa) = 0.05124431
#
# Stress axis : x y z
#
# Youngs Moduli (GPa) = 35.11658 71.02321 87.56719
#
# Poissons Ratio (x) = -0.14633 0.03128
# Poissons Ratio (y) = -0.07235 0.26875
# Poissons Ratio (z) = 0.01254 0.21797
#
# Static dielectric constant tensor:
#      x y z
#    x 1.932960 0.020230 -0.003330 
#    y 0.020230 1.984500 0.008620 
#    z -0.003330 0.008620 1.990700 
# 
# From -- ./inp_files/179501.got.cif
#   From: 2010.05.17/outbox.cif.g08.bks.cpg/sg2_90_cif.got.tgz:179501.got - 2010.06.03 11:33:40.
