data_PCOD9009318
_publ_section_title
;
Structure prediction by ZEFSAII (Michael W. Deem and Ramdas Pophale) SiO2 
 PCOD9009318
Probable space group: P -1
;
_chemical_formula_sum "Si O2"
_cell_formula_units_Z 16
_cell_length_a 20.454934
_cell_length_b 10.216566
_cell_length_c 9.028514
_cell_angle_alpha 105.300408
_cell_angle_beta 110.146394
_cell_angle_gamma 136.798390
_cell_volume 725.544360
_symmetry_space_group_name_H-M "P -1"
_symmetry_group_IT_number 2
_symmetry_cell_setting 'triclinic'
loop_
_space_group_symop_operation_xyz
x,y,z
-x,-y,-z
loop_
_atom_site_type_symbol
_atom_site_label
_atom_site_fract_x
_atom_site_fract_y
_atom_site_fract_z
Si Si1 0.157240 0.187392 0.653409
Si Si2 0.713950 0.831385 0.735923
Si Si3 0.565665 0.854206 0.665809
Si Si4 0.549050 0.085162 0.892614
Si Si5 0.972458 0.223675 0.819704
Si Si6 0.687038 0.188621 0.587206
Si Si7 0.826437 0.036906 0.190669
Si Si8 0.873553 0.303840 0.562470
O O1 0.130046 0.069593 0.437331
O O2 0.145615 0.048579 0.722739
O O3 0.318253 0.561106 0.912422
O O4 0.000000 0.000000 0.500000
O O5 0.681734 0.934578 0.729049
O O6 0.581196 0.488657 0.474961
O O7 0.881139 0.093460 0.862920
O O8 0.701004 0.787643 0.888437
O O9 0.620368 0.066003 0.887799
O O10 0.546371 0.897970 0.507581
O O11 0.391756 0.839741 0.592081
O O12 0.500000 0.000000 0.000000
O O13 0.955105 0.328911 0.735524
O O14 0.155891 0.502024 0.091531
O O15 0.757682 0.193558 0.538361
O O16 0.775579 0.057049 0.279390
O O17 0.985378 0.368483 0.321588
#
# Coordination Sequence:
#
# PCOD9009318 Si02
#       8
#     2   2   2   2   2   2   2   2
#     4  11  26  47  69  97 142 185 230 279 333 415
#     4  11  22  42  69 103 134 172 229 291 336 401
#     4  11  25  43  68  97 141 180 224 283 346 400
#     4  12  29  48  67 100 142 187 228 274 349 414
#     4  11  22  44  73 107 132 176 233 286 337 406
#     4  12  23  43  71 102 138 181 225 281 348 407
#     4  10  22  39  66  99 137 173 232 276 341 395
#     4  10  21  39  68 104 136 176 227 285 339 403
#
# _framework density 22.052406999999999
#
# number of rings (size 3 to 8) (size 9 to 14) (size 15 to 20)
#    0.000    1.000    2.500    3.750    3.500    2.000 
#    0.000    3.750    0.000    0.000    0.000    0.000 
#    0.000    0.000    0.000    0.000    0.000    0.000 
#
# Total GULP energy -89289.273032 kJ/mol
# GULP energy per Si atom -5580.579564 kJ/mol
# Density = 2.200221 g / cm^3
# Si number density = 22.052407 Si / 1000 Ang^3
#
#
#
# Elastic Constant Matrix: (Units=GPa)
#
#
# Indices 1 2 3 4 5 6 
#
# 1 80.2751 36.0270 29.3687 0.3088 -24.2758 2.7048
# 2 36.0270 63.8741 35.4294 -1.1386 -15.2635 12.6350
# 3 29.3687 35.4294 92.5232 -6.9844 -14.5629 -6.8108
# 4 0.3088 -1.1386 -6.9844 41.5387 2.1264 -6.0140
# 5 -24.2758 -15.2635 -14.5629 2.1264 40.7859 0.6875
# 6 2.7048 12.6350 -6.8108 -6.0140 0.6875 30.7380
#
#
#
# Elastic Compliance Matrix: (Units=1/GPa)
#
#
# Indices 1 2 3 4 5 6 
#
# 1 0.019044 -0.008157 -0.001708 -0.000909 0.007704 0.000949
# 2 -0.008157 0.028724 -0.009163 -0.002836 0.003002 -0.013742
# 3 -0.001708 -0.009163 0.015866 0.003557 0.000897 0.008108
# 4 -0.000909 -0.002836 0.003557 0.025722 -0.001793 0.007107
# 5 0.007704 0.003002 0.000897 -0.001793 0.030688 -0.002750
# 6 0.000949 -0.013742 0.008108 0.007107 -0.002750 0.041347
#
#
# Mechanical properties :
#
#
# Convention : Reuss Voigt Hill
#
# Bulk Modulus (GPa) = 39.09580 48.70252 43.89916
# Shear Modulus (GPa) = 24.04171 31.66901 27.85536
#
# Velocity S-wave (km/s) = 3.30541 3.79368 3.55793
# Velocity P-wave (km/s) = 5.68636 6.42823 6.06864
#
# Compressibility (1/GPa) = 0.02557819
#
# Stress axis : x y z
#
# Youngs Moduli (GPa) = 52.50980 34.81358 63.02978
#
# Poissons Ratio (x) = 0.28398 0.10763
# Poissons Ratio (y) = 0.42833 0.57755
# Poissons Ratio (z) = 0.08967 0.31900
#
# Static dielectric constant tensor:
#      x y z
#    x 1.725100 0.029700 -0.007130 
#    y 0.029700 1.727810 0.009510 
#    z -0.007130 0.009510 1.930980 
# 
# From -- ./inp_files/343671.got.cif
#   From: 2010.05.17/outbox.cif.g08.bks.cpg/sg2_172_cif.got.tgz:343671.got - 2010.06.03 11:33:40.
