data_PCOD9009979
_publ_section_title
;
Structure prediction by ZEFSAII (Michael W. Deem and Ramdas Pophale) SiO2 
 PCOD9009979
Probable space group: P -1
;
_chemical_formula_sum "Si O2"
_cell_formula_units_Z 14
_cell_length_a 9.412811
_cell_length_b 11.069898
_cell_length_c 8.051552
_cell_angle_alpha 84.420829
_cell_angle_beta 132.995827
_cell_angle_gamma 103.896570
_cell_volume 593.036503
_symmetry_space_group_name_H-M "P -1"
_symmetry_group_IT_number 2
_symmetry_cell_setting 'triclinic'
loop_
_space_group_symop_operation_xyz
x,y,z
-x,-y,-z
loop_
_atom_site_type_symbol
_atom_site_label
_atom_site_fract_x
_atom_site_fract_y
_atom_site_fract_z
Si Si1 0.052484 0.185389 0.846707
Si Si2 0.435960 0.349740 0.982408
Si Si3 0.925822 0.557465 0.708351
Si Si4 0.797543 0.311255 0.806640
Si Si5 0.963716 0.060396 0.285822
Si Si6 0.825819 0.255182 0.346629
Si Si7 0.350261 0.270148 0.543184
O O1 0.925004 0.208168 0.899966
O O2 0.900121 0.195323 0.574301
O O3 0.248983 0.296469 0.960978
O O4 0.108788 0.053617 0.883076
O O5 0.379088 0.293212 0.760916
O O6 0.500000 0.500000 0.000000
O O7 0.620958 0.295357 0.194578
O O8 0.857327 0.410280 0.690339
O O9 0.741415 0.615750 0.608019
O O10 0.004154 0.622748 0.589503
O O11 0.114685 0.606208 0.973995
O O12 0.561590 0.265779 0.636384
O O13 0.178536 0.146033 0.394288
O O14 0.823901 0.154164 0.209670
O O15 0.000000 0.000000 0.500000
#
# Coordination Sequence:
#
# PCOD9009979 Si02
#       7
#     2   2   2   2   2   2   2
#     4  11  24  42  62  96 126 153 216 266 285 367
#     4  12  24  36  65  97 120 159 211 249 303 373
#     4  10  21  40  61  88 126 170 196 242 324 371
#     4  11  24  37  62  93 127 161 201 254 316 363
#     4   9  19  43  65  88 120 166 209 253 304 356
#     4  10  21  41  66  88 122 170 202 251 313 356
#     4  11  22  42  63  86 130 165 200 251 312 370
#
# _framework density 23.607316000000001
#
# number of rings (size 3 to 8) (size 9 to 14) (size 15 to 20)
#    0.000    1.429    5.714    1.286    4.000    3.429 
#    0.000    2.857    0.000    0.000    0.000    0.000 
#    0.000    0.000    0.000    0.000    0.000    0.000 
#
# Total GULP energy -78321.381823 kJ/mol
# GULP energy per Si atom -5594.384416 kJ/mol
# Density = 2.355358 g / cm^3
# Si number density = 23.607316 Si / 1000 Ang^3
#
#
#
# Elastic Constant Matrix: (Units=GPa)
#
#
# Indices 1 2 3 4 5 6 
#
# 1 107.4583 31.7948 23.5908 9.3234 39.7176 -13.5405
# 2 31.7948 111.3295 12.0031 7.7270 16.3395 -14.8748
# 3 23.5908 12.0031 75.9178 -3.3047 25.1369 0.0268
# 4 9.3234 7.7270 -3.3047 32.9890 -2.7090 1.3600
# 5 39.7176 16.3395 25.1369 -2.7090 50.9793 -4.0499
# 6 -13.5405 -14.8748 0.0268 1.3600 -4.0499 27.3158
#
#
#
# Elastic Compliance Matrix: (Units=1/GPa)
#
#
# Indices 1 2 3 4 5 6 
#
# 1 0.014995 -0.001564 -0.001174 -0.005065 -0.010452 0.005285
# 2 -0.001564 0.010557 -0.000788 -0.002435 -0.001519 0.004870
# 3 -0.001174 -0.000788 0.015984 0.001647 -0.006795 -0.002116
# 4 -0.005065 -0.002435 0.001647 0.033109 0.005301 -0.004701
# 5 -0.010452 -0.001519 -0.006795 0.005301 0.031754 -0.001557
# 6 0.005285 0.004870 -0.002116 -0.004701 -0.001557 0.041886
#
#
# Mechanical properties :
#
#
# Convention : Reuss Voigt Hill
#
# Bulk Modulus (GPa) = 28.99965 47.72033 38.35999
# Shear Modulus (GPa) = 29.97058 37.41127 33.69092
#
# Velocity S-wave (km/s) = 3.56693 3.98519 3.78185
# Velocity P-wave (km/s) = 5.41063 6.43690 5.94595
#
# Compressibility (1/GPa) = 0.03448318
#
# Stress axis : x y z
#
# Youngs Moduli (GPa) = 66.68935 94.72721 62.56367
#
# Poissons Ratio (x) = 0.14817 0.07345
# Poissons Ratio (y) = 0.10432 0.04929
# Poissons Ratio (z) = 0.07829 0.07463
#
# Static dielectric constant tensor:
#      x y z
#    x 1.937640 -0.017030 -0.070870 
#    y -0.017030 1.901550 -0.034690 
#    z -0.070870 -0.034690 1.938730 
# 
# From -- ./inp_files/178470.got.cif
#   From: 2010.05.17/outbox.cif.g08.bks.cpg/sg2_90_cif.got.tgz:178470.got - 2010.06.03 11:33:40.
