data_PCOD9009618
_publ_section_title
;
Structure prediction by ZEFSAII (Michael W. Deem and Ramdas Pophale) SiO2 
 PCOD9009618
Probable space group: P -1
;
_chemical_formula_sum "Si O2"
_cell_formula_units_Z 16
_cell_length_a 11.421875
_cell_length_b 15.776860
_cell_length_c 9.062998
_cell_angle_alpha 115.911652
_cell_angle_beta 70.661731
_cell_angle_gamma 52.799570
_cell_volume 650.936838
_symmetry_space_group_name_H-M "P -1"
_symmetry_group_IT_number 2
_symmetry_cell_setting 'triclinic'
loop_
_space_group_symop_operation_xyz
x,y,z
-x,-y,-z
loop_
_atom_site_type_symbol
_atom_site_label
_atom_site_fract_x
_atom_site_fract_y
_atom_site_fract_z
Si Si1 0.263886 0.707084 0.167719
Si Si2 0.802771 0.919144 0.701911
Si Si3 0.644872 0.865129 0.534153
Si Si4 0.207973 0.309754 0.949944
Si Si5 0.791048 0.304849 0.159046
Si Si6 0.270073 0.950365 0.862865
Si Si7 0.566392 0.686951 0.973915
Si Si8 0.758818 0.521278 0.461443
O O1 0.010987 0.834757 0.451044
O O2 0.500000 0.500000 0.000000
O O3 0.241271 0.692660 0.996621
O O4 0.338736 0.767284 0.179263
O O5 0.774844 0.830121 0.594150
O O6 0.855739 0.909240 0.840179
O O7 0.533330 0.156020 0.958680
O O8 0.844416 0.693873 0.195427
O O9 0.464559 0.895983 0.666402
O O10 0.451285 0.077421 0.716731
O O11 0.307888 0.349469 0.962695
O O12 0.962568 0.464633 0.281915
O O13 0.500000 0.500000 0.500000
O O14 0.878712 0.351707 0.197278
O O15 0.027873 0.083495 0.960300
O O16 0.465988 0.738840 0.683545
O O17 0.735700 0.523200 0.649132
#
# Coordination Sequence:
#
# PCOD9009618 Si02
#       8
#     2   2   2   2   2   2   2   2
#     4  12  26  44  68  99 134 185 228 282 351 405
#     4  10  23  43  67 101 137 180 232 283 341 414
#     4  10  21  41  70 101 138 183 227 286 352 398
#     4  10  21  39  71 100 140 180 229 289 343 407
#     4  12  25  47  71  98 143 179 227 291 337 409
#     4  11  25  43  73 103 137 185 228 285 348 411
#     4  10  23  42  66  99 139 182 229 286 342 409
#     4  11  23  44  69 107 134 183 233 280 351 407
#
# _framework density 24.579955999999999
#
# number of rings (size 3 to 8) (size 9 to 14) (size 15 to 20)
#    0.000    1.250    2.500    2.625    3.500    3.000 
#    2.250    0.000    0.000    0.000    0.000    0.000 
#    0.000    0.000    0.000    0.000    0.000    0.000 
#
# Total GULP energy -89412.592041 kJ/mol
# GULP energy per Si atom -5588.287003 kJ/mol
# Density = 2.452401 g / cm^3
# Si number density = 24.579956 Si / 1000 Ang^3
#
#
#
# Elastic Constant Matrix: (Units=GPa)
#
#
# Indices 1 2 3 4 5 6 
#
# 1 81.7716 7.6254 0.5212 -2.8349 -3.6483 -11.9661
# 2 7.6254 100.3474 21.9045 14.1031 15.0764 -34.7851
# 3 0.5212 21.9045 81.0260 -0.9748 -15.7945 -13.4915
# 4 -2.8349 14.1031 -0.9748 46.3059 12.0800 6.2325
# 5 -3.6483 15.0764 -15.7945 12.0800 34.6843 -5.1706
# 6 -11.9661 -34.7851 -13.4915 6.2325 -5.1706 36.2399
#
#
#
# Elastic Compliance Matrix: (Units=1/GPa)
#
#
# Indices 1 2 3 4 5 6 
#
# 1 0.013134 0.000378 0.001345 -0.000837 0.002981 0.005770
# 2 0.000378 0.018007 -0.002992 -0.006661 -0.004322 0.016825
# 3 0.001345 -0.002992 0.016004 -0.002062 0.010245 0.005347
# 4 -0.000837 -0.006661 -0.002062 0.027951 -0.009903 -0.013658
# 5 0.002981 -0.004322 0.010245 -0.009903 0.040347 0.008110
# 6 0.005770 0.016825 0.005347 -0.013658 0.008110 0.051145
#
#
# Mechanical properties :
#
#
# Convention : Reuss Voigt Hill
#
# Bulk Modulus (GPa) = 22.41726 35.91636 29.16681
# Shear Modulus (GPa) = 27.17465 38.98562 33.08014
#
# Velocity S-wave (km/s) = 3.32861 3.98687 3.67252
# Velocity P-wave (km/s) = 4.89007 5.98643 5.46581
#
# Compressibility (1/GPa) = 0.04460849
#
# Stress axis : x y z
#
# Youngs Moduli (GPa) = 76.14033 55.53274 62.48246
#
# Poissons Ratio (x) = -0.02100 -0.08404
# Poissons Ratio (y) = -0.02879 0.18693
# Poissons Ratio (z) = -0.10241 0.16614
#
# Static dielectric constant tensor:
#      x y z
#    x 1.920110 -0.311320 0.018680 
#    y -0.311320 0.456080 0.094740 
#    z 0.018680 0.094740 1.955340 
# 
# From -- ./inp_files/278248.got.cif
#   From: 2010.05.17/outbox.cif.g08.bks.cpg/sg2_140_cif.got.tgz:278248.got - 2010.06.03 11:33:40.
