data_PCOD9009124
_publ_section_title
;
Structure prediction by ZEFSAII (Michael W. Deem and Ramdas Pophale) SiO2 
 PCOD9009124
Probable space group: P -1
;
_chemical_formula_sum "Si O2"
_cell_formula_units_Z 16
_cell_length_a 23.424358
_cell_length_b 9.301013
_cell_length_c 5.755311
_cell_angle_alpha 57.209694
_cell_angle_beta 70.054849
_cell_angle_gamma 35.651176
_cell_volume 601.729784
_symmetry_space_group_name_H-M "P -1"
_symmetry_group_IT_number 2
_symmetry_cell_setting 'triclinic'
loop_
_space_group_symop_operation_xyz
x,y,z
-x,-y,-z
loop_
_atom_site_type_symbol
_atom_site_label
_atom_site_fract_x
_atom_site_fract_y
_atom_site_fract_z
Si Si1 0.059111 0.031792 0.789873
Si Si2 0.538931 0.485262 0.205102
Si Si3 0.094759 0.199973 0.024119
Si Si4 0.717911 0.016272 0.640880
Si Si5 0.273939 0.648909 0.421856
Si Si6 0.149128 0.398997 0.549595
Si Si7 0.612692 0.922199 0.018005
Si Si8 0.737908 0.527818 0.817973
O O1 0.069447 0.156579 0.861929
O O2 0.968254 0.296669 0.519905
O O3 0.175268 0.704055 0.908201
O O4 0.000000 0.000000 0.000000
O O5 0.500000 0.500000 0.500000
O O6 0.653298 0.178735 0.349889
O O7 0.496813 0.773074 0.025090
O O8 0.500000 0.500000 0.000000
O O9 0.166844 0.200460 0.869203
O O10 0.000000 0.500000 0.000000
O O11 0.152435 0.941747 0.343400
O O12 0.694816 0.247179 0.591811
O O13 0.825867 0.728208 0.635500
O O14 0.679647 0.945503 0.913916
O O15 0.281761 0.602311 0.176015
O O16 0.340719 0.343006 0.685031
O O17 0.212127 0.434396 0.441344
O O18 0.634470 0.825488 0.804937
#
# Coordination Sequence:
#
# PCOD9009124 Si02
#       8
#     2   2   2   2   2   2   2   2
#     4   9  19  39  58  88 126 175 227 283 343 411
#     4  10  24  47  77 108 143 190 239 297 365 432
#     4  11  24  38  60  97 135 180 237 283 347 425
#     4  10  24  45  69 104 131 186 235 288 358 425
#     4  11  25  40  68 102 136 180 235 287 355 420
#     4  10  21  39  67  87 137 184 226 293 351 419
#     4  10  24  44  72  95 143 180 229 296 350 421
#     4   9  22  42  64  99 134 181 233 288 352 418
#
# _framework density 26.590009999999999
#
# number of rings (size 3 to 8) (size 9 to 14) (size 15 to 20)
#    0.000    2.000    0.000    1.125   12.250    1.500 
#    0.000    2.500    0.000    0.000    0.000    0.000 
#    0.000    0.000    0.000    0.000    0.000    0.000 
#
# Total GULP energy -89194.652815 kJ/mol
# GULP energy per Si atom -5574.665801 kJ/mol
# Density = 2.652949 g / cm^3
# Si number density = 26.590010 Si / 1000 Ang^3
#
#
#
# Elastic Constant Matrix: (Units=GPa)
#
#
# Indices 1 2 3 4 5 6 
#
# 1 69.9058 15.4725 19.6464 3.6429 -0.5667 22.7825
# 2 15.4725 124.7245 1.1069 -30.9125 -11.6240 6.3614
# 3 19.6464 1.1069 128.1537 -34.2364 -16.8144 2.4401
# 4 3.6429 -30.9125 -34.2364 41.5128 5.0889 -4.7020
# 5 -0.5667 -11.6240 -16.8144 5.0889 33.0415 -2.6739
# 6 22.7825 6.3614 2.4401 -4.7020 -2.6739 46.3026
#
#
#
# Elastic Compliance Matrix: (Units=1/GPa)
#
#
# Indices 1 2 3 4 5 6 
#
# 1 0.021713 -0.005553 -0.006953 -0.012526 -0.004085 -0.011062
# 2 -0.005553 0.012310 0.004913 0.013384 0.004871 0.002422
# 3 -0.006953 0.004913 0.013667 0.015185 0.006545 0.003946
# 4 -0.012526 0.013384 0.015185 0.047986 0.005536 0.008717
# 5 -0.004085 0.004871 0.006545 0.005536 0.034674 0.003561
# 6 -0.011062 0.002422 0.003946 0.008717 0.003561 0.027590
#
#
# Mechanical properties :
#
#
# Convention : Reuss Voigt Hill
#
# Bulk Modulus (GPa) = 30.76390 43.91506 37.33948
# Shear Modulus (GPa) = 27.17981 43.27529 35.22755
#
# Velocity S-wave (km/s) = 3.20063 4.03861 3.64379
# Velocity P-wave (km/s) = 5.02529 6.18859 5.63703
#
# Compressibility (1/GPa) = 0.03250563
#
# Stress axis : x y z
#
# Youngs Moduli (GPa) = 46.05577 81.23214 73.17060
#
# Poissons Ratio (x) = 0.45108 0.50872
# Poissons Ratio (y) = 0.25575 -0.35951
# Poissons Ratio (z) = 0.32020 -0.39912
#
# Static dielectric constant tensor:
#      x y z
#    x 1.967990 0.312360 -0.183420 
#    y 0.312360 1.531180 0.360820 
#    z -0.183420 0.360820 2.011780 
# 
# From -- ./inp_files/126366.got.cif
#   From: 2010.05.17/outbox.cif.g08.bks.cpg/sg2_64_cif.got.tgz:126366.got - 2010.06.03 11:33:40.
