data_PCOD9009292
_publ_section_title
;
Structure prediction by ZEFSAII (Michael W. Deem and Ramdas Pophale) SiO2 
 PCOD9009292
Probable space group: P -1
;
_chemical_formula_sum "Si O2"
_cell_formula_units_Z 15
_cell_length_a 13.414506
_cell_length_b 9.459945
_cell_length_c 8.949020
_cell_angle_alpha 131.869870
_cell_angle_beta 97.562381
_cell_angle_gamma 55.998963
_cell_volume 645.146049
_symmetry_space_group_name_H-M "P -1"
_symmetry_group_IT_number 2
_symmetry_cell_setting 'triclinic'
loop_
_space_group_symop_operation_xyz
x,y,z
-x,-y,-z
loop_
_atom_site_type_symbol
_atom_site_label
_atom_site_fract_x
_atom_site_fract_y
_atom_site_fract_z
Si Si1 0.500000 0.000000 0.000000
Si Si2 0.083271 0.069738 0.130551
Si Si3 0.006704 0.824860 0.493614
Si Si4 0.762657 0.775257 0.140643
Si Si5 0.985795 0.433318 0.132185
Si Si6 0.700581 0.531805 0.727162
Si Si7 0.625684 0.208433 0.987390
Si Si8 0.619643 0.243338 0.654924
O O1 0.419524 0.274915 0.264455
O O2 0.571266 0.082682 0.962895
O O3 0.232856 0.910705 0.004558
O O4 0.077639 0.047569 0.288672
O O5 0.005089 0.341174 0.238125
O O6 0.000000 0.000000 0.000000
O O7 0.158354 0.619269 0.422324
O O8 0.963302 0.684029 0.310420
O O9 0.000000 0.000000 0.500000
O O10 0.857838 0.520280 0.077632
O O11 0.671782 0.013355 0.394803
O O12 0.680395 0.744454 0.984208
O O13 0.873290 0.758230 0.056407
O O14 0.694134 0.346200 0.687428
O O15 0.528808 0.502169 0.205983
O O16 0.637208 0.172604 0.783557
#
# Coordination Sequence:
#
# PCOD9009292 Si02
#       8
#     1   2   2   2   2   2   2   2
#     4  10  22  46  66  92 132 180 224 294 336 404
#     4  12  27  41  68 107 146 176 228 292 345 417
#     4  11  23  42  71  95 136 188 223 278 352 412
#     4  10  21  39  68 100 133 178 231 282 344 415
#     4  10  23  39  63  97 142 177 229 279 343 417
#     4  10  22  40  67  96 132 174 230 271 351 408
#     4  10  22  45  68  97 134 183 229 283 346 411
#     4  10  22  42  73  93 133 180 233 284 335 418
#
# _framework density 23.25055
#
# number of rings (size 3 to 8) (size 9 to 14) (size 15 to 20)
#    0.000    1.600    0.000    4.400    9.333    1.067 
#    2.400    8.000    0.000    0.000    0.000    0.000 
#    0.000    0.000    0.000    0.000    0.000    0.000 
#
# Total GULP energy -83521.543869 kJ/mol
# GULP energy per Si atom -5568.102925 kJ/mol
# Density = 2.319763 g / cm^3
# Si number density = 23.250550 Si / 1000 Ang^3
#
#
#
# Elastic Constant Matrix: (Units=GPa)
#
#
# Indices 1 2 3 4 5 6 
#
# 1 95.3371 37.9502 33.3489 0.7482 -13.8493 11.8640
# 2 37.9502 116.3584 25.3636 0.5764 -2.0794 15.2100
# 3 33.3489 25.3636 118.5457 3.1130 -0.8124 3.2832
# 4 0.7482 0.5764 3.1130 22.7481 -0.0863 -1.6208
# 5 -13.8493 -2.0794 -0.8124 -0.0863 27.4177 8.0556
# 6 11.8640 15.2100 3.2832 -1.6208 8.0556 25.1680
#
#
#
# Elastic Compliance Matrix: (Units=1/GPa)
#
#
# Indices 1 2 3 4 5 6 
#
# 1 0.015299 -0.003021 -0.003352 -0.000509 0.009781 -0.008112
# 2 -0.003021 0.010522 -0.001248 -0.000352 0.000709 -0.005022
# 3 -0.003352 -0.001248 0.009614 -0.001064 -0.001991 0.001649
# 4 -0.000509 -0.000352 -0.001064 0.044402 -0.001313 0.003871
# 5 0.009781 0.000709 -0.001991 -0.001313 0.047279 -0.019997
# 6 -0.008112 -0.005022 0.001649 0.003871 -0.019997 0.053026
#
#
# Mechanical properties :
#
#
# Convention : Reuss Voigt Hill
#
# Bulk Modulus (GPa) = 49.52491 58.17406 53.84949
# Shear Modulus (GPa) = 24.73813 30.63866 27.68840
#
# Velocity S-wave (km/s) = 3.26541 3.63404 3.45464
# Velocity P-wave (km/s) = 5.96355 6.53323 6.25488
#
# Compressibility (1/GPa) = 0.02019186
#
# Stress axis : x y z
#
# Youngs Moduli (GPa) = 65.36498 95.03491 104.01157
#
# Poissons Ratio (x) = 0.28712 0.34868
# Poissons Ratio (y) = 0.19748 0.12983
# Poissons Ratio (z) = 0.21912 0.11863
#
# Static dielectric constant tensor:
#      x y z
#    x 1.779550 0.148660 0.046310 
#    y 0.148660 1.536890 0.001180 
#    z 0.046310 0.001180 1.855890 
# 
# From -- ./inp_files/299486.got.cif
#   From: 2010.05.17/outbox.cif.g08.bks.cpg/sg2_150_cif.got.tgz:299486.got - 2010.06.03 11:33:40.
