data_PCOD9009241
_publ_section_title
;
Structure prediction by ZEFSAII (Michael W. Deem and Ramdas Pophale) SiO2 
 PCOD9009241
Probable space group: P -1
;
_chemical_formula_sum "Si O2"
_cell_formula_units_Z 16
_cell_length_a 8.904620
_cell_length_b 11.749562
_cell_length_c 12.711361
_cell_angle_alpha 145.713947
_cell_angle_beta 81.282130
_cell_angle_gamma 89.794459
_cell_volume 720.437799
_symmetry_space_group_name_H-M "P -1"
_symmetry_group_IT_number 2
_symmetry_cell_setting 'triclinic'
loop_
_space_group_symop_operation_xyz
x,y,z
-x,-y,-z
loop_
_atom_site_type_symbol
_atom_site_label
_atom_site_fract_x
_atom_site_fract_y
_atom_site_fract_z
Si Si1 0.906023 0.454340 0.074006
Si Si2 0.159371 0.293951 0.428524
Si Si3 0.854853 0.476979 0.715925
Si Si4 0.668855 0.361163 0.350277
Si Si5 0.697094 0.095800 0.467495
Si Si6 0.151515 0.869258 0.030846
Si Si7 0.795994 0.922363 0.103687
Si Si8 0.672009 0.827915 0.457988
O O1 0.742759 0.618610 0.226423
O O2 0.019655 0.499207 0.189207
O O3 0.866517 0.232936 0.931602
O O4 0.000000 0.500000 0.000000
O O5 0.221306 0.482064 0.518580
O O6 0.252140 0.211932 0.464857
O O7 0.976486 0.377229 0.536064
O O8 0.187590 0.092169 0.199889
O O9 0.754325 0.309201 0.620466
O O10 0.753159 0.714135 0.904384
O O11 0.500000 0.500000 0.500000
O O12 0.699732 0.144297 0.243019
O O13 0.720387 0.289266 0.170982
O O14 0.783425 0.943704 0.248739
O O15 0.514060 0.128927 0.485765
O O16 0.720784 0.000401 0.509668
O O17 0.975018 0.899123 0.029964
#
# Coordination Sequence:
#
# PCOD9009241 Si02
#       8
#     2   2   2   2   2   2   2   2
#     4  10  21  39  67  97 136 172 223 272 326 393
#     4  11  23  43  68 100 128 177 225 273 340 395
#     4  10  22  40  68 100 127 172 228 267 330 399
#     4  12  26  46  67  96 140 175 220 285 340 391
#     4  11  23  42  65  99 135 182 219 269 346 388
#     4  11  23  42  68 101 130 174 232 270 333 399
#     4  11  23  43  69  96 135 171 229 283 323 397
#     4  10  22  42  63  96 148 170 214 283 327 406
#
# _framework density 22.208718000000001
#
# number of rings (size 3 to 8) (size 9 to 14) (size 15 to 20)
#    0.000    1.250    5.000    2.625    1.750    3.000 
#    4.500    1.875    0.000    0.000    0.000    0.000 
#    0.000    0.000    0.000    0.000    0.000    0.000 
#
# Total GULP energy -89311.621361 kJ/mol
# GULP energy per Si atom -5581.976335 kJ/mol
# Density = 2.215817 g / cm^3
# Si number density = 22.208718 Si / 1000 Ang^3
#
#
#
# Elastic Constant Matrix: (Units=GPa)
#
#
# Indices 1 2 3 4 5 6 
#
# 1 48.4892 54.5270 43.8243 7.9833 -8.3716 10.6794
# 2 54.5270 94.6471 37.1685 14.6509 -11.9175 6.9208
# 3 43.8243 37.1685 151.4479 25.5676 -8.7011 20.4843
# 4 7.9833 14.6509 25.5676 44.7642 12.4492 3.9996
# 5 -8.3716 -11.9175 -8.7011 12.4492 42.0098 4.4497
# 6 10.6794 6.9208 20.4843 3.9996 4.4497 34.4486
#
#
#
# Elastic Compliance Matrix: (Units=1/GPa)
#
#
# Indices 1 2 3 4 5 6 
#
# 1 0.079373 -0.041092 -0.012805 0.007373 0.000344 -0.009637
# 2 -0.041092 0.033934 0.004694 -0.007997 0.004410 0.003489
# 3 -0.012805 0.004694 0.010763 -0.005990 0.003110 -0.003080
# 4 0.007373 -0.007997 -0.005990 0.030059 -0.011034 0.000818
# 5 0.000344 0.004410 0.003110 -0.011034 0.029608 -0.005386
# 6 -0.009637 0.003489 -0.003080 0.000818 -0.005386 0.033747
#
#
# Mechanical properties :
#
#
# Convention : Reuss Voigt Hill
#
# Bulk Modulus (GPa) = 38.96448 62.84711 50.90579
# Shear Modulus (GPa) = 15.41096 34.84880 25.12988
#
# Velocity S-wave (km/s) = 2.63708 3.96555 3.36748
# Velocity P-wave (km/s) = 5.18219 7.02334 6.17180
#
# Compressibility (1/GPa) = 0.02566440
#
# Stress axis : x y z
#
# Youngs Moduli (GPa) = 12.59869 29.46904 92.91471
#
# Poissons Ratio (x) = 1.21095 1.18974
# Poissons Ratio (y) = 0.51771 -0.43618
# Poissons Ratio (z) = 0.16132 -0.13834
#
# Static dielectric constant tensor:
#      x y z
#    x 1.796870 -0.041410 -0.016730 
#    y -0.041410 1.923550 0.001070 
#    z -0.016730 0.001070 1.835130 
# 
# From -- ./inp_files/217167.got.cif
#   From: 2010.05.17/outbox.cif.g08.bks.cpg/sg2_109_cif.got.tgz:217167.got - 2010.06.03 11:33:40.
