data_PCOD9009941
_publ_section_title
;
Structure prediction by ZEFSAII (Michael W. Deem and Ramdas Pophale) SiO2 
 PCOD9009941
Probable space group: P -1
;
_chemical_formula_sum "Si O2"
_cell_formula_units_Z 16
_cell_length_a 13.122760
_cell_length_b 11.027625
_cell_length_c 15.506531
_cell_angle_alpha 61.792861
_cell_angle_beta 153.469788
_cell_angle_gamma 103.396843
_cell_volume 772.095341
_symmetry_space_group_name_H-M "P -1"
_symmetry_group_IT_number 2
_symmetry_cell_setting 'triclinic'
loop_
_space_group_symop_operation_xyz
x,y,z
-x,-y,-z
loop_
_atom_site_type_symbol
_atom_site_label
_atom_site_fract_x
_atom_site_fract_y
_atom_site_fract_z
Si Si1 0.019673 0.505146 0.297677
Si Si2 0.794993 0.046071 0.405963
Si Si3 0.928264 0.740745 0.719786
Si Si4 0.432164 0.920380 0.394012
Si Si5 0.495341 0.417606 0.801801
Si Si6 0.325335 0.321642 0.874780
Si Si7 0.985602 0.839998 0.135658
Si Si8 0.880778 0.244398 0.550698
O O1 0.028284 0.404910 0.257224
O O2 0.282164 0.407981 0.583700
O O3 0.012109 0.667233 0.209835
O O4 0.783264 0.554397 0.170211
O O5 0.837760 0.154975 0.470642
O O6 0.835279 0.891928 0.537188
O O7 0.513517 0.153319 0.115511
O O8 0.000000 0.000000 0.500000
O O9 0.707681 0.790518 0.607767
O O10 0.222632 0.683615 0.992249
O O11 0.240903 0.849536 0.295708
O O12 0.500000 0.000000 0.500000
O O13 0.263175 0.046502 0.148713
O O14 0.477916 0.355476 0.904304
O O15 0.386820 0.605276 0.669495
O O16 0.071150 0.316392 0.647631
O O17 0.983640 0.870010 0.226836
#
# Coordination Sequence:
#
# PCOD9009941 Si02
#       8
#     2   2   2   2   2   2   2   2
#     4  10  23  41  65  88 129 165 212 256 305 369
#     4  12  25  36  57  94 132 168 211 256 304 367
#     4  12  25  39  60  98 126 161 208 267 312 364
#     4  11  24  44  73  93 124 160 206 260 326 380
#     4  10  22  38  62  91 124 169 213 255 303 366
#     4  10  21  40  61  85 124 179 212 249 306 364
#     4   9  22  46  68  94 116 169 209 254 318 379
#     4  10  22  41  64  85 128 169 210 253 308 374
#
# _framework density 20.722829999999998
#
# number of rings (size 3 to 8) (size 9 to 14) (size 15 to 20)
#    0.000    1.750    1.250    4.500    3.500    8.000 
#    0.000    4.375    0.000    0.000    0.000    0.000 
#    0.000    0.000    0.000    0.000    0.000    0.000 
#
# Total GULP energy -89365.160948 kJ/mol
# GULP energy per Si atom -5585.322559 kJ/mol
# Density = 2.067566 g / cm^3
# Si number density = 20.722830 Si / 1000 Ang^3
#
#
#
# Elastic Constant Matrix: (Units=GPa)
#
#
# Indices 1 2 3 4 5 6 
#
# 1 62.5306 -8.6512 21.8127 3.4080 16.2722 10.2480
# 2 -8.6512 22.8910 -9.3083 -3.2477 1.8279 10.8395
# 3 21.8127 -9.3083 118.7491 3.0900 17.1429 1.8888
# 4 3.4080 -3.2477 3.0900 13.5399 2.7999 7.0814
# 5 16.2722 1.8279 17.1429 2.7999 43.3017 -5.0422
# 6 10.2480 10.8395 1.8888 7.0814 -5.0422 3.8499
#
#
#
# Elastic Compliance Matrix: (Units=1/GPa)
#
#
# Indices 1 2 3 4 5 6 
#
# 1 0.013085 -0.008896 -0.003062 -0.016141 0.000243 0.021724
# 2 -0.008896 0.010798 0.000781 -0.025549 0.010472 0.053602
# 3 -0.003062 0.000781 0.009346 -0.002588 -0.002008 0.003496
# 4 -0.016141 -0.025549 -0.002588 0.043865 0.011167 0.050108
# 5 0.000243 0.010472 -0.002008 0.011167 0.019879 -0.023650
# 6 0.021724 0.053602 0.003496 0.050108 -0.023650 -0.073856
#
#
# Mechanical properties :
#
#
# Convention : Reuss Voigt Hill
#
# Bulk Modulus (GPa) = 91.93924 23.54188 57.74056
# Shear Modulus (GPa) = 101.84003 25.49282 63.66643
#
# Velocity S-wave (km/s) = 7.01787 3.51120 5.54883
# Velocity P-wave (km/s) = 10.49428 5.27475 8.30521
#
# Compressibility (1/GPa) = 0.01087675
#
# Stress axis : x y z
#
# Youngs Moduli (GPa) = 76.42057 92.61088 106.99364
#
# Poissons Ratio (x) = 0.82385 0.32758
# Poissons Ratio (y) = 0.67982 -0.08356
# Poissons Ratio (z) = 0.23397 -0.07232
#
# Static dielectric constant tensor:
#      x y z
#    x 1.753580 0.020990 -0.002310 
#    y 0.020990 1.738170 0.018550 
#    z -0.002310 0.018550 1.780140 
# 
# From -- ./inp_files/519644.got.cif
#   From: 2010.05.17/outbox.cif.g08.bks.cpg/sg2_260_cif.got.tgz:519644.got - 2010.06.03 11:33:40.
