data_PCOD9009052
_publ_section_title
;
Structure prediction by ZEFSAII (Michael W. Deem and Ramdas Pophale) SiO2 
 PCOD9009052
Probable space group: P -1
;
_chemical_formula_sum "Si O2"
_cell_formula_units_Z 15
_cell_length_a 7.127676
_cell_length_b 10.345916
_cell_length_c 13.331102
_cell_angle_alpha 57.961410
_cell_angle_beta 85.033687
_cell_angle_gamma 113.688283
_cell_volume 703.955871
_symmetry_space_group_name_H-M "P -1"
_symmetry_group_IT_number 2
_symmetry_cell_setting 'triclinic'
loop_
_space_group_symop_operation_xyz
x,y,z
-x,-y,-z
loop_
_atom_site_type_symbol
_atom_site_label
_atom_site_fract_x
_atom_site_fract_y
_atom_site_fract_z
Si Si1 0.452160 0.951434 0.177019
Si Si2 0.500000 0.500000 0.000000
Si Si3 0.289007 0.466746 0.814768
Si Si4 0.573833 0.408358 0.675934
Si Si5 0.550792 0.844764 0.563123
Si Si6 0.772804 0.760551 0.413986
Si Si7 0.746220 0.902094 0.738851
Si Si8 0.862182 0.095710 0.966530
O O1 0.362410 0.740401 0.268725
O O2 0.309060 0.976109 0.088348
O O3 0.421494 0.036654 0.242401
O O4 0.705798 0.047685 0.090224
O O5 0.334607 0.486521 0.922333
O O6 0.675194 0.715336 0.871789
O O7 0.474229 0.427178 0.777444
O O8 0.343103 0.650592 0.684888
O O9 0.044110 0.305786 0.866718
O O10 0.763135 0.601660 0.545910
O O11 0.363762 0.332462 0.641675
O O12 0.637710 0.822999 0.461791
O O13 0.727296 0.882591 0.627568
O O14 0.500000 0.000000 0.500000
O O15 0.012516 0.931300 0.312244
O O16 0.000000 0.000000 0.000000
#
# Coordination Sequence:
#
# PCOD9009052 Si02
#       8
#     2   1   2   2   2   2   2   2
#     4  11  24  37  66 101 125 163 220 258 317 402
#     4  10  24  40  62  88 130 174 214 256 304 394
#     4  10  21  41  64  90 132 168 207 269 325 366
#     4  10  21  39  66  99 125 157 219 269 320 392
#     4  10  22  42  61  90 127 168 224 263 303 394
#     4  10  22  40  67  92 127 173 205 271 336 359
#     4  11  23  41  61  92 128 171 215 259 319 379
#     4  11  22  40  64  95 132 168 202 267 329 374
#
# _framework density 21.308153999999998
#
# number of rings (size 3 to 8) (size 9 to 14) (size 15 to 20)
#    0.000    1.600    1.333    2.800    3.733    1.600 
#    2.400    1.333    0.000    0.000    0.000    0.000 
#    0.000    0.000    0.000    0.000    0.000    0.000 
#
# Total GULP energy -83571.800542 kJ/mol
# GULP energy per Si atom -5571.453369 kJ/mol
# Density = 2.125966 g / cm^3
# Si number density = 21.308154 Si / 1000 Ang^3
#
#
#
# Elastic Constant Matrix: (Units=GPa)
#
#
# Indices 1 2 3 4 5 6 
#
# 1 63.9975 14.0144 43.6225 -18.4253 0.5247 -2.1682
# 2 14.0144 62.1037 22.1366 -29.1091 -15.1663 4.0049
# 3 43.6225 22.1366 94.8656 -43.4628 -4.5831 -5.2254
# 4 -18.4253 -29.1091 -43.4628 40.2890 0.6633 1.4196
# 5 0.5247 -15.1663 -4.5831 0.6633 21.1449 -11.6582
# 6 -2.1682 4.0049 -5.2254 1.4196 -11.6582 30.8514
#
#
#
# Elastic Compliance Matrix: (Units=1/GPa)
#
#
# Indices 1 2 3 4 5 6 
#
# 1 0.024321 -0.006932 -0.014453 -0.009193 -0.010229 -0.003281
# 2 -0.006932 0.039065 0.014382 0.039715 0.034528 0.008097
# 3 -0.014453 0.014382 0.033227 0.038946 0.021701 0.009153
# 4 -0.009193 0.039715 0.038946 0.090221 0.041021 0.012145
# 5 -0.010229 0.034528 0.021701 0.041021 0.093282 0.031836
# 6 -0.003281 0.008097 0.009153 0.012145 0.031836 0.044154
#
#
# Mechanical properties :
#
#
# Convention : Reuss Voigt Hill
#
# Bulk Modulus (GPa) = 12.10555 42.27932 27.19243
# Shear Modulus (GPa) = 13.66825 27.86995 20.76910
#
# Velocity S-wave (km/s) = 2.53545 3.62048 3.12541
# Velocity P-wave (km/s) = 3.77688 6.11245 5.08069
#
# Compressibility (1/GPa) = 0.08260674
#
# Stress axis : x y z
#
# Youngs Moduli (GPa) = 41.11682 25.59825 30.09620
#
# Poissons Ratio (x) = 0.17745 0.43497
# Poissons Ratio (y) = 0.28502 -0.43283
# Poissons Ratio (z) = 0.59425 -0.36814
#
# Static dielectric constant tensor:
#      x y z
#    x 1.744950 -0.023740 -0.002750 
#    y -0.023740 1.800030 0.016120 
#    z -0.002750 0.016120 1.799940 
# 
# From -- ./inp_files/482030.got.cif
#   From: 2010.05.17/outbox.cif.g08.bks.cpg/sg2_242_cif.got.tgz:482030.got - 2010.06.03 11:33:40.
