data_PCOD9009602
_publ_section_title
;
Structure prediction by ZEFSAII (Michael W. Deem and Ramdas Pophale) SiO2 
 PCOD9009602
Probable space group: P -1
;
_chemical_formula_sum "Si O2"
_cell_formula_units_Z 16
_cell_length_a 7.966406
_cell_length_b 19.642091
_cell_length_c 11.829756
_cell_angle_alpha 40.517621
_cell_angle_beta 107.043141
_cell_angle_gamma 135.562053
_cell_volume 703.780931
_symmetry_space_group_name_H-M "P -1"
_symmetry_group_IT_number 2
_symmetry_cell_setting 'triclinic'
loop_
_space_group_symop_operation_xyz
x,y,z
-x,-y,-z
loop_
_atom_site_type_symbol
_atom_site_label
_atom_site_fract_x
_atom_site_fract_y
_atom_site_fract_z
Si Si1 0.426801 0.614969 0.149096
Si Si2 0.323520 0.690636 0.830861
Si Si3 0.871250 0.678048 0.028929
Si Si4 0.171128 0.184564 0.338582
Si Si5 0.489007 0.305804 0.455585
Si Si6 0.453752 0.932092 0.952338
Si Si7 0.766446 0.234244 0.491826
Si Si8 0.668696 0.807146 0.180695
O O1 0.615847 0.623857 0.103085
O O2 0.580015 0.695228 0.198350
O O3 0.099455 0.421381 0.334943
O O4 0.422475 0.722703 0.939626
O O5 0.511601 0.694274 0.795830
O O6 0.332142 0.797484 0.618541
O O7 0.000000 0.500000 0.000000
O O8 0.755185 0.505708 0.223225
O O9 0.927834 0.758169 0.817215
O O10 0.151045 0.820678 0.980111
O O11 0.212951 0.210190 0.447902
O O12 0.000000 0.000000 0.500000
O O13 0.578894 0.230810 0.531017
O O14 0.413366 0.278021 0.606762
O O15 0.693385 0.089764 0.715585
O O16 0.476434 0.819381 0.110734
O O17 0.500000 0.000000 0.000000
O O18 0.000000 0.000000 0.000000
#
# Coordination Sequence:
#
# PCOD9009602 Si02
#       8
#     2   2   2   2   2   2   2   2
#     4  10  23  41  66  95 135 173 214 265 330 389
#     4   8  17  36  62  91 125 164 205 258 318 377
#     4  11  24  42  69 101 130 174 218 268 328 389
#     4  10  21  39  70  97 128 167 219 272 323 382
#     4  11  24  42  68  96 133 174 222 268 325 392
#     4  12  25  43  67  94 131 170 226 269 326 389
#     4  10  21  42  68  96 127 173 221 271 325 381
#     4  12  28  44  64  94 135 175 222 271 327 393
#
# _framework density 22.734345999999999
#
# number of rings (size 3 to 8) (size 9 to 14) (size 15 to 20)
#    0.000    1.500    1.250    3.375    7.000    1.500 
#    0.000    1.875    0.000    0.000    0.000    0.000 
#    0.000    0.000    0.000    0.000    0.000    0.000 
#
# Total GULP energy -89431.892525 kJ/mol
# GULP energy per Si atom -5589.493283 kJ/mol
# Density = 2.268260 g / cm^3
# Si number density = 22.734346 Si / 1000 Ang^3
#
#
#
# Elastic Constant Matrix: (Units=GPa)
#
#
# Indices 1 2 3 4 5 6 
#
# 1 26.3296 2.6394 -4.0800 1.8937 -6.7356 10.8180
# 2 2.6394 144.5201 56.3186 25.5237 -5.7139 12.0677
# 3 -4.0800 56.3186 118.1431 22.5697 6.7723 2.7241
# 4 1.8937 25.5237 22.5697 42.4617 4.7238 -2.0515
# 5 -6.7356 -5.7139 6.7723 4.7238 28.9295 -3.1695
# 6 10.8180 12.0677 2.7241 -2.0515 -3.1695 32.6678
#
#
#
# Elastic Compliance Matrix: (Units=1/GPa)
#
#
# Indices 1 2 3 4 5 6 
#
# 1 0.047621 0.001062 0.002016 -0.005710 0.010036 -0.015715
# 2 0.001062 0.009575 -0.003814 -0.004319 0.003351 -0.003517
# 3 0.002016 -0.003814 0.011173 -0.003501 -0.002398 -0.000643
# 4 -0.005710 -0.004319 -0.003501 0.029126 -0.005564 0.005067
# 5 0.010036 0.003351 -0.002398 -0.005564 0.038933 -0.000933
# 6 -0.015715 -0.003517 -0.000643 0.005067 -0.000933 0.037396
#
#
# Mechanical properties :
#
#
# Convention : Reuss Voigt Hill
#
# Bulk Modulus (GPa) = 14.94827 44.30545 29.62686
# Shear Modulus (GPa) = 25.30450 36.41944 30.86197
#
# Velocity S-wave (km/s) = 3.33986 4.00679 3.68843
# Velocity P-wave (km/s) = 4.63275 6.39816 5.58564
#
# Compressibility (1/GPa) = 0.06689739
#
# Stress axis : x y z
#
# Youngs Moduli (GPa) = 20.99928 104.43753 89.50167
#
# Poissons Ratio (x) = -0.11091 -0.18044
# Poissons Ratio (y) = -0.02230 0.34134
# Poissons Ratio (z) = -0.04234 0.39830
#
# Static dielectric constant tensor:
#      x y z
#    x 1.852450 -0.022470 0.006570 
#    y -0.022470 1.899340 0.041220 
#    z 0.006570 0.041220 1.873220 
# 
# From -- ./inp_files/225729.got.cif
#   From: 2010.05.17/outbox.cif.g08.bks.cpg/sg2_113_cif.got.tgz:225729.got - 2010.06.03 11:33:40.
