data_PCOD9009698
_publ_section_title
;
Structure prediction by ZEFSAII (Michael W. Deem and Ramdas Pophale) SiO2 
 PCOD9009698
Probable space group: P -1
;
_chemical_formula_sum "Si O2"
_cell_formula_units_Z 16
_cell_length_a 14.528531
_cell_length_b 9.182623
_cell_length_c 8.786746
_cell_angle_alpha 108.700039
_cell_angle_beta 41.421552
_cell_angle_gamma 120.037878
_cell_volume 668.312555
_symmetry_space_group_name_H-M "P -1"
_symmetry_group_IT_number 2
_symmetry_cell_setting 'triclinic'
loop_
_space_group_symop_operation_xyz
x,y,z
-x,-y,-z
loop_
_atom_site_type_symbol
_atom_site_label
_atom_site_fract_x
_atom_site_fract_y
_atom_site_fract_z
Si Si1 0.088881 0.903515 0.569490
Si Si2 0.840121 0.378927 0.081405
Si Si3 0.705995 0.583748 0.725017
Si Si4 0.988937 0.180963 0.714918
Si Si5 0.877225 0.540029 0.761496
Si Si6 0.562986 0.753913 0.148633
Si Si7 0.508211 0.323435 0.473922
Si Si8 0.434111 0.003061 0.250328
O O1 0.077790 0.877427 0.390808
O O2 0.956960 0.740292 0.751887
O O3 0.050827 0.063606 0.688389
O O4 0.251091 0.923197 0.435637
O O5 0.678017 0.357667 0.337272
O O6 0.840909 0.445619 0.931947
O O7 0.000000 0.500000 0.000000
O O8 0.859484 0.205934 0.979912
O O9 0.858186 0.650550 0.457141
O O10 0.735206 0.497892 0.812222
O O11 0.562593 0.441111 0.776158
O O12 0.682657 0.747321 0.871072
O O13 0.000000 0.500000 0.500000
O O14 0.607935 0.766172 0.273568
O O15 0.495204 0.888401 0.236509
O O16 0.500000 0.500000 0.500000
O O17 0.480587 0.189617 0.326579
O O18 0.500000 0.000000 0.000000
#
# Coordination Sequence:
#
# PCOD9009698 Si02
#       8
#     2   2   2   2   2   2   2   2
#     4  10  22  39  71  97 138 172 232 295 341 408
#     4  12  26  43  72 101 141 186 235 287 357 421
#     4  10  21  39  77 101 142 179 248 285 364 423
#     4  10  21  42  66 107 136 177 234 299 343 414
#     4  11  21  41  68 100 133 177 234 292 336 422
#     4  11  25  44  71 103 143 195 235 297 362 432
#     4  12  30  49  71 104 157 189 236 298 368 437
#     4  12  27  44  75 106 142 191 246 290 360 432
#
# _framework density 23.940894
#
# number of rings (size 3 to 8) (size 9 to 14) (size 15 to 20)
#    0.000    1.000    2.500    4.125   10.500    2.000 
#    0.000    1.875    0.000    0.000    0.000    0.000 
#    0.000    0.000    0.000    0.000    0.000    0.000 
#
# Total GULP energy -89510.173811 kJ/mol
# GULP energy per Si atom -5594.385863 kJ/mol
# Density = 2.388640 g / cm^3
# Si number density = 23.940894 Si / 1000 Ang^3
#
#
#
# Elastic Constant Matrix: (Units=GPa)
#
#
# Indices 1 2 3 4 5 6 
#
# 1 50.4434 6.0179 15.6093 11.6620 -10.1284 -1.1477
# 2 6.0179 75.9546 26.2583 18.9227 7.1936 -16.1488
# 3 15.6093 26.2583 107.4723 23.1976 -5.8570 -2.4295
# 4 11.6620 18.9227 23.1976 38.1363 -4.2512 -8.5800
# 5 -10.1284 7.1936 -5.8570 -4.2512 40.9101 1.3508
# 6 -1.1477 -16.1488 -2.4295 -8.5800 1.3508 46.4915
#
#
#
# Elastic Compliance Matrix: (Units=1/GPa)
#
#
# Indices 1 2 3 4 5 6 
#
# 1 0.022611 -0.000517 -0.001784 -0.005209 0.004919 -0.000819
# 2 -0.000517 0.017148 -0.002958 -0.005952 -0.004344 0.004817
# 3 -0.001784 -0.002958 0.011428 -0.005129 0.001230 -0.001456
# 4 -0.005209 -0.005952 -0.005129 0.035055 0.002536 0.003932
# 5 0.004919 -0.004344 0.001230 0.002536 0.026919 -0.001637
# 6 -0.000819 0.004817 -0.001456 0.003932 -0.001637 0.023859
#
#
# Mechanical properties :
#
#
# Convention : Reuss Voigt Hill
#
# Bulk Modulus (GPa) = 24.58883 36.62680 30.60781
# Shear Modulus (GPa) = 31.03799 37.50659 34.27229
#
# Velocity S-wave (km/s) = 3.60452 3.96237 3.78767
# Velocity P-wave (km/s) = 5.25513 6.02211 5.65165
#
# Compressibility (1/GPa) = 0.04066887
#
# Stress axis : x y z
#
# Youngs Moduli (GPa) = 44.22592 58.31753 87.50780
#
# Poissons Ratio (x) = 0.03016 0.15610
# Poissons Ratio (y) = 0.02287 0.25882
# Poissons Ratio (z) = 0.07889 0.17248
#
# Static dielectric constant tensor:
#      x y z
#    x 1.744040 0.053660 0.089150 
#    y 0.053660 1.963350 0.041890 
#    z 0.089150 0.041890 1.920050 
# 
# From -- ./inp_files/299068.got.cif
#   From: 2010.05.17/outbox.cif.g08.bks.cpg/sg2_150_cif.got.tgz:299068.got - 2010.06.03 11:33:40.
