data_PCOD9009552
_publ_section_title
;
Structure prediction by ZEFSAII (Michael W. Deem and Ramdas Pophale) SiO2 
 PCOD9009552
Probable space group: P -1
;
_chemical_formula_sum "Si O2"
_cell_formula_units_Z 14
_cell_length_a 9.251918
_cell_length_b 17.091540
_cell_length_c 9.513987
_cell_angle_alpha 44.349625
_cell_angle_beta 60.683882
_cell_angle_gamma 94.757975
_cell_volume 645.246840
_symmetry_space_group_name_H-M "P -1"
_symmetry_group_IT_number 2
_symmetry_cell_setting 'triclinic'
loop_
_space_group_symop_operation_xyz
x,y,z
-x,-y,-z
loop_
_atom_site_type_symbol
_atom_site_label
_atom_site_fract_x
_atom_site_fract_y
_atom_site_fract_z
Si Si1 0.593983 0.481971 0.195956
Si Si2 0.964001 0.830280 0.680092
Si Si3 0.527677 0.648156 0.308259
Si Si4 0.810680 0.357732 0.669081
Si Si5 0.792054 0.601743 0.668761
Si Si6 0.902811 0.905846 0.316378
Si Si7 0.372625 0.045591 0.436082
O O1 0.460603 0.332668 0.553476
O O2 0.399993 0.486976 0.250799
O O3 0.831401 0.651463 0.928591
O O4 0.681737 0.480250 0.006488
O O5 0.026747 0.924417 0.383179
O O6 0.751676 0.786377 0.928295
O O7 0.176548 0.919519 0.573858
O O8 0.500000 0.500000 0.500000
O O9 0.291639 0.598664 0.442014
O O10 0.000000 0.500000 0.500000
O O11 0.951730 0.321806 0.582201
O O12 0.583434 0.210379 0.049109
O O13 0.803945 0.736982 0.534566
O O14 0.740743 0.927348 0.427908
O O15 0.000000 0.000000 0.000000
O O16 0.500000 0.000000 0.500000
#
# Coordination Sequence:
#
# PCOD9009552 Si02
#       7
#     2   2   2   2   2   2   2
#     4   9  21  40  72  97 138 184 221 286 349 420
#     4  10  22  45  68 101 137 184 237 279 348 429
#     4  10  21  39  69  99 133 179 223 283 346 410
#     4  12  26  42  69 103 138 179 238 291 339 415
#     4  10  23  44  67 103 143 177 234 285 355 414
#     4  11  24  45  72  99 141 189 228 288 358 421
#     4  12  28  45  72 105 141 189 239 295 346 421
#
# _framework density 21.697120999999999
#
# number of rings (size 3 to 8) (size 9 to 14) (size 15 to 20)
#    0.000    1.429    1.429    3.000   12.000    0.571 
#    0.000    9.286    0.000    0.000    0.000    0.000 
#    0.000    0.000    0.000    0.000    0.000    0.000 
#
# Total GULP energy -77986.451382 kJ/mol
# GULP energy per Si atom -5570.460813 kJ/mol
# Density = 2.164774 g / cm^3
# Si number density = 21.697121 Si / 1000 Ang^3
#
#
#
# Elastic Constant Matrix: (Units=GPa)
#
#
# Indices 1 2 3 4 5 6 
#
# 1 167.7292 57.1828 62.1298 10.9731 -12.8614 17.3743
# 2 57.1828 96.3913 39.2374 4.3734 -11.5028 9.7197
# 3 62.1298 39.2374 112.7320 32.5966 -1.1428 27.8734
# 4 10.9731 4.3734 32.5966 42.2335 8.9743 1.0613
# 5 -12.8614 -11.5028 -1.1428 8.9743 44.0455 2.6440
# 6 17.3743 9.7197 27.8734 1.0613 2.6440 39.0378
#
#
#
# Elastic Compliance Matrix: (Units=1/GPa)
#
#
# Indices 1 2 3 4 5 6 
#
# 1 0.008579 -0.003447 -0.003547 0.000576 0.001428 -0.000540
# 2 -0.003447 0.014005 -0.003539 0.001702 0.002190 0.000379
# 3 -0.003547 -0.003539 0.018445 -0.013070 0.001811 -0.010478
# 4 0.000576 0.001702 -0.013070 0.034786 -0.007307 0.008201
# 5 0.001428 0.002190 0.001811 -0.007307 0.025469 -0.004000
# 6 -0.000540 0.000379 -0.010478 0.008201 -0.004000 0.033291
#
#
# Mechanical properties :
#
#
# Convention : Reuss Voigt Hill
#
# Bulk Modulus (GPa) = 50.08771 77.10584 63.59677
# Shear Modulus (GPa) = 30.80824 39.61686 35.21255
#
# Velocity S-wave (km/s) = 3.77227 4.27770 4.03291
# Velocity P-wave (km/s) = 6.48910 7.74679 7.14567
#
# Compressibility (1/GPa) = 0.01996498
#
# Stress axis : x y z
#
# Youngs Moduli (GPa) = 116.56970 71.40077 54.21475
#
# Poissons Ratio (x) = 0.24609 0.19229
# Poissons Ratio (y) = 0.40177 0.19185
# Poissons Ratio (z) = 0.41344 0.25267
#
# Static dielectric constant tensor:
#      x y z
#    x 1.924240 0.026850 0.011990 
#    y 0.026850 1.950920 0.058260 
#    z 0.011990 0.058260 1.865740 
# 
# From -- ./inp_files/216644.got.cif
#   From: 2010.05.17/outbox.cif.g08.bks.cpg/sg2_109_cif.got.tgz:216644.got - 2010.06.03 11:33:40.
