data_PCOD9009077
_publ_section_title
;
Structure prediction by ZEFSAII (Michael W. Deem and Ramdas Pophale) SiO2 
 PCOD9009077
Probable space group: P -1
;
_chemical_formula_sum "Si O2"
_cell_formula_units_Z 16
_cell_length_a 13.160864
_cell_length_b 9.316661
_cell_length_c 12.035080
_cell_angle_alpha 57.363845
_cell_angle_beta 89.178029
_cell_angle_gamma 49.242821
_cell_volume 798.548534
_symmetry_space_group_name_H-M "P -1"
_symmetry_group_IT_number 2
_symmetry_cell_setting 'triclinic'
loop_
_space_group_symop_operation_xyz
x,y,z
-x,-y,-z
loop_
_atom_site_type_symbol
_atom_site_label
_atom_site_fract_x
_atom_site_fract_y
_atom_site_fract_z
Si Si1 0.923204 0.309188 0.457258
Si Si2 0.116530 0.768952 0.746573
Si Si3 0.537974 0.637222 0.988766
Si Si4 0.601183 0.034840 0.939788
Si Si5 0.794910 0.827524 0.586031
Si Si6 0.963558 0.502744 0.123499
Si Si7 0.545359 0.242983 0.602732
Si Si8 0.349747 0.162768 0.629148
O O1 0.846279 0.303190 0.357095
O O2 0.800410 0.599679 0.389398
O O3 0.081623 0.200497 0.459506
O O4 0.995956 0.078336 0.636267
O O5 0.020874 0.720832 0.788643
O O6 0.276335 0.576023 0.895843
O O7 0.467661 0.880637 0.810533
O O8 0.500000 0.500000 0.000000
O O9 0.449651 0.759908 0.056964
O O10 0.578965 0.130020 0.774742
O O11 0.785705 0.757388 0.060143
O O12 0.500000 0.000000 0.000000
O O13 0.702722 0.856184 0.476757
O O14 0.915515 0.560112 0.769618
O O15 0.681790 0.051110 0.588156
O O16 0.000000 0.500000 0.000000
O O17 0.500000 0.500000 0.500000
O O18 0.420133 0.258921 0.561862
#
# Coordination Sequence:
#
# PCOD9009077 Si02
#       8
#     2   2   2   2   2   2   2   2
#     4  10  23  40  73  99 135 177 235 283 348 412
#     4  10  21  39  67 100 133 174 235 283 332 411
#     4  12  25  41  72 104 136 176 239 292 343 407
#     4  12  23  47  74  98 132 188 243 286 337 419
#     4  11  25  43  67 101 138 176 222 290 359 407
#     4  11  22  41  69  97 132 178 228 280 347 407
#     4  12  28  43  72 101 142 183 238 284 350 421
#     4  12  25  46  69 103 145 186 225 291 357 419
#
# _framework density 20.036352000000001
#
# number of rings (size 3 to 8) (size 9 to 14) (size 15 to 20)
#    0.000    0.750    3.750    3.750    8.750    1.000 
#    0.000    0.000    0.000    2.250    0.000    0.000 
#    0.000    0.000    0.000    0.000    0.000    0.000 
#
# Total GULP energy -89205.178534 kJ/mol
# GULP energy per Si atom -5575.323658 kJ/mol
# Density = 1.999075 g / cm^3
# Si number density = 20.036352 Si / 1000 Ang^3
#
#
#
# Elastic Constant Matrix: (Units=GPa)
#
#
# Indices 1 2 3 4 5 6 
#
# 1 113.6423 57.2406 56.9029 -6.2145 11.0842 7.2337
# 2 57.2406 120.9080 48.2088 -5.2999 7.5781 2.6362
# 3 56.9029 48.2088 146.3225 -5.4764 17.6114 11.7335
# 4 -6.2145 -5.2999 -5.4764 22.9353 8.8600 1.5009
# 5 11.0842 7.5781 17.6114 8.8600 37.7431 4.1065
# 6 7.2337 2.6362 11.7335 1.5009 4.1065 36.3793
#
#
#
# Elastic Compliance Matrix: (Units=1/GPa)
#
#
# Indices 1 2 3 4 5 6 
#
# 1 0.013146 -0.004715 -0.003141 0.002539 -0.001920 -0.001147
# 2 -0.004715 0.011295 -0.001872 0.000960 -0.000313 0.000719
# 3 -0.003141 -0.001872 0.009329 0.002386 -0.003401 -0.001963
# 4 0.002539 0.000960 0.002386 0.050496 -0.013701 -0.001881
# 5 -0.001920 -0.000313 -0.003401 -0.013701 0.032094 -0.001556
# 6 -0.001147 0.000719 -0.001963 -0.001881 -0.001556 0.028551
#
#
# Mechanical properties :
#
#
# Convention : Reuss Voigt Hill
#
# Bulk Modulus (GPa) = 69.85793 78.39749 74.12771
# Shear Modulus (GPa) = 29.56175 33.97957 31.77066
#
# Velocity S-wave (km/s) = 3.84527 4.12259 3.98634
# Velocity P-wave (km/s) = 7.39297 7.86598 7.63314
#
# Compressibility (1/GPa) = 0.01431477
#
# Stress axis : x y z
#
# Youngs Moduli (GPa) = 76.06807 88.53315 107.19822
#
# Poissons Ratio (x) = 0.41740 0.33670
# Poissons Ratio (y) = 0.35864 0.20067
# Poissons Ratio (z) = 0.23892 0.16573
#
# Static dielectric constant tensor:
#      x y z
#    x 1.717140 -0.008100 0.017160 
#    y -0.008100 1.710430 -0.044550 
#    z 0.017160 -0.044550 1.815840 
# 
# From -- ./inp_files/419156.got.cif
#   From: 2010.05.17/outbox.cif.g08.bks.cpg/sg2_210_cif.got.tgz:419156.got - 2010.06.03 11:33:40.
