data_PCOD9009276
_publ_section_title
;
Structure prediction by ZEFSAII (Michael W. Deem and Ramdas Pophale) SiO2 
 PCOD9009276
Probable space group: P -1
;
_chemical_formula_sum "Si O2"
_cell_formula_units_Z 14
_cell_length_a 7.545828
_cell_length_b 13.824705
_cell_length_c 8.720004
_cell_angle_alpha 79.399987
_cell_angle_beta 127.934987
_cell_angle_gamma 118.917589
_cell_volume 619.484171
_symmetry_space_group_name_H-M "P -1"
_symmetry_group_IT_number 2
_symmetry_cell_setting 'triclinic'
loop_
_space_group_symop_operation_xyz
x,y,z
-x,-y,-z
loop_
_atom_site_type_symbol
_atom_site_label
_atom_site_fract_x
_atom_site_fract_y
_atom_site_fract_z
Si Si1 0.517376 0.653160 0.321793
Si Si2 0.492464 0.915917 0.653331
Si Si3 0.324870 0.674599 0.521913
Si Si4 0.249020 0.931324 0.994151
Si Si5 0.988337 0.883023 0.563193
Si Si6 0.926223 0.310965 0.905286
Si Si7 0.486616 0.538766 0.810925
O O1 0.469072 0.637762 0.482535
O O2 0.247177 0.640593 0.121657
O O3 0.589506 0.567680 0.306695
O O4 0.736449 0.780904 0.390365
O O5 0.478953 0.803324 0.615611
O O6 0.227320 0.878772 0.613478
O O7 0.500000 0.000000 0.500000
O O8 0.715322 0.982713 0.876015
O O9 0.096827 0.669256 0.295435
O O10 0.303806 0.595139 0.674342
O O11 0.021613 0.884980 0.763773
O O12 0.221319 0.820855 0.096563
O O13 0.500000 0.000000 0.000000
O O14 0.000000 0.000000 0.500000
O O15 0.218137 0.369080 0.091883
O O16 0.500000 0.500000 0.000000
#
# Coordination Sequence:
#
# PCOD9009276 Si02
#       7
#     2   2   2   2   2   2   2
#     4  10  23  45  66  93 137 180 227 279 348 401
#     4  11  21  42  67 100 139 178 223 287 349 414
#     4  10  24  44  68  95 136 180 227 278 354 397
#     4  10  21  39  67  99 135 172 223 278 343 413
#     4  11  23  40  68 102 137 178 229 282 346 415
#     4  10  23  45  69  95 140 176 230 280 350 406
#     4  12  27  44  69 102 133 181 242 284 340 408
#
# _framework density 22.599444999999999
#
# number of rings (size 3 to 8) (size 9 to 14) (size 15 to 20)
#    0.857    0.571    1.429    4.286    2.000    4.000 
#    0.000    2.143    0.000    0.000    0.000    0.000 
#    0.000    0.000    0.000    0.000    0.000    0.000 
#
# Total GULP energy -78111.795255 kJ/mol
# GULP energy per Si atom -5579.413947 kJ/mol
# Density = 2.254801 g / cm^3
# Si number density = 22.599445 Si / 1000 Ang^3
#
#
#
# Elastic Constant Matrix: (Units=GPa)
#
#
# Indices 1 2 3 4 5 6 
#
# 1 39.4373 -0.4013 29.0909 10.7652 5.7109 1.4871
# 2 -0.4013 128.2500 55.2097 3.5224 -6.1837 -14.1278
# 3 29.0909 55.2097 120.2085 -2.9491 -7.0347 -9.4237
# 4 10.7652 3.5224 -2.9491 45.2340 -0.2719 -1.8095
# 5 5.7109 -6.1837 -7.0347 -0.2719 39.6645 12.2345
# 6 1.4871 -14.1278 -9.4237 -1.8095 12.2345 33.0084
#
#
#
# Elastic Compliance Matrix: (Units=1/GPa)
#
#
# Indices 1 2 3 4 5 6 
#
# 1 0.038506 0.005349 -0.012510 -0.010481 -0.006654 -0.001125
# 2 0.005349 0.010793 -0.006147 -0.002405 -0.001087 0.002894
# 3 -0.012510 -0.006147 0.014553 0.004471 0.003088 0.001188
# 4 -0.010481 -0.002405 0.004471 0.025150 0.001640 0.001490
# 5 -0.006654 -0.001087 0.003088 0.001640 0.029707 -0.010205
# 6 -0.001125 0.002894 0.001188 0.001490 -0.010205 0.035788
#
#
# Mechanical properties :
#
#
# Convention : Reuss Voigt Hill
#
# Bulk Modulus (GPa) = 26.85595 50.63270 38.74433
# Shear Modulus (GPa) = 25.83649 37.18116 31.50883
#
# Velocity S-wave (km/s) = 3.38484 4.06054 3.73799
# Velocity P-wave (km/s) = 5.21397 6.66611 5.98425
#
# Compressibility (1/GPa) = 0.03723569
#
# Stress axis : x y z
#
# Youngs Moduli (GPa) = 25.96985 92.65502 68.71368
#
# Poissons Ratio (x) = -0.49561 0.85961
# Poissons Ratio (y) = -0.13891 0.42239
# Poissons Ratio (z) = 0.32488 0.56956
#
# Static dielectric constant tensor:
#      x y z
#    x 1.870500 0.042410 0.002860 
#    y 0.042410 1.816110 -0.039470 
#    z 0.002860 -0.039470 1.857490 
# 
# From -- ./inp_files/187119.got.cif
#   From: 2010.05.17/outbox.cif.g08.bks.cpg/sg2_94_cif.got.tgz:187119.got - 2010.06.03 11:33:40.
