data_PCOD9009434
_publ_section_title
;
Structure prediction by ZEFSAII (Michael W. Deem and Ramdas Pophale) SiO2 
 PCOD9009434
Probable space group: P -1
;
_chemical_formula_sum "Si O2"
_cell_formula_units_Z 14
_cell_length_a 20.932572
_cell_length_b 7.071884
_cell_length_c 8.973847
_cell_angle_alpha 76.501547
_cell_angle_beta 141.274082
_cell_angle_gamma 125.548590
_cell_volume 609.646780
_symmetry_space_group_name_H-M "P -1"
_symmetry_group_IT_number 2
_symmetry_cell_setting 'triclinic'
loop_
_space_group_symop_operation_xyz
x,y,z
-x,-y,-z
loop_
_atom_site_type_symbol
_atom_site_label
_atom_site_fract_x
_atom_site_fract_y
_atom_site_fract_z
Si Si1 0.077234 0.996573 0.808136
Si Si2 0.657080 0.699499 0.211699
Si Si3 0.044345 0.240145 0.938005
Si Si4 0.808528 0.080113 0.686305
Si Si5 0.327310 0.785571 0.390671
Si Si6 0.791256 0.583664 0.262335
Si Si7 0.635287 0.043566 0.907997
O O1 0.021060 0.131384 0.750331
O O2 0.180756 0.198884 0.836159
O O3 0.944153 0.718130 0.562993
O O4 0.151889 0.975832 0.077876
O O5 0.710131 0.567092 0.258665
O O6 0.732059 0.848108 0.473048
O O7 0.500000 0.500000 0.000000
O O8 0.677779 0.901959 0.095834
O O9 0.949585 0.294481 0.815483
O O10 0.200520 0.484215 0.195254
O O11 0.000000 0.000000 0.000000
O O12 0.713617 0.135979 0.555898
O O13 0.334178 0.910448 0.222069
O O14 0.473270 0.871147 0.660124
O O15 0.711380 0.317360 0.078272
#
# Coordination Sequence:
#
# PCOD9009434 Si02
#       7
#     2   2   2   2   2   2   2
#     4  10  22  43  72  98 136 176 228 281 337 413
#     4  12  28  43  67 102 141 180 229 278 345 407
#     4  10  21  39  68  98 132 170 221 282 331 397
#     4  11  24  42  68 102 133 181 222 284 342 398
#     4  11  24  46  68 101 135 180 234 273 344 408
#     4  11  23  47  70 102 135 180 228 282 344 399
#     4  11  27  46  71  98 140 186 226 285 331 416
#
# _framework density 22.964115
#
# number of rings (size 3 to 8) (size 9 to 14) (size 15 to 20)
#    0.000    1.143    2.857    2.143    4.000    5.714 
#    0.000    6.429    0.000    0.000    0.000    0.000 
#    0.000    0.000    0.000    0.000    0.000    0.000 
#
# Total GULP energy -78282.890953 kJ/mol
# GULP energy per Si atom -5591.635068 kJ/mol
# Density = 2.291185 g / cm^3
# Si number density = 22.964115 Si / 1000 Ang^3
#
#
#
# Elastic Constant Matrix: (Units=GPa)
#
#
# Indices 1 2 3 4 5 6 
#
# 1 131.2197 20.7193 20.2880 17.0859 0.7698 4.3215
# 2 20.7193 70.7325 32.3274 0.6421 13.7252 13.3273
# 3 20.2880 32.3274 121.6554 12.2988 -4.0352 10.6792
# 4 17.0859 0.6421 12.2988 44.7849 7.6762 3.3687
# 5 0.7698 13.7252 -4.0352 7.6762 30.7661 6.7821
# 6 4.3215 13.3273 10.6792 3.3687 6.7821 23.3328
#
#
#
# Elastic Compliance Matrix: (Units=1/GPa)
#
#
# Indices 1 2 3 4 5 6 
#
# 1 0.008528 -0.002687 -0.000307 -0.003443 0.001788 0.000073
# 2 -0.002687 0.020254 -0.005079 0.004211 -0.009213 -0.006676
# 3 -0.000307 -0.005079 0.010369 -0.003318 0.005075 -0.002784
# 4 -0.003443 0.004211 -0.003318 0.026048 -0.008380 -0.001574
# 5 0.001788 -0.009213 0.005075 -0.008380 0.041118 -0.008133
# 6 0.000073 -0.006676 -0.002784 -0.001574 -0.008133 0.050523
#
#
# Mechanical properties :
#
#
# Convention : Reuss Voigt Hill
#
# Bulk Modulus (GPa) = 43.47133 52.25299 47.86216
# Shear Modulus (GPa) = 27.67712 36.46163 32.06938
#
# Velocity S-wave (km/s) = 3.47541 3.98900 3.74103
# Velocity P-wave (km/s) = 5.92249 6.63474 6.28871
#
# Compressibility (1/GPa) = 0.02300367
#
# Stress axis : x y z
#
# Youngs Moduli (GPa) = 117.26156 49.37363 96.44136
#
# Poissons Ratio (x) = 0.13267 0.02963
# Poissons Ratio (y) = 0.31510 0.48984
# Poissons Ratio (z) = 0.03603 0.25078
#
# Static dielectric constant tensor:
#      x y z
#    x 1.938770 -0.009970 0.019710 
#    y -0.009970 1.878980 -0.024910 
#    z 0.019710 -0.024910 1.873240 
# 
# From -- ./inp_files/351752.got.cif
#   From: 2010.05.17/outbox.cif.g08.bks.cpg/sg2_176_cif.got.tgz:351752.got - 2010.06.03 11:33:40.
