data_PCOD9009210
_publ_section_title
;
Structure prediction by ZEFSAII (Michael W. Deem and Ramdas Pophale) SiO2 
 PCOD9009210
Probable space group: P -1
;
_chemical_formula_sum "Si O2"
_cell_formula_units_Z 14
_cell_length_a 12.749496
_cell_length_b 18.295888
_cell_length_c 8.406621
_cell_angle_alpha 109.454981
_cell_angle_beta 88.015476
_cell_angle_gamma 29.733418
_cell_volume 661.567777
_symmetry_space_group_name_H-M "P -1"
_symmetry_group_IT_number 2
_symmetry_cell_setting 'triclinic'
loop_
_space_group_symop_operation_xyz
x,y,z
-x,-y,-z
loop_
_atom_site_type_symbol
_atom_site_label
_atom_site_fract_x
_atom_site_fract_y
_atom_site_fract_z
Si Si1 0.195708 0.028553 0.722240
Si Si2 0.860543 0.548296 0.344614
Si Si3 0.325471 0.648310 0.462331
Si Si4 0.831609 0.516565 0.670383
Si Si5 0.479072 0.696475 0.305599
Si Si6 0.218584 0.585399 0.187003
Si Si7 0.863091 0.010643 0.980296
O O1 0.006169 0.224274 0.790649
O O2 0.540020 0.810467 0.573631
O O3 0.223857 0.933754 0.535046
O O4 0.069614 0.089278 0.942316
O O5 0.947331 0.448863 0.435463
O O6 0.775583 0.540041 0.219386
O O7 0.087432 0.459136 0.227945
O O8 0.500000 0.500000 0.500000
O O9 0.439183 0.651274 0.391274
O O10 0.337155 0.574944 0.275300
O O11 0.999235 0.884565 0.719968
O O12 0.932633 0.372414 0.658163
O O13 0.485153 0.744145 0.833266
O O14 0.519964 0.636757 0.083866
O O15 0.000000 0.000000 0.000000
#
# Coordination Sequence:
#
# PCOD9009210 Si02
#       7
#     2   2   2   2   2   2   2
#     4   9  22  42  62  95 123 172 204 263 319 374
#     4   8  19  44  67  86 126 172 215 256 317 373
#     4  12  24  40  65  95 128 166 215 266 315 381
#     4  10  21  39  67  96 122 170 217 261 312 379
#     4  10  22  43  62  88 136 166 203 265 321 375
#     4  12  25  37  64  99 130 162 212 261 326 382
#     4  11  20  40  67  89 128 169 217 256 313 373
#
# _framework density 21.161853000000001
#
# number of rings (size 3 to 8) (size 9 to 14) (size 15 to 20)
#    0.857    0.857    1.429    3.000    2.000    2.857 
#    0.000    1.429    0.000    6.000    0.000    0.000 
#    0.000    0.000    0.000    0.000    0.000    0.000 
#
# Total GULP energy -78169.043826 kJ/mol
# GULP energy per Si atom -5583.503130 kJ/mol
# Density = 2.111369 g / cm^3
# Si number density = 21.161853 Si / 1000 Ang^3
#
#
#
# Elastic Constant Matrix: (Units=GPa)
#
#
# Indices 1 2 3 4 5 6 
#
# 1 132.9942 38.8994 18.1142 6.7559 -10.6072 -2.1500
# 2 38.8994 90.2652 4.5162 -7.3755 -11.6767 22.5321
# 3 18.1142 4.5162 47.5571 -0.2837 16.4083 -15.2619
# 4 6.7559 -7.3755 -0.2837 9.9593 -7.2808 5.6469
# 5 -10.6072 -11.6767 16.4083 -7.2808 32.2655 -5.2708
# 6 -2.1500 22.5321 -15.2619 5.6469 -5.2708 38.2927
#
#
#
# Elastic Compliance Matrix: (Units=1/GPa)
#
#
# Indices 1 2 3 4 5 6 
#
# 1 0.011223 -0.009622 0.000880 -0.022917 -0.003861 0.009491
# 2 -0.009622 0.037069 -0.023591 0.080219 0.033996 -0.038905
# 3 0.000880 -0.023591 0.049534 -0.069606 -0.042933 0.038028
# 4 -0.022917 0.080219 -0.069606 0.315057 0.110429 -0.107491
# 5 -0.003861 0.033996 -0.042933 0.110429 0.081860 -0.042349
# 6 0.009491 -0.038905 0.038028 -0.107491 -0.042349 0.074719
#
#
# Mechanical properties :
#
#
# Convention : Reuss Voigt Hill
#
# Bulk Modulus (GPa) = 30.15672 43.76401 36.96037
# Shear Modulus (GPa) = 7.74975 30.05595 18.90285
#
# Velocity S-wave (km/s) = 1.91575 3.77276 2.99197
# Velocity P-wave (km/s) = 4.37891 6.30110 5.42580
#
# Compressibility (1/GPa) = 0.03316010
#
# Stress axis : x y z
#
# Youngs Moduli (GPa) = 89.10146 26.97666 20.18807
#
# Poissons Ratio (x) = 0.25956 -0.01777
# Poissons Ratio (y) = 0.85730 0.47627
# Poissons Ratio (z) = -0.07841 0.63642
#
# Static dielectric constant tensor:
#      x y z
#    x 1.757030 -0.010550 0.011050 
#    y -0.010550 1.795240 0.006650 
#    z 0.011050 0.006650 1.786310 
# 
# From -- ./inp_files/278124.got.cif
#   From: 2010.05.17/outbox.cif.g08.bks.cpg/sg2_140_cif.got.tgz:278124.got - 2010.06.03 11:33:40.
