data_PCOD9009884
_publ_section_title
;
Structure prediction by ZEFSAII (Michael W. Deem and Ramdas Pophale) SiO2 
 PCOD9009884
Probable space group: P -1
;
_chemical_formula_sum "Si O2"
_cell_formula_units_Z 14
_cell_length_a 12.286667
_cell_length_b 5.988102
_cell_length_c 9.558440
_cell_angle_alpha 83.547109
_cell_angle_beta 79.227741
_cell_angle_gamma 97.581407
_cell_volume 678.003194
_symmetry_space_group_name_H-M "P -1"
_symmetry_group_IT_number 2
_symmetry_cell_setting 'triclinic'
loop_
_space_group_symop_operation_xyz
x,y,z
-x,-y,-z
loop_
_atom_site_type_symbol
_atom_site_label
_atom_site_fract_x
_atom_site_fract_y
_atom_site_fract_z
Si Si1 0.837631 0.986339 0.838376
Si Si2 0.678141 0.567873 0.026364
Si Si3 0.111306 0.686307 0.943723
Si Si4 0.097688 0.279575 0.416516
Si Si5 0.473249 0.772567 0.122284
Si Si6 0.276053 0.714858 0.369470
Si Si7 0.872629 0.150300 0.385017
O O1 0.900577 0.841264 0.728008
O O2 0.792213 0.162225 0.735683
O O3 0.737571 0.803706 0.931702
O O4 0.893131 0.129684 0.945131
O O5 0.778475 0.438440 0.062371
O O6 0.582263 0.654529 0.137386
O O7 0.610171 0.404382 0.939621
O O8 0.122094 0.808555 0.782963
O O9 0.000000 0.500000 0.000000
O O10 0.211734 0.457052 0.389849
O O11 0.969601 0.327450 0.428722
O O12 0.105496 0.095907 0.549462
O O13 0.402904 0.784421 0.280936
O O14 0.500000 0.000000 0.000000
O O15 0.244274 0.804309 0.521942
#
# Coordination Sequence:
#
# PCOD9009884 Si02
#       7
#     2   2   2   2   2   2   2
#     4  11  20  38  63  92 126 161 215 256 310 376
#     4  11  22  37  64  95 126 161 211 265 320 359
#     4  12  25  41  60  95 134 170 207 258 319 382
#     4  10  21  40  60  91 121 172 214 258 312 369
#     4  11  21  39  67  98 122 159 219 272 307 370
#     4  11  20  39  64  91 123 160 214 267 313 369
#     4  10  24  37  60  89 131 166 209 258 313 384
#
# _framework density 20.648869999999999
#
# number of rings (size 3 to 8) (size 9 to 14) (size 15 to 20)
#    0.000    1.143    4.286    2.143    0.000    5.714 
#    0.000    0.714    0.000    4.286    0.000    0.000 
#    0.000    0.000    0.000    0.000    0.000    0.000 
#
# Total GULP energy -78028.026594 kJ/mol
# GULP energy per Si atom -5573.430471 kJ/mol
# Density = 2.060187 g / cm^3
# Si number density = 20.648870 Si / 1000 Ang^3
#
#
#
# Elastic Constant Matrix: (Units=GPa)
#
#
# Indices 1 2 3 4 5 6 
#
# 1 98.6580 -10.3306 15.0086 -8.0877 -15.0637 -6.2099
# 2 -10.3306 44.3519 0.7247 -9.1767 8.5592 34.5573
# 3 15.0086 0.7247 99.5343 -8.2398 -5.5280 5.5363
# 4 -8.0877 -9.1767 -8.2398 17.9119 -0.2984 -7.0267
# 5 -15.0637 8.5592 -5.5280 -0.2984 32.8834 -3.0157
# 6 -6.2099 34.5573 5.5363 -7.0267 -3.0157 33.4534
#
#
#
# Elastic Compliance Matrix: (Units=1/GPa)
#
#
# Indices 1 2 3 4 5 6 
#
# 1 0.012061 -0.003215 -0.001317 0.006341 0.006907 0.007732
# 2 -0.003215 0.241131 0.010228 0.025859 -0.085546 -0.253657
# 3 -0.001317 0.010228 0.011113 0.005088 -0.002433 -0.011799
# 4 0.006341 0.025859 0.005088 0.069479 -0.003449 -0.012094
# 5 0.006907 -0.085546 -0.002433 -0.003449 0.064123 0.095109
# 6 0.007732 -0.253657 -0.011799 -0.012094 0.095109 0.301341
#
#
# Mechanical properties :
#
#
# Convention : Reuss Voigt Hill
#
# Bulk Modulus (GPa) = 3.62717 28.14996 15.88856
# Shear Modulus (GPa) = 6.41227 32.65915 19.53571
#
# Velocity S-wave (km/s) = 1.76412 3.98130 3.07920
# Velocity P-wave (km/s) = 2.43103 5.89887 4.51146
#
# Compressibility (1/GPa) = 0.27569730
#
# Stress axis : x y z
#
# Youngs Moduli (GPa) = 82.91269 4.14713 89.98243
#
# Poissons Ratio (x) = 0.01333 0.11848
# Poissons Ratio (y) = 0.26654 -0.92031
# Poissons Ratio (z) = 0.10918 -0.04242
#
# Static dielectric constant tensor:
#      x y z
#    x 1.761720 -0.060000 0.031100 
#    y -0.060000 1.837080 -0.002730 
#    z 0.031100 -0.002730 1.612670 
# 
# From -- ./inp_files/51453.got.cif
#   From: 2010.05.17/outbox.cif.g08.bks.cpg/sg2_26_cif.got.tgz:51453.got - 2010.06.03 11:33:40.
