data_PCOD9009185
_publ_section_title
;
Structure prediction by ZEFSAII (Michael W. Deem and Ramdas Pophale) SiO2 
 PCOD9009185
Probable space group: P -1
;
_chemical_formula_sum "Si O2"
_cell_formula_units_Z 16
_cell_length_a 15.806472
_cell_length_b 12.215989
_cell_length_c 9.362068
_cell_angle_alpha 111.453511
_cell_angle_beta 46.256606
_cell_angle_gamma 74.863994
_cell_volume 783.632634
_symmetry_space_group_name_H-M "P -1"
_symmetry_group_IT_number 2
_symmetry_cell_setting 'triclinic'
loop_
_space_group_symop_operation_xyz
x,y,z
-x,-y,-z
loop_
_atom_site_type_symbol
_atom_site_label
_atom_site_fract_x
_atom_site_fract_y
_atom_site_fract_z
Si Si1 0.310918 0.545059 0.609320
Si Si2 0.367366 0.181046 0.332923
Si Si3 0.882656 0.971393 0.624961
Si Si4 0.348205 0.778668 0.736880
Si Si5 0.294891 0.223535 0.743832
Si Si6 0.976845 0.368098 0.838862
Si Si7 0.567445 0.126810 0.583356
Si Si8 0.512453 0.276664 0.029585
O O1 0.260519 0.718255 0.784853
O O2 0.469174 0.386641 0.462724
O O3 0.409208 0.471351 0.302544
O O4 0.139182 0.595563 0.876612
O O5 0.420397 0.151613 0.422397
O O6 0.387135 0.285021 0.273199
O O7 0.170938 0.272215 0.608088
O O8 0.500000 0.000000 0.000000
O O9 0.784952 0.041485 0.925286
O O10 0.716609 0.113392 0.774322
O O11 0.000000 0.000000 0.500000
O O12 0.990185 0.769952 0.366871
O O13 0.389451 0.810211 0.556065
O O14 0.394220 0.187802 0.754562
O O15 0.278736 0.094164 0.696254
O O16 0.130369 0.440350 0.014896
O O17 0.523728 0.223367 0.829830
#
# Coordination Sequence:
#
# PCOD9009185 Si02
#       8
#     2   2   2   2   2   2   2   2
#     4  10  21  39  67  95 119 165 228 268 311 378
#     4  12  22  40  68  94 126 173 223 269 315 377
#     4  11  22  40  69  95 127 166 226 271 312 380
#     4  10  21  41  66  90 127 174 211 266 327 384
#     4  11  23  39  64  92 131 172 214 267 322 382
#     4  12  22  37  69  99 126 157 232 278 304 373
#     4  11  23  41  65  91 139 176 204 260 343 395
#     4  11  23  40  65  96 129 173 214 264 332 388
#
# _framework density 20.417731
#
# number of rings (size 3 to 8) (size 9 to 14) (size 15 to 20)
#    0.000    1.000    6.250    1.125    0.000    0.500 
#    0.000    3.125    0.000    0.000    0.000    0.000 
#    0.000    0.000    0.000    0.000    0.000    0.000 
#
# Total GULP energy -89219.212404 kJ/mol
# GULP energy per Si atom -5576.200775 kJ/mol
# Density = 2.037126 g / cm^3
# Si number density = 20.417731 Si / 1000 Ang^3
#
#
#
# Elastic Constant Matrix: (Units=GPa)
#
#
# Indices 1 2 3 4 5 6 
#
# 1 117.0054 40.3401 62.0872 -10.3023 18.3759 -9.0751
# 2 40.3401 82.2326 35.0065 -7.7289 9.5588 2.1568
# 3 62.0872 35.0065 126.3427 3.2473 21.0470 -4.0096
# 4 -10.3023 -7.7289 3.2473 38.4095 7.9874 8.5308
# 5 18.3759 9.5588 21.0470 7.9874 48.1425 -11.9016
# 6 -9.0751 2.1568 -4.0096 8.5308 -11.9016 31.6732
#
#
#
# Elastic Compliance Matrix: (Units=1/GPa)
#
#
# Indices 1 2 3 4 5 6 
#
# 1 0.013394 -0.003838 -0.005181 0.003339 -0.002216 0.001711
# 2 -0.003838 0.015784 -0.002330 0.003809 -0.002366 -0.004385
# 3 -0.005181 -0.002330 0.011536 -0.002355 -0.002230 -0.000069
# 4 0.003339 0.003809 -0.002355 0.032465 -0.009316 -0.011845
# 5 -0.002216 -0.002366 -0.002230 -0.009316 0.027606 0.012126
# 6 0.001711 -0.004385 -0.000069 -0.011845 0.012126 0.040099
#
#
# Mechanical properties :
#
#
# Convention : Reuss Voigt Hill
#
# Bulk Modulus (GPa) = 55.50778 66.71647 61.11212
# Shear Modulus (GPa) = 29.48346 36.18816 32.83581
#
# Velocity S-wave (km/s) = 3.80414 4.21454 4.01459
# Velocity P-wave (km/s) = 6.82205 7.51198 7.17531
#
# Compressibility (1/GPa) = 0.01801549
#
# Stress axis : x y z
#
# Youngs Moduli (GPa) = 74.66071 63.35724 86.68344
#
# Poissons Ratio (x) = 0.24320 0.44909
# Poissons Ratio (y) = 0.28658 0.20196
# Poissons Ratio (z) = 0.38680 0.14761
#
# Static dielectric constant tensor:
#      x y z
#    x 1.918330 0.124620 0.111760 
#    y 0.124620 1.828720 0.120110 
#    z 0.111760 0.120110 1.822380 
# 
# From -- ./inp_files/307905.got.cif
#   From: 2010.05.17/outbox.cif.g08.bks.cpg/sg2_154_cif.got.tgz:307905.got - 2010.06.03 11:33:40.
