data_PCOD9009376
_publ_section_title
;
Structure prediction by ZEFSAII (Michael W. Deem and Ramdas Pophale) SiO2 
 PCOD9009376
Probable space group: P -1
;
_chemical_formula_sum "Si O2"
_cell_formula_units_Z 16
_cell_length_a 11.633895
_cell_length_b 11.108290
_cell_length_c 9.881842
_cell_angle_alpha 53.900890
_cell_angle_beta 104.558468
_cell_angle_gamma 63.090914
_cell_volume 639.545185
_symmetry_space_group_name_H-M "P -1"
_symmetry_group_IT_number 2
_symmetry_cell_setting 'triclinic'
loop_
_space_group_symop_operation_xyz
x,y,z
-x,-y,-z
loop_
_atom_site_type_symbol
_atom_site_label
_atom_site_fract_x
_atom_site_fract_y
_atom_site_fract_z
Si Si1 0.770059 0.338073 0.105682
Si Si2 0.192618 0.637989 0.500354
Si Si3 0.825841 0.832982 0.333409
Si Si4 0.200243 0.923467 0.473619
Si Si5 0.457816 0.325789 0.392399
Si Si6 0.433198 0.238873 0.042144
Si Si7 0.883694 0.455592 0.725828
Si Si8 0.293539 0.042443 0.096440
O O1 0.759963 0.210853 0.290293
O O2 0.671657 0.568465 0.001725
O O3 0.648637 0.433317 0.870189
O O4 0.984225 0.171671 0.253495
O O5 0.220409 0.780718 0.454396
O O6 0.352080 0.383703 0.781863
O O7 0.164071 0.626837 0.343088
O O8 0.003206 0.768122 0.433833
O O9 0.884673 0.610214 0.542210
O O10 0.752764 0.908529 0.108114
O O11 0.653147 0.041952 0.235639
O O12 0.365060 0.878618 0.516144
O O13 0.280798 0.387363 0.318097
O O14 0.559417 0.222121 0.636481
O O15 0.382608 0.114471 0.113557
O O16 0.092487 0.224200 0.987559
#
# Coordination Sequence:
#
# PCOD9009376 Si02
#       8
#     2   2   2   2   2   2   2   2
#     4  10  25  45  66  86 120 169 221 263 297 358
#     4  10  21  39  68  95 124 163 210 254 308 367
#     4  11  20  38  66 100 128 161 203 251 314 377
#     4  10  24  47  67  86 119 171 217 261 300 366
#     4  12  24  41  63  92 133 164 204 258 316 363
#     4  11  20  37  67  97 119 165 210 252 311 368
#     4  11  21  39  65  97 133 160 196 260 314 376
#     4  11  21  38  64  98 136 159 196 255 319 380
#
# _framework density 25.017778
#
# number of rings (size 3 to 8) (size 9 to 14) (size 15 to 20)
#    0.000    1.250    3.750    3.000    0.000    6.000 
#    0.000    6.875    0.000    0.000    0.000    0.000 
#    0.000    0.000    0.000    0.000    0.000    0.000 
#
# Total GULP energy -89501.910829 kJ/mol
# GULP energy per Si atom -5593.869427 kJ/mol
# Density = 2.496084 g / cm^3
# Si number density = 25.017778 Si / 1000 Ang^3
#
#
#
# Elastic Constant Matrix: (Units=GPa)
#
#
# Indices 1 2 3 4 5 6 
#
# 1 111.2248 45.7994 21.8462 -10.6250 13.3638 -30.6744
# 2 45.7994 73.2069 20.8019 -12.3025 1.3336 -15.2774
# 3 21.8462 20.8019 152.4305 -7.9348 19.4761 -12.4900
# 4 -10.6250 -12.3025 -7.9348 32.1896 -16.4773 9.6743
# 5 13.3638 1.3336 19.4761 -16.4773 32.0773 -7.9598
# 6 -30.6744 -15.2774 -12.4900 9.6743 -7.9598 52.3859
#
#
#
# Elastic Compliance Matrix: (Units=1/GPa)
#
#
# Indices 1 2 3 4 5 6 
#
# 1 0.014340 -0.008232 0.000127 -0.003112 -0.005892 0.005706
# 2 -0.008232 0.020898 -0.002280 0.009037 0.008682 0.000381
# 3 0.000127 -0.002280 0.007493 -0.001925 -0.005311 0.000744
# 4 -0.003112 0.009037 -0.001925 0.047318 0.025268 -0.004545
# 5 -0.005892 0.008682 -0.005311 0.025268 0.049645 0.000693
# 6 0.005706 0.000381 0.000744 -0.004545 0.000693 0.023663
#
#
# Mechanical properties :
#
#
# Convention : Reuss Voigt Hill
#
# Bulk Modulus (GPa) = 45.53774 57.08412 51.31093
# Shear Modulus (GPa) = 26.11689 39.89155 33.00422
#
# Velocity S-wave (km/s) = 3.23450 3.99749 3.63606
# Velocity P-wave (km/s) = 5.67371 6.64631 6.17918
#
# Compressibility (1/GPa) = 0.02195981
#
# Stress axis : x y z
#
# Youngs Moduli (GPa) = 69.73568 47.85161 133.46243
#
# Poissons Ratio (x) = 0.39393 -0.01689
# Poissons Ratio (y) = 0.57408 0.30425
# Poissons Ratio (z) = -0.00882 0.10909
#
# Static dielectric constant tensor:
#      x y z
#    x 1.954900 -0.037790 -0.011890 
#    y -0.037790 2.017740 0.053360 
#    z -0.011890 0.053360 1.985350 
# 
# From -- ./inp_files/433728.got.cif
#   From: 2010.05.17/outbox.cif.g08.bks.cpg/sg2_217_cif.got.tgz:433728.got - 2010.06.03 11:33:40.
