data_PCOD9009219
_publ_section_title
;
Structure prediction by ZEFSAII (Michael W. Deem and Ramdas Pophale) SiO2 
 PCOD9009219
Probable space group: P -1
;
_chemical_formula_sum "Si O2"
_cell_formula_units_Z 16
_cell_length_a 11.364704
_cell_length_b 6.018440
_cell_length_c 24.476461
_cell_angle_alpha 122.300002
_cell_angle_beta 33.084002
_cell_angle_gamma 118.829028
_cell_volume 770.288876
_symmetry_space_group_name_H-M "P -1"
_symmetry_group_IT_number 2
_symmetry_cell_setting 'triclinic'
loop_
_space_group_symop_operation_xyz
x,y,z
-x,-y,-z
loop_
_atom_site_type_symbol
_atom_site_label
_atom_site_fract_x
_atom_site_fract_y
_atom_site_fract_z
Si Si1 0.852221 0.411344 0.202820
Si Si2 0.666411 0.350335 0.950683
Si Si3 0.883708 0.254898 0.050171
Si Si4 0.480361 0.179603 0.583142
Si Si5 0.256945 0.512359 0.330846
Si Si6 0.508944 0.807149 0.886908
Si Si7 0.195724 0.358809 0.455313
Si Si8 0.443421 0.004800 0.691351
O O1 0.811154 0.400803 0.152597
O O2 0.700020 0.607882 0.318620
O O3 0.778678 0.117894 0.213226
O O4 0.096689 0.511599 0.130664
O O5 0.634528 0.057419 0.899822
O O6 0.500000 0.500000 0.000000
O O7 0.605686 0.348681 0.038127
O O8 0.680854 0.141931 0.076663
O O9 0.000000 0.500000 0.000000
O O10 0.000000 0.000000 0.000000
O O11 0.706214 0.345820 0.529723
O O12 0.500000 0.000000 0.500000
O O13 0.422222 0.002266 0.634766
O O14 0.315401 0.347015 0.234316
O O15 0.206257 0.341468 0.383111
O O16 0.043398 0.673542 0.431501
O O17 0.466423 0.710014 0.286077
O O18 0.364997 0.172696 0.389299
#
# Coordination Sequence:
#
# PCOD9009219 Si02
#       8
#     2   2   2   2   2   2   2   2
#     4  11  25  43  71 101 136 183 233 295 364 422
#     4  11  26  48  62  96 140 182 233 290 352 433
#     4  12  26  45  77 108 140 188 246 303 365 424
#     4  10  23  41  65  94 136 173 229 282 347 429
#     4  10  21  40  65  97 133 169 219 282 347 411
#     4  11  25  43  68  99 135 180 238 287 357 426
#     4   9  20  39  62  98 131 169 218 279 342 413
#     4  10  21  39  67  96 132 170 225 279 343 420
#
# _framework density 20.771426999999999
#
# number of rings (size 3 to 8) (size 9 to 14) (size 15 to 20)
#    0.000    1.500    1.250    3.375    5.250    5.000 
#    2.250    0.000    0.000    0.000    0.000    0.000 
#    0.000    0.000    0.000    0.000    0.000    0.000 
#
# Total GULP energy -89277.041983 kJ/mol
# GULP energy per Si atom -5579.815124 kJ/mol
# Density = 2.072415 g / cm^3
# Si number density = 20.771427 Si / 1000 Ang^3
#
#
#
# Elastic Constant Matrix: (Units=GPa)
#
#
# Indices 1 2 3 4 5 6 
#
# 1 92.5595 23.1732 38.4136 -7.2478 0.0868 10.1498
# 2 23.1732 71.9445 56.6505 -18.9657 0.3042 1.4738
# 3 38.4136 56.6505 118.5547 -6.1074 8.5842 24.6920
# 4 -7.2478 -18.9657 -6.1074 40.5449 9.3219 -7.2152
# 5 0.0868 0.3042 8.5842 9.3219 50.3654 4.6337
# 6 10.1498 1.4738 24.6920 -7.2152 4.6337 29.0097
#
#
#
# Elastic Compliance Matrix: (Units=1/GPa)
#
#
# Indices 1 2 3 4 5 6 
#
# 1 0.012678 -0.001441 -0.003077 0.000713 0.000531 -0.001651
# 2 -0.001441 0.032080 -0.017702 0.015711 -0.001750 0.018129
# 3 -0.003077 -0.017702 0.021258 -0.008838 -0.000193 -0.018285
# 4 0.000713 0.015711 -0.008838 0.035228 -0.006609 0.016293
# 5 0.000531 -0.001750 -0.000193 -0.006609 0.021583 -0.005024
# 6 -0.001651 0.018129 -0.018285 0.016293 -0.005024 0.054547
#
#
# Mechanical properties :
#
#
# Convention : Reuss Voigt Hill
#
# Bulk Modulus (GPa) = 46.34900 57.72594 52.03747
# Shear Modulus (GPa) = 21.83342 34.97208 28.40275
#
# Velocity S-wave (km/s) = 3.24563 4.10770 3.70184
# Velocity P-wave (km/s) = 6.03388 7.09570 6.58622
#
# Compressibility (1/GPa) = 0.02157544
#
# Stress axis : x y z
#
# Youngs Moduli (GPa) = 78.87624 31.17162 47.04122
#
# Poissons Ratio (x) = 0.04492 0.14476
# Poissons Ratio (y) = 0.11367 0.83274
# Poissons Ratio (z) = 0.24272 0.55181
#
# Static dielectric constant tensor:
#      x y z
#    x 1.465370 -0.328930 -0.238640 
#    y -0.328930 1.521580 -0.200890 
#    z -0.238640 -0.200890 1.670530 
# 
# From -- ./inp_files/38776.got.cif
#   From: 2010.05.17/outbox.cif.g08.bks.cpg/sg2_20_cif.got.tgz:38776.got - 2010.06.03 11:33:40.
