data_PCOD9009382
_publ_section_title
;
Structure prediction by ZEFSAII (Michael W. Deem and Ramdas Pophale) SiO2 
 PCOD9009382
Probable space group: P -1
;
_chemical_formula_sum "Si O2"
_cell_formula_units_Z 14
_cell_length_a 9.678234
_cell_length_b 11.248929
_cell_length_c 12.447633
_cell_angle_alpha 55.765261
_cell_angle_beta 99.028269
_cell_angle_gamma 53.936741
_cell_volume 618.636542
_symmetry_space_group_name_H-M "P -1"
_symmetry_group_IT_number 2
_symmetry_cell_setting 'triclinic'
loop_
_space_group_symop_operation_xyz
x,y,z
-x,-y,-z
loop_
_atom_site_type_symbol
_atom_site_label
_atom_site_fract_x
_atom_site_fract_y
_atom_site_fract_z
Si Si1 0.193726 0.647316 0.507192
Si Si2 0.255910 0.128059 0.206091
Si Si3 0.905899 0.533508 0.142004
Si Si4 0.516514 0.157353 0.923095
Si Si5 0.422648 0.740724 0.566136
Si Si6 0.931040 0.204369 0.826378
Si Si7 0.726579 0.919366 0.431383
O O1 0.386561 0.353126 0.708855
O O2 0.281905 0.708329 0.557912
O O3 0.188288 0.701029 0.355739
O O4 0.918214 0.827430 0.417801
O O5 0.029748 0.353504 0.145721
O O6 0.351016 0.893185 0.373626
O O7 0.479152 0.052863 0.290714
O O8 0.162426 0.248001 0.015737
O O9 0.666429 0.651315 0.095986
O O10 0.111788 0.343155 0.356440
O O11 0.500000 0.000000 0.000000
O O12 0.801200 0.952560 0.078773
O O13 0.717574 0.461640 0.740201
O O14 0.346501 0.902011 0.577193
O O15 0.000000 0.000000 0.000000
#
# Coordination Sequence:
#
# PCOD9009382 Si02
#       7
#     2   2   2   2   2   2   2
#     4  11  25  47  64  95 136 173 215 274 324 386
#     4  10  21  39  68  95 128 166 217 269 321 379
#     4   9  20  39  60  96 128 158 212 267 318 380
#     4  11  26  41  68  94 131 170 220 268 326 388
#     4  11  23  42  69  94 132 175 217 264 328 383
#     4  12  27  46  65  96 135 174 220 265 328 395
#     4  10  22  43  68  96 129 168 219 270 323 379
#
# _framework density 22.630410999999999
#
# number of rings (size 3 to 8) (size 9 to 14) (size 15 to 20)
#    0.000    1.429    1.429    3.429    8.000    0.571 
#    5.143    0.714    0.000    0.000    0.000    0.000 
#    0.000    0.000    0.000    0.000    0.000    0.000 
#
# Total GULP energy -78263.978156 kJ/mol
# GULP energy per Si atom -5590.284154 kJ/mol
# Density = 2.257890 g / cm^3
# Si number density = 22.630411 Si / 1000 Ang^3
#
#
#
# Elastic Constant Matrix: (Units=GPa)
#
#
# Indices 1 2 3 4 5 6 
#
# 1 130.6633 28.6158 53.7905 -7.7759 2.2175 2.5896
# 2 28.6158 58.4720 39.3745 -1.9315 2.7213 -13.0846
# 3 53.7905 39.3745 143.6347 -12.8634 -22.6202 -1.1116
# 4 -7.7759 -1.9315 -12.8634 38.4292 -9.1553 -1.5862
# 5 2.2175 2.7213 -22.6202 -9.1553 57.1616 -5.8933
# 6 2.5896 -13.0846 -1.1116 -1.5862 -5.8933 33.5334
#
#
#
# Elastic Compliance Matrix: (Units=1/GPa)
#
#
# Indices 1 2 3 4 5 6 
#
# 1 0.009671 -0.003152 -0.003000 0.000316 -0.001603 -0.002343
# 2 -0.003152 0.024946 -0.006193 -0.001757 -0.002850 0.009188
# 3 -0.003000 -0.006193 0.010974 0.003994 0.005322 -0.000697
# 4 0.000316 -0.001757 0.003994 0.028960 0.006490 0.001933
# 5 -0.001603 -0.002850 0.005322 0.006490 0.021169 0.003215
# 6 -0.002343 0.009188 -0.000697 0.001933 0.003215 0.034220
#
#
# Mechanical properties :
#
#
# Convention : Reuss Voigt Hill
#
# Bulk Modulus (GPa) = 47.84640 64.03687 55.94164
# Shear Modulus (GPa) = 30.94119 39.89078 35.41599
#
# Velocity S-wave (km/s) = 3.70163 4.20302 3.96027
# Velocity P-wave (km/s) = 6.28155 7.20500 6.75906
#
# Compressibility (1/GPa) = 0.02090021
#
# Stress axis : x y z
#
# Youngs Moduli (GPa) = 103.40158 40.08704 91.12722
#
# Poissons Ratio (x) = 0.12635 0.27339
# Poissons Ratio (y) = 0.32592 0.56435
# Poissons Ratio (z) = 0.31021 0.24826
#
# Static dielectric constant tensor:
#      x y z
#    x 1.670380 0.047530 -0.018300 
#    y 0.047530 1.817730 -0.006860 
#    z -0.018300 -0.006860 1.862410 
# 
# From -- ./inp_files/498869.got.cif
#   From: 2010.05.17/outbox.cif.g08.bks.cpg/sg2_250_cif.got.tgz:498869.got - 2010.06.03 11:33:40.
