data_PCOD9009238
_publ_section_title
;
Structure prediction by ZEFSAII (Michael W. Deem and Ramdas Pophale) SiO2 
 PCOD9009238
Probable space group: P -1
;
_chemical_formula_sum "Si O2"
_cell_formula_units_Z 16
_cell_length_a 7.509942
_cell_length_b 10.886161
_cell_length_c 16.207351
_cell_angle_alpha 42.439753
_cell_angle_beta 48.805031
_cell_angle_gamma 49.924989
_cell_volume 639.534622
_symmetry_space_group_name_H-M "P -1"
_symmetry_group_IT_number 2
_symmetry_cell_setting 'triclinic'
loop_
_space_group_symop_operation_xyz
x,y,z
-x,-y,-z
loop_
_atom_site_type_symbol
_atom_site_label
_atom_site_fract_x
_atom_site_fract_y
_atom_site_fract_z
Si Si1 0.207234 0.314979 0.994610
Si Si2 0.622320 0.949291 0.397745
Si Si3 0.721866 0.352711 0.891627
Si Si4 0.512060 0.244143 0.154628
Si Si5 0.896606 0.352199 0.655385
Si Si6 0.341558 0.387247 0.743763
Si Si7 0.211820 0.805661 0.506766
Si Si8 0.678924 0.027744 0.758994
O O1 0.469202 0.333412 0.937556
O O2 0.190520 0.349943 0.885582
O O3 0.000000 0.500000 0.000000
O O4 0.214081 0.104023 0.128877
O O5 0.591345 0.149205 0.264798
O O6 0.500000 0.000000 0.500000
O O7 0.905971 0.838925 0.344231
O O8 0.460954 0.832236 0.458063
O O9 0.651908 0.546701 0.870352
O O10 0.888482 0.353713 0.758682
O O11 0.739152 0.212535 0.035379
O O12 0.337632 0.135186 0.219252
O O13 0.000000 0.500000 0.500000
O O14 0.612894 0.384950 0.697004
O O15 0.217352 0.591831 0.636470
O O16 0.409921 0.184732 0.776042
O O17 0.199594 0.836422 0.397077
O O18 0.000000 0.000000 0.500000
#
# Coordination Sequence:
#
# PCOD9009238 Si02
#       8
#     2   2   2   2   2   2   2   2
#     4  10  21  39  67  97 132 172 228 277 335 406
#     4  11  24  40  65  98 132 173 226 281 342 404
#     4   9  20  40  66  92 131 177 223 273 340 396
#     4   9  20  41  63  92 130 171 223 276 331 409
#     4  11  22  40  65  97 133 171 225 283 332 404
#     4  11  23  41  69  97 133 181 223 281 345 403
#     4  11  24  43  64  95 132 178 224 276 341 408
#     4  10  22  41  60  95 135 171 220 275 339 402
#
# _framework density 25.018191999999999
#
# number of rings (size 3 to 8) (size 9 to 14) (size 15 to 20)
#    0.000    1.750    1.250    2.250    3.500    1.500 
#    0.000    7.500    0.000    0.000    0.000    0.000 
#    0.000    0.000    0.000    0.000    0.000    0.000 
#
# Total GULP energy -89124.472133 kJ/mol
# GULP energy per Si atom -5570.279508 kJ/mol
# Density = 2.496125 g / cm^3
# Si number density = 25.018192 Si / 1000 Ang^3
#
#
#
# Elastic Constant Matrix: (Units=GPa)
#
#
# Indices 1 2 3 4 5 6 
#
# 1 65.4370 18.8132 52.6709 0.7162 -6.8111 -1.0923
# 2 18.8132 130.6276 84.8896 -1.3111 32.6113 -4.4681
# 3 52.6709 84.8896 224.5573 8.0921 60.2249 -5.5010
# 4 0.7162 -1.3111 8.0921 62.6054 5.5700 10.3518
# 5 -6.8111 32.6113 60.2249 5.5700 47.9792 1.9147
# 6 -1.0923 -4.4681 -5.5010 10.3518 1.9147 41.8673
#
#
#
# Elastic Compliance Matrix: (Units=1/GPa)
#
#
# Indices 1 2 3 4 5 6 
#
# 1 0.025752 -0.001524 -0.010214 -0.000315 0.017612 -0.001560
# 2 -0.001524 0.010633 -0.002476 0.000830 -0.004462 0.000768
# 3 -0.010214 -0.002476 0.011740 -0.000456 -0.014522 0.001789
# 4 -0.000315 0.000830 -0.000456 0.016889 -0.001835 -0.004072
# 5 0.017612 -0.004462 -0.014522 -0.001835 0.044957 -0.003527
# 6 -0.001560 0.000768 0.001789 -0.004072 -0.003527 0.025329
#
#
# Mechanical properties :
#
#
# Convention : Reuss Voigt Hill
#
# Bulk Modulus (GPa) = 50.77449 81.48548 66.12998
# Shear Modulus (GPa) = 29.36053 48.10695 38.73374
#
# Velocity S-wave (km/s) = 3.42945 4.38982 3.93902
# Velocity P-wave (km/s) = 6.00172 7.63775 6.86862
#
# Compressibility (1/GPa) = 0.01969493
#
# Stress axis : x y z
#
# Youngs Moduli (GPa) = 38.83129 94.04910 85.17833
#
# Poissons Ratio (x) = 0.14337 0.87005
# Poissons Ratio (y) = 0.05919 0.21093
# Poissons Ratio (z) = 0.39664 0.23290
#
# Static dielectric constant tensor:
#      x y z
#    x 1.837250 -0.842040 0.032870 
#    y -0.842040 -0.226620 -0.044200 
#    z 0.032870 -0.044200 2.118110 
# 
# From -- ./inp_files/559625.got.cif
#   From: 2010.05.17/outbox.cif.g08.bks.cpg/sg2_280_cif.got.tgz:559625.got - 2010.06.03 11:33:40.
