data_PCOD9009534
_publ_section_title
;
Structure prediction by ZEFSAII (Michael W. Deem and Ramdas Pophale) SiO2 
 PCOD9009534
Probable space group: P -1
;
_chemical_formula_sum "Si O2"
_cell_formula_units_Z 16
_cell_length_a 9.223167
_cell_length_b 5.374548
_cell_length_c 21.385870
_cell_angle_alpha 116.982582
_cell_angle_beta 112.144114
_cell_angle_gamma 100.242473
_cell_volume 793.039221
_symmetry_space_group_name_H-M "P -1"
_symmetry_group_IT_number 2
_symmetry_cell_setting 'triclinic'
loop_
_space_group_symop_operation_xyz
x,y,z
-x,-y,-z
loop_
_atom_site_type_symbol
_atom_site_label
_atom_site_fract_x
_atom_site_fract_y
_atom_site_fract_z
Si Si1 0.621959 0.618961 0.352121
Si Si2 0.952369 0.612030 0.167736
Si Si3 0.822109 0.277463 0.414273
Si Si4 0.237053 0.255837 0.742739
Si Si5 0.441213 0.771528 0.151405
Si Si6 0.721466 0.880713 0.768650
Si Si7 0.137142 0.219178 0.095033
Si Si8 0.403272 0.720804 0.000398
O O1 0.720134 0.473897 0.396026
O O2 0.659990 0.548896 0.278370
O O3 0.415148 0.461613 0.309174
O O4 0.705781 0.990999 0.407861
O O5 0.873672 0.600332 0.222151
O O6 0.790324 0.491042 0.079582
O O7 0.051405 0.405619 0.141857
O O8 0.107032 0.954227 0.224930
O O9 0.000000 0.500000 0.500000
O O10 0.858556 0.086076 0.341407
O O11 0.374537 0.232358 0.810625
O O12 0.293901 0.433994 0.101837
O O13 0.406896 0.950349 0.225415
O O14 0.415487 0.861557 0.087576
O O15 0.797001 0.927024 0.856103
O O16 0.000000 0.000000 0.000000
O O17 0.500000 0.500000 0.000000
O O18 0.500000 0.000000 0.000000
#
# Coordination Sequence:
#
# PCOD9009534 Si02
#       8
#     2   2   2   2   2   2   2   2
#     4  10  21  39  69  98 126 172 207 259 320 393
#     4  11  26  40  59  95 126 172 220 279 322 373
#     4  10  21  39  70 105 130 159 210 264 321 391
#     4  10  22  39  66  94 127 165 214 265 324 377
#     4  11  22  41  60  87 122 170 224 263 324 384
#     4  11  22  40  62  88 126 173 217 264 316 394
#     4  11  23  38  60  85 125 172 222 270 324 377
#     4  12  28  40  60  88 127 168 216 279 327 365
#
# _framework density 20.175546000000001
#
# number of rings (size 3 to 8) (size 9 to 14) (size 15 to 20)
#    0.750    0.500    3.750    1.875    8.750    3.000 
#    0.000    0.000    0.000    1.500    0.000    0.000 
#    0.000    0.000    0.000    0.000    0.000    0.000 
#
# Total GULP energy -89181.295382 kJ/mol
# GULP energy per Si atom -5573.830961 kJ/mol
# Density = 2.012963 g / cm^3
# Si number density = 20.175546 Si / 1000 Ang^3
#
#
#
# Elastic Constant Matrix: (Units=GPa)
#
#
# Indices 1 2 3 4 5 6 
#
# 1 79.0033 13.9292 19.0772 1.2991 3.8855 6.4831
# 2 13.9292 73.0501 16.5253 6.8317 11.4641 2.9960
# 3 19.0772 16.5253 110.2627 15.3701 22.9374 10.0773
# 4 1.2991 6.8317 15.3701 28.6479 3.5709 7.1839
# 5 3.8855 11.4641 22.9374 3.5709 24.5610 6.5674
# 6 6.4831 2.9960 10.0773 7.1839 6.5674 28.3024
#
#
#
# Elastic Compliance Matrix: (Units=1/GPa)
#
#
# Indices 1 2 3 4 5 6 
#
# 1 0.013774 -0.002398 -0.002343 0.001723 0.001650 -0.002887
# 2 -0.002398 0.015448 -0.000252 -0.002945 -0.006505 0.001261
# 3 -0.002343 -0.000252 0.012385 -0.005159 -0.010288 -0.000150
# 4 0.001723 -0.002945 -0.005159 0.040256 0.002485 -0.009041
# 5 0.001650 -0.006505 -0.010288 0.002485 0.055273 -0.009482
# 6 -0.002887 0.001261 -0.000150 -0.009041 -0.009482 0.040409
#
#
# Mechanical properties :
#
#
# Convention : Reuss Voigt Hill
#
# Bulk Modulus (GPa) = 31.62439 40.15328 35.88884
# Shear Modulus (GPa) = 25.24341 30.48787 27.86564
#
# Velocity S-wave (km/s) = 3.54105 3.89154 3.72043
# Velocity P-wave (km/s) = 5.69450 6.33540 6.02348
#
# Compressibility (1/GPa) = 0.03162116
#
# Stress axis : x y z
#
# Youngs Moduli (GPa) = 72.60182 64.73313 80.73989
#
# Poissons Ratio (x) = 0.15523 0.18919
# Poissons Ratio (y) = 0.17410 0.02033
# Poissons Ratio (z) = 0.17012 0.01630
#
# Static dielectric constant tensor:
#      x y z
#    x 1.766610 -0.040260 -0.010200 
#    y -0.040260 1.789570 0.040850 
#    z -0.010200 0.040850 1.690600 
# 
# From -- ./inp_files/56106.got.cif
#   From: 2010.05.17/outbox.cif.g08.bks.cpg/sg2_29_cif.got.tgz:56106.got - 2010.06.03 11:33:40.
