data_PCOD9009237
_publ_section_title
;
Structure prediction by ZEFSAII (Michael W. Deem and Ramdas Pophale) SiO2 
 PCOD9009237
Probable space group: P -1
;
_chemical_formula_sum "Si O2"
_cell_formula_units_Z 16
_cell_length_a 12.536572
_cell_length_b 14.903736
_cell_length_c 7.765286
_cell_angle_alpha 84.610765
_cell_angle_beta 121.393422
_cell_angle_gamma 49.182245
_cell_volume 693.704218
_symmetry_space_group_name_H-M "P -1"
_symmetry_group_IT_number 2
_symmetry_cell_setting 'triclinic'
loop_
_space_group_symop_operation_xyz
x,y,z
-x,-y,-z
loop_
_atom_site_type_symbol
_atom_site_label
_atom_site_fract_x
_atom_site_fract_y
_atom_site_fract_z
Si Si1 0.390530 0.159045 0.436586
Si Si2 0.484313 0.759661 0.720876
Si Si3 0.172658 0.962211 0.743898
Si Si4 0.137574 0.501822 0.680274
Si Si5 0.446065 0.284079 0.669081
Si Si6 0.100540 0.606916 0.102548
Si Si7 0.095725 0.701959 0.445414
Si Si8 0.510079 0.543547 0.686951
O O1 0.517517 0.158983 0.430407
O O2 0.417052 0.193333 0.637285
O O3 0.500000 0.000000 0.500000
O O4 0.126607 0.305434 0.158319
O O5 0.349849 0.871172 0.755624
O O6 0.408863 0.705037 0.603144
O O7 0.741428 0.593820 0.025052
O O8 0.297481 0.851264 0.041922
O O9 0.000000 0.000000 0.500000
O O10 0.046804 0.126836 0.660952
O O11 0.330109 0.392296 0.720189
O O12 0.031896 0.661779 0.533896
O O13 0.000000 0.500000 0.500000
O O14 0.294957 0.423550 0.371453
O O15 0.042687 0.699658 0.207700
O O16 0.224283 0.595527 0.065594
O O17 0.358819 0.573513 0.680865
O O18 0.500000 0.500000 0.500000
#
# Coordination Sequence:
#
# PCOD9009237 Si02
#       8
#     2   2   2   2   2   2   2   2
#     4  12  25  43  68 102 137 171 223 277 343 402
#     4  11  23  43  65  97 134 175 224 272 336 401
#     4  11  23  44  65  96 145 181 217 278 335 397
#     4  10  23  40  66  95 128 174 224 276 333 392
#     4  10  22  40  66  96 129 181 223 273 331 393
#     4  10  21  42  69  98 134 173 221 284 330 395
#     4  10  21  42  65  96 131 177 228 274 328 396
#     4  10  21  39  67  97 132 171 227 279 323 393
#
# _framework density 23.064587
#
# number of rings (size 3 to 8) (size 9 to 14) (size 15 to 20)
#    0.000    1.500    2.500    2.625    1.750    1.500 
#    4.500    6.875    0.000    0.000    0.000    0.000 
#    0.000    0.000    0.000    0.000    0.000    0.000 
#
# Total GULP energy -89090.546536 kJ/mol
# GULP energy per Si atom -5568.159159 kJ/mol
# Density = 2.301209 g / cm^3
# Si number density = 23.064587 Si / 1000 Ang^3
#
#
#
# Elastic Constant Matrix: (Units=GPa)
#
#
# Indices 1 2 3 4 5 6 
#
# 1 82.8349 17.1724 19.1777 -10.6448 13.8530 20.4197
# 2 17.1724 156.5735 34.2351 1.0260 2.4430 25.2774
# 3 19.1777 34.2351 112.7450 7.8784 20.9655 15.3192
# 4 -10.6448 1.0260 7.8784 33.5156 3.8352 5.6144
# 5 13.8530 2.4430 20.9655 3.8352 27.4038 3.6368
# 6 20.4197 25.2774 15.3192 5.6144 3.6368 41.7378
#
#
#
# Elastic Compliance Matrix: (Units=1/GPa)
#
#
# Indices 1 2 3 4 5 6 
#
# 1 0.016569 -0.000293 -0.000725 0.007678 -0.007806 -0.008015
# 2 -0.000293 0.007451 -0.002001 0.000629 0.001437 -0.003844
# 3 -0.000725 -0.002001 0.011383 -0.001676 -0.007701 -0.001714
# 4 0.007678 0.000629 -0.001676 0.034670 -0.006496 -0.007619
# 5 -0.007806 0.001437 -0.007701 -0.006496 0.046769 0.002574
# 6 -0.008015 -0.003844 -0.001714 -0.007619 0.002574 0.031638
#
#
# Mechanical properties :
#
#
# Convention : Reuss Voigt Hill
#
# Bulk Modulus (GPa) = 34.05722 54.81376 44.43549
# Shear Modulus (GPa) = 30.43105 39.30265 34.86685
#
# Velocity S-wave (km/s) = 3.63627 4.13246 3.89228
# Velocity P-wave (km/s) = 5.69456 6.82544 6.28549
#
# Compressibility (1/GPa) = 0.02936235
#
# Stress axis : x y z
#
# Youngs Moduli (GPa) = 60.35503 134.21778 87.85132
#
# Poissons Ratio (x) = 0.03935 0.06371
# Poissons Ratio (y) = 0.01770 0.17583
# Poissons Ratio (z) = 0.04377 0.26862
#
# Static dielectric constant tensor:
#      x y z
#    x 1.978860 -0.053380 -0.065350 
#    y -0.053380 1.967350 0.038940 
#    z -0.065350 0.038940 2.038530 
# 
# From -- ./inp_files/315352.got.cif
#   From: 2010.05.17/outbox.cif.g08.bks.cpg/sg2_158_cif.got.tgz:315352.got - 2010.06.03 11:33:40.
