data_PCOD9009437
_publ_section_title
;
Structure prediction by ZEFSAII (Michael W. Deem and Ramdas Pophale) SiO2 
 PCOD9009437
Probable space group: P -1
;
_chemical_formula_sum "Si O2"
_cell_formula_units_Z 12
_cell_length_a 7.256070
_cell_length_b 20.895645
_cell_length_c 14.163170
_cell_angle_alpha 158.381056
_cell_angle_beta 135.716911
_cell_angle_gamma 37.404480
_cell_volume 478.138246
_symmetry_space_group_name_H-M "P -1"
_symmetry_group_IT_number 2
_symmetry_cell_setting 'triclinic'
loop_
_space_group_symop_operation_xyz
x,y,z
-x,-y,-z
loop_
_atom_site_type_symbol
_atom_site_label
_atom_site_fract_x
_atom_site_fract_y
_atom_site_fract_z
Si Si1 0.894577 0.523072 0.345215
Si Si2 0.707620 0.408791 0.689670
Si Si3 0.359142 0.234732 0.770549
Si Si4 0.914454 0.174370 0.783388
Si Si5 0.772488 0.280671 0.329790
Si Si6 0.610389 0.886335 0.983318
O O1 0.566131 0.598521 0.370862
O O2 0.952364 0.705468 0.598490
O O3 0.151306 0.352967 0.273806
O O4 0.933062 0.381356 0.072292
O O5 0.809997 0.289306 0.467153
O O6 0.003621 0.324488 0.747365
O O7 0.597141 0.646516 0.963602
O O8 0.562277 0.259682 0.798642
O O9 0.500000 0.000000 0.500000
O O10 0.000000 0.000000 0.500000
O O11 0.163225 0.062117 0.804796
O O12 0.500000 0.500000 0.500000
O O13 0.648048 0.125435 0.062866
O O14 0.500000 0.000000 0.000000
#
# Coordination Sequence:
#
# PCOD9009437 Si02
#       6
#     2   2   2   2   2   2
#     4   8  20  41  66 100 134 185 227 283 356 414
#     4  10  22  43  67  98 139 179 235 289 344 415
#     4  10  23  41  65  98 133 186 228 281 354 413
#     4   9  20  40  66  97 138 174 231 294 340 415
#     4  10  21  39  68  98 136 181 232 279 347 423
#     4   9  20  38  68 104 136 178 238 283 348 421
#
# _framework density 25.097344
#
# number of rings (size 3 to 8) (size 9 to 14) (size 15 to 20)
#    1.000    1.667    0.000    0.000    4.667    2.667 
#    3.000    4.167    0.000    7.000    0.000    0.000 
#    0.000    0.000    0.000    0.000    0.000    0.000 
#
# Total GULP energy -66875.090918 kJ/mol
# GULP energy per Si atom -5572.924243 kJ/mol
# Density = 2.504022 g / cm^3
# Si number density = 25.097344 Si / 1000 Ang^3
#
#
#
# Elastic Constant Matrix: (Units=GPa)
#
#
# Indices 1 2 3 4 5 6 
#
# 1 142.9642 73.4635 20.9487 -1.1828 27.8630 -34.7861
# 2 73.4635 102.9902 40.9056 -8.8421 17.8935 -26.4869
# 3 20.9487 40.9056 125.4440 10.3232 22.7148 4.5216
# 4 -1.1828 -8.8421 10.3232 28.3988 11.0059 5.4475
# 5 27.8630 17.8935 22.7148 11.0059 38.3465 -10.0177
# 6 -34.7861 -26.4869 4.5216 5.4475 -10.0177 36.9666
#
#
#
# Elastic Compliance Matrix: (Units=1/GPa)
#
#
# Indices 1 2 3 4 5 6 
#
# 1 0.012984 -0.007550 0.001051 -0.001477 -0.004637 0.005642
# 2 -0.007550 0.019856 -0.005934 0.006939 -0.000509 0.006688
# 3 0.001051 -0.005934 0.011113 -0.002715 -0.005275 -0.005651
# 4 -0.001477 0.006939 -0.002715 0.045646 -0.015488 -0.007010
# 5 -0.004637 -0.000509 -0.005275 -0.015488 0.039587 0.008928
# 6 0.005642 0.006688 -0.005651 -0.007010 0.008928 0.041296
#
#
# Mechanical properties :
#
#
# Convention : Reuss Voigt Hill
#
# Bulk Modulus (GPa) = 52.38605 71.33713 61.86159
# Shear Modulus (GPa) = 24.78810 36.48109 30.63459
#
# Velocity S-wave (km/s) = 3.14614 3.81673 3.49754
# Velocity P-wave (km/s) = 5.84090 6.92164 6.40411
#
# Compressibility (1/GPa) = 0.01908905
#
# Stress axis : x y z
#
# Youngs Moduli (GPa) = 77.01573 50.36279 89.98142
#
# Poissons Ratio (x) = 0.38023 -0.09460
# Poissons Ratio (y) = 0.58145 0.53394
# Poissons Ratio (z) = -0.08097 0.29885
#
# Static dielectric constant tensor:
#      x y z
#    x 2.014450 -0.018340 -0.034970 
#    y -0.018340 2.010960 0.021090 
#    z -0.034970 0.021090 2.139490 
# 
# From -- ./inp_files/563430.got.cif
#   From: 2010.05.17/outbox.cif.g08.bks.cpg/sg2_282_cif.got.tgz:563430.got - 2010.06.03 11:33:40.
