data_PCOD9009566
_publ_section_title
;
Structure prediction by ZEFSAII (Michael W. Deem and Ramdas Pophale) SiO2 
 PCOD9009566
Probable space group: P -1
;
_chemical_formula_sum "Si O2"
_cell_formula_units_Z 16
_cell_length_a 11.362149
_cell_length_b 9.620835
_cell_length_c 9.517827
_cell_angle_alpha 82.463927
_cell_angle_beta 103.275844
_cell_angle_gamma 50.160070
_cell_volume 721.616278
_symmetry_space_group_name_H-M "P -1"
_symmetry_group_IT_number 2
_symmetry_cell_setting 'triclinic'
loop_
_space_group_symop_operation_xyz
x,y,z
-x,-y,-z
loop_
_atom_site_type_symbol
_atom_site_label
_atom_site_fract_x
_atom_site_fract_y
_atom_site_fract_z
Si Si1 0.939971 0.374360 0.126044
Si Si2 0.558667 0.446579 0.681095
Si Si3 0.271911 0.970140 0.163063
Si Si4 0.476276 0.012707 0.823721
Si Si5 0.327188 0.640110 0.841289
Si Si6 0.039423 0.521622 0.353072
Si Si7 0.719827 0.612065 0.777516
Si Si8 0.818796 0.936803 0.202986
O O1 0.805532 0.365580 0.137800
O O2 0.935802 0.505088 0.218572
O O3 0.127085 0.158657 0.191511
O O4 0.882083 0.465502 0.942323
O O5 0.500000 0.500000 0.500000
O O6 0.397499 0.545195 0.720957
O O7 0.633388 0.533962 0.738557
O O8 0.699127 0.214594 0.771073
O O9 0.454347 0.898463 0.231579
O O10 0.216519 0.030443 0.977645
O O11 0.598718 0.802901 0.813146
O O12 0.294407 0.091237 0.748254
O O13 0.500000 0.000000 0.000000
O O14 0.237632 0.864737 0.787270
O O15 0.500000 0.500000 0.000000
O O16 0.000000 0.500000 0.500000
O O17 0.225847 0.362525 0.358171
O O18 0.999170 0.720905 0.304069
#
# Coordination Sequence:
#
# PCOD9009566 Si02
#       8
#     2   2   2   2   2   2   2   2
#     4  12  24  44  74 103 139 181 242 290 339 427
#     4  12  29  46  68 103 147 184 229 295 357 413
#     4  11  23  42  70 105 134 184 236 283 353 412
#     4  10  21  39  70 103 132 172 238 293 335 401
#     4  12  24  45  71 105 135 183 241 286 343 419
#     4  12  29  45  67 107 147 185 227 294 363 412
#     4  12  23  48  73 100 141 188 237 285 349 425
#     4  11  22  42  71  98 136 184 237 287 339 419
#
# _framework density 22.172450999999999
#
# number of rings (size 3 to 8) (size 9 to 14) (size 15 to 20)
#    0.000    0.500    6.250    1.875    7.000    2.000 
#    0.000    2.500    0.000    0.000    0.000    0.000 
#    0.000    0.000    0.000    0.000    0.000    0.000 
#
# Total GULP energy -89411.949586 kJ/mol
# GULP energy per Si atom -5588.246849 kJ/mol
# Density = 2.212199 g / cm^3
# Si number density = 22.172451 Si / 1000 Ang^3
#
#
#
# Elastic Constant Matrix: (Units=GPa)
#
#
# Indices 1 2 3 4 5 6 
#
# 1 97.8380 10.0286 26.5973 13.5978 -17.7745 -0.3179
# 2 10.0286 143.8857 42.6643 18.7489 -10.7473 5.6285
# 3 26.5973 42.6643 102.8835 15.3020 -28.4839 -1.7026
# 4 13.5978 18.7489 15.3020 24.0214 -3.4272 -6.3516
# 5 -17.7745 -10.7473 -28.4839 -3.4272 28.7944 10.2115
# 6 -0.3179 5.6285 -1.7026 -6.3516 10.2115 39.2825
#
#
#
# Elastic Compliance Matrix: (Units=1/GPa)
#
#
# Indices 1 2 3 4 5 6 
#
# 1 0.012727 0.000930 -0.000373 -0.007420 0.008144 -0.003363
# 2 0.000930 0.008664 -0.002533 -0.006181 0.001539 -0.002743
# 3 -0.000373 -0.002533 0.016079 -0.006936 0.015341 -0.004053
# 4 -0.007420 -0.006181 -0.006936 0.056790 -0.011492 0.012695
# 5 0.008144 0.001539 0.015341 -0.011492 0.060162 -0.016987
# 6 -0.003363 -0.002743 -0.004053 0.012695 -0.016987 0.032115
#
#
# Mechanical properties :
#
#
# Convention : Reuss Voigt Hill
#
# Bulk Modulus (GPa) = 29.83583 55.90975 42.87279
# Shear Modulus (GPa) = 24.79401 36.10745 30.45073
#
# Velocity S-wave (km/s) = 3.34763 4.03982 3.70991
# Velocity P-wave (km/s) = 5.33176 6.85790 6.14241
#
# Compressibility (1/GPa) = 0.03351675
#
# Stress axis : x y z
#
# Youngs Moduli (GPa) = 78.57367 115.42060 62.19467
#
# Poissons Ratio (x) = -0.10738 0.02323
# Poissons Ratio (y) = -0.07310 0.15756
# Poissons Ratio (z) = 0.02934 0.29239
#
# Static dielectric constant tensor:
#      x y z
#    x 1.815210 0.093900 -0.032090 
#    y 0.093900 1.476480 0.112510 
#    z -0.032090 0.112510 1.761280 
# 
# From -- ./inp_files/243878.got.cif
#   From: 2010.05.17/outbox.cif.g08.bks.cpg/sg2_122_cif.got.tgz:243878.got - 2010.06.03 11:33:40.
