data_PCOD9009834
_publ_section_title
;
Structure prediction by ZEFSAII (Michael W. Deem and Ramdas Pophale) SiO2 
 PCOD9009834
Probable space group: P -1
;
_chemical_formula_sum "Si O2"
_cell_formula_units_Z 12
_cell_length_a 7.257853
_cell_length_b 8.962209
_cell_length_c 9.877653
_cell_angle_alpha 91.124530
_cell_angle_beta 105.281215
_cell_angle_gamma 123.974104
_cell_volume 502.673598
_symmetry_space_group_name_H-M "P -1"
_symmetry_group_IT_number 2
_symmetry_cell_setting 'triclinic'
loop_
_space_group_symop_operation_xyz
x,y,z
-x,-y,-z
loop_
_atom_site_type_symbol
_atom_site_label
_atom_site_fract_x
_atom_site_fract_y
_atom_site_fract_z
Si Si1 0.167434 0.161126 0.641902
Si Si2 0.879193 0.893740 0.801584
Si Si3 0.640135 0.053498 0.840605
Si Si4 0.934223 0.349081 0.671030
Si Si5 0.482370 0.669013 0.498453
Si Si6 0.831289 0.261256 0.146776
O O1 0.422239 0.248947 0.632440
O O2 0.102061 0.305569 0.632091
O O3 0.000000 0.000000 0.500000
O O4 0.104231 0.070631 0.774662
O O5 0.663438 0.803388 0.650407
O O6 0.949897 0.753603 0.827531
O O7 0.779416 0.960005 0.897074
O O8 0.764646 0.173178 0.732810
O O9 0.363156 0.889804 0.786873
O O10 0.697877 0.192577 0.976398
O O11 0.766413 0.364876 0.538629
O O12 0.078814 0.536588 0.787945
O O13 0.500000 0.500000 0.500000
#
# Coordination Sequence:
#
# PCOD9009834 Si02
#       6
#     2   2   2   2   2   2
#     4   9  22  39  57  87 124 159 195 242 301 358
#     4  10  21  40  60  85 124 158 194 248 302 353
#     4  10  24  41  61  89 121 159 203 250 297 348
#     4  11  23  40  65  88 123 161 198 249 301 359
#     4  11  22  37  59  92 120 152 200 245 299 361
#     4  11  22  40  64  89 118 160 206 246 294 356
#
# _framework density 23.872347000000001
#
# number of rings (size 3 to 8) (size 9 to 14) (size 15 to 20)
#    0.000    1.667    1.667    2.000    2.333    9.333 
#    0.000    0.000    0.000   11.000    0.000    0.000 
#    0.000    0.000    0.000    0.000    0.000    0.000 
#
# Total GULP energy -67070.280976 kJ/mol
# GULP energy per Si atom -5589.190081 kJ/mol
# Density = 2.381801 g / cm^3
# Si number density = 23.872347 Si / 1000 Ang^3
#
#
#
# Elastic Constant Matrix: (Units=GPa)
#
#
# Indices 1 2 3 4 5 6 
#
# 1 143.8721 24.6765 13.5420 19.9731 -6.4465 -23.9182
# 2 24.6765 89.5789 19.0220 22.3423 -10.0173 -17.9811
# 3 13.5420 19.0220 49.8623 14.8212 -13.6263 -7.3822
# 4 19.9731 22.3423 14.8212 36.8060 -6.6756 -15.1625
# 5 -6.4465 -10.0173 -13.6263 -6.6756 32.9722 2.4549
# 6 -23.9182 -17.9811 -7.3822 -15.1625 2.4549 47.8236
#
#
#
# Elastic Compliance Matrix: (Units=1/GPa)
#
#
# Indices 1 2 3 4 5 6 
#
# 1 0.007964 -0.000881 -0.000627 -0.002316 0.000353 0.002803
# 2 -0.000881 0.014074 -0.002608 -0.005649 0.001691 0.002570
# 3 -0.000627 -0.002608 0.025511 -0.006832 0.008241 0.000055
# 4 -0.002316 -0.005649 -0.006832 0.038149 0.002162 0.007647
# 5 0.000353 0.001691 0.008241 0.002162 0.034681 0.000989
# 6 0.002803 0.002570 0.000055 0.007647 0.000989 0.025661
#
#
# Mechanical properties :
#
#
# Convention : Reuss Voigt Hill
#
# Bulk Modulus (GPa) = 25.43429 44.19935 34.81682
# Shear Modulus (GPa) = 29.87254 38.59190 34.23222
#
# Velocity S-wave (km/s) = 3.54127 4.02505 3.79089
# Velocity P-wave (km/s) = 5.23433 6.33691 5.81183
#
# Compressibility (1/GPa) = 0.03931701
#
# Stress axis : x y z
#
# Youngs Moduli (GPa) = 125.56518 71.05351 39.19811
#
# Poissons Ratio (x) = 0.06260 0.02458
# Poissons Ratio (y) = 0.11063 0.10223
# Poissons Ratio (z) = 0.07874 0.18530
#
# Static dielectric constant tensor:
#      x y z
#    x 1.956910 -0.031670 0.009210 
#    y -0.031670 1.959630 -0.052860 
#    z 0.009210 -0.052860 1.951980 
# 
# From -- ./inp_files/19892.got.cif
#   From: 2010.05.17/outbox.cif.g08.bks.cpg/sg2_10_cif.got.tgz:19892.got - 2010.06.03 11:33:40.
