data_PCOD9009920
_publ_section_title
;
Structure prediction by ZEFSAII (Michael W. Deem and Ramdas Pophale) SiO2 
 PCOD9009920
Probable space group: P -1
;
_chemical_formula_sum "Si O2"
_cell_formula_units_Z 16
_cell_length_a 11.643394
_cell_length_b 14.286777
_cell_length_c 11.334546
_cell_angle_alpha 33.316971
_cell_angle_beta 86.533356
_cell_angle_gamma 62.518455
_cell_volume 684.317622
_symmetry_space_group_name_H-M "P -1"
_symmetry_group_IT_number 2
_symmetry_cell_setting 'triclinic'
loop_
_space_group_symop_operation_xyz
x,y,z
-x,-y,-z
loop_
_atom_site_type_symbol
_atom_site_label
_atom_site_fract_x
_atom_site_fract_y
_atom_site_fract_z
Si Si1 0.891781 0.860601 0.553507
Si Si2 0.437452 0.912497 0.346260
Si Si3 0.030582 0.382073 0.944429
Si Si4 0.067852 0.845004 0.886899
Si Si5 0.591802 0.439199 0.690997
Si Si6 0.494844 0.305150 0.175389
Si Si7 0.389083 0.338044 0.901581
Si Si8 0.831294 0.213395 0.703615
O O1 0.968124 0.708577 0.831550
O O2 0.935167 0.010059 0.368734
O O3 0.686096 0.058236 0.371554
O O4 0.964834 0.647371 0.677321
O O5 0.488504 0.723135 0.440726
O O6 0.521216 0.765974 0.621551
O O7 0.228940 0.152838 0.128684
O O8 0.482708 0.057402 0.165929
O O9 0.907960 0.383594 0.885353
O O10 0.226337 0.738610 0.064210
O O11 0.885619 0.059756 0.741950
O O12 0.505399 0.370424 0.826138
O O13 0.666877 0.335856 0.662016
O O14 0.500000 0.500000 0.000000
O O15 0.363075 0.389912 0.990932
O O16 0.227172 0.540479 0.607422
O O17 0.000000 0.000000 0.000000
#
# Coordination Sequence:
#
# PCOD9009920 Si02
#       8
#     2   2   2   2   2   2   2   2
#     4  10  21  40  60  97 136 169 224 261 327 406
#     4  11  24  42  68 102 141 175 227 269 338 414
#     4  10  23  38  62  96 133 179 211 268 329 397
#     4  11  21  41  67  89 131 174 219 276 332 388
#     4  11  24  44  67 100 130 177 231 280 337 393
#     4  11  22  42  67 106 142 177 217 270 339 415
#     4  12  23  43  71  96 138 181 216 283 338 393
#     4  10  25  45  70  98 130 178 236 285 334 395
#
# _framework density 23.380955
#
# number of rings (size 3 to 8) (size 9 to 14) (size 15 to 20)
#    0.000    1.250    2.500    2.625    3.500    0.500 
#   11.250    1.250    0.000    6.750    0.000    0.000 
#    0.000    0.000    0.000    0.000    0.000    0.000 
#
# Total GULP energy -89267.807056 kJ/mol
# GULP energy per Si atom -5579.237941 kJ/mol
# Density = 2.332774 g / cm^3
# Si number density = 23.380955 Si / 1000 Ang^3
#
#
#
# Elastic Constant Matrix: (Units=GPa)
#
#
# Indices 1 2 3 4 5 6 
#
# 1 62.5598 11.4602 10.3413 -13.5440 -19.2892 0.4858
# 2 11.4602 77.1840 12.3575 -23.1383 -5.1882 -8.5933
# 3 10.3413 12.3575 91.5104 -13.3095 -18.6976 8.2585
# 4 -13.5440 -23.1383 -13.3095 37.3219 8.8105 8.6075
# 5 -19.2892 -5.1882 -18.6976 8.8105 32.2132 -17.3301
# 6 0.4858 -8.5933 8.2585 8.6075 -17.3301 27.6955
#
#
#
# Elastic Compliance Matrix: (Units=1/GPa)
#
#
# Indices 1 2 3 4 5 6 
#
# 1 0.021964 -0.000628 0.000629 0.000779 0.019083 0.010931
# 2 -0.000628 0.016184 -0.000955 0.008344 0.001296 0.003535
# 3 0.000629 -0.000955 0.012795 0.003012 0.006186 -0.001188
# 4 0.000779 0.008344 0.003012 0.044965 -0.023147 -0.026782
# 5 0.019083 0.001296 0.006186 -0.023147 0.083686 0.057782
# 6 0.010931 0.003535 -0.001188 -0.026782 0.057782 0.081846
#
#
# Mechanical properties :
#
#
# Convention : Reuss Voigt Hill
#
# Bulk Modulus (GPa) = 20.39440 33.28580 26.84010
# Shear Modulus (GPa) = 17.87669 32.58579 25.23124
#
# Velocity S-wave (km/s) = 2.76811 3.73727 3.28859
# Velocity P-wave (km/s) = 4.35410 5.73499 5.09157
#
# Compressibility (1/GPa) = 0.04903308
#
# Stress axis : x y z
#
# Youngs Moduli (GPa) = 45.52985 61.78827 78.15551
#
# Poissons Ratio (x) = 0.03883 -0.04914
# Poissons Ratio (y) = 0.02861 0.07466
# Poissons Ratio (z) = -0.02863 0.05902
#
# Static dielectric constant tensor:
#      x y z
#    x 1.937530 0.055960 0.068600 
#    y 0.055960 1.988400 0.005740 
#    z 0.068600 0.005740 1.938010 
# 
# From -- ./inp_files/433657.got.cif
#   From: 2010.05.17/outbox.cif.g08.bks.cpg/sg2_217_cif.got.tgz:433657.got - 2010.06.03 11:33:40.
