data_PCOD9009766
_publ_section_title
;
Structure prediction by ZEFSAII (Michael W. Deem and Ramdas Pophale) SiO2 
 PCOD9009766
Probable space group: P -1
;
_chemical_formula_sum "Si O2"
_cell_formula_units_Z 16
_cell_length_a 7.897945
_cell_length_b 15.655023
_cell_length_c 16.313452
_cell_angle_alpha 28.706792
_cell_angle_beta 103.131261
_cell_angle_gamma 87.003873
_cell_volume 795.491420
_symmetry_space_group_name_H-M "P -1"
_symmetry_group_IT_number 2
_symmetry_cell_setting 'triclinic'
loop_
_space_group_symop_operation_xyz
x,y,z
-x,-y,-z
loop_
_atom_site_type_symbol
_atom_site_label
_atom_site_fract_x
_atom_site_fract_y
_atom_site_fract_z
Si Si1 0.975871 0.068822 0.563157
Si Si2 0.916397 0.822777 0.889847
Si Si3 0.469783 0.021361 0.382268
Si Si4 0.741002 0.003785 0.893518
Si Si5 0.935658 0.279537 0.694925
Si Si6 0.189113 0.339134 0.374189
Si Si7 0.264410 0.269491 0.633837
Si Si8 0.678656 0.258834 0.228204
O O1 0.057263 0.228737 0.437178
O O2 0.757333 0.193706 0.385470
O O3 0.109698 0.851845 0.707009
O O4 0.982230 0.978874 0.729880
O O5 0.763095 0.842691 0.785373
O O6 0.787936 0.914706 0.881849
O O7 0.081890 0.578449 0.130214
O O8 0.576695 0.147008 0.266814
O O9 0.500000 0.000000 0.500000
O O10 0.598153 0.802550 0.532603
O O11 0.506223 0.091341 0.819410
O O12 0.793725 0.184639 0.750674
O O13 0.909391 0.825363 0.122607
O O14 0.094185 0.221394 0.686199
O O15 0.792559 0.527727 0.487963
O O16 0.229744 0.328234 0.484748
O O17 0.500000 0.500000 0.000000
#
# Coordination Sequence:
#
# PCOD9009766 Si02
#       8
#     2   2   2   2   2   2   2   2
#     4  10  23  39  59  88 120 162 208 266 313 374
#     4  12  23  40  66  91 128 169 210 267 323 372
#     4  11  23  40  62  90 122 166 214 263 317 381
#     4  11  22  41  65  97 130 167 216 262 316 395
#     4  10  23  40  68  97 127 170 210 259 331 380
#     4  11  24  41  62  93 130 165 212 267 319 377
#     4  11  21  42  66  93 133 169 209 266 322 384
#     4  10  21  40  59  84 120 157 213 263 316 381
#
# _framework density 20.113356
#
# number of rings (size 3 to 8) (size 9 to 14) (size 15 to 20)
#    0.000    1.250    3.750    2.250    1.750    0.500 
#    0.000    0.000    0.000    0.000    0.000    0.000 
#    0.000    0.000    0.000    0.000    0.000    0.000 
#
# Total GULP energy -89195.175131 kJ/mol
# GULP energy per Si atom -5574.698446 kJ/mol
# Density = 2.006758 g / cm^3
# Si number density = 20.113356 Si / 1000 Ang^3
#
#
#
# Elastic Constant Matrix: (Units=GPa)
#
#
# Indices 1 2 3 4 5 6 
#
# 1 44.2440 3.6163 10.4792 -4.4405 4.1480 -9.3714
# 2 3.6163 66.1516 18.0408 4.2478 6.0333 -17.4917
# 3 10.4792 18.0408 89.5476 -5.2890 10.3511 -8.9697
# 4 -4.4405 4.2478 -5.2890 34.7686 -4.3676 1.7819
# 5 4.1480 6.0333 10.3511 -4.3676 25.1975 2.4780
# 6 -9.3714 -17.4917 -8.9697 1.7819 2.4780 37.7503
#
#
#
# Elastic Compliance Matrix: (Units=1/GPa)
#
#
# Indices 1 2 3 4 5 6 
#
# 1 0.024878 0.001080 -0.001930 0.001941 -0.003852 0.006379
# 2 0.001080 0.018828 -0.002658 -0.003662 -0.005101 0.008868
# 3 -0.001930 -0.002658 0.012640 0.001404 -0.004143 0.001498
# 4 0.001941 -0.003662 0.001404 0.030503 0.005532 -0.002684
# 5 -0.003852 -0.005101 -0.004143 0.005532 0.044942 -0.007515
# 6 0.006379 0.008868 0.001498 -0.002684 -0.007515 0.033158
#
#
# Mechanical properties :
#
#
# Convention : Reuss Voigt Hill
#
# Bulk Modulus (GPa) = 20.27172 29.35730 24.81451
# Shear Modulus (GPa) = 26.53805 30.73043 28.63424
#
# Velocity S-wave (km/s) = 3.63633 3.91303 3.77721
# Velocity P-wave (km/s) = 5.26604 5.91974 5.60243
#
# Compressibility (1/GPa) = 0.04932981
#
# Stress axis : x y z
#
# Youngs Moduli (GPa) = 40.19644 53.11269 79.11112
#
# Poissons Ratio (x) = -0.05735 0.15268
# Poissons Ratio (y) = -0.04340 0.21027
# Poissons Ratio (z) = 0.07758 0.14117
#
# Static dielectric constant tensor:
#      x y z
#    x 1.857310 -0.007520 -0.054280 
#    y -0.007520 1.753170 -0.022520 
#    z -0.054280 -0.022520 1.732720 
# 
# From -- ./inp_files/38514.got.cif
#   From: 2010.05.17/outbox.cif.g08.bks.cpg/sg2_20_cif.got.tgz:38514.got - 2010.06.03 11:33:40.
