data_PCOD9009049
_publ_section_title
;
Structure prediction by ZEFSAII (Michael W. Deem and Ramdas Pophale) SiO2 
 PCOD9009049
Probable space group: P -1
;
_chemical_formula_sum "Si O2"
_cell_formula_units_Z 15
_cell_length_a 7.984179
_cell_length_b 15.497913
_cell_length_c 12.839674
_cell_angle_alpha 151.629374
_cell_angle_beta 113.628643
_cell_angle_gamma 66.132288
_cell_volume 686.698795
_symmetry_space_group_name_H-M "P -1"
_symmetry_group_IT_number 2
_symmetry_cell_setting 'triclinic'
loop_
_space_group_symop_operation_xyz
x,y,z
-x,-y,-z
loop_
_atom_site_type_symbol
_atom_site_label
_atom_site_fract_x
_atom_site_fract_y
_atom_site_fract_z
Si Si1 0.027632 0.357597 0.020888
Si Si2 0.290715 0.431401 0.721319
Si Si3 0.612050 0.837293 0.004463
Si Si4 0.760145 0.883290 0.464668
Si Si5 0.144739 0.703757 0.297493
Si Si6 0.500000 0.500000 0.500000
Si Si7 0.460263 0.790417 0.136972
Si Si8 0.533217 0.251945 0.432307
O O1 0.124249 0.505702 0.133387
O O2 0.910382 0.458629 0.192809
O O3 0.182375 0.208361 0.946517
O O4 0.885941 0.297294 0.834838
O O5 0.300757 0.273698 0.641868
O O6 0.336134 0.336697 0.520400
O O7 0.430632 0.582532 0.933319
O O8 0.475918 0.807056 0.034844
O O9 0.560938 0.046102 0.180524
O O10 0.582387 0.690911 0.753690
O O11 0.639842 0.860708 0.307829
O O12 0.973021 0.836666 0.441586
O O13 0.705124 0.072619 0.710642
O O14 0.335008 0.758350 0.443780
O O15 0.590971 0.398784 0.521320
#
# Coordination Sequence:
#
# PCOD9009049 Si02
#       8
#     2   2   2   2   2   1   2   2
#     4  10  22  39  66 101 139 169 213 261 334 401
#     4  11  23  37  62  93 132 175 213 262 324 388
#     4  12  24  46  70  97 127 174 223 273 325 396
#     4  10  22  36  60 101 140 174 211 254 326 405
#     4  10  21  39  66  98 141 177 207 265 331 395
#     4  12  26  50  70  90 126 174 232 284 320 378
#     4  11  21  38  62  96 140 176 206 267 321 396
#     4  12  26  43  71  95 126 176 225 272 334 384
#
# _framework density 21.843637999999999
#
# number of rings (size 3 to 8) (size 9 to 14) (size 15 to 20)
#    0.000    1.067    5.333    0.800    7.467    0.533 
#    0.000    0.667    0.000    2.400    0.000    0.000 
#    0.000    0.000    0.000    0.000    0.000    0.000 
#
# Total GULP energy -83617.220015 kJ/mol
# GULP energy per Si atom -5574.481334 kJ/mol
# Density = 2.179392 g / cm^3
# Si number density = 21.843638 Si / 1000 Ang^3
#
#
#
# Elastic Constant Matrix: (Units=GPa)
#
#
# Indices 1 2 3 4 5 6 
#
# 1 64.1437 23.3534 8.5582 17.7034 -16.2534 -7.7845
# 2 23.3534 89.3534 44.3173 21.7621 -5.1207 -4.4080
# 3 8.5582 44.3173 91.6305 27.6703 -5.6621 -15.4810
# 4 17.7034 21.7621 27.6703 34.3198 -5.8111 1.8854
# 5 -16.2534 -5.1207 -5.6621 -5.8111 23.5679 16.1333
# 6 -7.7845 -4.4080 -15.4810 1.8854 16.1333 8.8653
#
#
#
# Elastic Compliance Matrix: (Units=1/GPa)
#
#
# Indices 1 2 3 4 5 6 
#
# 1 0.022779 -0.004712 0.003174 -0.008547 0.015407 -0.003019
# 2 -0.004712 0.016222 -0.005659 -0.004403 -0.005147 0.004348
# 3 0.003174 -0.005659 0.008681 0.001506 0.027358 -0.034975
# 4 -0.008547 -0.004403 0.001506 0.026321 -0.035274 0.051530
# 5 0.015407 -0.005147 0.027358 -0.035274 -0.018169 0.099311
# 6 -0.003019 0.004348 -0.034975 0.051530 0.099311 -0.140452
#
#
# Mechanical properties :
#
#
# Convention : Reuss Voigt Hill
#
# Bulk Modulus (GPa) = 30.04189 44.17615 37.10902
# Shear Modulus (GPa) = -84.56129 24.61052 -29.97539
#
# Velocity S-wave (km/s) = -6.22865 3.36023 -3.70844
# Velocity P-wave (km/s) = 6.15996 5.94328 1.14512
#
# Compressibility (1/GPa) = 0.03328685
#
# Stress axis : x y z
#
# Youngs Moduli (GPa) = 43.90093 61.64486 115.19454
#
# Poissons Ratio (x) = 0.29049 -0.36568
# Poissons Ratio (y) = 0.20687 0.65194
# Poissons Ratio (z) = -0.13936 0.34888
#
# Static dielectric constant tensor:
#      x y z
#    x 1.816830 -0.004220 -0.020970 
#    y -0.004220 1.768110 0.012920 
#    z -0.020970 0.012920 1.837230 
# 
# From -- ./inp_files/397996.got.cif
#   From: 2010.05.17/outbox.cif.g08.bks.cpg/sg2_199_cif.got.tgz:397996.got - 2010.06.03 11:33:40.
