data_PCOD9009121
_publ_section_title
;
Structure prediction by ZEFSAII (Michael W. Deem and Ramdas Pophale) SiO2 
 PCOD9009121
Probable space group: P -1
;
_chemical_formula_sum "Si O2"
_cell_formula_units_Z 16
_cell_length_a 20.119677
_cell_length_b 8.103860
_cell_length_c 17.417868
_cell_angle_alpha 131.189862
_cell_angle_beta 157.275884
_cell_angle_gamma 59.158951
_cell_volume 780.453332
_symmetry_space_group_name_H-M "P -1"
_symmetry_group_IT_number 2
_symmetry_cell_setting 'triclinic'
loop_
_space_group_symop_operation_xyz
x,y,z
-x,-y,-z
loop_
_atom_site_type_symbol
_atom_site_label
_atom_site_fract_x
_atom_site_fract_y
_atom_site_fract_z
Si Si1 0.605640 0.109697 0.822663
Si Si2 0.997312 0.376918 0.377686
Si Si3 0.883760 0.568676 0.962880
Si Si4 0.317920 0.599153 0.158863
Si Si5 0.974476 0.763319 0.355824
Si Si6 0.614697 0.697856 0.239557
Si Si7 0.199872 0.817024 0.465293
Si Si8 0.406432 0.583599 0.510677
O O1 0.632251 0.190762 0.785596
O O2 0.494854 0.270364 0.791679
O O3 0.497193 0.842017 0.648254
O O4 0.804703 0.176239 0.095177
O O5 0.000000 0.500000 0.500000
O O6 0.989957 0.573237 0.371976
O O7 0.184196 0.323388 0.544864
O O8 0.818615 0.396510 0.914212
O O9 0.709523 0.572188 0.729810
O O10 0.000000 0.500000 0.000000
O O11 0.020961 0.798433 0.217428
O O12 0.476784 0.545776 0.358716
O O13 0.214230 0.362415 0.928535
O O14 0.131959 0.792836 0.471065
O O15 0.000000 0.000000 0.500000
O O16 0.646929 0.940034 0.305526
O O17 0.500000 0.500000 0.000000
O O18 0.274424 0.626771 0.449510
#
# Coordination Sequence:
#
# PCOD9009121 Si02
#       8
#     2   2   2   2   2   2   2   2
#     4  10  24  40  57  96 124 155 209 255 299 365
#     4  11  22  37  59  81 123 169 197 253 307 353
#     4   9  19  40  65  88 119 157 202 253 308 363
#     4  10  22  38  61  90 123 154 203 255 299 370
#     4  10  22  36  57  86 119 161 203 245 304 364
#     4  11  22  38  60  85 123 164 204 250 300 362
#     4   9  21  38  59  88 119 156 204 252 298 369
#     4  10  21  39  67  85 119 163 200 254 313 351
#
# _framework density 20.500906000000001
#
# number of rings (size 3 to 8) (size 9 to 14) (size 15 to 20)
#    0.000    2.000    1.250    1.125    8.750    0.500 
#    0.000    1.250    0.000    3.750    0.000    0.000 
#    0.000    0.000    0.000    0.000    0.000    0.000 
#
# Total GULP energy -89097.811759 kJ/mol
# GULP energy per Si atom -5568.613235 kJ/mol
# Density = 2.045424 g / cm^3
# Si number density = 20.500906 Si / 1000 Ang^3
#
#
#
# Elastic Constant Matrix: (Units=GPa)
#
#
# Indices 1 2 3 4 5 6 
#
# 1 146.2142 14.6277 30.3480 -4.7068 2.7359 0.5669
# 2 14.6277 26.2151 13.2851 -9.1903 3.6295 -12.3441
# 3 30.3480 13.2851 81.1830 -13.7832 0.1227 1.6299
# 4 -4.7068 -9.1903 -13.7832 31.7820 -1.4787 5.4976
# 5 2.7359 3.6295 0.1227 -1.4787 30.8920 -5.8065
# 6 0.5669 -12.3441 1.6299 5.4976 -5.8065 30.7738
#
#
#
# Elastic Compliance Matrix: (Units=1/GPa)
#
#
# Indices 1 2 3 4 5 6 
#
# 1 0.007721 -0.004103 -0.002316 -0.000791 -0.000536 -0.001625
# 2 -0.004103 0.057469 -0.006721 0.009295 -0.001882 0.021468
# 3 -0.002316 -0.006721 0.015232 0.005080 0.000370 -0.004298
# 4 -0.000791 0.009295 0.005080 0.036775 0.000141 -0.003069
# 5 -0.000536 -0.001882 0.000370 0.000141 0.033691 0.005567
# 6 -0.001625 0.021468 -0.004298 -0.003069 0.005567 0.042963
#
#
# Mechanical properties :
#
#
# Convention : Reuss Voigt Hill
#
# Bulk Modulus (GPa) = 18.46978 41.12600 29.79789
# Shear Modulus (GPa) = 20.99265 31.71299 26.35282
#
# Velocity S-wave (km/s) = 3.20345 3.93734 3.58920
# Velocity P-wave (km/s) = 4.76567 6.38548 5.63409
#
# Compressibility (1/GPa) = 0.05414249
#
# Stress axis : x y z
#
# Youngs Moduli (GPa) = 129.51171 17.40060 65.65328
#
# Poissons Ratio (x) = 0.07140 0.15204
# Poissons Ratio (y) = 0.53142 0.44124
# Poissons Ratio (z) = 0.29992 0.11695
#
# Static dielectric constant tensor:
#      x y z
#    x 1.721650 -0.026950 0.071100 
#    y -0.026950 1.719940 -0.012630 
#    z 0.071100 -0.012630 1.835170 
# 
# From -- ./inp_files/533858.got.cif
#   From: 2010.05.17/outbox.cif.g08.bks.cpg/sg2_267_cif.got.tgz:533858.got - 2010.06.03 11:33:40.
