data_PCOD9009942
_publ_section_title
;
Structure prediction by ZEFSAII (Michael W. Deem and Ramdas Pophale) SiO2 
 PCOD9009942
Probable space group: P -1
;
_chemical_formula_sum "Si O2"
_cell_formula_units_Z 16
_cell_length_a 6.659675
_cell_length_b 22.409743
_cell_length_c 27.828215
_cell_angle_alpha 169.735160
_cell_angle_beta 97.896685
_cell_angle_gamma 82.988794
_cell_volume 731.033442
_symmetry_space_group_name_H-M "P -1"
_symmetry_group_IT_number 2
_symmetry_cell_setting 'triclinic'
loop_
_space_group_symop_operation_xyz
x,y,z
-x,-y,-z
loop_
_atom_site_type_symbol
_atom_site_label
_atom_site_fract_x
_atom_site_fract_y
_atom_site_fract_z
Si Si1 0.678784 0.214828 0.334992
Si Si2 0.698156 0.139932 0.004924
Si Si3 0.626782 0.502267 0.388201
Si Si4 0.541153 0.772607 0.366362
Si Si5 0.788229 0.172028 0.872648
Si Si6 0.021286 0.790271 0.785297
Si Si7 0.834955 0.803965 0.483131
Si Si8 0.168415 0.501486 0.200428
O O1 0.593970 0.402463 0.527545
O O2 0.863875 0.461335 0.518260
O O3 0.471166 0.141813 0.240353
O O4 0.750366 0.845690 0.053710
O O5 0.626364 0.271708 0.158428
O O6 0.717384 0.447476 0.212147
O O7 0.925114 0.020380 0.924495
O O8 0.752559 0.327121 0.295247
O O9 0.749367 0.848242 0.649424
O O10 0.722871 0.921184 0.524765
O O11 0.345000 0.713910 0.346914
O O12 0.500000 0.000000 0.500000
O O13 0.606555 0.412536 0.064303
O O14 0.815276 0.041024 0.715915
O O15 0.988910 0.384497 0.065089
O O16 0.000000 0.000000 0.000000
O O17 0.062116 0.715026 0.406875
#
# Coordination Sequence:
#
# PCOD9009942 Si02
#       8
#     2   2   2   2   2   2   2   2
#     4  12  21  39  63  88 122 167 213 255 305 366
#     4  10  22  40  58  91 124 161 211 259 303 364
#     4  10  21  40  61  85 125 163 208 258 306 362
#     4  11  24  44  67  95 129 159 203 263 313 371
#     4  10  21  41  66  93 127 167 204 253 312 371
#     4  10  23  40  57  91 127 163 210 259 306 357
#     4  10  23  42  64  94 128 162 210 255 308 379
#     4  11  22  40  66  93 121 166 210 251 315 373
#
# _framework density 21.886823
#
# number of rings (size 3 to 8) (size 9 to 14) (size 15 to 20)
#    0.000    1.500    3.750    1.125    0.000    7.000 
#    2.250    1.250    0.000    0.000    0.000    0.000 
#    0.000    0.000    0.000    0.000    0.000    0.000 
#
# Total GULP energy -89462.627141 kJ/mol
# GULP energy per Si atom -5591.414196 kJ/mol
# Density = 2.183701 g / cm^3
# Si number density = 21.886823 Si / 1000 Ang^3
#
#
#
# Elastic Constant Matrix: (Units=GPa)
#
#
# Indices 1 2 3 4 5 6 
#
# 1 82.5262 14.8730 12.0334 -3.8120 -21.7942 16.2653
# 2 14.8730 78.3613 15.5603 2.6724 -18.9030 -7.8802
# 3 12.0334 15.5603 43.8626 -16.7191 -10.4806 4.7726
# 4 -3.8120 2.6724 -16.7191 34.1990 8.4092 -13.1356
# 5 -21.7942 -18.9030 -10.4806 8.4092 28.1209 -7.1595
# 6 16.2653 -7.8802 4.7726 -13.1356 -7.1595 31.9250
#
#
#
# Elastic Compliance Matrix: (Units=1/GPa)
#
#
# Indices 1 2 3 4 5 6 
#
# 1 0.016940 -0.000548 -0.002935 -0.005339 0.011225 -0.008006
# 2 -0.000548 0.017822 -0.005745 -0.004907 0.012490 0.006319
# 3 -0.002935 -0.005745 0.031947 0.016266 0.001499 0.002330
# 4 -0.005339 -0.004907 0.016266 0.045608 -0.011103 0.015353
# 5 0.011225 0.012490 0.001499 -0.011103 0.057953 0.005568
# 6 -0.008006 0.006319 0.002330 0.015353 0.005568 0.044180
#
#
# Mechanical properties :
#
#
# Convention : Reuss Voigt Hill
#
# Bulk Modulus (GPa) = 20.72440 32.18708 26.45574
# Shear Modulus (GPa) = 20.08118 29.66788 24.87453
#
# Velocity S-wave (km/s) = 3.03231 3.68572 3.37487
# Velocity P-wave (km/s) = 4.66362 5.73156 5.22495
#
# Compressibility (1/GPa) = 0.04825230
#
# Stress axis : x y z
#
# Youngs Moduli (GPa) = 59.03285 56.11005 31.30224
#
# Poissons Ratio (x) = 0.03073 0.09187
# Poissons Ratio (y) = 0.03233 0.17985
# Poissons Ratio (z) = 0.17325 0.32238
#
# Static dielectric constant tensor:
#      x y z
#    x 1.824400 -0.001220 -0.031950 
#    y -0.001220 1.808540 -0.012840 
#    z -0.031950 -0.012840 1.788990 
# 
# From -- ./inp_files/44869.got.cif
#   From: 2010.05.17/outbox.cif.g08.bks.cpg/sg2_23_cif.got.tgz:44869.got - 2010.06.03 11:33:40.
