data_PCOD9009032
_publ_section_title
;
Structure prediction by ZEFSAII (Michael W. Deem and Ramdas Pophale) SiO2 
 PCOD9009032
Probable space group: P -1
;
_chemical_formula_sum "Si O2"
_cell_formula_units_Z 16
_cell_length_a 8.190710
_cell_length_b 20.831551
_cell_length_c 9.900017
_cell_angle_alpha 62.197217
_cell_angle_beta 121.049397
_cell_angle_gamma 148.162123
_cell_volume 761.914068
_symmetry_space_group_name_H-M "P -1"
_symmetry_group_IT_number 2
_symmetry_cell_setting 'triclinic'
loop_
_space_group_symop_operation_xyz
x,y,z
-x,-y,-z
loop_
_atom_site_type_symbol
_atom_site_label
_atom_site_fract_x
_atom_site_fract_y
_atom_site_fract_z
Si Si1 0.943484 0.416478 0.660033
Si Si2 0.166870 0.336408 0.718096
Si Si3 0.249616 0.752209 0.628211
Si Si4 0.778831 0.859174 0.398386
Si Si5 0.924653 0.900031 0.699794
Si Si6 0.118353 0.503940 0.185901
Si Si7 0.814834 0.102391 0.943468
Si Si8 0.638456 0.990023 0.685239
O O1 0.580488 0.276403 0.635406
O O2 0.963615 0.460294 0.771745
O O3 0.000000 0.500000 0.500000
O O4 0.164625 0.416698 0.704394
O O5 0.510378 0.406421 0.760954
O O6 0.974799 0.280522 0.548936
O O7 0.975291 0.227125 0.848434
O O8 0.574543 0.828526 0.616790
O O9 0.070587 0.626993 0.728380
O O10 0.389334 0.847002 0.710870
O O11 0.936453 0.867464 0.588911
O O12 0.004847 0.916830 0.309924
O O13 0.810222 0.955791 0.333998
O O14 0.941910 0.864021 0.883990
O O15 0.000000 0.500000 0.000000
O O16 0.701221 0.034715 0.819078
O O17 0.500000 0.000000 0.000000
O O18 0.500000 0.000000 0.500000
#
# Coordination Sequence:
#
# PCOD9009032 Si02
#       8
#     2   2   2   2   2   2   2   2
#     4  12  25  43  74 105 138 195 243 285 356 431
#     4  12  25  47  75 103 142 188 243 295 354 440
#     4  11  23  44  71 100 138 185 239 285 360 428
#     4  10  21  39  66  97 138 181 235 281 359 424
#     4  10  21  40  67  97 138 179 226 300 352 421
#     4  12  28  48  72 106 146 184 239 306 354 417
#     4  12  25  41  67 104 143 181 238 296 364 416
#     4  11  23  39  67 101 139 188 232 287 359 431
#
# _framework density 20.999742999999999
#
# number of rings (size 3 to 8) (size 9 to 14) (size 15 to 20)
#    0.000    0.750    3.750    3.375    1.750    4.500 
#    0.000    1.250    0.000    0.000    0.000    0.000 
#    0.000    0.000    0.000    0.000    0.000    0.000 
#
# Total GULP energy -89299.892402 kJ/mol
# GULP energy per Si atom -5581.243275 kJ/mol
# Density = 2.095195 g / cm^3
# Si number density = 20.999743 Si / 1000 Ang^3
#
#
#
# Elastic Constant Matrix: (Units=GPa)
#
#
# Indices 1 2 3 4 5 6 
#
# 1 80.3025 7.8872 26.3869 14.7015 -18.4990 -5.6736
# 2 7.8872 93.7638 30.4492 -16.8624 1.9126 -1.6899
# 3 26.3869 30.4492 153.4325 2.1540 -11.7079 -15.3122
# 4 14.7015 -16.8624 2.1540 39.3091 -2.8483 -1.3339
# 5 -18.4990 1.9126 -11.7079 -2.8483 39.9274 9.0395
# 6 -5.6736 -1.6899 -15.3122 -1.3339 9.0395 37.8074
#
#
#
# Elastic Compliance Matrix: (Units=1/GPa)
#
#
# Indices 1 2 3 4 5 6 
#
# 1 0.015862 -0.002021 -0.001761 -0.006236 0.006531 -0.000205
# 2 -0.002021 0.012778 -0.002419 0.006237 -0.001799 -0.000062
# 3 -0.001761 -0.002419 0.007627 -0.000646 0.000931 0.002471
# 4 -0.006236 0.006237 -0.000646 0.030403 -0.001315 0.000468
# 5 0.006531 -0.001799 0.000931 -0.001315 0.029664 -0.005862
# 6 -0.000205 -0.000062 0.002471 0.000468 -0.005862 0.028835
#
#
# Mechanical properties :
#
#
# Convention : Reuss Voigt Hill
#
# Bulk Modulus (GPa) = 41.90354 50.77172 46.33763
# Shear Modulus (GPa) = 34.35777 40.92715 37.64246
#
# Velocity S-wave (km/s) = 4.04927 4.41946 4.23841
# Velocity P-wave (km/s) = 6.46991 7.09028 6.78718
#
# Compressibility (1/GPa) = 0.02386433
#
# Stress axis : x y z
#
# Youngs Moduli (GPa) = 63.04404 78.25944 131.10819
#
# Poissons Ratio (x) = 0.15814 0.23094
# Poissons Ratio (y) = 0.12739 0.31719
# Poissons Ratio (z) = 0.11105 0.18933
#
# Static dielectric constant tensor:
#      x y z
#    x 1.883370 -0.059960 0.048220 
#    y -0.059960 1.783080 0.028900 
#    z 0.048220 0.028900 1.839390 
# 
# From -- ./inp_files/223487.got.cif
#   From: 2010.05.17/outbox.cif.g08.bks.cpg/sg2_112_cif.got.tgz:223487.got - 2010.06.03 11:33:40.
