data_PCOD9009809
_publ_section_title
;
Structure prediction by ZEFSAII (Michael W. Deem and Ramdas Pophale) SiO2 
 PCOD9009809
Probable space group: P -1
;
_chemical_formula_sum "Si O2"
_cell_formula_units_Z 13
_cell_length_a 12.834015
_cell_length_b 14.320934
_cell_length_c 8.774342
_cell_angle_alpha 141.302761
_cell_angle_beta 144.990437
_cell_angle_gamma 34.967130
_cell_volume 500.115557
_symmetry_space_group_name_H-M "P -1"
_symmetry_group_IT_number 2
_symmetry_cell_setting 'triclinic'
loop_
_space_group_symop_operation_xyz
x,y,z
-x,-y,-z
loop_
_atom_site_type_symbol
_atom_site_label
_atom_site_fract_x
_atom_site_fract_y
_atom_site_fract_z
Si Si1 0.335529 0.423744 0.345680
Si Si2 0.215643 0.836429 0.982795
Si Si3 0.543355 0.901872 0.088608
Si Si4 0.500000 0.000000 0.500000
Si Si5 0.086176 0.071169 0.506076
Si Si6 0.030190 0.316943 0.984539
Si Si7 0.267893 0.671511 0.130376
O O1 0.151553 0.570622 0.212624
O O2 0.508574 0.446986 0.672890
O O3 0.458452 0.270389 0.174176
O O4 0.215084 0.359311 0.235073
O O5 0.264788 0.680286 0.956014
O O6 0.401340 0.877520 0.266818
O O7 0.142532 0.836840 0.724892
O O8 0.000000 0.000000 0.000000
O O9 0.788534 0.850890 0.338220
O O10 0.438846 0.996996 0.239615
O O11 0.500000 0.000000 0.000000
O O12 0.093115 0.124641 0.756483
O O13 0.204675 0.867020 0.356661
O O14 0.916297 0.356117 0.059462
#
# Coordination Sequence:
#
# PCOD9009809 Si02
#       7
#     2   2   2   1   2   2   2
#     4  10  22  41  60  92 125 161 213 252 314 386
#     4  10  22  38  56  92 129 155 204 264 316 363
#     4  11  21  39  66  92 124 162 212 258 309 376
#     4  12  22  38  62  90 130 164 194 272 318 352
#     4  10  21  40  59  96 125 156 213 262 304 378
#     4  10  23  38  65  86 126 167 201 262 317 368
#     4  11  20  38  62  91 120 163 213 257 308 378
#
# _framework density 25.993994000000001
#
# number of rings (size 3 to 8) (size 9 to 14) (size 15 to 20)
#    0.000    1.538    4.615    0.923    2.154    7.385 
#    0.000    0.769    3.385    2.769    0.000    0.000 
#    0.000    0.000    0.000    0.000    0.000    0.000 
#
# Total GULP energy -72401.570479 kJ/mol
# GULP energy per Si atom -5569.351575 kJ/mol
# Density = 2.593483 g / cm^3
# Si number density = 25.993994 Si / 1000 Ang^3
#
#
#
# Elastic Constant Matrix: (Units=GPa)
#
#
# Indices 1 2 3 4 5 6 
#
# 1 144.7353 1.5208 34.1929 -3.9860 -1.9298 18.6297
# 2 1.5208 60.7417 -7.6050 -14.9720 -17.3644 0.7622
# 3 34.1929 -7.6050 87.3434 -17.4064 -13.7928 1.4042
# 4 -3.9860 -14.9720 -17.4064 27.1808 -2.0024 -3.3809
# 5 -1.9298 -17.3644 -13.7928 -2.0024 48.2860 0.2310
# 6 18.6297 0.7622 1.4042 -3.3809 0.2310 18.7783
#
#
#
# Elastic Compliance Matrix: (Units=1/GPa)
#
#
# Indices 1 2 3 4 5 6 
#
# 1 0.009128 -0.002354 -0.004809 -0.004349 -0.001991 -0.009360
# 2 -0.002354 0.026976 0.009738 0.022271 0.013291 0.004359
# 3 -0.004809 0.009738 0.019269 0.018466 0.009550 0.006142
# 4 -0.004349 0.022271 0.018466 0.063040 0.015661 0.013187
# 5 -0.001991 0.013291 0.009550 0.015661 0.028772 0.003188
# 6 -0.009360 0.004359 0.006142 0.013187 0.003188 0.064237
#
#
# Mechanical properties :
#
#
# Convention : Reuss Voigt Hill
#
# Bulk Modulus (GPa) = 16.52320 38.78197 27.65259
# Shear Modulus (GPa) = 22.08013 36.49646 29.28829
#
# Velocity S-wave (km/s) = 2.91766 3.75111 3.36033
# Velocity P-wave (km/s) = 4.20959 5.80630 5.07118
#
# Compressibility (1/GPa) = 0.06052097
#
# Stress axis : x y z
#
# Youngs Moduli (GPa) = 109.54765 37.07050 51.89699
#
# Poissons Ratio (x) = 0.08728 0.24958
# Poissons Ratio (y) = 0.25792 -0.50535
# Poissons Ratio (z) = 0.52684 -0.36098
#
# Static dielectric constant tensor:
#      x y z
#    x 2.083250 -0.050120 0.000690 
#    y -0.050120 2.174560 -0.005420 
#    z 0.000690 -0.005420 2.034270 
# 
# From -- ./inp_files/170334.got.cif
#   From: 2010.05.17/outbox.cif.g08.bks.cpg/sg2_86_cif.got.tgz:170334.got - 2010.06.03 11:33:40.
