data_PCOD9009706
_publ_section_title
;
Structure prediction by ZEFSAII (Michael W. Deem and Ramdas Pophale) SiO2 
 PCOD9009706
Probable space group: P -1
;
_chemical_formula_sum "Si O2"
_cell_formula_units_Z 16
_cell_length_a 22.274751
_cell_length_b 11.961560
_cell_length_c 8.402705
_cell_angle_alpha 92.807147
_cell_angle_beta 67.668791
_cell_angle_gamma 151.538203
_cell_volume 752.830081
_symmetry_space_group_name_H-M "P -1"
_symmetry_group_IT_number 2
_symmetry_cell_setting 'triclinic'
loop_
_space_group_symop_operation_xyz
x,y,z
-x,-y,-z
loop_
_atom_site_type_symbol
_atom_site_label
_atom_site_fract_x
_atom_site_fract_y
_atom_site_fract_z
Si Si1 0.639115 0.551912 0.177882
Si Si2 0.030868 0.829476 0.964112
Si Si3 0.281741 0.085113 0.499455
Si Si4 0.832217 0.168851 0.724645
Si Si5 0.444931 0.094608 0.082567
Si Si6 0.407505 0.837778 0.319875
Si Si7 0.923812 0.455291 0.210819
Si Si8 0.712743 0.448737 0.257991
O O1 0.493154 0.415796 0.337614
O O2 0.579448 0.386718 0.070980
O O3 0.645504 0.467286 0.303049
O O4 0.836860 0.917055 0.013797
O O5 0.159762 0.972942 0.717484
O O6 0.886777 0.509540 0.157793
O O7 0.911122 0.738970 0.015649
O O8 0.241592 0.034535 0.348369
O O9 0.222192 0.860268 0.584649
O O10 0.000000 0.500000 0.500000
O O11 0.915978 0.261456 0.809153
O O12 0.685483 0.029515 0.883730
O O13 0.342141 0.843785 0.290247
O O14 0.541381 0.170063 0.865378
O O15 0.294122 0.595173 0.552947
O O16 0.579916 0.160218 0.264766
O O17 0.000000 0.500000 0.000000
#
# Coordination Sequence:
#
# PCOD9009706 Si02
#       8
#     2   2   2   2   2   2   2   2
#     4  10  21  40  55  82 119 156 186 231 283 345
#     4  11  22  36  57  85 119 152 187 234 285 335
#     4   9  20  37  58  81 113 150 194 230 285 330
#     4   9  18  31  54  81 111 138 182 236 281 328
#     4   9  19  36  57  79 116 147 186 232 289 331
#     4   9  20  35  57  86 106 148 190 242 279 331
#     4   9  20  33  53  85 109 141 188 238 276 327
#     4  10  22  34  60  82 115 144 200 233 281 333
#
# _framework density 21.253136000000001
#
# number of rings (size 3 to 8) (size 9 to 14) (size 15 to 20)
#    0.000    2.500    0.000    0.750   14.000    1.000 
#    0.000    4.375    0.000    0.000    0.000    0.000 
#    0.000    0.000    0.000    0.000    0.000    0.000 
#
# Total GULP energy -89125.635061 kJ/mol
# GULP energy per Si atom -5570.352191 kJ/mol
# Density = 2.120476 g / cm^3
# Si number density = 21.253136 Si / 1000 Ang^3
#
#
#
# Elastic Constant Matrix: (Units=GPa)
#
#
# Indices 1 2 3 4 5 6 
#
# 1 51.1301 2.8133 13.3008 13.0980 -14.2302 7.3583
# 2 2.8133 38.8040 4.7518 3.6848 -1.0198 0.7424
# 3 13.3008 4.7518 36.7450 14.8508 -10.1672 2.5682
# 4 13.0980 3.6848 14.8508 34.2868 2.8218 -5.5656
# 5 -14.2302 -1.0198 -10.1672 2.8218 26.7483 -3.4975
# 6 7.3583 0.7424 2.5682 -5.5656 -3.4975 27.7923
#
#
#
# Elastic Compliance Matrix: (Units=1/GPa)
#
#
# Indices 1 2 3 4 5 6 
#
# 1 0.028543 -0.000223 0.000042 -0.013525 0.015533 -0.008309
# 2 -0.000223 0.026281 -0.002556 -0.001755 -0.000002 -0.000759
# 3 0.000042 -0.002556 0.040390 -0.019494 0.016616 -0.005488
# 4 -0.013525 -0.001755 -0.019494 0.046466 -0.017942 0.012476
# 5 0.015533 -0.000002 0.016616 -0.017942 0.053530 -0.002504
# 6 -0.008309 -0.000759 -0.005488 0.012476 -0.002504 0.040892
#
#
# Mechanical properties :
#
#
# Convention : Reuss Voigt Hill
#
# Bulk Modulus (GPa) = 11.14352 18.71233 14.92793
# Shear Modulus (GPa) = 18.41698 24.81971 21.61834
#
# Velocity S-wave (km/s) = 2.94692 3.42104 3.19279
# Velocity P-wave (km/s) = 4.10289 4.94250 4.54214
#
# Compressibility (1/GPa) = 0.08973828
#
# Stress axis : x y z
#
# Youngs Moduli (GPa) = 35.03533 38.05059 24.75879
#
# Poissons Ratio (x) = 0.00848 -0.00103
# Poissons Ratio (y) = 0.00781 0.06329
# Poissons Ratio (z) = -0.00146 0.09726
#
# Static dielectric constant tensor:
#      x y z
#    x 1.850160 -0.004980 0.009460 
#    y -0.004980 1.789260 -0.045810 
#    z 0.009460 -0.045810 1.879600 
# 
# From -- ./inp_files/304150.got.cif
#   From: 2010.05.17/outbox.cif.g08.bks.cpg/sg2_153_cif.got.tgz:304150.got - 2010.06.03 11:33:40.
