data_PCOD9009940
_publ_section_title
;
Structure prediction by ZEFSAII (Michael W. Deem and Ramdas Pophale) SiO2 
 PCOD9009940
Probable space group: P -1
;
_chemical_formula_sum "Si O2"
_cell_formula_units_Z 16
_cell_length_a 16.931291
_cell_length_b 8.493208
_cell_length_c 19.116398
_cell_angle_alpha 129.649450
_cell_angle_beta 157.784374
_cell_angle_gamma 63.276023
_cell_volume 700.096023
_symmetry_space_group_name_H-M "P -1"
_symmetry_group_IT_number 2
_symmetry_cell_setting 'triclinic'
loop_
_space_group_symop_operation_xyz
x,y,z
-x,-y,-z
loop_
_atom_site_type_symbol
_atom_site_label
_atom_site_fract_x
_atom_site_fract_y
_atom_site_fract_z
Si Si1 0.486506 0.234462 0.623400
Si Si2 0.034197 0.749248 0.123714
Si Si3 0.028924 0.302090 0.673715
Si Si4 0.522925 0.960438 0.193227
Si Si5 0.524325 0.627245 0.662382
Si Si6 0.976006 0.496201 0.824353
Si Si7 0.811518 0.485666 0.286914
Si Si8 0.519741 0.605316 0.189060
O O1 0.493367 0.398241 0.612321
O O2 0.399450 0.323610 0.645630
O O3 0.287498 0.967136 0.374299
O O4 0.760724 0.290418 0.879664
O O5 0.024974 0.715759 0.191389
O O6 0.000000 0.500000 0.000000
O O7 0.804332 0.758084 0.907050
O O8 0.985669 0.464431 0.740085
O O9 0.069729 0.381879 0.649943
O O10 0.797015 0.057614 0.423436
O O11 0.285422 0.350572 0.925131
O O12 0.485291 0.180710 0.239770
O O13 0.468219 0.810189 0.176802
O O14 0.356580 0.781386 0.948550
O O15 0.292837 0.540473 0.396886
O O16 0.669633 0.586950 0.243017
O O17 0.000000 0.500000 0.500000
#
# Coordination Sequence:
#
# PCOD9009940 Si02
#       8
#     2   2   2   2   2   2   2   2
#     4  10  22  41  67  92 130 170 212 265 320 381
#     4  11  25  44  68 100 131 163 208 265 326 391
#     4   9  19  39  60  81 118 165 209 251 307 362
#     4  10  21  40  61  85 122 167 216 257 310 374
#     4  10  23  40  67  98 125 170 218 256 321 387
#     4   9  21  42  64  95 127 168 212 254 319 384
#     4  11  25  36  54  96 130 160 215 263 307 361
#     4  10  22  39  62  87 124 169 214 260 312 364
#
# _framework density 22.854008
#
# number of rings (size 3 to 8) (size 9 to 14) (size 15 to 20)
#    0.000    2.000    0.000    3.000    5.250    9.000 
#    0.000    1.250    0.000    0.000    0.000    0.000 
#    0.000    0.000    0.000    0.000    0.000    0.000 
#
# Total GULP energy -89158.336262 kJ/mol
# GULP energy per Si atom -5572.396016 kJ/mol
# Density = 2.280199 g / cm^3
# Si number density = 22.854008 Si / 1000 Ang^3
#
#
#
# Elastic Constant Matrix: (Units=GPa)
#
#
# Indices 1 2 3 4 5 6 
#
# 1 58.3739 -2.7653 28.2808 4.6310 -8.1337 -4.7311
# 2 -2.7653 58.1375 58.3453 7.5315 0.2266 -9.9819
# 3 28.2808 58.3453 206.2144 16.9695 13.8751 0.5204
# 4 4.6310 7.5315 16.9695 39.1068 0.9392 2.2545
# 5 -8.1337 0.2266 13.8751 0.9392 37.1751 2.2284
# 6 -4.7311 -9.9819 0.5204 2.2545 2.2284 19.8305
#
#
#
# Elastic Compliance Matrix: (Units=1/GPa)
#
#
# Indices 1 2 3 4 5 6 
#
# 1 0.022212 0.008778 -0.005782 -0.002511 0.006462 0.009429
# 2 0.008778 0.031340 -0.010104 -0.003840 0.004515 0.018064
# 3 -0.005782 -0.010104 0.008856 -0.000759 -0.004121 -0.006149
# 4 -0.002511 -0.003840 -0.000759 0.027271 -0.000599 -0.005545
# 5 0.006462 0.004515 -0.004121 -0.000599 0.029801 0.000642
# 6 0.009429 0.018064 -0.006149 -0.005545 0.000642 0.062489
#
#
# Mechanical properties :
#
#
# Convention : Reuss Voigt Hill
#
# Bulk Modulus (GPa) = 20.75056 54.49417 37.62236
# Shear Modulus (GPa) = 23.55717 35.14685 29.35201
#
# Velocity S-wave (km/s) = 3.21404 3.92584 3.58764
# Velocity P-wave (km/s) = 4.78254 6.66677 5.80166
#
# Compressibility (1/GPa) = 0.04819147
#
# Stress axis : x y z
#
# Youngs Moduli (GPa) = 45.02133 31.90818 112.91307
#
# Poissons Ratio (x) = -0.28008 0.65283
# Poissons Ratio (y) = -0.39519 1.14091
# Poissons Ratio (z) = 0.26030 0.32241
#
# Static dielectric constant tensor:
#      x y z
#    x 1.839930 0.063350 -0.009640 
#    y 0.063350 1.746050 0.010820 
#    z -0.009640 0.010820 1.899640 
# 
# From -- ./inp_files/599579.got.cif
#   From: 2010.05.17/outbox.cif.g08.bks.cpg/sg2_300_cif.got.tgz:599579.got - 2010.06.03 11:33:40.
