data_PCOD9009235
_publ_section_title
;
Structure prediction by ZEFSAII (Michael W. Deem and Ramdas Pophale) SiO2 
 PCOD9009235
Probable space group: P -1
;
_chemical_formula_sum "Si O2"
_cell_formula_units_Z 15
_cell_length_a 8.295827
_cell_length_b 9.128406
_cell_length_c 20.557996
_cell_angle_alpha 54.643295
_cell_angle_beta 65.060752
_cell_angle_gamma 32.453275
_cell_volume 673.380415
_symmetry_space_group_name_H-M "P -1"
_symmetry_group_IT_number 2
_symmetry_cell_setting 'triclinic'
loop_
_space_group_symop_operation_xyz
x,y,z
-x,-y,-z
loop_
_atom_site_type_symbol
_atom_site_label
_atom_site_fract_x
_atom_site_fract_y
_atom_site_fract_z
Si Si1 0.880261 0.958761 0.746358
Si Si2 0.481494 0.596282 0.887734
Si Si3 0.862727 0.974460 0.958906
Si Si4 0.754824 0.297458 0.564032
Si Si5 0.550063 0.514190 0.744638
Si Si6 0.780686 0.653971 0.903618
Si Si7 0.500000 0.000000 0.000000
Si Si8 0.443908 0.838467 0.563337
O O1 0.727233 0.149971 0.655828
O O2 0.805759 0.178359 0.754848
O O3 0.811188 0.818850 0.821312
O O4 0.235712 0.670652 0.745200
O O5 0.557798 0.552108 0.809992
O O6 0.558985 0.711988 0.883716
O O7 0.153651 0.793643 0.914845
O O8 0.730309 0.241588 0.956985
O O9 0.576349 0.146287 0.920754
O O10 0.913960 0.725396 0.042837
O O11 0.500000 0.500000 0.500000
O O12 0.678878 0.532988 0.559460
O O13 0.106403 0.040978 0.550283
O O14 0.515674 0.724073 0.654774
O O15 0.667243 0.772002 0.965104
O O16 0.500000 0.000000 0.500000
#
# Coordination Sequence:
#
# PCOD9009235 Si02
#       8
#     2   2   2   2   2   2   1   2
#     4  10  24  41  65  91 131 166 215 259 313 390
#     4  12  26  43  66  90 131 163 214 276 320 374
#     4  12  27  45  63  93 121 170 213 270 320 376
#     4  10  21  41  66  98 131 171 211 266 322 380
#     4  10  22  43  62  92 127 171 208 262 320 373
#     4  12  27  42  66  95 126 167 220 264 328 374
#     4  12  26  42  66  88 120 166 216 252 320 382
#     4  10  21  39  67  97 131 170 214 260 322 394
#
# _framework density 22.275669000000001
#
# number of rings (size 3 to 8) (size 9 to 14) (size 15 to 20)
#    0.000    1.067    1.333    4.400    5.600    1.067 
#    0.000    1.333    0.000    0.000    0.000    0.000 
#    0.000    0.000    0.000    0.000    0.000    0.000 
#
# Total GULP energy -83628.761798 kJ/mol
# GULP energy per Si atom -5575.250787 kJ/mol
# Density = 2.222497 g / cm^3
# Si number density = 22.275669 Si / 1000 Ang^3
#
#
#
# Elastic Constant Matrix: (Units=GPa)
#
#
# Indices 1 2 3 4 5 6 
#
# 1 73.3899 6.9140 61.3392 3.2137 -20.8245 7.9576
# 2 6.9140 96.3451 20.9532 -3.2512 -18.7705 -7.0186
# 3 61.3392 20.9532 179.3385 -8.6219 -15.2714 5.9444
# 4 3.2137 -3.2512 -8.6219 31.3617 3.8510 0.6366
# 5 -20.8245 -18.7705 -15.2714 3.8510 50.4712 -2.5108
# 6 7.9576 -7.0186 5.9444 0.6366 -2.5108 32.0152
#
#
#
# Elastic Compliance Matrix: (Units=1/GPa)
#
#
# Indices 1 2 3 4 5 6 
#
# 1 0.022320 0.001051 -0.007241 -0.005039 0.007631 -0.003274
# 2 0.001051 0.011708 -0.001437 0.000100 0.004491 0.002922
# 3 -0.007241 -0.001437 0.008265 0.003025 -0.001262 -0.000209
# 4 -0.005039 0.000100 0.003025 0.033705 -0.003711 -0.000248
# 5 0.007631 0.004491 -0.001262 -0.003711 0.024599 0.001325
# 6 -0.003274 0.002922 -0.000209 -0.000248 0.001325 0.032837
#
#
# Mechanical properties :
#
#
# Convention : Reuss Voigt Hill
#
# Bulk Modulus (GPa) = 36.98337 58.60960 47.79648
# Shear Modulus (GPa) = 31.70575 40.09410 35.89993
#
# Velocity S-wave (km/s) = 3.77680 4.24713 4.01885
# Velocity P-wave (km/s) = 5.97140 7.10063 6.56036
#
# Compressibility (1/GPa) = 0.02703918
#
# Stress axis : x y z
#
# Youngs Moduli (GPa) = 44.80384 85.41443 120.98726
#
# Poissons Ratio (x) = -0.08978 0.87603
# Poissons Ratio (y) = -0.04709 0.17386
# Poissons Ratio (z) = 0.32441 0.12274
#
# Static dielectric constant tensor:
#      x y z
#    x 0.360750 0.629120 -0.395300 
#    y 0.629120 1.529200 0.141970 
#    z -0.395300 0.141970 1.793300 
# 
# From -- ./inp_files/587827.got.cif
#   From: 2010.05.17/outbox.cif.g08.bks.cpg/sg2_294_cif.got.tgz:587827.got - 2010.06.03 11:33:40.
