data_PCOD9009925
_publ_section_title
;
Structure prediction by ZEFSAII (Michael W. Deem and Ramdas Pophale) SiO2 
 PCOD9009925
Probable space group: P -1
;
_chemical_formula_sum "Si O2"
_cell_formula_units_Z 12
_cell_length_a 17.450398
_cell_length_b 5.112417
_cell_length_c 8.778523
_cell_angle_alpha 117.286355
_cell_angle_beta 50.177906
_cell_angle_gamma 86.184566
_cell_volume 454.110540
_symmetry_space_group_name_H-M "P -1"
_symmetry_group_IT_number 2
_symmetry_cell_setting 'triclinic'
loop_
_space_group_symop_operation_xyz
x,y,z
-x,-y,-z
loop_
_atom_site_type_symbol
_atom_site_label
_atom_site_fract_x
_atom_site_fract_y
_atom_site_fract_z
Si Si1 0.520287 0.125973 0.851909
Si Si2 0.861818 0.985643 0.696709
Si Si3 0.197032 0.562092 0.404914
Si Si4 0.736803 0.996158 0.372231
Si Si5 0.050606 0.264058 0.160196
Si Si6 0.576943 0.096168 0.327899
O O1 0.653642 0.905973 0.553355
O O2 0.419900 0.122944 0.878592
O O3 0.500000 0.500000 0.000000
O O4 0.500000 0.000000 0.000000
O O5 0.779207 0.825331 0.735533
O O6 0.874196 0.002220 0.867839
O O7 0.991172 0.663181 0.399852
O O8 0.819663 0.283615 0.704403
O O9 0.267764 0.685239 0.448939
O O10 0.066850 0.750005 0.703425
O O11 0.680078 0.045666 0.290645
O O12 0.873764 0.764048 0.090516
O O13 0.500000 0.500000 0.500000
O O14 0.500000 0.000000 0.500000
#
# Coordination Sequence:
#
# PCOD9009925 Si02
#       6
#     2   2   2   2   2   2
#     4  11  25  48  67  94 132 169 226 288 327 389
#     4   9  21  40  61  88 146 168 206 273 309 380
#     4  10  21  40  61 100 133 169 215 260 321 402
#     4  11  24  42  70  97 126 183 212 272 343 392
#     4   9  21  41  63  98 135 169 217 262 323 398
#     4  10  23  46  67  96 129 165 223 284 330 389
#
# _framework density 26.425287000000001
#
# number of rings (size 3 to 8) (size 9 to 14) (size 15 to 20)
#    1.000    1.000    0.000    3.000    0.000    7.333 
#    9.000    0.000    0.000    0.000    0.000    0.000 
#    0.000    0.000    0.000    0.000    0.000    0.000 
#
# Total GULP energy -66926.117450 kJ/mol
# GULP energy per Si atom -5577.176454 kJ/mol
# Density = 2.636514 g / cm^3
# Si number density = 26.425287 Si / 1000 Ang^3
#
#
#
# Elastic Constant Matrix: (Units=GPa)
#
#
# Indices 1 2 3 4 5 6 
#
# 1 188.9300 22.6194 10.5150 -4.2450 -1.9035 33.6340
# 2 22.6194 153.4518 31.8511 -18.1745 -6.9082 11.5799
# 3 10.5150 31.8511 105.8650 -42.6665 -26.7416 6.4902
# 4 -4.2450 -18.1745 -42.6665 40.0635 19.8218 1.1045
# 5 -1.9035 -6.9082 -26.7416 19.8218 47.8801 -8.4571
# 6 33.6340 11.5799 6.4902 1.1045 -8.4571 38.2779
#
#
#
# Elastic Compliance Matrix: (Units=1/GPa)
#
#
# Indices 1 2 3 4 5 6 
#
# 1 0.006399 -0.000410 0.000064 0.001407 -0.001386 -0.005856
# 2 -0.000410 0.007231 -0.001310 0.002408 -0.001038 -0.001904
# 3 0.000064 -0.001310 0.017336 0.016954 0.002011 -0.002644
# 4 0.001407 0.002408 0.016954 0.050834 -0.012786 -0.009131
# 5 -0.001386 -0.001038 0.002011 -0.012786 0.028484 0.007853
# 6 -0.005856 -0.001904 -0.002644 -0.009131 0.007853 0.034293
#
#
# Mechanical properties :
#
#
# Convention : Reuss Voigt Hill
#
# Bulk Modulus (GPa) = 36.16135 64.24643 50.20389
# Shear Modulus (GPa) = 31.82526 50.79503 41.31015
#
# Velocity S-wave (km/s) = 3.47414 4.38906 3.95812
# Velocity P-wave (km/s) = 5.45957 7.07463 6.31891
#
# Compressibility (1/GPa) = 0.02765384
#
# Stress axis : x y z
#
# Youngs Moduli (GPa) = 156.28223 138.29003 57.68185
#
# Poissons Ratio (x) = 0.05674 -0.00369
# Poissons Ratio (y) = 0.06412 0.07555
# Poissons Ratio (z) = -0.00999 0.18114
#
# Static dielectric constant tensor:
#      x y z
#    x 2.161650 -0.016210 0.024180 
#    y -0.016210 2.028860 -0.017020 
#    z 0.024180 -0.017020 2.402150 
# 
# From -- ./inp_files/322848.got.cif
#   From: 2010.05.17/outbox.cif.g08.bks.cpg/sg2_162_cif.got.tgz:322848.got - 2010.06.03 11:33:40.
