data_PCOD9009035
_publ_section_title
;
Structure prediction by ZEFSAII (Michael W. Deem and Ramdas Pophale) SiO2 
 PCOD9009035
Probable space group: P -1
;
_chemical_formula_sum "Si O2"
_cell_formula_units_Z 16
_cell_length_a 11.252580
_cell_length_b 17.839040
_cell_length_c 13.052496
_cell_angle_alpha 39.294734
_cell_angle_beta 59.529713
_cell_angle_gamma 29.514429
_cell_volume 691.521822
_symmetry_space_group_name_H-M "P -1"
_symmetry_group_IT_number 2
_symmetry_cell_setting 'triclinic'
loop_
_space_group_symop_operation_xyz
x,y,z
-x,-y,-z
loop_
_atom_site_type_symbol
_atom_site_label
_atom_site_fract_x
_atom_site_fract_y
_atom_site_fract_z
Si Si1 0.090804 0.517407 0.849309
Si Si2 0.849861 0.753047 0.500238
Si Si3 0.540695 0.157426 0.511664
Si Si4 0.479102 0.254557 0.663776
Si Si5 0.670930 0.128333 0.079237
Si Si6 0.972808 0.926122 0.944114
Si Si7 0.627174 0.526835 0.877232
Si Si8 0.173943 0.211482 0.071879
O O1 0.867334 0.738695 0.632003
O O2 0.349423 0.402012 0.897883
O O3 0.235863 0.302851 0.943559
O O4 0.000000 0.500000 0.000000
O O5 0.708577 0.739906 0.530697
O O6 0.173377 0.511576 0.572146
O O7 0.689409 0.988516 0.276613
O O8 0.471687 0.280140 0.517326
O O9 0.601692 0.209125 0.345103
O O10 0.774412 0.888866 0.733456
O O11 0.723048 0.135934 0.748396
O O12 0.602906 0.026715 0.845463
O O13 0.842682 0.996379 0.037188
O O14 0.821965 0.114903 0.094382
O O15 0.158796 0.675765 0.091355
O O16 0.500000 0.500000 0.000000
O O17 0.846693 0.429126 0.958779
#
# Coordination Sequence:
#
# PCOD9009035 Si02
#       8
#     2   2   2   2   2   2   2   2
#     4  12  26  44  64  96 135 173 220 267 325 386
#     4  12  22  41  70  98 124 173 216 269 332 381
#     4  10  21  39  66  98 125 159 217 275 325 376
#     4   9  20  39  66  99 124 162 211 275 324 377
#     4  11  24  45  66  93 134 176 219 264 319 391
#     4  10  23  44  64  94 137 172 216 267 320 392
#     4  11  23  41  66  92 130 174 214 271 330 382
#     4   9  22  42  61  96 126 160 216 272 319 377
#
# _framework density 23.137374999999999
#
# number of rings (size 3 to 8) (size 9 to 14) (size 15 to 20)
#    0.750    0.750    3.750    1.125    1.750    3.000 
#    4.500    0.000    0.000    0.000    0.000    0.000 
#    0.000    0.000    0.000    0.000    0.000    0.000 
#
# Total GULP energy -89295.728400 kJ/mol
# GULP energy per Si atom -5580.983025 kJ/mol
# Density = 2.308471 g / cm^3
# Si number density = 23.137375 Si / 1000 Ang^3
#
#
#
# Elastic Constant Matrix: (Units=GPa)
#
#
# Indices 1 2 3 4 5 6 
#
# 1 129.6422 5.3343 41.2005 10.5264 32.4027 -17.6746
# 2 5.3343 28.9208 7.8711 1.7083 16.8782 0.2641
# 3 41.2005 7.8711 143.5711 20.5227 24.7745 -16.4104
# 4 10.5264 1.7083 20.5227 31.1149 1.7509 2.8953
# 5 32.4027 16.8782 24.7745 1.7509 34.7399 1.9933
# 6 -17.6746 0.2641 -16.4104 2.8953 1.9933 32.0808
#
#
#
# Elastic Compliance Matrix: (Units=1/GPa)
#
#
# Indices 1 2 3 4 5 6 
#
# 1 0.012864 0.007029 0.000355 -0.004880 -0.015916 0.008640
# 2 0.007029 0.052826 0.002685 -0.005816 -0.034272 0.007465
# 3 0.000355 0.002685 0.009954 -0.006939 -0.008754 0.006435
# 4 -0.004880 -0.005816 -0.006939 0.039037 0.010955 -0.010394
# 5 -0.015916 -0.034272 -0.008754 0.010955 0.067012 -0.018117
# 6 0.008640 0.007465 0.006435 -0.010394 -0.018117 0.041226
#
#
# Mechanical properties :
#
#
# Convention : Reuss Voigt Hill
#
# Bulk Modulus (GPa) = 10.44036 45.66064 28.05050
# Shear Modulus (GPa) = 21.30304 36.10232 28.70268
#
# Velocity S-wave (km/s) = 3.03763 3.95441 3.52594
# Velocity P-wave (km/s) = 4.10183 6.37395 5.35968
#
# Compressibility (1/GPa) = 0.09578218
#
# Stress axis : x y z
#
# Youngs Moduli (GPa) = 77.73726 18.92997 100.45980
#
# Poissons Ratio (x) = -0.13306 -0.03564
# Poissons Ratio (y) = -0.54640 -0.26976
# Poissons Ratio (z) = -0.02758 -0.05083
#
# Static dielectric constant tensor:
#      x y z
#    x 1.924790 0.090730 0.031980 
#    y 0.090730 1.921360 0.005980 
#    z 0.031980 0.005980 1.855060 
# 
# From -- ./inp_files/523886.got.cif
#   From: 2010.05.17/outbox.cif.g08.bks.cpg/sg2_262_cif.got.tgz:523886.got - 2010.06.03 11:33:40.
