data_PCOD9009960
_publ_section_title
;
Structure prediction by ZEFSAII (Michael W. Deem and Ramdas Pophale) SiO2 
 PCOD9009960
Probable space group: P -1
;
_chemical_formula_sum "Si O2"
_cell_formula_units_Z 16
_cell_length_a 18.943769
_cell_length_b 9.258396
_cell_length_c 11.120486
_cell_angle_alpha 74.567120
_cell_angle_beta 35.822596
_cell_angle_gamma 48.694627
_cell_volume 678.137700
_symmetry_space_group_name_H-M "P -1"
_symmetry_group_IT_number 2
_symmetry_cell_setting 'triclinic'
loop_
_space_group_symop_operation_xyz
x,y,z
-x,-y,-z
loop_
_atom_site_type_symbol
_atom_site_label
_atom_site_fract_x
_atom_site_fract_y
_atom_site_fract_z
Si Si1 0.485295 0.100412 0.846997
Si Si2 0.671145 0.786582 0.218912
Si Si3 0.167079 0.627322 0.233513
Si Si4 0.718783 0.244300 0.786789
Si Si5 0.803449 0.385212 0.260759
Si Si6 0.782406 0.879322 0.660739
Si Si7 0.822300 0.158822 0.056136
Si Si8 0.382976 0.840950 0.822453
O O1 0.436700 0.170782 0.759511
O O2 0.708694 0.894803 0.628675
O O3 0.377350 0.342258 0.009699
O O4 0.373049 0.058428 0.054238
O O5 0.819654 0.525342 0.131882
O O6 0.500000 0.000000 0.500000
O O7 0.737974 0.886681 0.069687
O O8 0.154706 0.735801 0.349840
O O9 0.011153 0.645960 0.428398
O O10 0.160631 0.736404 0.098193
O O11 0.775056 0.067376 0.648310
O O12 0.500000 0.500000 0.000000
O O13 0.701465 0.169852 0.950161
O O14 0.775220 0.288690 0.216141
O O15 0.619880 0.603618 0.552943
O O16 0.985411 0.134483 0.134215
O O17 0.654991 0.207551 0.238398
#
# Coordination Sequence:
#
# PCOD9009960 Si02
#       8
#     2   2   2   2   2   2   2   2
#     4  11  22  44  64  92 127 161 216 258 307 379
#     4  10  21  42  65  89 123 167 208 258 314 368
#     4  11  23  40  64  93 127 163 204 258 317 372
#     4  11  22  40  63  94 127 161 205 257 312 377
#     4  10  21  40  61  87 123 157 213 255 311 374
#     4  11  24  41  66  92 125 168 207 257 313 374
#     4  10  22  38  61  93 120 158 205 261 311 379
#     4  10  22  40  62  86 124 165 203 255 319 366
#
# _framework density 23.594028999999999
#
# number of rings (size 3 to 8) (size 9 to 14) (size 15 to 20)
#    0.000    1.500    3.750    1.125    1.750    0.500 
#    9.000    2.500    0.000    0.000    0.000    0.000 
#    0.000    0.000    0.000    0.000    0.000    0.000 
#
# Total GULP energy -89171.202379 kJ/mol
# GULP energy per Si atom -5573.200149 kJ/mol
# Density = 2.354033 g / cm^3
# Si number density = 23.594029 Si / 1000 Ang^3
#
#
#
# Elastic Constant Matrix: (Units=GPa)
#
#
# Indices 1 2 3 4 5 6 
#
# 1 83.6851 22.2744 13.2439 -12.7311 -19.6338 11.5359
# 2 22.2744 114.0171 7.0466 12.9238 -12.6492 2.1958
# 3 13.2439 7.0466 42.3582 5.5235 -14.0499 1.6000
# 4 -12.7311 12.9238 5.5235 26.3319 5.7689 3.9654
# 5 -19.6338 -12.6492 -14.0499 5.7689 30.4204 9.2979
# 6 11.5359 2.1958 1.6000 3.9654 9.2979 23.1984
#
#
#
# Elastic Compliance Matrix: (Units=1/GPa)
#
#
# Indices 1 2 3 4 5 6 
#
# 1 0.020637 -0.003312 -0.002065 0.011569 0.014127 -0.017446
# 2 -0.003312 0.010781 0.001933 -0.008353 0.004826 -0.000013
# 3 -0.002065 0.001933 0.031822 -0.011646 0.018440 -0.006751
# 4 0.011569 -0.008353 -0.011646 0.053465 -0.008501 -0.009891
# 5 0.014127 0.004826 0.018440 -0.008501 0.064225 -0.033041
# 6 -0.017446 -0.000013 -0.006751 -0.009891 -0.033041 0.067182
#
#
# Mechanical properties :
#
#
# Convention : Reuss Voigt Hill
#
# Bulk Modulus (GPa) = 17.74611 36.13224 26.93917
# Shear Modulus (GPa) = 18.26250 29.15650 23.70950
#
# Velocity S-wave (km/s) = 2.78516 3.51915 3.17345
# Velocity P-wave (km/s) = 4.22854 5.64446 4.98701
#
# Compressibility (1/GPa) = 0.05635038
#
# Stress axis : x y z
#
# Youngs Moduli (GPa) = 48.45606 92.75849 31.42440
#
# Poissons Ratio (x) = 0.30723 0.06490
# Poissons Ratio (y) = 0.16049 -0.06073
# Poissons Ratio (z) = 0.10008 -0.17926
#
# Static dielectric constant tensor:
#      x y z
#    x 2.052240 0.059100 -0.060170 
#    y 0.059100 2.067420 -0.048390 
#    z -0.060170 -0.048390 2.010450 
# 
# From -- ./inp_files/270565.got.cif
#   From: 2010.05.17/outbox.cif.g08.bks.cpg/sg2_136_cif.got.tgz:270565.got - 2010.06.03 11:33:40.
