data_PCOD9009107
_publ_section_title
;
Structure prediction by ZEFSAII (Michael W. Deem and Ramdas Pophale) SiO2 
 PCOD9009107
Probable space group: P -1
;
_chemical_formula_sum "Si O2"
_cell_formula_units_Z 15
_cell_length_a 7.335169
_cell_length_b 14.810772
_cell_length_c 7.722024
_cell_angle_alpha 135.532104
_cell_angle_beta 82.475421
_cell_angle_gamma 114.218484
_cell_volume 518.474312
_symmetry_space_group_name_H-M "P -1"
_symmetry_group_IT_number 2
_symmetry_cell_setting 'triclinic'
loop_
_space_group_symop_operation_xyz
x,y,z
-x,-y,-z
loop_
_atom_site_type_symbol
_atom_site_label
_atom_site_fract_x
_atom_site_fract_y
_atom_site_fract_z
Si Si1 0.644861 0.240489 0.743680
Si Si2 0.492180 0.711543 0.630507
Si Si3 0.307015 0.296288 0.775976
Si Si4 0.873969 0.488378 0.810425
Si Si5 0.915997 0.772528 0.787305
Si Si6 0.036563 0.955253 0.670226
Si Si7 0.501085 0.053120 0.807794
Si Si8 0.000000 0.500000 0.500000
O O1 0.488158 0.307273 0.892964
O O2 0.834037 0.363045 0.781182
O O3 0.666579 0.157417 0.792374
O O4 0.526886 0.108705 0.435765
O O5 0.584114 0.693992 0.410151
O O6 0.254267 0.586842 0.463501
O O7 0.665697 0.705944 0.725221
O O8 0.480869 0.857344 0.895707
O O9 0.108314 0.141590 0.594896
O O10 0.224601 0.412088 0.976828
O O11 0.085930 0.549361 0.767738
O O12 0.977270 0.655100 0.686554
O O13 0.990064 0.839653 0.677439
O O14 0.018110 0.919941 0.088178
O O15 0.279690 0.026821 0.721677
#
# Coordination Sequence:
#
# PCOD9009107 Si02
#       8
#     2   2   2   2   2   2   2   1
#     4  10  22  41  64  97 137 162 220 273 328 381
#     4   9  20  42  69  92 126 176 220 257 325 396
#     4  10  22  42  66  94 129 181 213 269 325 387
#     4  11  25  45  61  95 134 175 217 274 325 395
#     4   9  20  40  66 101 124 172 216 273 321 386
#     4   9  19  41  69  90 135 169 218 259 326 397
#     4  10  21  39  67 104 122 175 216 271 326 391
#     4  12  26  42  64 100 136 166 220 276 340 382
#
# _framework density 28.931041
#
# number of rings (size 3 to 8) (size 9 to 14) (size 15 to 20)
#    0.000    2.133    0.000    3.200    3.733    4.267 
#    9.600    3.333    0.000    0.000    0.000    0.000 
#    0.000    0.000    0.000    0.000    0.000    0.000 
#
# Total GULP energy -83791.162169 kJ/mol
# GULP energy per Si atom -5586.077478 kJ/mol
# Density = 2.886519 g / cm^3
# Si number density = 28.931041 Si / 1000 Ang^3
#
#
#
# Elastic Constant Matrix: (Units=GPa)
#
#
# Indices 1 2 3 4 5 6 
#
# 1 102.9872 11.3939 33.9455 14.9077 -5.7238 -4.0786
# 2 11.3939 148.9538 37.0192 -9.2444 -29.0213 5.1536
# 3 33.9455 37.0192 152.2281 14.1260 -41.0421 3.2963
# 4 14.9077 -9.2444 14.1260 66.6829 5.8302 -6.4468
# 5 -5.7238 -29.0213 -41.0421 5.8302 59.8588 12.3084
# 6 -4.0786 5.1536 3.2963 -6.4468 12.3084 42.4918
#
#
#
# Elastic Compliance Matrix: (Units=1/GPa)
#
#
# Indices 1 2 3 4 5 6 
#
# 1 0.010820 -0.000579 -0.002402 -0.001777 -0.000990 0.001312
# 2 -0.000579 0.007754 -0.000900 0.000932 0.003358 -0.001758
# 3 -0.002402 -0.000900 0.009425 -0.002475 0.006688 -0.003166
# 4 -0.001777 0.000932 -0.002475 0.016719 -0.003771 0.003537
# 5 -0.000990 0.003358 0.006688 -0.003771 0.025010 -0.008838
# 6 0.001312 -0.001758 -0.003166 0.003537 -0.008838 0.027215
#
#
# Mechanical properties :
#
#
# Convention : Reuss Voigt Hill
#
# Bulk Modulus (GPa) = 49.41462 63.20957 56.31209
# Shear Modulus (GPa) = 44.86267 55.26071 50.06169
#
# Velocity S-wave (km/s) = 3.94213 4.37519 4.16430
# Velocity P-wave (km/s) = 6.15124 6.88614 6.52904
#
# Compressibility (1/GPa) = 0.02023693
#
# Stress axis : x y z
#
# Youngs Moduli (GPa) = 92.42115 128.96172 106.10036
#
# Poissons Ratio (x) = 0.07469 0.25490
# Poissons Ratio (y) = 0.05353 0.09545
# Poissons Ratio (z) = 0.22203 0.11601
#
# Static dielectric constant tensor:
#      x y z
#    x 2.354930 0.089720 0.183620 
#    y 0.089720 2.387380 -0.097470 
#    z 0.183620 -0.097470 2.443740 
# 
# From -- ./inp_files/209301.got.cif
#   From: 2010.05.17/outbox.cif.g08.bks.cpg/sg2_105_cif.got.tgz:209301.got - 2010.06.03 11:33:40.
