data_PCOD9009694
_publ_section_title
;
Structure prediction by ZEFSAII (Michael W. Deem and Ramdas Pophale) SiO2 
 PCOD9009694
Probable space group: P -1
;
_chemical_formula_sum "Si O2"
_cell_formula_units_Z 14
_cell_length_a 27.419732
_cell_length_b 15.432984
_cell_length_c 5.252656
_cell_angle_alpha 71.385125
_cell_angle_beta 109.226410
_cell_angle_gamma 163.613999
_cell_volume 592.036488
_symmetry_space_group_name_H-M "P -1"
_symmetry_group_IT_number 2
_symmetry_cell_setting 'triclinic'
loop_
_space_group_symop_operation_xyz
x,y,z
-x,-y,-z
loop_
_atom_site_type_symbol
_atom_site_label
_atom_site_fract_x
_atom_site_fract_y
_atom_site_fract_z
Si Si1 0.859088 0.792187 0.654528
Si Si2 0.737335 0.245533 0.441191
Si Si3 0.355377 0.179305 0.125008
Si Si4 0.595776 0.911981 0.000991
Si Si5 0.125955 0.356834 0.923461
Si Si6 0.085215 0.835061 0.274027
Si Si7 0.367650 0.442081 0.408217
O O1 0.716710 0.625305 0.489277
O O2 0.780075 0.563503 0.834357
O O3 0.000000 0.000000 0.500000
O O4 0.972762 0.042315 0.816950
O O5 0.636766 0.044521 0.705925
O O6 0.754107 0.383589 0.306682
O O7 0.661243 0.074972 0.210947
O O8 0.938702 0.552086 0.482648
O O9 0.179736 0.926770 0.161718
O O10 0.455181 0.294994 0.414884
O O11 0.323011 0.049178 0.974684
O O12 0.500000 0.500000 0.000000
O O13 0.405875 0.559304 0.100017
O O14 0.021755 0.264638 0.964351
O O15 0.238261 0.141007 0.411363
#
# Coordination Sequence:
#
# PCOD9009694 Si02
#       7
#     2   2   2   2   2   2   2
#     4  10  21  39  75 102 131 179 241 295 334 413
#     4  10  25  46  71 100 149 184 233 285 354 418
#     4  12  25  40  72 103 143 185 236 287 351 412
#     4  12  25  47  68 104 149 186 225 294 355 420
#     4   8  21  42  64 103 132 176 237 285 341 402
#     4   9  22  43  70 100 134 191 231 286 334 426
#     4  11  24  44  67 108 139 183 234 291 351 418
#
# _framework density 23.647189999999998
#
# number of rings (size 3 to 8) (size 9 to 14) (size 15 to 20)
#    0.857    0.857    2.857    0.429    4.000    3.429 
#    0.000    1.429    0.000    0.000    0.000    0.000 
#    0.000    0.000    0.000    0.000    0.000    0.000 
#
# Total GULP energy -78063.862740 kJ/mol
# GULP energy per Si atom -5575.990196 kJ/mol
# Density = 2.359337 g / cm^3
# Si number density = 23.647190 Si / 1000 Ang^3
#
#
#
# Elastic Constant Matrix: (Units=GPa)
#
#
# Indices 1 2 3 4 5 6 
#
# 1 93.2466 -17.2910 27.1363 -2.3958 3.1520 3.5391
# 2 -17.2910 46.4445 27.8011 -13.8823 -12.7695 -18.7074
# 3 27.1363 27.8011 112.4309 -28.0332 -12.2775 -18.2469
# 4 -2.3958 -13.8823 -28.0332 36.0918 -2.6490 0.4707
# 5 3.1520 -12.7695 -12.2775 -2.6490 26.9526 -17.6753
# 6 3.5391 -18.7074 -18.2469 0.4707 -17.6753 10.9895
#
#
#
# Elastic Compliance Matrix: (Units=1/GPa)
#
#
# Indices 1 2 3 4 5 6 
#
# 1 0.013862 0.008222 -0.005498 -0.000212 -0.000360 -0.000167
# 2 0.008222 0.015425 -0.013287 -0.004796 -0.017765 -0.026820
# 3 -0.005498 -0.013287 0.012518 0.003975 -0.005246 -0.008672
# 4 -0.000212 -0.004796 0.003975 0.028418 -0.010554 -0.019687
# 5 -0.000360 -0.017765 -0.005246 -0.010554 -0.002337 -0.042143
# 6 -0.000167 -0.026820 -0.008672 -0.019687 -0.042143 -0.035942
#
#
# Mechanical properties :
#
#
# Convention : Reuss Voigt Hill
#
# Bulk Modulus (GPa) = 48.35793 36.37942 42.36867
# Shear Modulus (GPa) = 83.38446 29.10517 56.24482
#
# Velocity S-wave (km/s) = 5.94461 3.51209 4.88228
# Velocity P-wave (km/s) = 8.22266 5.64483 7.05252
#
# Compressibility (1/GPa) = 0.02067913
#
# Stress axis : x y z
#
# Youngs Moduli (GPa) = 72.13942 64.82893 79.88641
#
# Poissons Ratio (x) = -0.53305 0.43923
# Poissons Ratio (y) = -0.59315 1.06146
# Poissons Ratio (z) = 0.39663 0.86139
#
# Static dielectric constant tensor:
#      x y z
#    x 1.951160 -0.001010 0.028410 
#    y -0.001010 1.930600 -0.008390 
#    z 0.028410 -0.008390 2.006320 
# 
# From -- ./inp_files/127098.got.cif
#   From: 2010.05.17/outbox.cif.g08.bks.cpg/sg2_64_cif.got.tgz:127098.got - 2010.06.03 11:33:40.
