data_PCOD9009497
_publ_section_title
;
Structure prediction by ZEFSAII (Michael W. Deem and Ramdas Pophale) SiO2 
 PCOD9009497
Probable space group: P -1
;
_chemical_formula_sum "Si O2"
_cell_formula_units_Z 16
_cell_length_a 15.168537
_cell_length_b 28.321440
_cell_length_c 9.279771
_cell_angle_alpha 41.410869
_cell_angle_beta 50.354073
_cell_angle_gamma 19.604708
_cell_volume 841.606552
_symmetry_space_group_name_H-M "P -1"
_symmetry_group_IT_number 2
_symmetry_cell_setting 'triclinic'
loop_
_space_group_symop_operation_xyz
x,y,z
-x,-y,-z
loop_
_atom_site_type_symbol
_atom_site_label
_atom_site_fract_x
_atom_site_fract_y
_atom_site_fract_z
Si Si1 0.083193 0.023679 0.772976
Si Si2 0.269205 0.823093 0.479341
Si Si3 0.071870 0.840790 0.864960
Si Si4 0.262124 0.149689 0.518958
Si Si5 0.269192 0.307984 0.096054
Si Si6 0.189921 0.702637 0.367940
Si Si7 0.608918 0.003917 0.969804
Si Si8 0.269100 0.330182 0.702447
O O1 0.942314 0.092061 0.608150
O O2 0.927782 0.176785 0.664805
O O3 0.417877 0.842505 0.846410
O O4 0.000000 0.000000 0.000000
O O5 0.311478 0.738489 0.750759
O O6 0.550004 0.699095 0.412281
O O7 0.119893 0.980513 0.327059
O O8 0.141053 0.771805 0.108692
O O9 0.885895 0.883509 0.892666
O O10 0.248154 0.241513 0.337687
O O11 0.979924 0.273365 0.483386
O O12 0.500000 0.000000 0.500000
O O13 0.327129 0.070020 0.777167
O O14 0.240918 0.323413 0.915359
O O15 0.000000 0.500000 0.000000
O O16 0.500000 0.500000 0.500000
O O17 0.414116 0.181613 0.806963
O O18 0.500000 0.000000 0.000000
O O19 0.000000 0.500000 0.500000
#
# Coordination Sequence:
#
# PCOD9009497 Si02
#       8
#     2   2   2   2   2   2   2   2
#     4  12  22  43  68  94 132 170 221 272 319 388
#     4  10  21  39  69  89 128 170 214 264 326 381
#     4   9  20  40  61  93 123 165 212 257 316 387
#     4  11  22  44  64  88 134 174 216 269 325 384
#     4  12  27  42  69 103 128 171 229 273 331 393
#     4  11  24  41  66  95 132 173 213 265 328 388
#     4  10  22  40  64  90 125 173 213 255 326 393
#     4  11  24  43  60  96 137 168 212 279 326 381
#
# _framework density 19.011258000000002
#
# number of rings (size 3 to 8) (size 9 to 14) (size 15 to 20)
#    0.000    1.250    5.000    0.750    5.250    3.000 
#    2.250    0.625    0.000    0.000    0.000    0.000 
#    0.000    0.000    0.000    0.000    0.000    0.000 
#
# Total GULP energy -89084.875067 kJ/mol
# GULP energy per Si atom -5567.804692 kJ/mol
# Density = 1.896799 g / cm^3
# Si number density = 19.011258 Si / 1000 Ang^3
#
#
#
# Elastic Constant Matrix: (Units=GPa)
#
#
# Indices 1 2 3 4 5 6 
#
# 1 118.1320 51.6369 30.8635 -7.2413 -15.2587 -21.8186
# 2 51.6369 108.5693 37.6783 -7.3139 -19.6633 -22.0514
# 3 30.8635 37.6783 93.2700 11.0346 -24.9799 -21.2283
# 4 -7.2413 -7.3139 11.0346 34.3871 0.8871 -4.7876
# 5 -15.2587 -19.6633 -24.9799 0.8871 31.6893 5.4234
# 6 -21.8186 -22.0514 -21.2283 -4.7876 5.4234 28.4731
#
#
#
# Elastic Compliance Matrix: (Units=1/GPa)
#
#
# Indices 1 2 3 4 5 6 
#
# 1 0.011717 -0.003606 -0.001074 0.002780 0.001528 0.005561
# 2 -0.003606 0.013975 -0.002480 0.003761 0.003828 0.006114
# 3 -0.001074 -0.002480 0.017137 -0.005529 0.010388 0.007124
# 4 0.002780 0.003761 -0.005529 0.033296 -0.002826 0.007058
# 5 0.001528 0.003828 0.010388 -0.002826 0.042364 0.003336
# 6 0.005561 0.006114 0.007124 0.007058 0.003336 0.049980
#
#
# Mechanical properties :
#
#
# Convention : Reuss Voigt Hill
#
# Bulk Modulus (GPa) = 35.07978 62.25874 48.66926
# Shear Modulus (GPa) = 26.00194 32.22939 29.11566
#
# Velocity S-wave (km/s) = 3.70227 4.12184 3.91768
# Velocity P-wave (km/s) = 6.06366 7.44797 6.79118
#
# Compressibility (1/GPa) = 0.02850645
#
# Stress axis : x y z
#
# Youngs Moduli (GPa) = 85.34565 71.55477 58.35441
#
# Poissons Ratio (x) = 0.25806 0.06270
# Poissons Ratio (y) = 0.30780 0.14474
# Poissons Ratio (z) = 0.09170 0.17748
#
# Static dielectric constant tensor:
#      x y z
#    x 1.788780 -0.113500 0.074210 
#    y -0.113500 1.662940 0.043990 
#    z 0.074210 0.043990 1.593810 
# 
# From -- ./inp_files/320658.got.cif
#   From: 2010.05.17/outbox.cif.g08.bks.cpg/sg2_161_cif.got.tgz:320658.got - 2010.06.03 11:33:40.
