data_PCOD9009709
_publ_section_title
;
Structure prediction by ZEFSAII (Michael W. Deem and Ramdas Pophale) SiO2 
 PCOD9009709
Probable space group: P -1
;
_chemical_formula_sum "Si O2"
_cell_formula_units_Z 16
_cell_length_a 5.094733
_cell_length_b 8.318584
_cell_length_c 20.448117
_cell_angle_alpha 71.858766
_cell_angle_beta 60.119361
_cell_angle_gamma 84.537640
_cell_volume 712.166034
_symmetry_space_group_name_H-M "P -1"
_symmetry_group_IT_number 2
_symmetry_cell_setting 'triclinic'
loop_
_space_group_symop_operation_xyz
x,y,z
-x,-y,-z
loop_
_atom_site_type_symbol
_atom_site_label
_atom_site_fract_x
_atom_site_fract_y
_atom_site_fract_z
Si Si1 0.194558 0.262042 0.913070
Si Si2 0.595280 0.076527 0.058502
Si Si3 0.867736 0.856102 0.291094
Si Si4 0.214367 0.370564 0.037071
Si Si5 0.729032 0.173971 0.180866
Si Si6 0.221923 0.266952 0.331633
Si Si7 0.600896 0.071596 0.408480
Si Si8 0.454884 0.652999 0.269177
O O1 0.300769 0.336966 0.821632
O O2 0.439295 0.124591 0.914320
O O3 0.155219 0.382465 0.965279
O O4 0.878795 0.148443 0.969802
O O5 0.324434 0.180234 0.055162
O O6 0.661025 0.126062 0.119867
O O7 0.638824 0.714979 0.302931
O O8 0.192463 0.781913 0.271717
O O9 0.866205 0.019150 0.222135
O O10 0.734906 0.925181 0.366119
O O11 0.953665 0.344225 0.127163
O O12 0.500000 0.500000 0.000000
O O13 0.426596 0.217151 0.250738
O O14 0.332293 0.150648 0.391637
O O15 0.299649 0.463352 0.313899
O O16 0.873722 0.217232 0.364617
O O17 0.500000 0.000000 0.500000
#
# Coordination Sequence:
#
# PCOD9009709 Si02
#       8
#     2   2   2   2   2   2   2   2
#     4  10  23  36  58  84 124 180 224 286 331 392
#     4  10  21  40  56  84 121 176 239 271 336 378
#     4  11  24  44  71 103 130 188 223 278 343 421
#     4  11  25  35  57  87 129 178 235 294 346 384
#     4  10  23  40  64  89 129 179 240 282 328 417
#     4  11  26  43  73 109 140 180 223 285 350 402
#     4  11  25  51  78 105 140 179 221 267 340 438
#     4  12  25  42  69 104 146 174 233 290 343 398
#
# _framework density 22.466671999999999
#
# number of rings (size 3 to 8) (size 9 to 14) (size 15 to 20)
#    0.000    1.250    1.250    3.750    8.750    1.000 
#    0.000    3.750    0.000    0.000    0.000    0.000 
#    0.000    0.000    0.000    0.000    0.000    0.000 
#
# Total GULP energy -89493.831386 kJ/mol
# GULP energy per Si atom -5593.364462 kJ/mol
# Density = 2.241554 g / cm^3
# Si number density = 22.466672 Si / 1000 Ang^3
#
#
#
# Elastic Constant Matrix: (Units=GPa)
#
#
# Indices 1 2 3 4 5 6 
#
# 1 54.3984 -12.6835 9.4654 8.6927 9.2426 16.6286
# 2 -12.6835 85.8149 32.3144 9.5710 5.3936 14.7394
# 3 9.4654 32.3144 120.8982 14.6993 18.1881 16.4587
# 4 8.6927 9.5710 14.6993 21.0753 8.5660 1.2275
# 5 9.2426 5.3936 18.1881 8.5660 26.6676 -1.0839
# 6 16.6286 14.7394 16.4587 1.2275 -1.0839 50.9323
#
#
#
# Elastic Compliance Matrix: (Units=1/GPa)
#
#
# Indices 1 2 3 4 5 6 
#
# 1 0.026336 0.007423 -0.000199 -0.010395 -0.007585 -0.010593
# 2 0.007423 0.015750 -0.002849 -0.007170 -0.001753 -0.005925
# 3 -0.000199 -0.002849 0.010685 -0.003661 -0.005572 -0.002594
# 4 -0.010395 -0.007170 -0.003661 0.062237 -0.012243 0.004891
# 5 -0.007585 -0.001753 -0.005572 -0.012243 0.048463 0.006111
# 6 -0.010593 -0.005925 -0.002594 0.004891 0.006111 0.025658
#
#
# Mechanical properties :
#
#
# Convention : Reuss Voigt Hill
#
# Bulk Modulus (GPa) = 16.25439 35.47824 25.86631
# Shear Modulus (GPa) = 24.88970 35.20271 30.04621
#
# Velocity S-wave (km/s) = 3.33205 3.96269 3.66097
# Velocity P-wave (km/s) = 4.69617 6.06325 5.42296
#
# Compressibility (1/GPa) = 0.06152183
#
# Stress axis : x y z
#
# Youngs Moduli (GPa) = 37.97055 63.49022 93.59003
#
# Poissons Ratio (x) = -0.47128 0.01862
# Poissons Ratio (y) = -0.28185 0.26663
# Poissons Ratio (z) = 0.00755 0.18088
#
# Static dielectric constant tensor:
#      x y z
#    x 1.888730 -0.036230 -0.020010 
#    y -0.036230 1.894030 0.019640 
#    z -0.020010 0.019640 1.803670 
# 
# From -- ./inp_files/581888.got.cif
#   From: 2010.05.17/outbox.cif.g08.bks.cpg/sg2_291_cif.got.tgz:581888.got - 2010.06.03 11:33:40.
