data_PCOD9009723
_publ_section_title
;
Structure prediction by ZEFSAII (Michael W. Deem and Ramdas Pophale) SiO2 
 PCOD9009723
Probable space group: P -1
;
_chemical_formula_sum "Si O2"
_cell_formula_units_Z 16
_cell_length_a 9.816576
_cell_length_b 12.465437
_cell_length_c 5.653262
_cell_angle_alpha 70.746791
_cell_angle_beta 109.616064
_cell_angle_gamma 78.810707
_cell_volume 577.932874
_symmetry_space_group_name_H-M "P -1"
_symmetry_group_IT_number 2
_symmetry_cell_setting 'triclinic'
loop_
_space_group_symop_operation_xyz
x,y,z
-x,-y,-z
loop_
_atom_site_type_symbol
_atom_site_label
_atom_site_fract_x
_atom_site_fract_y
_atom_site_fract_z
Si Si1 0.952533 0.204297 0.933716
Si Si2 0.186202 0.491774 0.885214
Si Si3 0.531476 0.055298 0.725953
Si Si4 0.142166 0.005152 0.839258
Si Si5 0.166865 0.414346 0.439997
Si Si6 0.612034 0.360764 0.129624
Si Si7 0.208637 0.185035 0.433775
Si Si8 0.612795 0.358760 0.633833
O O1 0.800619 0.324021 0.746641
O O2 0.906615 0.110723 0.146174
O O3 0.008083 0.117009 0.801565
O O4 0.100797 0.226350 0.113823
O O5 0.250385 0.430128 0.715654
O O6 0.225698 0.615170 0.818341
O O7 0.010076 0.500441 0.748768
O O8 0.237795 0.432140 0.214955
O O9 0.384735 0.176624 0.535369
O O10 0.500000 0.000000 0.500000
O O11 0.710163 0.039010 0.865944
O O12 0.500000 0.000000 0.000000
O O13 0.197215 0.058770 0.603471
O O14 0.146686 0.284477 0.527139
O O15 0.590792 0.305519 0.406027
O O16 0.500000 0.500000 0.000000
O O17 0.589127 0.303080 0.911730
O O18 0.500000 0.500000 0.500000
#
# Coordination Sequence:
#
# PCOD9009723 Si02
#       8
#     2   2   2   2   2   2   2   2
#     4  11  23  41  72 101 136 176 234 290 336 406
#     4  10  21  40  57  95 127 166 219 270 319 393
#     4  10  21  43  65  90 132 174 218 275 335 402
#     4  10  24  43  66 103 136 179 233 286 341 406
#     4  10  23  36  64  89 128 168 216 271 324 389
#     4  10  21  42  65  90 134 176 216 272 332 407
#     4  11  23  41  71  95 136 182 231 278 349 404
#     4  10  23  41  66  98 136 179 220 270 349 406
#
# _framework density 27.684877
#
# number of rings (size 3 to 8) (size 9 to 14) (size 15 to 20)
#    0.000    1.750    1.250    1.875    5.250    1.000 
#    9.000    0.000    0.000    0.000    0.000    0.000 
#    0.000    0.000    0.000    0.000    0.000    0.000 
#
# Total GULP energy -89257.088888 kJ/mol
# GULP energy per Si atom -5578.568056 kJ/mol
# Density = 2.762186 g / cm^3
# Si number density = 27.684877 Si / 1000 Ang^3
#
#
#
# Elastic Constant Matrix: (Units=GPa)
#
#
# Indices 1 2 3 4 5 6 
#
# 1 129.4481 18.7346 63.5599 -4.1402 14.2368 -7.1762
# 2 18.7346 82.3725 58.7564 1.3459 -4.6714 -9.9585
# 3 63.5599 58.7564 149.2214 33.9518 -14.0783 -16.8329
# 4 -4.1402 1.3459 33.9518 59.7347 -18.6145 2.7192
# 5 14.2368 -4.6714 -14.0783 -18.6145 67.9313 -7.1669
# 6 -7.1762 -9.9585 -16.8329 2.7192 -7.1669 50.0644
#
#
#
# Elastic Compliance Matrix: (Units=1/GPa)
#
#
# Indices 1 2 3 4 5 6 
#
# 1 0.011087 0.001927 -0.006677 0.003736 -0.002641 -0.000853
# 2 0.001927 0.018114 -0.008959 0.004912 0.000401 0.000658
# 3 -0.006677 -0.008959 0.015597 -0.008655 0.001988 0.003260
# 4 0.003736 0.004912 -0.008655 0.023110 0.003873 -0.002098
# 5 -0.002641 0.000401 0.001988 0.003873 0.017049 0.002600
# 6 -0.000853 0.000658 0.003260 -0.002098 0.002600 0.021565
#
#
# Mechanical properties :
#
#
# Convention : Reuss Voigt Hill
#
# Bulk Modulus (GPa) = 57.53308 71.46044 64.49676
# Shear Modulus (GPa) = 35.78213 50.21217 42.99715
#
# Velocity S-wave (km/s) = 3.59901 4.26338 3.94520
# Velocity P-wave (km/s) = 6.17228 7.07837 6.64080
#
# Compressibility (1/GPa) = 0.01738130
#
# Stress axis : x y z
#
# Youngs Moduli (GPa) = 90.19450 55.20559 64.11316
#
# Poissons Ratio (x) = -0.10637 0.42806
# Poissons Ratio (y) = -0.17379 0.57438
# Poissons Ratio (z) = 0.60219 0.49458
#
# Static dielectric constant tensor:
#      x y z
#    x -0.307570 1.001540 0.430940 
#    y 1.001540 1.715490 -0.232680 
#    z 0.430940 -0.232680 2.228830 
# 
# From -- ./inp_files/75830.got.cif
#   From: 2010.05.17/outbox.cif.g08.bks.cpg/sg2_38_cif.got.tgz:75830.got - 2010.06.03 11:33:40.
