data_PCOD9009584
_publ_section_title
;
Structure prediction by ZEFSAII (Michael W. Deem and Ramdas Pophale) SiO2 
 PCOD9009584
Probable space group: P -1
;
_chemical_formula_sum "Si O2"
_cell_formula_units_Z 16
_cell_length_a 16.731273
_cell_length_b 16.836574
_cell_length_c 12.036242
_cell_angle_alpha 28.617439
_cell_angle_beta 33.834528
_cell_angle_gamma 30.019499
_cell_volume 776.420427
_symmetry_space_group_name_H-M "P -1"
_symmetry_group_IT_number 2
_symmetry_cell_setting 'triclinic'
loop_
_space_group_symop_operation_xyz
x,y,z
-x,-y,-z
loop_
_atom_site_type_symbol
_atom_site_label
_atom_site_fract_x
_atom_site_fract_y
_atom_site_fract_z
Si Si1 0.188845 0.351791 0.415903
Si Si2 0.561710 0.795689 0.118687
Si Si3 0.036828 0.957903 0.313031
Si Si4 0.334735 0.538941 0.429051
Si Si5 0.001881 0.157695 0.880642
Si Si6 0.329917 0.441555 0.924357
Si Si7 0.793807 0.144797 0.525784
Si Si8 0.652446 0.527832 0.759483
O O1 0.329943 0.307962 0.398771
O O2 0.000000 0.500000 0.500000
O O3 0.159471 0.176627 0.640515
O O4 0.240135 0.424617 0.158659
O O5 0.671156 0.616080 0.293884
O O6 0.639132 0.728386 0.988862
O O7 0.393052 0.790729 0.310040
O O8 0.500000 0.000000 0.000000
O O9 0.164512 0.743414 0.388331
O O10 0.110083 0.971154 0.331779
O O11 0.854530 0.018671 0.497065
O O12 0.019636 0.098685 0.061699
O O13 0.495168 0.565608 0.236210
O O14 0.346634 0.463767 0.383452
O O15 0.821611 0.343378 0.836176
O O16 0.000000 0.000000 0.000000
O O17 0.216225 0.652157 0.738833
O O18 0.500000 0.500000 0.000000
#
# Coordination Sequence:
#
# PCOD9009584 Si02
#       8
#     2   2   2   2   2   2   2   2
#     4  10  23  41  65  97 131 171 222 277 330 391
#     4  11  24  41  62  98 132 171 222 279 329 394
#     4  11  21  39  67  96 125 173 223 266 332 398
#     4  11  21  42  69  91 133 177 221 272 337 401
#     4  11  24  41  64  94 136 171 219 273 331 393
#     4  11  20  44  69  93 132 176 224 274 333 397
#     4  10  21  39  70  92 125 172 220 269 333 396
#     4  11  22  42  66  97 127 176 222 272 330 396
#
# _framework density 20.607391
#
# number of rings (size 3 to 8) (size 9 to 14) (size 15 to 20)
#    0.000    1.250    5.000    2.250    1.750    2.000 
#    0.000    3.125    0.000    0.000    0.000    0.000 
#    0.000    0.000    0.000    0.000    0.000    0.000 
#
# Total GULP energy -89084.954433 kJ/mol
# GULP energy per Si atom -5567.809652 kJ/mol
# Density = 2.056049 g / cm^3
# Si number density = 20.607391 Si / 1000 Ang^3
#
#
#
# Elastic Constant Matrix: (Units=GPa)
#
#
# Indices 1 2 3 4 5 6 
#
# 1 113.9586 21.1554 53.4469 -2.4894 4.1191 19.7912
# 2 21.1554 51.8047 16.9170 7.7918 -2.7244 11.9093
# 3 53.4469 16.9170 77.3860 11.8357 4.5736 19.7914
# 4 -2.4894 7.7918 11.8357 30.5951 5.1279 5.7289
# 5 4.1191 -2.7244 4.5736 5.1279 40.2068 -0.2197
# 6 19.7912 11.9093 19.7914 5.7289 -0.2197 35.9425
#
#
#
# Elastic Compliance Matrix: (Units=1/GPa)
#
#
# Indices 1 2 3 4 5 6 
#
# 1 0.014502 -0.003237 -0.009513 0.006436 -0.001459 -0.002709
# 2 -0.003237 0.022900 -0.000987 -0.005335 0.002652 -0.004395
# 3 -0.009513 -0.000987 0.022378 -0.008046 -0.000642 -0.005478
# 4 0.006436 -0.005335 -0.008046 0.039219 -0.005127 -0.003628
# 5 -0.001459 0.002652 -0.000642 -0.005127 0.025934 0.001253
# 6 -0.002709 -0.004395 -0.005478 -0.003628 0.001253 0.034373
#
#
# Mechanical properties :
#
#
# Convention : Reuss Voigt Hill
#
# Bulk Modulus (GPa) = 30.95557 47.35421 39.15489
# Shear Modulus (GPa) = 25.31024 31.45755 28.38390
#
# Velocity S-wave (km/s) = 3.50839 3.91131 3.71531
# Velocity P-wave (km/s) = 5.60945 6.58991 6.11935
#
# Compressibility (1/GPa) = 0.03230437
#
# Stress axis : x y z
#
# Youngs Moduli (GPa) = 68.95769 43.66840 44.68678
#
# Poissons Ratio (x) = 0.14137 0.42512
# Poissons Ratio (y) = 0.22325 0.04410
# Poissons Ratio (z) = 0.65602 0.04309
#
# Static dielectric constant tensor:
#      x y z
#    x 1.784180 -0.021370 0.005450 
#    y -0.021370 1.873080 0.071700 
#    z 0.005450 0.071700 1.666660 
# 
# From -- ./inp_files/335222.got.cif
#   From: 2010.05.17/outbox.cif.g08.bks.cpg/sg2_168_cif.got.tgz:335222.got - 2010.06.03 11:33:40.
