data_PCOD9009270
_publ_section_title
;
Structure prediction by ZEFSAII (Michael W. Deem and Ramdas Pophale) SiO2 
 PCOD9009270
Probable space group: P -1
;
_chemical_formula_sum "Si O2"
_cell_formula_units_Z 16
_cell_length_a 8.637008
_cell_length_b 17.672433
_cell_length_c 7.833664
_cell_angle_alpha 113.557294
_cell_angle_beta 35.367303
_cell_angle_gamma 110.966726
_cell_volume 633.266718
_symmetry_space_group_name_H-M "P -1"
_symmetry_group_IT_number 2
_symmetry_cell_setting 'triclinic'
loop_
_space_group_symop_operation_xyz
x,y,z
-x,-y,-z
loop_
_atom_site_type_symbol
_atom_site_label
_atom_site_fract_x
_atom_site_fract_y
_atom_site_fract_z
Si Si1 0.504266 0.134076 0.510251
Si Si2 0.669634 0.272161 0.217853
Si Si3 0.270593 0.191157 0.277805
Si Si4 0.039493 0.094657 0.110514
Si Si5 0.865085 0.650027 0.645926
Si Si6 0.357346 0.543805 0.009138
Si Si7 0.207547 0.367244 0.894798
Si Si8 0.275935 0.045975 0.344623
O O1 0.650658 0.198745 0.307530
O O2 0.411187 0.051883 0.414899
O O3 0.738686 0.122199 0.424069
O O4 0.223937 0.151103 0.865046
O O5 0.561868 0.232571 0.100940
O O6 0.952726 0.321126 0.993954
O O7 0.465090 0.334290 0.540850
O O8 0.213840 0.111685 0.137465
O O9 0.119651 0.262609 0.385561
O O10 0.207906 0.143415 0.468231
O O11 0.000000 0.000000 0.000000
O O12 0.604708 0.598167 0.756098
O O13 0.814747 0.654549 0.900691
O O14 0.130148 0.601364 0.332297
O O15 0.500000 0.500000 0.000000
O O16 0.223500 0.466637 0.956664
O O17 0.000000 0.000000 0.500000
O O18 0.500000 0.000000 0.000000
#
# Coordination Sequence:
#
# PCOD9009270 Si02
#       8
#     2   2   2   2   2   2   2   2
#     4  11  23  41  63  90 122 164 212 256 315 389
#     4  11  24  40  62  92 128 173 214 256 320 386
#     4  11  27  43  66  98 134 165 214 279 327 374
#     4  12  25  43  66  94 123 161 213 271 325 380
#     4  11  22  40  67 100 129 166 217 273 317 364
#     4  10  21  39  67  99 130 170 217 263 314 379
#     4  11  21  42  67  92 128 175 218 254 309 393
#     4  11  24  44  67  91 127 172 210 256 325 397
#
# _framework density 25.265815
#
# number of rings (size 3 to 8) (size 9 to 14) (size 15 to 20)
#    0.000    1.000    0.000    8.625    0.000    8.000 
#    0.000    3.750    0.000    0.000    0.000    0.000 
#    0.000    0.000    0.000    0.000    0.000    0.000 
#
# Total GULP energy -89342.581891 kJ/mol
# GULP energy per Si atom -5583.911368 kJ/mol
# Density = 2.520831 g / cm^3
# Si number density = 25.265815 Si / 1000 Ang^3
#
#
#
# Elastic Constant Matrix: (Units=GPa)
#
#
# Indices 1 2 3 4 5 6 
#
# 1 87.2613 48.3509 15.7172 1.5257 -10.1971 18.2991
# 2 48.3509 147.8322 29.8074 -5.9160 -28.4258 8.2875
# 3 15.7172 29.8074 108.7709 -9.9208 -19.4647 -11.4281
# 4 1.5257 -5.9160 -9.9208 26.8416 8.7209 -7.5556
# 5 -10.1971 -28.4258 -19.4647 8.7209 27.3678 -0.5438
# 6 18.2991 8.2875 -11.4281 -7.5556 -0.5438 49.5125
#
#
#
# Elastic Compliance Matrix: (Units=1/GPa)
#
#
# Indices 1 2 3 4 5 6 
#
# 1 0.015774 -0.004342 -0.001935 -0.004784 0.001392 -0.006265
# 2 -0.004342 0.009922 -0.000665 -0.000601 0.008402 -0.000209
# 3 -0.001935 -0.000665 0.011415 0.003479 0.005679 0.004054
# 4 -0.004784 -0.000601 0.003479 0.046051 -0.014417 0.009541
# 5 0.001392 0.008402 0.005679 -0.014417 0.054374 -0.002213
# 6 -0.006265 -0.000209 0.004054 0.009541 -0.002213 0.024915
#
#
# Mechanical properties :
#
#
# Convention : Reuss Voigt Hill
#
# Bulk Modulus (GPa) = 43.05188 59.06837 51.06013
# Shear Modulus (GPa) = 27.16273 37.41031 32.28652
#
# Velocity S-wave (km/s) = 3.28240 3.85212 3.57861
# Velocity P-wave (km/s) = 5.60732 6.57378 6.10969
#
# Compressibility (1/GPa) = 0.02322779
#
# Stress axis : x y z
#
# Youngs Moduli (GPa) = 63.39530 100.78884 87.60420
#
# Poissons Ratio (x) = 0.43759 0.16952
# Poissons Ratio (y) = 0.27524 0.05823
# Poissons Ratio (z) = 0.12267 0.06700
#
# Static dielectric constant tensor:
#      x y z
#    x 2.107430 -0.035220 0.088130 
#    y -0.035220 2.048570 -0.014160 
#    z 0.088130 -0.014160 1.981450 
# 
# From -- ./inp_files/223733.got.cif
#   From: 2010.05.17/outbox.cif.g08.bks.cpg/sg2_112_cif.got.tgz:223733.got - 2010.06.03 11:33:40.
