data_PCOD9009837
_publ_section_title
;
Structure prediction by ZEFSAII (Michael W. Deem and Ramdas Pophale) SiO2 
 PCOD9009837
Probable space group: P -1
;
_chemical_formula_sum "Si O2"
_cell_formula_units_Z 16
_cell_length_a 8.037954
_cell_length_b 23.568043
_cell_length_c 5.911207
_cell_angle_alpha 97.973980
_cell_angle_beta 60.531605
_cell_angle_gamma 138.674071
_cell_volume 589.681217
_symmetry_space_group_name_H-M "P -1"
_symmetry_group_IT_number 2
_symmetry_cell_setting 'triclinic'
loop_
_space_group_symop_operation_xyz
x,y,z
-x,-y,-z
loop_
_atom_site_type_symbol
_atom_site_label
_atom_site_fract_x
_atom_site_fract_y
_atom_site_fract_z
Si Si1 0.527153 0.204664 0.572276
Si Si2 0.660958 0.442540 0.757383
Si Si3 0.052859 0.884366 0.376378
Si Si4 0.129669 0.072343 0.146401
Si Si5 0.909842 0.386811 0.147802
Si Si6 0.142854 0.347003 0.709385
Si Si7 0.659890 0.692777 0.751049
Si Si8 0.648882 0.139358 0.129956
O O1 0.230369 0.153236 0.589725
O O2 0.392875 0.173365 0.897814
O O3 0.782772 0.311213 0.376284
O O4 0.615409 0.160255 0.413473
O O5 0.770617 0.510527 0.921528
O O6 0.458895 0.423283 0.687698
O O7 0.000000 0.500000 0.500000
O O8 0.462485 0.342299 0.934205
O O9 0.908545 0.799534 0.580174
O O10 0.257373 0.901203 0.052774
O O11 0.122921 0.948796 0.560778
O O12 0.330569 0.080675 0.182719
O O13 0.000000 0.000000 0.000000
O O14 0.635104 0.365126 0.250478
O O15 0.977225 0.367512 0.864563
O O16 0.200942 0.336153 0.419005
O O17 0.921392 0.245672 0.910096
#
# Coordination Sequence:
#
# PCOD9009837 Si02
#       8
#     2   2   2   2   2   2   2   2
#     4   9  21  41  64  87 125 162 200 247 302 364
#     4  12  24  37  58  90 124 157 207 251 290 344
#     4   9  21  39  64  91 120 164 199 241 307 360
#     4  11  24  41  65  96 122 153 199 251 306 369
#     4  10  21  40  60  86 119 163 203 248 299 341
#     4  10  22  41  58  86 120 160 206 245 296 350
#     4  10  22  41  59  84 124 161 200 250 292 349
#     4   9  21  42  62  92 123 158 204 245 302 365
#
# _framework density 27.133302
#
# number of rings (size 3 to 8) (size 9 to 14) (size 15 to 20)
#    0.000    2.000    1.250    1.500    1.750    8.000 
#    2.250    1.250    0.000    0.000    0.000    0.000 
#    0.000    0.000    0.000    0.000    0.000    0.000 
#
# Total GULP energy -89493.099881 kJ/mol
# GULP energy per Si atom -5593.318743 kJ/mol
# Density = 2.707155 g / cm^3
# Si number density = 27.133302 Si / 1000 Ang^3
#
#
#
# Elastic Constant Matrix: (Units=GPa)
#
#
# Indices 1 2 3 4 5 6 
#
# 1 85.2957 25.8192 34.6907 17.6473 -13.6209 3.6250
# 2 25.8192 95.3397 8.9689 21.3931 -11.2097 -5.4543
# 3 34.6907 8.9689 143.9921 11.6012 -22.1748 -33.8659
# 4 17.6473 21.3931 11.6012 46.2294 -21.9928 0.7071
# 5 -13.6209 -11.2097 -22.1748 -21.9928 49.9438 8.2030
# 6 3.6250 -5.4543 -33.8659 0.7071 8.2030 36.3864
#
#
#
# Elastic Compliance Matrix: (Units=1/GPa)
#
#
# Indices 1 2 3 4 5 6 
#
# 1 0.015732 -0.003492 -0.004754 -0.002400 0.001456 -0.006797
# 2 -0.003492 0.012611 0.001247 -0.005052 -0.000381 0.003583
# 3 -0.004754 0.001247 0.010766 -0.000806 0.001715 0.010310
# 4 -0.002400 -0.005052 -0.000806 0.030992 0.012262 -0.004635
# 5 0.001456 -0.000381 0.001715 0.012262 0.027317 -0.005002
# 6 -0.006797 0.003583 0.010310 -0.004635 -0.005002 0.039511
#
#
# Mechanical properties :
#
#
# Convention : Reuss Voigt Hill
#
# Bulk Modulus (GPa) = 39.82314 51.50944 45.66629
# Shear Modulus (GPa) = 31.38769 43.52183 37.45476
#
# Velocity S-wave (km/s) = 3.40486 4.00934 3.71940
# Velocity P-wave (km/s) = 5.49237 6.36067 5.94240
#
# Compressibility (1/GPa) = 0.02511103
#
# Stress axis : x y z
#
# Youngs Moduli (GPa) = 63.56329 79.29569 92.88193
#
# Poissons Ratio (x) = 0.27694 0.44154
# Poissons Ratio (y) = 0.22199 -0.11581
# Poissons Ratio (z) = 0.30216 -0.09887
#
# Static dielectric constant tensor:
#      x y z
#    x 2.037520 -0.052800 -0.006100 
#    y -0.052800 2.245200 0.050560 
#    z -0.006100 0.050560 2.247660 
# 
# From -- ./inp_files/56465.got.cif
#   From: 2010.05.17/outbox.cif.g08.bks.cpg/sg2_29_cif.got.tgz:56465.got - 2010.06.03 11:33:40.
