data_PCOD9009842
_publ_section_title
;
Structure prediction by ZEFSAII (Michael W. Deem and Ramdas Pophale) SiO2 
 PCOD9009842
Probable space group: P -1
;
_chemical_formula_sum "Si O2"
_cell_formula_units_Z 16
_cell_length_a 16.323018
_cell_length_b 30.237569
_cell_length_c 19.807701
_cell_angle_alpha 162.421299
_cell_angle_beta 160.979451
_cell_angle_gamma 17.959895
_cell_volume 828.778860
_symmetry_space_group_name_H-M "P -1"
_symmetry_group_IT_number 2
_symmetry_cell_setting 'triclinic'
loop_
_space_group_symop_operation_xyz
x,y,z
-x,-y,-z
loop_
_atom_site_type_symbol
_atom_site_label
_atom_site_fract_x
_atom_site_fract_y
_atom_site_fract_z
Si Si1 0.748241 0.459153 0.305868
Si Si2 0.185837 0.735909 0.789903
Si Si3 0.596110 0.981199 0.176867
Si Si4 0.643282 0.237546 0.256874
Si Si5 0.996994 0.706305 0.869996
Si Si6 0.298229 0.484559 0.229952
Si Si7 0.196003 0.766528 0.252197
Si Si8 0.177934 0.065822 0.318980
O O1 0.774897 0.375306 0.276435
O O2 0.941779 0.548398 0.596284
O O3 0.431304 0.609380 0.252448
O O4 0.863232 0.317037 0.129483
O O5 0.464119 0.631041 0.807405
O O6 0.916107 0.798951 0.619162
O O7 0.172474 0.904231 0.051064
O O8 0.875347 0.854774 0.165035
O O9 0.316063 0.120594 0.119589
O O10 0.700664 0.093955 0.464335
O O11 0.477756 0.879848 0.980678
O O12 0.396798 0.385529 0.233668
O O13 0.710917 0.337233 0.512055
O O14 0.932776 0.143592 0.299513
O O15 0.179788 0.706018 0.076136
O O16 0.000000 0.500000 0.000000
O O17 0.500000 0.000000 0.500000
#
# Coordination Sequence:
#
# PCOD9009842 Si02
#       8
#     2   2   2   2   2   2   2   2
#     4  10  22  38  60  91 122 158 211 259 310 374
#     4  10  22  38  61  90 122 158 203 255 306 371
#     4  10  22  39  61  90 125 159 213 257 309 381
#     4  10  22  39  60  90 123 159 202 259 304 372
#     4  10  21  40  60  86 126 160 207 265 307 366
#     4  10  22  38  59  89 124 156 200 251 310 374
#     4  10  22  39  62  90 122 167 209 259 311 379
#     4  10  21  41  63  87 124 161 205 254 309 375
#
# _framework density 19.305512
#
# number of rings (size 3 to 8) (size 9 to 14) (size 15 to 20)
#    0.000    2.000    0.000    2.250    3.500    2.000 
#    0.000    7.500    0.000    0.000    0.000    0.000 
#    0.000    0.000    0.000    0.000    0.000    0.000 
#
# Total GULP energy -89251.673357 kJ/mol
# GULP energy per Si atom -5578.229585 kJ/mol
# Density = 1.926157 g / cm^3
# Si number density = 19.305512 Si / 1000 Ang^3
#
#
#
# Elastic Constant Matrix: (Units=GPa)
#
#
# Indices 1 2 3 4 5 6 
#
# 1 115.9346 47.1807 76.0306 -0.4234 -15.2867 19.3017
# 2 47.1807 90.8430 63.5332 -15.3408 -5.5505 1.7525
# 3 76.0306 63.5332 112.5843 -9.1527 -9.5808 14.2118
# 4 -0.4234 -15.3408 -9.1527 33.2057 -0.3201 -4.4685
# 5 -15.2867 -5.5505 -9.5808 -0.3201 31.5816 8.3977
# 6 19.3017 1.7525 14.2118 -4.4685 8.3977 35.7655
#
#
#
# Elastic Compliance Matrix: (Units=1/GPa)
#
#
# Indices 1 2 3 4 5 6 
#
# 1 0.018491 -0.003306 -0.009278 -0.004928 0.007785 -0.008574
# 2 -0.003306 0.020541 -0.009738 0.007572 -0.002512 0.006183
# 3 -0.009278 -0.009738 0.021188 0.000819 0.001053 -0.003080
# 4 -0.004928 0.007572 0.000819 0.034673 -0.002270 0.006828
# 5 0.007785 -0.002512 0.001053 -0.002270 0.038993 -0.013936
# 6 -0.008574 0.006183 -0.003080 0.006828 -0.013936 0.037633
#
#
# Mechanical properties :
#
#
# Convention : Reuss Voigt Hill
#
# Bulk Modulus (GPa) = 64.19628 76.98344 70.58986
# Shear Modulus (GPa) = 22.58814 28.95174 25.76994
#
# Velocity S-wave (km/s) = 3.42429 3.87675 3.65752
# Velocity P-wave (km/s) = 6.99710 7.74609 7.38110
#
# Compressibility (1/GPa) = 0.01557723
#
# Stress axis : x y z
#
# Youngs Moduli (GPa) = 54.07910 48.68222 47.19739
#
# Poissons Ratio (x) = 0.16096 0.43788
# Poissons Ratio (y) = 0.17881 0.45959
# Poissons Ratio (z) = 0.50172 0.47405
#
# Static dielectric constant tensor:
#      x y z
#    x 1.677540 0.018750 -0.012440 
#    y 0.018750 1.672460 0.010450 
#    z -0.012440 0.010450 1.652530 
# 
# From -- ./inp_files/574555.got.cif
#   From: 2010.05.17/outbox.cif.g08.bks.cpg/sg2_288_cif.got.tgz:574555.got - 2010.06.03 11:33:40.
