data_PCOD9009229
_publ_section_title
;
Structure prediction by ZEFSAII (Michael W. Deem and Ramdas Pophale) SiO2 
 PCOD9009229
Probable space group: P -1
;
_chemical_formula_sum "Si O2"
_cell_formula_units_Z 13
_cell_length_a 21.034396
_cell_length_b 5.107780
_cell_length_c 5.291171
_cell_angle_alpha 90.968809
_cell_angle_beta 73.380259
_cell_angle_gamma 58.935407
_cell_volume 457.141703
_symmetry_space_group_name_H-M "P -1"
_symmetry_group_IT_number 2
_symmetry_cell_setting 'triclinic'
loop_
_space_group_symop_operation_xyz
x,y,z
-x,-y,-z
loop_
_atom_site_type_symbol
_atom_site_label
_atom_site_fract_x
_atom_site_fract_y
_atom_site_fract_z
Si Si1 0.732194 0.022990 0.829348
Si Si2 0.500000 0.000000 0.500000
Si Si3 0.219790 0.579056 0.473322
Si Si4 0.430729 0.667007 0.275055
Si Si5 0.954009 0.769987 0.767364
Si Si6 0.092037 0.622865 0.996006
Si Si7 0.643842 0.567043 0.312836
O O1 0.788301 0.114675 0.628176
O O2 0.654584 0.176168 0.745032
O O3 0.566971 0.594676 0.545965
O O4 0.765201 0.659595 0.773921
O O5 0.554117 0.102955 0.589707
O O6 0.415359 0.183755 0.819234
O O7 0.149921 0.627566 0.729614
O O8 0.295335 0.423726 0.571860
O O9 0.500000 0.500000 0.000000
O O10 0.302424 0.777758 0.874295
O O11 0.000000 0.500000 0.500000
O O12 0.013239 0.716813 0.928701
O O13 0.886179 0.712182 0.932747
O O14 0.922386 0.131341 0.762185
#
# Coordination Sequence:
#
# PCOD9009229 Si02
#       7
#     2   1   2   2   2   2   2
#     4  11  25  41  62  88 122 162 209 251 312 368
#     4  12  22  40  64  82 118 158 208 262 316 362
#     4  11  25  43  62  91 128 165 201 254 305 363
#     4  11  24  39  60  87 115 157 206 265 315 364
#     4  10  21  39  67  97 126 163 203 247 298 355
#     4  10  22  40  63  95 130 160 206 248 295 364
#     4  11  26  39  61  90 119 160 211 257 312 373
#
# _framework density 28.437574999999999
#
# number of rings (size 3 to 8) (size 9 to 14) (size 15 to 20)
#    0.000    1.231    3.077    1.846    2.154    3.077 
#    0.000    0.000    0.000    0.000    0.000    0.000 
#    0.000    0.000    0.000    0.000    0.000    0.000 
#
# Total GULP energy -72684.138338 kJ/mol
# GULP energy per Si atom -5591.087564 kJ/mol
# Density = 2.837285 g / cm^3
# Si number density = 28.437575 Si / 1000 Ang^3
#
#
#
# Elastic Constant Matrix: (Units=GPa)
#
#
# Indices 1 2 3 4 5 6 
#
# 1 165.1737 58.9692 41.9951 2.6095 -1.1496 39.2156
# 2 58.9692 149.4404 33.7747 12.6187 8.1606 30.1821
# 3 41.9951 33.7747 112.9327 21.1327 -11.9926 29.5812
# 4 2.6095 12.6187 21.1327 48.8989 12.3002 10.4210
# 5 -1.1496 8.1606 -11.9926 12.3002 51.1962 0.2107
# 6 39.2156 30.1821 29.5812 10.4210 0.2107 67.1085
#
#
#
# Elastic Compliance Matrix: (Units=1/GPa)
#
#
# Indices 1 2 3 4 5 6 
#
# 1 0.008042 -0.002251 -0.001842 0.001688 -0.000285 -0.003137
# 2 -0.002251 0.008359 -0.001209 -0.000762 -0.001476 -0.001789
# 3 -0.001842 -0.001209 0.012103 -0.005273 0.004265 -0.002910
# 4 0.001688 -0.000762 -0.005273 0.025088 -0.007094 -0.002192
# 5 -0.000285 -0.001476 0.004265 -0.007094 0.022465 -0.000019
# 6 -0.003137 -0.001789 -0.002910 -0.002192 -0.000019 0.019162
#
#
# Mechanical properties :
#
#
# Convention : Reuss Voigt Hill
#
# Bulk Modulus (GPa) = 55.85962 77.44721 66.65342
# Shear Modulus (GPa) = 44.72745 52.96123 48.84434
#
# Velocity S-wave (km/s) = 3.97019 4.32020 4.14889
# Velocity P-wave (km/s) = 6.37982 7.22348 6.81472
#
# Compressibility (1/GPa) = 0.01790202
#
# Stress axis : x y z
#
# Youngs Moduli (GPa) = 124.34626 119.63087 82.62369
#
# Poissons Ratio (x) = 0.26924 0.15219
# Poissons Ratio (y) = 0.27985 0.09986
# Poissons Ratio (z) = 0.22903 0.14458
#
# Static dielectric constant tensor:
#      x y z
#    x 2.158040 -0.093050 -0.126460 
#    y -0.093050 2.869860 0.192800 
#    z -0.126460 0.192800 2.453550 
# 
# From -- ./inp_files/113777.got.cif
#   From: 2010.05.17/outbox.cif.g08.bks.cpg/sg2_57_cif.got.tgz:113777.got - 2010.06.03 11:33:40.
