data_PCOD9009031
_publ_section_title
;
Structure prediction by ZEFSAII (Michael W. Deem and Ramdas Pophale) SiO2 
 PCOD9009031
Probable space group: P -1
;
_chemical_formula_sum "Si O2"
_cell_formula_units_Z 14
_cell_length_a 10.067578
_cell_length_b 5.226564
_cell_length_c 19.022783
_cell_angle_alpha 116.411642
_cell_angle_beta 136.902038
_cell_angle_gamma 51.961280
_cell_volume 538.612716
_symmetry_space_group_name_H-M "P -1"
_symmetry_group_IT_number 2
_symmetry_cell_setting 'triclinic'
loop_
_space_group_symop_operation_xyz
x,y,z
-x,-y,-z
loop_
_atom_site_type_symbol
_atom_site_label
_atom_site_fract_x
_atom_site_fract_y
_atom_site_fract_z
Si Si1 0.422365 0.745269 0.371061
Si Si2 0.312391 0.196292 0.249194
Si Si3 0.161210 0.623923 0.877119
Si Si4 0.256624 0.748861 0.070836
Si Si5 0.453023 0.938106 0.890980
Si Si6 0.064980 0.620724 0.467954
Si Si7 0.962075 0.167958 0.287232
O O1 0.407694 0.435327 0.296863
O O2 0.674213 0.584717 0.473984
O O3 0.390681 0.014297 0.332580
O O4 0.218586 0.896781 0.367532
O O5 0.044263 0.405404 0.173668
O O6 0.366775 0.919157 0.178817
O O7 0.044005 0.889939 0.805871
O O8 0.325432 0.304497 0.860878
O O9 0.290443 0.706343 0.995291
O O10 0.325336 0.389095 0.082264
O O11 0.000000 0.000000 0.000000
O O12 0.262776 0.839309 0.782583
O O13 0.500000 0.000000 0.000000
O O14 0.951981 0.502348 0.350125
O O15 0.000000 0.500000 0.500000
O O16 0.000000 0.000000 0.500000
#
# Coordination Sequence:
#
# PCOD9009031 Si02
#       7
#     2   2   2   2   2   2   2
#     4  11  24  46  74 100 139 185 237 278 350 416
#     4  10  21  42  68 104 138 181 225 287 342 406
#     4   9  20  42  63  99 134 180 235 275 341 418
#     4   9  20  38  61  98 143 181 227 279 346 406
#     4  10  21  39  66  97 138 177 234 275 343 412
#     4  12  30  49  72 107 140 178 237 296 356 412
#     4  11  25  45  72  99 138 186 230 293 345 416
#
# _framework density 25.992702999999999
#
# number of rings (size 3 to 8) (size 9 to 14) (size 15 to 20)
#    0.000    1.714    1.429    1.286    6.000    2.286 
#    5.143    6.429    0.000    0.000    0.000    0.000 
#    0.000    0.000    0.000    0.000    0.000    0.000 
#
# Total GULP energy -78024.448901 kJ/mol
# GULP energy per Si atom -5573.174922 kJ/mol
# Density = 2.593354 g / cm^3
# Si number density = 25.992703 Si / 1000 Ang^3
#
#
#
# Elastic Constant Matrix: (Units=GPa)
#
#
# Indices 1 2 3 4 5 6 
#
# 1 56.9838 24.1213 29.5698 -7.7233 18.4700 -5.8329
# 2 24.1213 166.9417 44.9147 7.7119 15.9759 -13.4487
# 3 29.5698 44.9147 141.0699 11.0195 28.2716 -4.9726
# 4 -7.7233 7.7119 11.0195 47.8717 -5.4747 10.4639
# 5 18.4700 15.9759 28.2716 -5.4747 41.6002 -9.2912
# 6 -5.8329 -13.4487 -4.9726 10.4639 -9.2912 33.9962
#
#
#
# Elastic Compliance Matrix: (Units=1/GPa)
#
#
# Indices 1 2 3 4 5 6 
#
# 1 0.022702 -0.002023 -0.003087 0.004022 -0.006775 -0.000446
# 2 -0.002023 0.007018 -0.001498 -0.001735 -0.000420 0.002629
# 3 -0.003087 -0.001498 0.009414 -0.002944 -0.004878 -0.000172
# 4 0.004022 -0.001735 -0.002944 0.024362 0.002468 -0.007251
# 5 -0.006775 -0.000420 -0.004878 0.002468 0.032187 0.005995
# 6 -0.000446 0.002629 -0.000172 -0.007251 0.005995 0.034224
#
#
# Mechanical properties :
#
#
# Convention : Reuss Voigt Hill
#
# Bulk Modulus (GPa) = 38.58207 62.46747 50.52477
# Shear Modulus (GPa) = 32.94643 42.45293 37.69968
#
# Velocity S-wave (km/s) = 3.56410 4.04575 3.81254
# Velocity P-wave (km/s) = 5.64027 6.77562 6.23385
#
# Compressibility (1/GPa) = 0.02591878
#
# Stress axis : x y z
#
# Youngs Moduli (GPa) = 44.04813 142.49975 106.22406
#
# Poissons Ratio (x) = 0.28830 0.32787
# Poissons Ratio (y) = 0.08912 0.15911
# Poissons Ratio (z) = 0.13596 0.21345
#
# Static dielectric constant tensor:
#      x y z
#    x 2.380090 0.003630 0.027880 
#    y 0.003630 2.102470 -0.008720 
#    z 0.027880 -0.008720 2.120440 
# 
# From -- ./inp_files/51875.got.cif
#   From: 2010.05.17/outbox.cif.g08.bks.cpg/sg2_26_cif.got.tgz:51875.got - 2010.06.03 11:33:40.
