data_PCOD9009826
_publ_section_title
;
Structure prediction by ZEFSAII (Michael W. Deem and Ramdas Pophale) SiO2 
 PCOD9009826
Probable space group: P -1
;
_chemical_formula_sum "Si O2"
_cell_formula_units_Z 10
_cell_length_a 13.237479
_cell_length_b 8.462028
_cell_length_c 8.873701
_cell_angle_alpha 131.551846
_cell_angle_beta 95.617656
_cell_angle_gamma 53.000219
_cell_volume 513.067081
_symmetry_space_group_name_H-M "P -1"
_symmetry_group_IT_number 2
_symmetry_cell_setting 'triclinic'
loop_
_space_group_symop_operation_xyz
x,y,z
-x,-y,-z
loop_
_atom_site_type_symbol
_atom_site_label
_atom_site_fract_x
_atom_site_fract_y
_atom_site_fract_z
Si Si1 0.335689 0.638131 0.212370
Si Si2 0.850915 0.319746 0.243543
Si Si3 0.070741 0.347746 0.575205
Si Si4 0.551149 0.680367 0.289515
Si Si5 0.130146 0.670181 0.385539
O O1 0.418751 0.411676 0.940328
O O2 0.437447 0.669213 0.317176
O O3 0.276417 0.540347 0.248768
O O4 0.192242 0.982885 0.353262
O O5 0.704637 0.423752 0.235758
O O6 0.857860 0.316865 0.424353
O O7 0.000000 0.000000 0.000000
O O8 0.151482 0.443883 0.683685
O O9 0.000000 0.500000 0.500000
O O10 0.934110 0.470957 0.733327
O O11 0.500000 0.000000 0.500000
O O12 0.000000 0.000000 0.500000
#
# Coordination Sequence:
#
# PCOD9009826 Si02
#       5
#     2   2   2   2   2
#     4  10  21  40  60  83 124 156 189 249 293 342
#     4  11  21  37  62  90 116 156 203 238 286 360
#     4   9  17  34  60  83 116 154 190 235 293 342
#     4  11  22  39  62  86 120 157 198 237 297 353
#     4   9  19  37  58  87 120 151 194 246 294 339
#
# _framework density 19.490628000000001
#
# number of rings (size 3 to 8) (size 9 to 14) (size 15 to 20)
#    0.000    2.000    2.000    3.600    0.000    0.800 
#    3.600    4.000    0.000    0.000    0.000    0.000 
#    0.000    0.000    0.000    0.000    0.000    0.000 
#
# Total GULP energy -55668.387288 kJ/mol
# GULP energy per Si atom -5566.838729 kJ/mol
# Density = 1.944627 g / cm^3
# Si number density = 19.490628 Si / 1000 Ang^3
#
#
#
# Elastic Constant Matrix: (Units=GPa)
#
#
# Indices 1 2 3 4 5 6 
#
# 1 153.8067 32.6144 40.1521 -6.3707 -36.5622 -6.4833
# 2 32.6144 59.1758 7.0284 1.6041 -9.7593 -13.6700
# 3 40.1521 7.0284 67.8011 2.5987 -10.5983 9.0044
# 4 -6.3707 1.6041 2.5987 24.9963 5.8377 -4.4293
# 5 -36.5622 -9.7593 -10.5983 5.8377 39.7654 1.9051
# 6 -6.4833 -13.6700 9.0044 -4.4293 1.9051 41.0760
#
#
#
# Elastic Compliance Matrix: (Units=1/GPa)
#
#
# Indices 1 2 3 4 5 6 
#
# 1 0.010370 -0.003722 -0.004930 0.002016 0.006946 0.001374
# 2 -0.003722 0.020716 -0.000481 -0.001471 0.001454 0.006186
# 3 -0.004930 -0.000481 0.018838 -0.004481 0.001297 -0.005611
# 4 0.002016 -0.001471 -0.004481 0.043599 -0.006381 0.005808
# 5 0.006946 0.001454 0.001297 -0.006381 0.033218 -0.000933
# 6 0.001374 0.006186 -0.005611 0.005808 -0.000933 0.028520
#
#
# Mechanical properties :
#
#
# Convention : Reuss Voigt Hill
#
# Bulk Modulus (GPa) = 31.58686 48.93035 40.25861
# Shear Modulus (GPa) = 27.16217 34.56679 30.86448
#
# Velocity S-wave (km/s) = 3.73715 4.21587 3.98371
# Velocity P-wave (km/s) = 5.90449 6.98979 6.46994
#
# Compressibility (1/GPa) = 0.03165874
#
# Stress axis : x y z
#
# Youngs Moduli (GPa) = 96.42906 48.27217 53.08464
#
# Poissons Ratio (x) = 0.17966 0.26168
# Poissons Ratio (y) = 0.35888 0.02555
# Poissons Ratio (z) = 0.47535 0.02324
#
# Static dielectric constant tensor:
#      x y z
#    x 1.808690 -0.009130 -0.004710 
#    y -0.009130 1.687660 0.024070 
#    z -0.004710 0.024070 1.686290 
# 
# From -- ./inp_files/57972.got.cif
#   From: 2010.05.17/outbox.cif.g08.bks.cpg/sg2_29_cif.got.tgz:57972.got - 2010.06.03 11:33:40.
