data_PCOD9009258
_publ_section_title
;
Structure prediction by ZEFSAII (Michael W. Deem and Ramdas Pophale) SiO2 
 PCOD9009258
Probable space group: P -1
;
_chemical_formula_sum "Si O2"
_cell_formula_units_Z 16
_cell_length_a 9.452827
_cell_length_b 6.738411
_cell_length_c 15.093862
_cell_angle_alpha 39.757344
_cell_angle_beta 89.232638
_cell_angle_gamma 99.800082
_cell_volume 589.816417
_symmetry_space_group_name_H-M "P -1"
_symmetry_group_IT_number 2
_symmetry_cell_setting 'triclinic'
loop_
_space_group_symop_operation_xyz
x,y,z
-x,-y,-z
loop_
_atom_site_type_symbol
_atom_site_label
_atom_site_fract_x
_atom_site_fract_y
_atom_site_fract_z
Si Si1 0.061709 0.663047 0.083353
Si Si2 0.608397 0.251756 0.183019
Si Si3 0.132741 0.252261 0.363380
Si Si4 0.854398 0.766128 0.912062
Si Si5 0.316620 0.076231 0.554468
Si Si6 0.383336 0.148284 0.899242
Si Si7 0.729013 0.113138 0.664206
Si Si8 0.345102 0.544779 0.604857
O O1 0.053979 0.493974 0.235454
O O2 0.942132 0.814693 0.987315
O O3 0.055829 0.372319 0.113480
O O4 0.224686 0.901556 0.998084
O O5 0.700332 0.482938 0.026345
O O6 0.708532 0.055858 0.299894
O O7 0.595025 0.517001 0.164992
O O8 0.439259 0.040528 0.247792
O O9 0.219755 0.120994 0.328573
O O10 0.250711 0.327979 0.416158
O O11 0.000000 0.000000 0.500000
O O12 0.825292 0.078196 0.760345
O O13 0.281128 0.756497 0.602307
O O14 0.491359 0.238081 0.494884
O O15 0.374464 0.245588 0.761903
O O16 0.500000 0.000000 0.000000
O O17 0.739952 0.430733 0.494787
#
# Coordination Sequence:
#
# PCOD9009258 Si02
#       8
#     2   2   2   2   2   2   2   2
#     4  10  22  35  53  81 112 139 172 218 268 318
#     4  10  19  33  59  82 103 138 180 221 263 311
#     4  10  17  29  49  74 104 134 170 218 264 304
#     4  10  20  37  54  75 107 146 180 211 256 321
#     4   8  14  27  48  76  99 127 176 216 249 305
#     4  11  20  33  54  82 110 134 169 227 279 305
#     4   9  18  33  54  78 101 139 188 217 245 312
#     4   8  15  29  50  73 100 132 169 216 261 301
#
# _framework density 27.127085999999998
#
# number of rings (size 3 to 8) (size 9 to 14) (size 15 to 20)
#    0.000    2.500    0.000    5.625    0.000    0.500 
#    0.000    0.625    0.000   11.250    0.000    0.000 
#    0.000    0.000    0.000    0.000    0.000    0.000 
#
# Total GULP energy -89354.868106 kJ/mol
# GULP energy per Si atom -5584.679257 kJ/mol
# Density = 2.706534 g / cm^3
# Si number density = 27.127086 Si / 1000 Ang^3
#
#
#
# Elastic Constant Matrix: (Units=GPa)
#
#
# Indices 1 2 3 4 5 6 
#
# 1 124.9316 34.6627 72.1561 13.5282 31.6925 11.5953
# 2 34.6627 91.1822 46.6876 39.0064 25.3525 10.1856
# 3 72.1561 46.6876 237.3934 42.2928 62.2227 10.8287
# 4 13.5282 39.0064 42.2928 53.7498 9.8779 12.1442
# 5 31.6925 25.3525 62.2227 9.8779 78.0926 10.6090
# 6 11.5953 10.1856 10.8287 12.1442 10.6090 34.8932
#
#
#
# Elastic Compliance Matrix: (Units=1/GPa)
#
#
# Indices 1 2 3 4 5 6 
#
# 1 0.010650 -0.003142 -0.002628 0.002403 -0.001203 -0.002277
# 2 -0.003142 0.018028 0.000472 -0.012232 -0.003538 0.000968
# 3 -0.002628 0.000472 0.006732 -0.004562 -0.004073 0.001473
# 4 0.002403 -0.012232 -0.004562 0.031576 0.003714 -0.007931
# 5 -0.001203 -0.003538 -0.004073 0.003714 0.017761 -0.003996
# 6 -0.002277 0.000968 0.001473 -0.007931 -0.003996 0.032651
#
#
# Mechanical properties :
#
#
# Convention : Reuss Voigt Hill
#
# Bulk Modulus (GPa) = 40.30183 84.50224 62.40203
# Shear Modulus (GPa) = 36.69288 53.34717 45.02003
#
# Velocity S-wave (km/s) = 3.68180 4.43941 4.07823
# Velocity P-wave (km/s) = 5.74135 7.58261 6.72529
#
# Compressibility (1/GPa) = 0.02481277
#
# Stress axis : x y z
#
# Youngs Moduli (GPa) = 93.89286 55.46852 148.55156
#
# Poissons Ratio (x) = 0.17430 0.39044
# Poissons Ratio (y) = 0.29505 -0.07010
# Poissons Ratio (z) = 0.24678 -0.02618
#
# Static dielectric constant tensor:
#      x y z
#    x 2.222100 -0.061310 0.159900 
#    y -0.061310 2.189580 -0.006370 
#    z 0.159900 -0.006370 2.201270 
# 
# From -- ./inp_files/566366.got.cif
#   From: 2010.05.17/outbox.cif.g08.bks.cpg/sg2_284_cif.got.tgz:566366.got - 2010.06.03 11:33:40.
