data_PCOD9009064
_publ_section_title
;
Structure prediction by ZEFSAII (Michael W. Deem and Ramdas Pophale) SiO2 
 PCOD9009064
Probable space group: P -1
;
_chemical_formula_sum "Si O2"
_cell_formula_units_Z 16
_cell_length_a 10.516943
_cell_length_b 16.957986
_cell_length_c 7.017089
_cell_angle_alpha 132.599435
_cell_angle_beta 73.049521
_cell_angle_gamma 126.271424
_cell_volume 730.092406
_symmetry_space_group_name_H-M "P -1"
_symmetry_group_IT_number 2
_symmetry_cell_setting 'triclinic'
loop_
_space_group_symop_operation_xyz
x,y,z
-x,-y,-z
loop_
_atom_site_type_symbol
_atom_site_label
_atom_site_fract_x
_atom_site_fract_y
_atom_site_fract_z
Si Si1 0.996129 0.925053 0.069976
Si Si2 0.244567 0.064485 0.532473
Si Si3 0.387991 0.733360 0.327572
Si Si4 0.802219 0.298050 0.293037
Si Si5 0.682281 0.545140 0.002900
Si Si6 0.100812 0.303152 0.542151
Si Si7 0.216514 0.816989 0.276798
Si Si8 0.176944 0.466412 0.460838
O O1 0.855495 0.899876 0.231897
O O2 0.960275 0.797465 0.769900
O O3 0.149296 0.001097 0.269982
O O4 0.000000 0.000000 0.000000
O O5 0.421440 0.186732 0.614691
O O6 0.258155 0.961527 0.486379
O O7 0.316294 0.772062 0.596095
O O8 0.337569 0.782836 0.249750
O O9 0.315142 0.580152 0.134371
O O10 0.748617 0.384934 0.363460
O O11 0.984449 0.395310 0.442329
O O12 0.809870 0.218061 0.990771
O O13 0.781746 0.674743 0.300544
O O14 0.500000 0.500000 0.000000
O O15 0.767576 0.579130 0.815485
O O16 0.216064 0.436519 0.597616
O O17 0.944866 0.271984 0.673993
#
# Coordination Sequence:
#
# PCOD9009064 Si02
#       8
#     2   2   2   2   2   2   2   2
#     4  11  26  47  73 100 133 189 238 281 341 407
#     4  11  27  46  71 101 143 180 234 289 338 410
#     4  11  26  45  67 104 144 177 227 287 349 407
#     4  10  21  39  66  99 137 178 224 275 342 404
#     4  11  27  44  69 103 140 182 226 288 350 406
#     4  12  24  42  74  99 134 177 238 280 339 417
#     4  12  23  42  71 102 135 188 229 277 345 409
#     4  10  21  40  66  97 135 178 225 280 336 410
#
# _framework density 21.915036000000001
#
# number of rings (size 3 to 8) (size 9 to 14) (size 15 to 20)
#    0.000    1.000    3.750    1.875    3.500    3.000 
#    2.250    0.000    0.000    0.000    0.000    0.000 
#    0.000    0.000    0.000    0.000    0.000    0.000 
#
# Total GULP energy -89201.258633 kJ/mol
# GULP energy per Si atom -5575.078665 kJ/mol
# Density = 2.186516 g / cm^3
# Si number density = 21.915036 Si / 1000 Ang^3
#
#
#
# Elastic Constant Matrix: (Units=GPa)
#
#
# Indices 1 2 3 4 5 6 
#
# 1 69.5059 14.5469 30.9309 -8.2878 13.1083 11.2479
# 2 14.5469 70.3563 17.0717 -26.7342 12.8214 1.3993
# 3 30.9309 17.0717 131.9345 -24.6736 10.6108 15.3675
# 4 -8.2878 -26.7342 -24.6736 28.1479 -1.8939 -6.0557
# 5 13.1083 12.8214 10.6108 -1.8939 19.5183 6.3398
# 6 11.2479 1.3993 15.3675 -6.0557 6.3398 42.3672
#
#
#
# Elastic Compliance Matrix: (Units=1/GPa)
#
#
# Indices 1 2 3 4 5 6 
#
# 1 0.018085 -0.001126 -0.003010 0.000528 -0.008987 -0.002252
# 2 -0.001126 0.027677 0.002824 0.028322 -0.017862 0.005082
# 3 -0.003010 0.002824 0.010294 0.010341 -0.004123 -0.000933
# 4 0.000528 0.028322 0.010341 0.072111 -0.020353 0.008526
# 5 -0.008987 -0.017862 -0.004123 -0.020353 0.072275 -0.009253
# 6 -0.002252 0.005082 -0.000933 0.008526 -0.009253 0.026975
#
#
# Mechanical properties :
#
#
# Convention : Reuss Voigt Hill
#
# Bulk Modulus (GPa) = 18.71555 44.09949 31.40752
# Shear Modulus (GPa) = 20.17334 31.95649 26.06492
#
# Velocity S-wave (km/s) = 3.03731 3.82278 3.45245
# Velocity P-wave (km/s) = 4.56715 6.29694 5.50047
#
# Compressibility (1/GPa) = 0.05343149
#
# Stress axis : x y z
#
# Youngs Moduli (GPa) = 55.29528 36.13116 97.14336
#
# Poissons Ratio (x) = 0.04067 0.29244
# Poissons Ratio (y) = 0.06225 -0.27433
# Poissons Ratio (z) = 0.16646 -0.10203
#
# Static dielectric constant tensor:
#      x y z
#    x 1.879280 -0.156100 -0.008660 
#    y -0.156100 1.933900 0.047140 
#    z -0.008660 0.047140 1.859020 
# 
# From -- ./inp_files/81689.got.cif
#   From: 2010.05.17/outbox.cif.g08.bks.cpg/sg2_41_cif.got.tgz:81689.got - 2010.06.03 11:33:40.
