data_PCOD9009986
_publ_section_title
;
Structure prediction by ZEFSAII (Michael W. Deem and Ramdas Pophale) SiO2 
 PCOD9009986
Probable space group: P -1
;
_chemical_formula_sum "Si O2"
_cell_formula_units_Z 10
_cell_length_a 17.924946
_cell_length_b 20.585649
_cell_length_c 11.704690
_cell_angle_alpha 151.124441
_cell_angle_beta 160.387609
_cell_angle_gamma 18.977814
_cell_volume 466.902785
_symmetry_space_group_name_H-M "P -1"
_symmetry_group_IT_number 2
_symmetry_cell_setting 'triclinic'
loop_
_space_group_symop_operation_xyz
x,y,z
-x,-y,-z
loop_
_atom_site_type_symbol
_atom_site_label
_atom_site_fract_x
_atom_site_fract_y
_atom_site_fract_z
Si Si1 0.368245 0.681037 0.668480
Si Si2 0.680728 0.347871 0.178320
Si Si3 0.334592 0.936535 0.703310
Si Si4 0.834120 0.643311 0.152505
Si Si5 0.432288 0.728556 0.322835
O O1 0.500000 0.500000 0.500000
O O2 0.369207 0.646166 0.750424
O O3 0.600283 0.704190 0.011861
O O4 0.982911 0.888552 0.407639
O O5 0.413331 0.582267 0.112767
O O6 0.028275 0.267014 0.523927
O O7 0.635632 0.244085 0.867305
O O8 0.220854 0.912309 0.386860
O O9 0.605719 0.725545 0.837953
O O10 0.500000 0.000000 0.000000
O O11 0.180627 0.406519 0.301491
#
# Coordination Sequence:
#
# PCOD9009986 Si02
#       5
#     2   2   2   2   2
#     4  12  24  37  62  91 121 157 203 245 293 352
#     4   9  21  42  63  86 124 155 193 246 304 344
#     4  12  21  38  64  90 118 162 198 243 297 350
#     4  10  21  40  61  89 117 157 199 241 295 352
#     4   9  20  41  65  85 123 156 195 245 299 354
#
# _framework density 21.417735
#
# number of rings (size 3 to 8) (size 9 to 14) (size 15 to 20)
#    1.200    0.400    2.000    3.600    0.000    1.600 
#    0.000    1.000    0.000    0.000    0.000    0.000 
#    0.000    0.000    0.000    0.000    0.000    0.000 
#
# Total GULP energy -55711.990903 kJ/mol
# GULP energy per Si atom -5571.199090 kJ/mol
# Density = 2.136899 g / cm^3
# Si number density = 21.417735 Si / 1000 Ang^3
#
#
#
# Elastic Constant Matrix: (Units=GPa)
#
#
# Indices 1 2 3 4 5 6 
#
# 1 156.3103 38.6071 70.8812 1.9241 -1.2640 -6.0542
# 2 38.6071 68.0236 35.6579 -1.0686 -9.4545 -29.5044
# 3 70.8812 35.6579 67.9009 -4.9840 -4.3041 -18.1202
# 4 1.9241 -1.0686 -4.9840 31.7117 -6.7218 -1.5220
# 5 -1.2640 -9.4545 -4.3041 -6.7218 52.0877 -0.2598
# 6 -6.0542 -29.5044 -18.1202 -1.5220 -0.2598 36.3128
#
#
#
# Elastic Compliance Matrix: (Units=1/GPa)
#
#
# Indices 1 2 3 4 5 6 
#
# 1 0.014076 -0.004210 -0.015325 -0.004318 -0.002291 -0.008918
# 2 -0.004210 0.029606 -0.005025 0.002593 0.005296 0.020992
# 3 -0.015325 -0.005025 0.037429 0.007849 0.002884 0.012389
# 4 -0.004318 0.002593 0.007849 0.034612 0.005515 0.006794
# 5 -0.002291 0.005296 0.002884 0.005515 0.021083 0.005742
# 6 -0.008918 0.020992 0.012389 0.006794 0.005742 0.049616
#
#
# Mechanical properties :
#
#
# Convention : Reuss Voigt Hill
#
# Bulk Modulus (GPa) = 31.25832 64.72526 47.99179
# Shear Modulus (GPa) = 20.30833 33.82835 27.06834
#
# Velocity S-wave (km/s) = 3.08263 3.97855 3.55889
# Velocity P-wave (km/s) = 5.22460 7.16876 6.27246
#
# Compressibility (1/GPa) = 0.03199148
#
# Stress axis : x y z
#
# Youngs Moduli (GPa) = 71.04358 33.77688 26.71751
#
# Poissons Ratio (x) = 0.14220 0.40944
# Poissons Ratio (y) = 0.29909 0.13425
# Poissons Ratio (z) = 1.08874 0.16972
#
# Static dielectric constant tensor:
#      x y z
#    x 1.775320 0.048180 -0.031540 
#    y 0.048180 1.838970 -0.027770 
#    z -0.031540 -0.027770 1.805400 
# 
# From -- ./inp_files/148196.got.cif
#   From: 2010.05.17/outbox.cif.g08.bks.cpg/sg2_75_cif.got.tgz:148196.got - 2010.06.03 11:33:40.
