data_PCOD9009411
_publ_section_title
;
Structure prediction by ZEFSAII (Michael W. Deem and Ramdas Pophale) SiO2 
 PCOD9009411
Probable space group: P -1
;
_chemical_formula_sum "Si O2"
_cell_formula_units_Z 14
_cell_length_a 6.218983
_cell_length_b 9.233913
_cell_length_c 18.923986
_cell_angle_alpha 45.588968
_cell_angle_beta 124.122119
_cell_angle_gamma 125.971173
_cell_volume 606.768202
_symmetry_space_group_name_H-M "P -1"
_symmetry_group_IT_number 2
_symmetry_cell_setting 'triclinic'
loop_
_space_group_symop_operation_xyz
x,y,z
-x,-y,-z
loop_
_atom_site_type_symbol
_atom_site_label
_atom_site_fract_x
_atom_site_fract_y
_atom_site_fract_z
Si Si1 0.617676 0.093591 0.913230
Si Si2 0.267176 0.716257 0.436780
Si Si3 0.079604 0.715178 0.548503
Si Si4 0.209485 0.311855 0.946517
Si Si5 0.185646 0.925224 0.637558
Si Si6 0.241500 0.394747 0.087436
Si Si7 0.105601 0.996383 0.752501
O O1 0.891570 0.301543 0.885270
O O2 0.368569 0.092405 0.818075
O O3 0.500000 0.000000 0.000000
O O4 0.736494 0.911056 0.974146
O O5 0.297586 0.700244 0.533361
O O6 0.176117 0.492905 0.452524
O O7 0.531651 0.891363 0.394015
O O8 0.019100 0.815220 0.350869
O O9 0.136075 0.732537 0.637412
O O10 0.033996 0.945861 0.452472
O O11 0.444366 0.462145 0.886755
O O12 0.268405 0.344680 0.028615
O O13 0.186193 0.888593 0.734195
O O14 0.124495 0.189874 0.184835
O O15 0.000000 0.500000 0.000000
#
# Coordination Sequence:
#
# PCOD9009411 Si02
#       7
#     2   2   2   2   2   2   2
#     4  11  21  41  61  89 123 167 226 273 329 389
#     4  10  21  39  68  97 131 170 210 273 322 406
#     4   9  20  42  67  96 128 170 214 254 343 399
#     4  10  22  36  69  84 111 182 217 274 333 384
#     4  10  21  39  68  97 131 170 210 273 322 406
#     4  11  21  41  61  89 123 167 226 273 329 389
#     4  11  24  38  62  94 137 166 223 278 320 383
#
# _framework density 23.073060999999999
#
# number of rings (size 3 to 8) (size 9 to 14) (size 15 to 20)
#    0.000    1.714    2.857    0.857    2.000    0.000 
#    0.000    8.571    0.000    0.000    0.000    0.000 
#    0.000    0.000    0.000    0.000    0.000    0.000 
#
# Total GULP energy -77965.595333 kJ/mol
# GULP energy per Si atom -5568.971095 kJ/mol
# Density = 2.302055 g / cm^3
# Si number density = 23.073061 Si / 1000 Ang^3
#
#
#
# Elastic Constant Matrix: (Units=GPa)
#
#
# Indices 1 2 3 4 5 6 
#
# 1 97.5993 42.6241 16.7870 4.8023 -28.6000 11.0806
# 2 42.6241 113.2963 19.4650 8.2091 -21.4458 -6.8853
# 3 16.7870 19.4650 59.5734 11.8520 -9.0559 0.3323
# 4 4.8023 8.2091 11.8520 28.6773 -2.2158 -4.9788
# 5 -28.6000 -21.4458 -9.0559 -2.2158 35.6455 0.1906
# 6 11.0806 -6.8853 0.3323 -4.9788 0.1906 56.7354
#
#
#
# Elastic Compliance Matrix: (Units=1/GPa)
#
#
# Indices 1 2 3 4 5 6 
#
# 1 0.015481 -0.003908 -0.001445 -0.000752 0.009675 -0.003588
# 2 -0.003908 0.011440 -0.001922 -0.001226 0.003172 0.002045
# 3 -0.001445 -0.001922 0.019607 -0.007263 0.002218 -0.000711
# 4 -0.000752 -0.001226 -0.007263 0.038889 -0.000787 0.003456
# 5 0.009675 0.003172 0.002218 -0.000787 0.038249 -0.001715
# 6 -0.003588 0.002045 -0.000711 0.003456 -0.001715 0.018888
#
#
# Mechanical properties :
#
#
# Convention : Reuss Voigt Hill
#
# Bulk Modulus (GPa) = 31.27142 47.58012 39.42577
# Shear Modulus (GPa) = 29.80388 36.98449 33.39418
#
# Velocity S-wave (km/s) = 3.59795 4.00800 3.80850
# Velocity P-wave (km/s) = 5.55364 6.48730 6.03854
#
# Compressibility (1/GPa) = 0.03197808
#
# Stress axis : x y z
#
# Youngs Moduli (GPa) = 64.59667 87.40931 51.00123
#
# Poissons Ratio (x) = 0.34160 0.07370
# Poissons Ratio (y) = 0.25245 0.09803
# Poissons Ratio (z) = 0.09334 0.16801
#
# Static dielectric constant tensor:
#      x y z
#    x 1.953410 0.028540 -0.037920 
#    y 0.028540 2.022450 0.053840 
#    z -0.037920 0.053840 1.964860 
# 
# From -- ./inp_files/124694.got.cif
#   From: 2010.05.17/outbox.cif.g08.bks.cpg/sg2_63_cif.got.tgz:124694.got - 2010.06.03 11:33:40.
