data_PCOD9009782
_publ_section_title
;
Structure prediction by ZEFSAII (Michael W. Deem and Ramdas Pophale) SiO2 
 PCOD9009782
Probable space group: P -1
;
_chemical_formula_sum "Si O2"
_cell_formula_units_Z 16
_cell_length_a 15.609958
_cell_length_b 5.224884
_cell_length_c 18.420588
_cell_angle_alpha 107.335749
_cell_angle_beta 144.684638
_cell_angle_gamma 59.953532
_cell_volume 733.194915
_symmetry_space_group_name_H-M "P -1"
_symmetry_group_IT_number 2
_symmetry_cell_setting 'triclinic'
loop_
_space_group_symop_operation_xyz
x,y,z
-x,-y,-z
loop_
_atom_site_type_symbol
_atom_site_label
_atom_site_fract_x
_atom_site_fract_y
_atom_site_fract_z
Si Si1 0.213439 0.024918 0.594630
Si Si2 0.768743 0.246795 0.036431
Si Si3 0.050438 0.590089 0.433049
Si Si4 0.401223 0.167347 0.125834
Si Si5 0.192328 0.348775 0.143377
Si Si6 0.993563 0.241010 0.743687
Si Si7 0.696163 0.328171 0.627469
Si Si8 0.920687 0.819821 0.823941
O O1 0.145159 0.242832 0.495245
O O2 0.101500 0.230511 0.601202
O O3 0.173826 0.742859 0.538237
O O4 0.405937 0.927860 0.734408
O O5 0.925018 0.106544 0.074456
O O6 0.666158 0.592078 0.967121
O O7 0.878741 0.103891 0.173909
O O8 0.639239 0.111206 0.938032
O O9 0.981658 0.660173 0.309756
O O10 0.302233 0.296090 0.144013
O O11 0.248993 0.524038 0.255723
O O12 0.185376 0.090229 0.168081
O O13 0.000000 0.500000 0.000000
O O14 0.800741 0.318160 0.627977
O O15 0.008868 0.463489 0.833699
O O16 0.500000 0.500000 0.500000
O O17 0.779233 0.979169 0.678678
#
# Coordination Sequence:
#
# PCOD9009782 Si02
#       8
#     2   2   2   2   2   2   2   2
#     4  10  24  44  64 103 119 166 206 276 309 389
#     4  11  22  41  61  95 125 167 210 263 305 387
#     4  10  23  44  71  88 133 158 216 254 336 378
#     4  12  24  38  68  90 135 159 219 263 317 368
#     4  11  22  38  59  91 123 180 210 261 316 378
#     4  10  22  40  66  88 121 179 202 256 327 382
#     4  10  24  37  56  92 131 161 219 271 308 379
#     4  10  21  40  59  87 128 167 220 245 319 381
#
# _framework density 21.822301
#
# number of rings (size 3 to 8) (size 9 to 14) (size 15 to 20)
#    0.000    1.500    2.500    2.250    7.000    4.000 
#    0.000    1.250    0.000    0.000    0.000    0.000 
#    0.000    0.000    0.000    0.000    0.000    0.000 
#
# Total GULP energy -89155.390768 kJ/mol
# GULP energy per Si atom -5572.211923 kJ/mol
# Density = 2.177263 g / cm^3
# Si number density = 21.822301 Si / 1000 Ang^3
#
#
#
# Elastic Constant Matrix: (Units=GPa)
#
#
# Indices 1 2 3 4 5 6 
#
# 1 123.6055 30.6119 63.0897 -8.6130 -4.4007 26.9201
# 2 30.6119 45.5378 18.8991 -4.2201 5.4784 25.6521
# 3 63.0897 18.8991 118.2464 -7.4900 22.7311 8.0528
# 4 -8.6130 -4.2201 -7.4900 24.4030 5.6193 -9.2966
# 5 -4.4007 5.4784 22.7311 5.6193 52.2940 -0.0515
# 6 26.9201 25.6521 8.0528 -9.2966 -0.0515 30.0764
#
#
#
# Elastic Compliance Matrix: (Units=1/GPa)
#
#
# Indices 1 2 3 4 5 6 
#
# 1 0.015006 -0.001458 -0.008230 -0.002833 0.005287 -0.010851
# 2 -0.001458 0.046657 -0.004023 -0.008367 -0.002402 -0.040001
# 3 -0.008230 -0.004023 0.014671 0.005882 -0.007272 0.008675
# 4 -0.002833 -0.008367 0.005882 0.051141 -0.007390 0.023892
# 5 0.005287 -0.002402 -0.007272 -0.007390 0.023771 -0.002980
# 6 -0.010851 -0.040001 0.008675 0.023892 -0.002980 0.082135
#
#
# Mechanical properties :
#
#
# Convention : Reuss Voigt Hill
#
# Bulk Modulus (GPa) = 20.44541 56.95459 38.70000
# Shear Modulus (GPa) = 18.04359 33.00729 25.52544
#
# Velocity S-wave (km/s) = 2.87860 3.89337 3.42379
# Velocity P-wave (km/s) = 4.52083 6.80933 5.77948
#
# Compressibility (1/GPa) = 0.04891073
#
# Stress axis : x y z
#
# Youngs Moduli (GPa) = 66.63923 21.43321 68.16284
#
# Poissons Ratio (x) = 0.03125 0.56100
# Poissons Ratio (y) = 0.09716 0.27423
# Poissons Ratio (z) = 0.54846 0.08623
#
# Static dielectric constant tensor:
#      x y z
#    x 1.873180 0.086700 -0.074040 
#    y 0.086700 1.940020 -0.003640 
#    z -0.074040 -0.003640 1.827570 
# 
# From -- ./inp_files/571725.got.cif
#   From: 2010.05.17/outbox.cif.g08.bks.cpg/sg2_286_cif.got.tgz:571725.got - 2010.06.03 11:33:40.
