data_PCOD9009234
_publ_section_title
;
Structure prediction by ZEFSAII (Michael W. Deem and Ramdas Pophale) SiO2 
 PCOD9009234
Probable space group: P -1
;
_chemical_formula_sum "Si O2"
_cell_formula_units_Z 16
_cell_length_a 9.454767
_cell_length_b 8.614447
_cell_length_c 18.535484
_cell_angle_alpha 69.175295
_cell_angle_beta 128.609311
_cell_angle_gamma 71.942205
_cell_volume 755.759466
_symmetry_space_group_name_H-M "P -1"
_symmetry_group_IT_number 2
_symmetry_cell_setting 'triclinic'
loop_
_space_group_symop_operation_xyz
x,y,z
-x,-y,-z
loop_
_atom_site_type_symbol
_atom_site_label
_atom_site_fract_x
_atom_site_fract_y
_atom_site_fract_z
Si Si1 0.024937 0.395205 0.418650
Si Si2 0.212760 0.690016 0.911847
Si Si3 0.124938 0.115375 0.861624
Si Si4 0.520387 0.934081 0.136210
Si Si5 0.625974 0.585942 0.555909
Si Si6 0.902684 0.906405 0.641467
Si Si7 0.297649 0.354007 0.105684
Si Si8 0.843539 0.000086 0.389959
O O1 0.726423 0.662770 0.277616
O O2 0.227875 0.408900 0.462474
O O3 0.062947 0.246858 0.386554
O O4 0.082058 0.241898 0.531785
O O5 0.024536 0.749167 0.779127
O O6 0.103846 0.940577 0.858614
O O7 0.500000 0.500000 0.000000
O O8 0.255172 0.552106 0.017539
O O9 0.315528 0.076741 0.870662
O O10 0.847099 0.391561 0.717502
O O11 0.266757 0.030749 0.997919
O O12 0.427954 0.126849 0.133950
O O13 0.500000 0.500000 0.500000
O O14 0.395439 0.845412 0.476798
O O15 0.061919 0.969445 0.658299
O O16 0.526562 0.226368 0.258982
O O17 0.000000 0.500000 0.000000
O O18 0.000000 0.000000 0.500000
#
# Coordination Sequence:
#
# PCOD9009234 Si02
#       8
#     2   2   2   2   2   2   2   2
#     4  10  24  42  68  95 134 176 222 270 345 397
#     4  12  21  40  72  92 129 173 229 269 332 395
#     4  10  21  39  67  97 131 168 218 281 323 392
#     4  10  22  42  66  98 128 170 224 273 331 393
#     4  11  23  39  62 102 133 164 222 279 331 392
#     4  11  22  42  68  98 130 177 224 276 329 406
#     4  12  28  44  67 100 138 177 224 280 336 400
#     4  10  24  45  67  95 134 177 224 273 336 408
#
# _framework density 21.170759
#
# number of rings (size 3 to 8) (size 9 to 14) (size 15 to 20)
#    0.000    1.250    3.750    1.125    8.750    2.500 
#    2.250    0.625    0.000    0.000    0.000    0.000 
#    0.000    0.000    0.000    0.000    0.000    0.000 
#
# Total GULP energy -89371.872986 kJ/mol
# GULP energy per Si atom -5585.742062 kJ/mol
# Density = 2.112257 g / cm^3
# Si number density = 21.170759 Si / 1000 Ang^3
#
#
#
# Elastic Constant Matrix: (Units=GPa)
#
#
# Indices 1 2 3 4 5 6 
#
# 1 22.2181 -21.7032 38.0590 1.4103 -3.4507 36.9732
# 2 -21.7032 48.2814 26.1606 3.3102 2.1423 2.5331
# 3 38.0590 26.1606 166.7592 -13.6710 14.1796 -1.0736
# 4 1.4103 3.3102 -13.6710 40.6309 2.9573 0.3987
# 5 -3.4507 2.1423 14.1796 2.9573 37.9627 -6.5860
# 6 36.9732 2.5331 -1.0736 0.3987 -6.5860 23.2903
#
#
#
# Elastic Compliance Matrix: (Units=1/GPa)
#
#
# Indices 1 2 3 4 5 6 
#
# 1 -0.014033 -0.010595 0.005129 0.002742 0.001357 0.024003
# 2 -0.010595 0.015192 -0.000038 -0.001104 0.000961 0.015456
# 3 0.005129 -0.000038 0.005198 0.001890 -0.003151 -0.008821
# 4 0.002742 -0.001104 0.001890 0.025540 -0.003343 -0.005527
# 5 0.001357 0.000961 -0.003151 -0.003343 0.028856 0.005813
# 6 0.024003 0.015456 -0.008821 -0.005527 0.005813 0.004482
#
#
# Mechanical properties :
#
#
# Convention : Reuss Voigt Hill
#
# Bulk Modulus (GPa) = -215.01410 35.81017 -89.60196
# Shear Modulus (GPa) = 66.94024 33.35961 50.14993
#
# Velocity S-wave (km/s) = 5.62920 3.97387 4.87234
# Velocity P-wave (km/s) = 7.71569 6.16499 3.28060
#
# Compressibility (1/GPa) = -0.00465086
#
# Stress axis : x y z
#
# Youngs Moduli (GPa) = -71.25894 65.82280 192.37388
#
# Poissons Ratio (x) = 0.69737 -0.98663
# Poissons Ratio (y) = -0.75496 0.00733
# Poissons Ratio (z) = 0.36547 0.00251
#
# Static dielectric constant tensor:
#      x y z
#    x 1.789590 0.014400 -0.004380 
#    y 0.014400 1.767010 0.040660 
#    z -0.004380 0.040660 1.794560 
# 
# From -- ./inp_files/587925.got.cif
#   From: 2010.05.17/outbox.cif.g08.bks.cpg/sg2_294_cif.got.tgz:587925.got - 2010.06.03 11:33:40.
