data_PCOD9009803
_publ_section_title
;
Structure prediction by ZEFSAII (Michael W. Deem and Ramdas Pophale) SiO2 
 PCOD9009803
Probable space group: P -1
;
_chemical_formula_sum "Si O2"
_cell_formula_units_Z 16
_cell_length_a 6.522930
_cell_length_b 16.909721
_cell_length_c 8.640725
_cell_angle_alpha 128.261872
_cell_angle_beta 86.074918
_cell_angle_gamma 105.350068
_cell_volume 715.891427
_symmetry_space_group_name_H-M "P -1"
_symmetry_group_IT_number 2
_symmetry_cell_setting 'triclinic'
loop_
_space_group_symop_operation_xyz
x,y,z
-x,-y,-z
loop_
_atom_site_type_symbol
_atom_site_label
_atom_site_fract_x
_atom_site_fract_y
_atom_site_fract_z
Si Si1 0.658215 0.936727 0.487409
Si Si2 0.974973 0.918397 0.175173
Si Si3 0.830096 0.273435 0.051020
Si Si4 0.380772 0.206436 0.151196
Si Si5 0.194998 0.601025 0.094292
Si Si6 0.793011 0.589417 0.636443
Si Si7 0.492861 0.733274 0.444703
Si Si8 0.423090 0.475524 0.737182
O O1 0.817853 0.932023 0.335132
O O2 0.551451 0.819076 0.410300
O O3 0.500000 0.000000 0.500000
O O4 0.803543 0.992526 0.694448
O O5 0.045851 0.813747 0.065909
O O6 0.820535 0.893322 0.001725
O O7 0.847562 0.324652 0.945339
O O8 0.585117 0.220895 0.047353
O O9 0.960625 0.361095 0.271940
O O10 0.306664 0.311932 0.259247
O O11 0.468668 0.209351 0.323829
O O12 0.256307 0.663798 0.326148
O O13 0.384892 0.556605 0.962724
O O14 0.000000 0.500000 0.000000
O O15 0.655493 0.518633 0.695165
O O16 0.740089 0.529956 0.404318
O O17 0.614569 0.642472 0.340357
#
# Coordination Sequence:
#
# PCOD9009803 Si02
#       8
#     2   2   2   2   2   2   2   2
#     4  11  24  46  71  97 126 164 212 267 330 390
#     4  10  23  43  71  95 123 167 211 262 330 384
#     4  11  22  40  68  91 131 172 213 259 320 386
#     4  10  21  42  64  97 128 169 216 260 317 383
#     4  12  25  36  60  98 136 176 214 263 315 378
#     4   9  20  38  64  91 128 178 214 259 311 378
#     4  11  25  41  64  91 131 169 216 271 316 378
#     4  10  21  40  59  93 134 170 218 264 312 375
#
# _framework density 22.349758000000001
#
# number of rings (size 3 to 8) (size 9 to 14) (size 15 to 20)
#    0.000    1.500    1.250    3.375    5.250    1.000 
#    0.000    2.500    0.000    0.000    0.000    0.000 
#    0.000    0.000    0.000    0.000    0.000    0.000 
#
# Total GULP energy -89334.360716 kJ/mol
# GULP energy per Si atom -5583.397545 kJ/mol
# Density = 2.229889 g / cm^3
# Si number density = 22.349758 Si / 1000 Ang^3
#
#
#
# Elastic Constant Matrix: (Units=GPa)
#
#
# Indices 1 2 3 4 5 6 
#
# 1 87.1122 20.9655 29.9301 1.5329 23.7940 -2.2820
# 2 20.9655 74.8359 4.3086 4.8456 6.6875 1.5436
# 3 29.9301 4.3086 107.7107 -3.0503 41.1475 4.4878
# 4 1.5329 4.8456 -3.0503 26.9062 1.1655 6.3026
# 5 23.7940 6.6875 41.1475 1.1655 49.2943 8.6376
# 6 -2.2820 1.5436 4.4878 6.3026 8.6376 19.1440
#
#
#
# Elastic Compliance Matrix: (Units=1/GPa)
#
#
# Indices 1 2 3 4 5 6 
#
# 1 0.014817 -0.003522 -0.001966 -0.001512 -0.006000 0.005716
# 2 -0.003522 0.014521 0.000590 -0.002144 -0.000578 -0.000762
# 3 -0.001966 0.000590 0.014044 0.001893 -0.011036 0.000782
# 4 -0.001512 -0.002144 0.001893 0.041198 0.001001 -0.014466
# 5 -0.006000 -0.000578 -0.011036 0.001001 0.034932 -0.014172
# 6 0.005716 -0.000762 0.000782 -0.014466 -0.014172 0.063952
#
#
# Mechanical properties :
#
#
# Convention : Reuss Voigt Hill
#
# Bulk Modulus (GPa) = 29.77352 42.22970 36.00161
# Shear Modulus (GPa) = 24.45511 33.36586 28.91049
#
# Velocity S-wave (km/s) = 3.31146 3.86799 3.60049
# Velocity P-wave (km/s) = 5.28881 6.23574 5.78169
#
# Compressibility (1/GPa) = 0.03358689
#
# Stress axis : x y z
#
# Youngs Moduli (GPa) = 67.48799 68.86349 71.20714
#
# Poissons Ratio (x) = 0.24253 0.13996
# Poissons Ratio (y) = 0.23768 -0.04198
# Poissons Ratio (z) = 0.13265 -0.04060
#
# Static dielectric constant tensor:
#      x y z
#    x 1.937890 -0.026490 -0.070820 
#    y -0.026490 1.801900 0.054440 
#    z -0.070820 0.054440 2.160070 
# 
# From -- ./inp_files/139590.got.cif
#   From: 2010.05.17/outbox.cif.g08.bks.cpg/sg2_70_cif.got.tgz:139590.got - 2010.06.03 11:33:40.
