data_PCOD9009377
_publ_section_title
;
Structure prediction by ZEFSAII (Michael W. Deem and Ramdas Pophale) SiO2 
 PCOD9009377
Probable space group: P -1
;
_chemical_formula_sum "Si O2"
_cell_formula_units_Z 10
_cell_length_a 9.223182
_cell_length_b 9.256076
_cell_length_c 10.988480
_cell_angle_alpha 136.831028
_cell_angle_beta 136.477474
_cell_angle_gamma 49.006787
_cell_volume 425.574649
_symmetry_space_group_name_H-M "P -1"
_symmetry_group_IT_number 2
_symmetry_cell_setting 'triclinic'
loop_
_space_group_symop_operation_xyz
x,y,z
-x,-y,-z
loop_
_atom_site_type_symbol
_atom_site_label
_atom_site_fract_x
_atom_site_fract_y
_atom_site_fract_z
Si Si1 0.561642 0.910610 0.680544
Si Si2 0.948754 0.932933 0.093330
Si Si3 0.766025 0.738171 0.478826
Si Si4 0.256653 0.500805 0.898167
Si Si5 0.204342 0.063844 0.726103
O O1 0.648627 0.710884 0.516983
O O2 0.415370 0.099142 0.619956
O O3 0.411778 0.883566 0.685434
O O4 0.763494 0.978988 0.905689
O O5 0.833559 0.917413 0.142364
O O6 0.068314 0.120217 0.303590
O O7 0.128234 0.712905 0.025351
O O8 0.857306 0.533936 0.320690
O O9 0.241568 0.293962 0.844378
O O10 0.500000 0.500000 0.000000
O O11 0.000000 0.000000 0.500000
#
# Coordination Sequence:
#
# PCOD9009377 Si02
#       5
#     2   2   2   2   2
#     4  10  21  39  68  95 124 177 210 260 321 386
#     4  12  22  41  69  95 127 171 218 261 322 380
#     4  10  22  44  65  92 139 162 214 267 321 375
#     4  11  24  41  69  96 126 175 213 263 323 382
#     4  11  22  43  68  90 135 172 206 269 328 368
#
# _framework density 23.497640000000001
#
# number of rings (size 3 to 8) (size 9 to 14) (size 15 to 20)
#    0.000    1.200    4.000    5.400    0.000    0.800 
#    0.000    5.000    0.000    0.000    0.000    0.000 
#    0.000    0.000    0.000    0.000    0.000    0.000 
#
# Total GULP energy -55872.992700 kJ/mol
# GULP energy per Si atom -5587.299270 kJ/mol
# Density = 2.344416 g / cm^3
# Si number density = 23.497640 Si / 1000 Ang^3
#
#
#
# Elastic Constant Matrix: (Units=GPa)
#
#
# Indices 1 2 3 4 5 6 
#
# 1 218.6129 45.2465 50.9974 11.8632 -39.2942 -14.3738
# 2 45.2465 66.3055 16.1345 -0.4010 -6.3912 -5.3361
# 3 50.9974 16.1345 121.3536 -15.9656 -13.8288 1.8802
# 4 11.8632 -0.4010 -15.9656 41.1057 -12.9447 -2.5387
# 5 -39.2942 -6.3912 -13.8288 -12.9447 60.5263 5.5583
# 6 -14.3738 -5.3361 1.8802 -2.5387 5.5583 36.3990
#
#
#
# Elastic Compliance Matrix: (Units=1/GPa)
#
#
# Indices 1 2 3 4 5 6 
#
# 1 0.006533 -0.003527 -0.002214 -0.001788 0.002832 0.001620
# 2 -0.003527 0.017761 -0.000867 0.000759 -0.000578 0.001397
# 3 -0.002214 -0.000867 0.010220 0.005152 0.002044 -0.001482
# 4 -0.001788 0.000759 0.005152 0.028831 0.006244 0.000196
# 5 0.002832 -0.000578 0.002044 0.006244 0.020261 -0.001730
# 6 0.001620 0.001397 -0.001482 0.000196 -0.001730 0.028672
#
#
# Mechanical properties :
#
#
# Convention : Reuss Voigt Hill
#
# Bulk Modulus (GPa) = 46.95380 70.11433 58.53406
# Shear Modulus (GPa) = 37.70927 47.19909 42.45418
#
# Velocity S-wave (km/s) = 4.01036 4.48669 4.25519
# Velocity P-wave (km/s) = 6.43969 7.53287 7.00763
#
# Compressibility (1/GPa) = 0.02129753
#
# Stress axis : x y z
#
# Youngs Moduli (GPa) = 153.05922 56.30399 97.84841
#
# Poissons Ratio (x) = 0.19858 0.21667
# Poissons Ratio (y) = 0.53984 0.08483
# Poissons Ratio (z) = 0.33892 0.04881
#
# Static dielectric constant tensor:
#      x y z
#    x 1.943220 -0.055780 -0.018040 
#    y -0.055780 2.013750 -0.005340 
#    z -0.018040 -0.005340 1.918300 
# 
# From -- ./inp_files/234461.got.cif
#   From: 2010.05.17/outbox.cif.g08.bks.cpg/sg2_118_cif.got.tgz:234461.got - 2010.06.03 11:33:40.
