data_PCOD9009764
_publ_section_title
;
Structure prediction by ZEFSAII (Michael W. Deem and Ramdas Pophale) SiO2 
 PCOD9009764
Probable space group: P -1
;
_chemical_formula_sum "Si O2"
_cell_formula_units_Z 12
_cell_length_a 9.289413
_cell_length_b 8.855632
_cell_length_c 15.577340
_cell_angle_alpha 105.466000
_cell_angle_beta 139.876549
_cell_angle_gamma 53.493116
_cell_volume 618.392638
_symmetry_space_group_name_H-M "P -1"
_symmetry_group_IT_number 2
_symmetry_cell_setting 'triclinic'
loop_
_space_group_symop_operation_xyz
x,y,z
-x,-y,-z
loop_
_atom_site_type_symbol
_atom_site_label
_atom_site_fract_x
_atom_site_fract_y
_atom_site_fract_z
Si Si1 0.797300 0.919838 0.813513
Si Si2 0.854804 0.797826 0.196901
Si Si3 0.046825 0.994810 0.419554
Si Si4 0.223384 0.012189 0.986593
Si Si5 0.706551 0.657710 0.626806
Si Si6 0.811701 0.717998 0.490591
O O1 0.805752 0.907157 0.918452
O O2 0.835786 0.735848 0.758461
O O3 0.481458 0.120865 0.671485
O O4 0.033843 0.938556 0.890930
O O5 0.848168 0.965306 0.270728
O O6 0.120652 0.577011 0.315185
O O7 0.559017 0.839703 0.090998
O O8 0.879922 0.828263 0.112608
O O9 0.371520 0.798429 0.517476
O O10 0.024868 0.187660 0.415892
O O11 0.000000 0.000000 0.500000
O O12 0.732026 0.700896 0.547065
O O13 0.000000 0.500000 0.500000
#
# Coordination Sequence:
#
# PCOD9009764 Si02
#       6
#     2   2   2   2   2   2
#     4  10  21  40  59  84 115 155 197 233 286 341
#     4  11  22  38  58  87 118 153 192 234 293 341
#     4  11  22  38  61  89 120 148 190 248 294 339
#     4  10  22  39  58  78 120 160 192 235 275 349
#     4  11  22  38  62  87 117 151 194 244 291 342
#     4  11  22  39  64  89 115 150 194 245 293 341
#
# _framework density 19.405145999999998
#
# number of rings (size 3 to 8) (size 9 to 14) (size 15 to 20)
#    0.000    1.333    0.000    8.500    0.000    2.667 
#    0.000    6.667    0.000    0.000    0.000    0.000 
#    0.000    0.000    0.000    0.000    0.000    0.000 
#
# Total GULP energy -67075.845268 kJ/mol
# GULP energy per Si atom -5589.653772 kJ/mol
# Density = 1.936098 g / cm^3
# Si number density = 19.405146 Si / 1000 Ang^3
#
#
#
# Elastic Constant Matrix: (Units=GPa)
#
#
# Indices 1 2 3 4 5 6 
#
# 1 134.5193 30.3015 20.9149 6.6461 -13.7597 -4.9073
# 2 30.3015 102.9454 27.0182 8.5626 3.5386 11.1023
# 3 20.9149 27.0182 52.8990 25.4436 -5.8052 10.4537
# 4 6.6461 8.5626 25.4436 28.4352 2.6817 -4.2373
# 5 -13.7597 3.5386 -5.8052 2.6817 42.3442 3.3598
# 6 -4.9073 11.1023 10.4537 -4.2373 3.3598 18.0752
#
#
#
# Elastic Compliance Matrix: (Units=1/GPa)
#
#
# Indices 1 2 3 4 5 6 
#
# 1 0.009239 -0.002407 -0.007223 0.006337 0.001062 0.009452
# 2 -0.002407 0.012253 -0.005104 0.000963 -0.002202 -0.004592
# 3 -0.007223 -0.005104 0.074697 -0.074686 0.018040 -0.062888
# 4 0.006337 0.000963 -0.074686 0.113400 -0.021384 0.074881
# 5 0.001062 -0.002202 0.018040 -0.021384 0.029503 -0.019289
# 6 0.009452 -0.004592 -0.062888 0.074881 -0.019289 0.118222
#
#
# Mechanical properties :
#
#
# Convention : Reuss Voigt Hill
#
# Bulk Modulus (GPa) = 14.98776 49.64813 32.31795
# Shear Modulus (GPa) = 12.22429 31.91286 22.06858
#
# Velocity S-wave (km/s) = 2.51261 4.05971 3.37598
# Velocity P-wave (km/s) = 4.01970 6.90041 5.64684
#
# Compressibility (1/GPa) = 0.06672109
#
# Stress axis : x y z
#
# Youngs Moduli (GPa) = 108.23173 81.61443 13.38747
#
# Poissons Ratio (x) = 0.19643 0.09670
# Poissons Ratio (y) = 0.26050 0.06833
# Poissons Ratio (z) = 0.78176 0.41656
#
# Static dielectric constant tensor:
#      x y z
#    x 1.658750 0.011160 0.015170 
#    y 0.011160 1.642390 0.011230 
#    z 0.015170 0.011230 1.687040 
# 
# From -- ./inp_files/147151.got.cif
#   From: 2010.05.17/outbox.cif.g08.bks.cpg/sg2_74_cif.got.tgz:147151.got - 2010.06.03 11:33:40.
