data_PCOD9009821
_publ_section_title
;
Structure prediction by ZEFSAII (Michael W. Deem and Ramdas Pophale) SiO2 
 PCOD9009821
Probable space group: P -1
;
_chemical_formula_sum "Si O2"
_cell_formula_units_Z 16
_cell_length_a 14.702389
_cell_length_b 10.707678
_cell_length_c 13.893627
_cell_angle_alpha 51.387447
_cell_angle_beta 149.264553
_cell_angle_gamma 134.459801
_cell_volume 796.400521
_symmetry_space_group_name_H-M "P -1"
_symmetry_group_IT_number 2
_symmetry_cell_setting 'triclinic'
loop_
_space_group_symop_operation_xyz
x,y,z
-x,-y,-z
loop_
_atom_site_type_symbol
_atom_site_label
_atom_site_fract_x
_atom_site_fract_y
_atom_site_fract_z
Si Si1 0.529086 0.975739 0.424812
Si Si2 0.499536 0.301925 0.200146
Si Si3 0.928464 0.153193 0.375381
Si Si4 0.140799 0.541312 0.415477
Si Si5 0.801632 0.582857 0.202426
Si Si6 0.779670 0.362620 0.762424
Si Si7 0.981686 0.244901 0.172799
Si Si8 0.903629 0.080140 0.595384
O O1 0.434620 0.779146 0.391778
O O2 0.500000 0.000000 0.500000
O O3 0.432995 0.095044 0.228605
O O4 0.752558 0.058315 0.554117
O O5 0.644014 0.359060 0.394971
O O6 0.643083 0.413147 0.192112
O O7 0.319197 0.355641 0.012940
O O8 0.819064 0.105618 0.401822
O O9 0.104438 0.340980 0.463036
O O10 0.859932 0.187821 0.190823
O O11 0.000000 0.000000 0.500000
O O12 0.113532 0.621658 0.250964
O O13 0.974758 0.543264 0.334633
O O14 0.903293 0.745398 0.289568
O O15 0.832079 0.566242 0.735736
O O16 0.860096 0.283918 0.959232
O O17 0.046909 0.089152 0.283298
#
# Coordination Sequence:
#
# PCOD9009821 Si02
#       8
#     2   2   2   2   2   2   2   2
#     4  12  23  37  59  89 125 162 195 248 305 362
#     4  11  22  36  57  90 124 153 196 247 299 365
#     4   9  19  36  65  85 111 158 205 250 307 347
#     4  11  19  39  63  84 124 159 195 251 308 361
#     4  11  22  36  62  93 119 156 200 247 313 363
#     4  10  21  40  60  82 122 161 201 249 298 353
#     4   9  21  39  62  85 111 162 211 249 296 355
#     4  11  20  37  62  88 120 160 201 247 308 360
#
# _framework density 20.090394
#
# number of rings (size 3 to 8) (size 9 to 14) (size 15 to 20)
#    0.000    1.500    3.750    1.875    0.000    1.500 
#    0.000    3.125   13.750    0.000    0.000    0.000 
#    0.000    0.000    0.000    0.000    0.000    0.000 
#
# Total GULP energy -89085.067572 kJ/mol
# GULP energy per Si atom -5567.816723 kJ/mol
# Density = 2.004467 g / cm^3
# Si number density = 20.090394 Si / 1000 Ang^3
#
#
#
# Elastic Constant Matrix: (Units=GPa)
#
#
# Indices 1 2 3 4 5 6 
#
# 1 86.5180 22.9446 36.7388 -9.2010 -22.8720 8.9426
# 2 22.9446 101.6414 21.3755 -12.1349 -4.0686 -7.2699
# 3 36.7388 21.3755 73.7138 -12.1899 -16.0036 0.9738
# 4 -9.2010 -12.1349 -12.1899 29.9734 7.0026 -5.8649
# 5 -22.8720 -4.0686 -16.0036 7.0026 22.1977 -5.6683
# 6 8.9426 -7.2699 0.9738 -5.8649 -5.6683 31.8340
#
#
#
# Elastic Compliance Matrix: (Units=1/GPa)
#
#
# Indices 1 2 3 4 5 6 
#
# 1 0.018674 -0.002928 -0.005592 -0.001763 0.014331 -0.003516
# 2 -0.002928 0.011576 -0.001777 0.004427 -0.002583 0.003876
# 3 -0.005592 -0.001777 0.019042 0.004185 0.006984 0.002597
# 4 -0.001763 0.004427 0.004185 0.039748 -0.008701 0.007152
# 5 0.014331 -0.002583 0.006984 -0.008701 0.068600 0.005782
# 6 -0.003516 0.003876 0.002597 0.007152 0.005782 0.035554
#
#
# Mechanical properties :
#
#
# Convention : Reuss Voigt Hill
#
# Bulk Modulus (GPa) = 34.84601 47.11010 40.97806
# Shear Modulus (GPa) = 22.38608 28.85531 25.62070
#
# Velocity S-wave (km/s) = 3.34169 3.79393 3.57497
# Velocity P-wave (km/s) = 5.68079 6.53390 6.12223
#
# Compressibility (1/GPa) = 0.02869769
#
# Stress axis : x y z
#
# Youngs Moduli (GPa) = 53.55098 86.38884 52.51459
#
# Poissons Ratio (x) = 0.25293 0.29364
# Poissons Ratio (y) = 0.15679 0.09334
# Poissons Ratio (z) = 0.29944 0.15355
#
# Static dielectric constant tensor:
#      x y z
#    x 1.750930 0.016630 -0.049900 
#    y 0.016630 1.763180 -0.002760 
#    z -0.049900 -0.002760 1.700780 
# 
# From -- ./inp_files/335169.got.cif
#   From: 2010.05.17/outbox.cif.g08.bks.cpg/sg2_168_cif.got.tgz:335169.got - 2010.06.03 11:33:40.
