data_PCOD9009866
_publ_section_title
;
Structure prediction by ZEFSAII (Michael W. Deem and Ramdas Pophale) SiO2 
 PCOD9009866
Probable space group: P -1
;
_chemical_formula_sum "Si O2"
_cell_formula_units_Z 16
_cell_length_a 9.111979
_cell_length_b 17.175034
_cell_length_c 13.172884
_cell_angle_alpha 32.605456
_cell_angle_beta 80.288738
_cell_angle_gamma 57.565757
_cell_volume 733.742935
_symmetry_space_group_name_H-M "P -1"
_symmetry_group_IT_number 2
_symmetry_cell_setting 'triclinic'
loop_
_space_group_symop_operation_xyz
x,y,z
-x,-y,-z
loop_
_atom_site_type_symbol
_atom_site_label
_atom_site_fract_x
_atom_site_fract_y
_atom_site_fract_z
Si Si1 0.739380 0.390445 0.624728
Si Si2 0.408601 0.195117 0.862358
Si Si3 0.019266 0.089224 0.556492
Si Si4 0.012563 0.456083 0.768543
Si Si5 0.848134 0.882328 0.274283
Si Si6 0.846909 0.265222 0.979131
Si Si7 0.574501 0.319638 0.114895
Si Si8 0.831589 0.531254 0.053389
O O1 0.500000 0.500000 0.500000
O O2 0.690986 0.596490 0.413912
O O3 0.822717 0.274635 0.850963
O O4 0.933575 0.230366 0.693475
O O5 0.204714 0.284777 0.853974
O O6 0.500000 0.000000 0.000000
O O7 0.618950 0.093514 0.017069
O O8 0.137845 0.069877 0.665188
O O9 0.873918 0.327467 0.276856
O O10 0.953874 0.980064 0.730585
O O11 0.185310 0.925652 0.626269
O O12 0.138402 0.425730 0.886159
O O13 0.863329 0.696896 0.482997
O O14 0.880091 0.404863 0.857399
O O15 0.628399 0.357084 0.958774
O O16 0.413137 0.299046 0.149162
O O17 0.500000 0.500000 0.000000
O O18 0.000000 0.500000 0.000000
#
# Coordination Sequence:
#
# PCOD9009866 Si02
#       8
#     2   2   2   2   2   2   2   2
#     4  11  24  37  62  92 131 173 211 258 312 365
#     4  11  22  37  60  88 126 169 216 250 308 370
#     4   9  23  40  65  90 124 163 208 254 322 373
#     4  10  22  41  62  90 129 166 209 267 311 366
#     4  10  21  40  60  89 129 168 217 256 302 379
#     4  10  22  42  60  93 132 162 211 260 315 370
#     4  10  23  44  65  92 129 157 207 268 317 375
#     4  11  23  43  70  91 121 163 211 262 323 381
#
# _framework density 21.806000999999998
#
# number of rings (size 3 to 8) (size 9 to 14) (size 15 to 20)
#    0.750    1.000    0.000    3.750    5.250    6.000 
#    2.250    0.000    0.000    0.000    0.000    0.000 
#    0.000    0.000    0.000    0.000    0.000    0.000 
#
# Total GULP energy -89215.534144 kJ/mol
# GULP energy per Si atom -5575.970884 kJ/mol
# Density = 2.175637 g / cm^3
# Si number density = 21.806001 Si / 1000 Ang^3
#
#
#
# Elastic Constant Matrix: (Units=GPa)
#
#
# Indices 1 2 3 4 5 6 
#
# 1 102.0292 13.1562 8.6701 4.1498 -8.6001 -11.8406
# 2 13.1562 79.9371 18.4169 -13.3401 -13.7735 -1.0918
# 3 8.6701 18.4169 64.4392 -0.9352 -10.3959 -3.0181
# 4 4.1498 -13.3401 -0.9352 30.4352 6.4581 -4.4467
# 5 -8.6001 -13.7735 -10.3959 6.4581 31.2698 2.0720
# 6 -11.8406 -1.0918 -3.0181 -4.4467 2.0720 30.5969
#
#
#
# Elastic Compliance Matrix: (Units=1/GPa)
#
#
# Indices 1 2 3 4 5 6 
#
# 1 0.010742 -0.001565 -0.000489 -0.002130 0.002305 0.003587
# 2 -0.001565 0.015227 -0.003417 0.005987 0.003890 0.000208
# 3 -0.000489 -0.003417 0.017286 -0.001711 0.004404 0.000847
# 4 -0.002130 0.005987 -0.001711 0.037895 -0.006687 0.005181
# 5 0.002305 0.003890 0.004404 -0.006687 0.037307 -0.002033
# 6 0.003587 0.000208 0.000847 0.005181 -0.002033 0.035053
#
#
# Mechanical properties :
#
#
# Convention : Reuss Voigt Hill
#
# Bulk Modulus (GPa) = 30.94716 36.32133 33.63424
# Shear Modulus (GPa) = 28.53514 32.20455 30.36985
#
# Velocity S-wave (km/s) = 3.62137 3.84717 3.73598
# Velocity P-wave (km/s) = 5.63104 6.03548 5.83676
#
# Compressibility (1/GPa) = 0.03231314
#
# Stress axis : x y z
#
# Youngs Moduli (GPa) = 93.09568 65.67301 57.84906
#
# Poissons Ratio (x) = 0.10275 0.02830
# Poissons Ratio (y) = 0.14566 0.19768
# Poissons Ratio (z) = 0.04554 0.22441
#
# Static dielectric constant tensor:
#      x y z
#    x 1.773300 -0.001940 0.007020 
#    y -0.001940 1.789510 0.010770 
#    z 0.007020 0.010770 1.872350 
# 
# From -- ./inp_files/494710.got.cif
#   From: 2010.05.17/outbox.cif.g08.bks.cpg/sg2_248_cif.got.tgz:494710.got - 2010.06.03 11:33:40.
