data_PCOD9009870
_publ_section_title
;
Structure prediction by ZEFSAII (Michael W. Deem and Ramdas Pophale) SiO2 
 PCOD9009870
Probable space group: P -1
;
_chemical_formula_sum "Si O2"
_cell_formula_units_Z 14
_cell_length_a 12.352937
_cell_length_b 15.564372
_cell_length_c 11.397216
_cell_angle_alpha 154.432483
_cell_angle_beta 41.491816
_cell_angle_gamma 139.699143
_cell_volume 596.864254
_symmetry_space_group_name_H-M "P -1"
_symmetry_group_IT_number 2
_symmetry_cell_setting 'triclinic'
loop_
_space_group_symop_operation_xyz
x,y,z
-x,-y,-z
loop_
_atom_site_type_symbol
_atom_site_label
_atom_site_fract_x
_atom_site_fract_y
_atom_site_fract_z
Si Si1 0.393216 0.685796 0.175838
Si Si2 0.026651 0.831923 0.889842
Si Si3 0.182213 0.429851 0.676696
Si Si4 0.865188 0.454760 0.393348
Si Si5 0.803053 0.214019 0.729380
Si Si6 0.676840 0.773343 0.248064
Si Si7 0.684383 0.743063 0.841469
O O1 0.330099 0.435467 0.932935
O O2 0.528670 0.783059 0.081770
O O3 0.240406 0.765313 0.347838
O O4 0.504474 0.749597 0.282661
O O5 0.001615 0.645648 0.585788
O O6 0.134505 0.758409 0.812767
O O7 0.843127 0.817150 0.079669
O O8 0.143568 0.061522 0.040408
O O9 0.119846 0.542185 0.754777
O O10 0.311700 0.322610 0.378416
O O11 0.005226 0.258873 0.643833
O O12 0.244479 0.600939 0.936116
O O13 0.699121 0.534703 0.639938
O O14 0.708881 0.978798 0.553300
#
# Coordination Sequence:
#
# PCOD9009870 Si02
#       7
#     2   2   2   2   2   2   2
#     4  11  25  38  61  92 124 152 199 249 310 342
#     4  11  19  36  68  86 117 161 203 241 305 337
#     4   9  21  41  63  85 123 154 212 242 280 363
#     4   9  20  35  58  92 115 146 206 254 275 349
#     4  11  22  42  60  88 123 165 192 248 298 357
#     4  11  22  41  60  91 123 158 194 251 297 366
#     4  10  21  40  60  90 118 156 200 251 286 357
#
# _framework density 23.455919999999999
#
# number of rings (size 3 to 8) (size 9 to 14) (size 15 to 20)
#    0.857    0.857    2.857    1.714    2.000    1.714 
#    5.143    2.857    0.000    0.000    0.000    0.000 
#    0.000    0.000    0.000    0.000    0.000    0.000 
#
# Total GULP energy -77990.525062 kJ/mol
# GULP energy per Si atom -5570.751790 kJ/mol
# Density = 2.340253 g / cm^3
# Si number density = 23.455920 Si / 1000 Ang^3
#
#
#
# Elastic Constant Matrix: (Units=GPa)
#
#
# Indices 1 2 3 4 5 6 
#
# 1 47.2493 -4.0771 4.5119 17.4737 -4.0005 -1.8317
# 2 -4.0771 81.2125 26.0725 9.7155 2.4829 0.7396
# 3 4.5119 26.0725 83.3839 25.0192 2.8269 -3.0426
# 4 17.4737 9.7155 25.0192 41.1838 -3.3655 0.6043
# 5 -4.0005 2.4829 2.8269 -3.3655 31.3289 5.0002
# 6 -1.8317 0.7396 -3.0426 0.6043 5.0002 21.2866
#
#
#
# Elastic Compliance Matrix: (Units=1/GPa)
#
#
# Indices 1 2 3 4 5 6 
#
# 1 0.026028 0.002195 0.001714 -0.012537 0.001254 0.002470
# 2 0.002195 0.013929 -0.003917 -0.001874 -0.000565 -0.000669
# 3 0.001714 -0.003917 0.016338 -0.009991 -0.002578 0.003508
# 4 -0.012537 -0.001874 -0.009991 0.036510 0.004079 -0.004436
# 5 0.001254 -0.000565 -0.002578 0.004079 0.034132 -0.008374
# 6 0.002470 -0.000669 0.003508 -0.004436 -0.008374 0.049808
#
#
# Mechanical properties :
#
#
# Convention : Reuss Voigt Hill
#
# Bulk Modulus (GPa) = 17.76830 29.42891 23.59861
# Shear Modulus (GPa) = 25.57288 31.11576 28.34432
#
# Velocity S-wave (km/s) = 3.30548 3.64615 3.47999
# Velocity P-wave (km/s) = 4.70743 5.50451 5.12150
#
# Compressibility (1/GPa) = 0.05628000
#
# Stress axis : x y z
#
# Youngs Moduli (GPa) = 38.41987 71.79461 61.20764
#
# Poissons Ratio (x) = -0.15761 -0.10493
# Poissons Ratio (y) = -0.08434 0.23975
# Poissons Ratio (z) = -0.06587 0.28122
#
# Static dielectric constant tensor:
#      x y z
#    x 1.934470 0.034520 -0.008760 
#    y 0.034520 1.916720 -0.052360 
#    z -0.008760 -0.052360 1.900250 
# 
# From -- ./inp_files/433449.got.cif
#   From: 2010.05.17/outbox.cif.g08.bks.cpg/sg2_217_cif.got.tgz:433449.got - 2010.06.03 11:33:40.
