data_PCOD9009743
_publ_section_title
;
Structure prediction by ZEFSAII (Michael W. Deem and Ramdas Pophale) SiO2 
 PCOD9009743
Probable space group: P -1
;
_chemical_formula_sum "Si O2"
_cell_formula_units_Z 16
_cell_length_a 17.921238
_cell_length_b 5.496894
_cell_length_c 11.743894
_cell_angle_alpha 114.174185
_cell_angle_beta 45.533501
_cell_angle_gamma 115.595337
_cell_volume 734.274518
_symmetry_space_group_name_H-M "P -1"
_symmetry_group_IT_number 2
_symmetry_cell_setting 'triclinic'
loop_
_space_group_symop_operation_xyz
x,y,z
-x,-y,-z
loop_
_atom_site_type_symbol
_atom_site_label
_atom_site_fract_x
_atom_site_fract_y
_atom_site_fract_z
Si Si1 0.165972 0.412208 0.603092
Si Si2 0.209202 0.700430 0.948815
Si Si3 0.981311 0.139053 0.377249
Si Si4 0.448138 0.244200 0.641920
Si Si5 0.004256 0.723634 0.877493
Si Si6 0.665824 0.587134 0.399643
Si Si7 0.717081 0.663646 0.000745
Si Si8 0.180261 0.495689 0.350163
O O1 0.121108 0.658040 0.751693
O O2 0.244783 0.302950 0.581841
O O3 0.215529 0.488971 0.441266
O O4 0.058748 0.182292 0.651847
O O5 0.091283 0.513901 0.017677
O O6 0.292520 0.658394 0.753625
O O7 0.247404 0.549914 0.989933
O O8 0.212473 0.021855 0.016411
O O9 0.008785 0.253163 0.241505
O O10 0.878313 0.251703 0.551378
O O11 0.079910 0.246433 0.376079
O O12 0.548407 0.499678 0.563314
O O13 0.350914 0.229827 0.653752
O O14 0.396990 0.284750 0.825535
O O15 0.500000 0.000000 0.500000
O O16 0.000000 0.000000 0.000000
O O17 0.728432 0.531349 0.841110
#
# Coordination Sequence:
#
# PCOD9009743 Si02
#       8
#     2   2   2   2   2   2   2   2
#     4  11  24  39  62  91 137 175 218 269 325 388
#     4  11  23  39  65  97 130 171 218 269 328 394
#     4  10  21  40  58  91 128 184 220 260 311 389
#     4  10  21  43  69  93 124 161 216 280 348 399
#     4  11  24  36  59  94 137 175 214 267 324 391
#     4  10  23  40  64  97 126 166 212 276 345 397
#     4  11  23  40  70  97 127 169 226 277 321 395
#     4  10  22  38  62  90 129 181 224 260 313 387
#
# _framework density 21.790219
#
# number of rings (size 3 to 8) (size 9 to 14) (size 15 to 20)
#    0.000    1.500    2.500    1.875    3.500    3.000 
#    0.000    0.625    0.000    1.500    0.000    0.000 
#    0.000    0.000    0.000    0.000    0.000    0.000 
#
# Total GULP energy -89317.411037 kJ/mol
# GULP energy per Si atom -5582.338190 kJ/mol
# Density = 2.174062 g / cm^3
# Si number density = 21.790219 Si / 1000 Ang^3
#
#
#
# Elastic Constant Matrix: (Units=GPa)
#
#
# Indices 1 2 3 4 5 6 
#
# 1 78.6214 -0.6764 29.4862 6.2582 1.4775 -14.7354
# 2 -0.6764 67.3803 29.3011 0.6064 1.3300 -3.3850
# 3 29.4862 29.3011 188.4137 -1.5686 -0.8031 -5.2489
# 4 6.2582 0.6064 -1.5686 35.3579 -3.2805 -1.3914
# 5 1.4775 1.3300 -0.8031 -3.2805 23.4168 0.2180
# 6 -14.7354 -3.3850 -5.2489 -1.3914 0.2180 20.5863
#
#
#
# Elastic Compliance Matrix: (Units=1/GPa)
#
#
# Indices 1 2 3 4 5 6 
#
# 1 0.015974 0.001860 -0.002514 -0.002696 -0.001679 0.010934
# 2 0.001860 0.016246 -0.002738 -0.000718 -0.001265 0.003270
# 3 -0.002514 -0.002738 0.006118 0.000798 0.000642 -0.000643
# 4 -0.002696 -0.000718 0.000798 0.029212 0.004330 0.000084
# 5 -0.001679 -0.001265 0.000642 0.004330 0.043524 -0.001415
# 6 0.010934 0.003270 -0.000643 0.000084 -0.001415 0.056797
#
#
# Mechanical properties :
#
#
# Convention : Reuss Voigt Hill
#
# Bulk Modulus (GPa) = 31.69123 50.07080 40.88102
# Shear Modulus (GPa) = 27.00187 34.29251 30.64719
#
# Velocity S-wave (km/s) = 3.52401 3.97136 3.75436
# Velocity P-wave (km/s) = 5.57974 6.63758 6.13152
#
# Compressibility (1/GPa) = 0.03155447
#
# Stress axis : x y z
#
# Youngs Moduli (GPa) = 62.60348 61.55312 163.44726
#
# Poissons Ratio (x) = -0.11451 0.41093
# Poissons Ratio (y) = -0.11647 0.44751
# Poissons Ratio (z) = 0.15739 0.16853
#
# Static dielectric constant tensor:
#      x y z
#    x 1.801780 -0.019680 0.010190 
#    y -0.019680 1.854310 -0.021390 
#    z 0.010190 -0.021390 1.846430 
# 
# From -- ./inp_files/80308.got.cif
#   From: 2010.05.17/outbox.cif.g08.bks.cpg/sg2_41_cif.got.tgz:80308.got - 2010.06.03 11:33:40.
