data_PCOD9009024
_publ_section_title
;
Structure prediction by ZEFSAII (Michael W. Deem and Ramdas Pophale) SiO2 
 PCOD9009024
Probable space group: P -1
;
_chemical_formula_sum "Si O2"
_cell_formula_units_Z 16
_cell_length_a 19.408156
_cell_length_b 12.907739
_cell_length_c 8.561592
_cell_angle_alpha 54.172591
_cell_angle_beta 33.815665
_cell_angle_gamma 41.627780
_cell_volume 789.217049
_symmetry_space_group_name_H-M "P -1"
_symmetry_group_IT_number 2
_symmetry_cell_setting 'triclinic'
loop_
_space_group_symop_operation_xyz
x,y,z
-x,-y,-z
loop_
_atom_site_type_symbol
_atom_site_label
_atom_site_fract_x
_atom_site_fract_y
_atom_site_fract_z
Si Si1 0.140946 0.359398 0.266057
Si Si2 0.045820 0.335292 0.125454
Si Si3 0.300459 0.512212 0.900980
Si Si4 0.345042 0.028637 0.330465
Si Si5 0.349369 0.740934 0.457083
Si Si6 0.728031 0.444193 0.721948
Si Si7 0.586454 0.278293 0.009907
Si Si8 0.346209 0.027792 0.699743
O O1 0.099401 0.322059 0.213717
O O2 0.219561 0.205960 0.359910
O O3 0.000000 0.500000 0.500000
O O4 0.243399 0.424000 0.991463
O O5 0.887657 0.351328 0.414086
O O6 0.189165 0.192761 0.890062
O O7 0.000000 0.500000 0.000000
O O8 0.261102 0.672194 0.756403
O O9 0.480267 0.383744 0.691327
O O10 0.244359 0.541769 0.160388
O O11 0.358810 0.008515 0.507489
O O12 0.309930 0.909158 0.432082
O O13 0.500000 0.000000 0.000000
O O14 0.356947 0.728834 0.266246
O O15 0.642978 0.359607 0.940708
O O16 0.597932 0.616421 0.746358
O O17 0.655483 0.108297 0.094858
O O18 0.500000 0.000000 0.500000
#
# Coordination Sequence:
#
# PCOD9009024 Si02
#       8
#     2   2   2   2   2   2   2   2
#     4  12  24  42  68  97 134 177 217 272 331 392
#     4  12  26  42  66  97 135 174 221 271 334 391
#     4  10  21  39  66  97 132 170 220 268 324 390
#     4  12  24  44  68  96 130 172 224 274 325 397
#     4  10  21  39  68  98 127 170 222 272 325 387
#     4  10  22  42  66  95 134 172 218 270 328 396
#     4  10  22  42  69  99 132 170 218 274 333 390
#     4  12  26  42  67  98 134 173 221 273 332 391
#
# _framework density 20.273257000000001
#
# number of rings (size 3 to 8) (size 9 to 14) (size 15 to 20)
#    0.000    1.000    2.500    4.500    3.500    1.500 
#    0.000    0.625    0.000    0.000    0.000    0.000 
#    0.000    0.000    0.000    0.000    0.000    0.000 
#
# Total GULP energy -89407.201534 kJ/mol
# GULP energy per Si atom -5587.950096 kJ/mol
# Density = 2.022711 g / cm^3
# Si number density = 20.273257 Si / 1000 Ang^3
#
#
#
# Elastic Constant Matrix: (Units=GPa)
#
#
# Indices 1 2 3 4 5 6 
#
# 1 75.0993 11.4181 9.1159 -2.9908 2.3794 0.0354
# 2 11.4181 142.7270 29.3888 -8.2271 -1.4836 -12.7643
# 3 9.1159 29.3888 65.3252 3.8642 -4.0886 -8.9060
# 4 -2.9908 -8.2271 3.8642 38.5027 4.2469 3.7161
# 5 2.3794 -1.4836 -4.0886 4.2469 18.6061 -2.3339
# 6 0.0354 -12.7643 -8.9060 3.7161 -2.3339 33.2157
#
#
#
# Elastic Compliance Matrix: (Units=1/GPa)
#
#
# Indices 1 2 3 4 5 6 
#
# 1 0.013824 -0.000736 -0.002028 0.001543 -0.002776 -0.001209
# 2 -0.000736 0.008038 -0.003363 0.001827 -0.000174 0.001971
# 3 -0.002028 -0.003363 0.018264 -0.003731 0.005408 0.004404
# 4 0.001543 0.001827 -0.003731 0.028101 -0.007786 -0.003991
# 5 -0.002776 -0.000174 0.005408 -0.007786 0.057846 0.006322
# 6 -0.001209 0.001971 0.004404 -0.003991 0.006322 0.032937
#
#
# Mechanical properties :
#
#
# Convention : Reuss Voigt Hill
#
# Bulk Modulus (GPa) = 35.88063 42.55525 39.21794
# Shear Modulus (GPa) = 27.69270 33.61349 30.65309
#
# Velocity S-wave (km/s) = 3.69992 4.07630 3.89266
# Velocity P-wave (km/s) = 5.99912 6.57201 6.29209
#
# Compressibility (1/GPa) = 0.02787019
#
# Stress axis : x y z
#
# Youngs Moduli (GPa) = 72.33928 124.41473 54.75327
#
# Poissons Ratio (x) = 0.09162 0.11102
# Poissons Ratio (y) = 0.05327 0.18416
# Poissons Ratio (z) = 0.14667 0.41846
#
# Static dielectric constant tensor:
#      x y z
#    x 1.713120 -0.007880 -0.027280 
#    y -0.007880 1.707020 0.013170 
#    z -0.027280 0.013170 1.720670 
# 
# From -- ./inp_files/345912.got.cif
#   From: 2010.05.17/outbox.cif.g08.bks.cpg/sg2_173_cif.got.tgz:345912.got - 2010.06.03 11:33:40.
