data_PCOD9009953
_publ_section_title
;
Structure prediction by ZEFSAII (Michael W. Deem and Ramdas Pophale) SiO2 
 PCOD9009953
Probable space group: P -1
;
_chemical_formula_sum "Si O2"
_cell_formula_units_Z 16
_cell_length_a 5.058401
_cell_length_b 5.459404
_cell_length_c 23.865580
_cell_angle_alpha 109.748635
_cell_angle_beta 86.126602
_cell_angle_gamma 84.830853
_cell_volume 614.396632
_symmetry_space_group_name_H-M "P -1"
_symmetry_group_IT_number 2
_symmetry_cell_setting 'triclinic'
loop_
_space_group_symop_operation_xyz
x,y,z
-x,-y,-z
loop_
_atom_site_type_symbol
_atom_site_label
_atom_site_fract_x
_atom_site_fract_y
_atom_site_fract_z
Si Si1 0.702871 0.368523 0.034383
Si Si2 0.780075 0.832161 0.295844
Si Si3 0.718195 0.507040 0.578321
Si Si4 0.831221 0.910728 0.072617
Si Si5 0.328253 0.683503 0.209603
Si Si6 0.164555 0.150277 0.178916
Si Si7 0.739655 0.767683 0.484117
Si Si8 0.948932 0.355024 0.319058
O O1 0.765400 0.641239 0.083373
O O2 0.634454 0.128302 0.056765
O O3 0.500000 0.500000 0.000000
O O4 0.955186 0.226172 0.985759
O O5 0.540786 0.773779 0.255904
O O6 0.790180 0.640557 0.333550
O O7 0.046157 0.749096 0.249902
O O8 0.793509 0.133935 0.331767
O O9 0.783086 0.708430 0.544699
O O10 0.424017 0.449308 0.560395
O O11 0.959864 0.264199 0.547715
O O12 0.786940 0.612725 0.646466
O O13 0.966357 0.091265 0.128402
O O14 0.346553 0.373497 0.177075
O O15 0.320695 0.869715 0.170607
O O16 0.020552 0.249497 0.246852
O O17 0.500000 0.000000 0.500000
#
# Coordination Sequence:
#
# PCOD9009953 Si02
#       8
#     2   2   2   2   2   2   2   2
#     4  10  21  40  64  93 123 167 222 270 329 378
#     4  10  22  40  62  88 130 175 213 261 313 395
#     4  10  23  40  65  98 125 172 218 277 326 397
#     4  10  21  40  64  90 131 164 216 274 323 392
#     4  10  21  40  61  86 131 172 216 258 317 391
#     4  10  21  41  63  93 132 172 212 268 333 401
#     4  10  22  43  67  92 129 166 228 271 334 379
#     4  10  23  42  64  97 134 171 217 266 335 399
#
# _framework density 26.041810000000002
#
# number of rings (size 3 to 8) (size 9 to 14) (size 15 to 20)
#    0.000    2.000    0.000    2.250    1.750    4.000 
#   15.750    0.000    0.000    0.000    0.000    0.000 
#    0.000    0.000    0.000    0.000    0.000    0.000 
#
# Total GULP energy -89350.363033 kJ/mol
# GULP energy per Si atom -5584.397690 kJ/mol
# Density = 2.598254 g / cm^3
# Si number density = 26.041810 Si / 1000 Ang^3
#
#
#
# Elastic Constant Matrix: (Units=GPa)
#
#
# Indices 1 2 3 4 5 6 
#
# 1 110.1964 27.8987 9.2644 -1.6751 24.2418 -10.7890
# 2 27.8987 251.6080 36.8043 2.2528 20.6778 -11.3668
# 3 9.2644 36.8043 87.4827 2.7811 13.7835 -0.2707
# 4 -1.6751 2.2528 2.7811 40.2721 -8.5323 -3.7488
# 5 24.2418 20.6778 13.7835 -8.5323 61.2654 -2.1997
# 6 -10.7890 -11.3668 -0.2707 -3.7488 -2.1997 64.7324
#
#
#
# Elastic Compliance Matrix: (Units=1/GPa)
#
#
# Indices 1 2 3 4 5 6 
#
# 1 0.010236 -0.000736 -0.000176 -0.000178 -0.003735 0.001439
# 2 -0.000736 0.004393 -0.001626 -0.000287 -0.000844 0.000597
# 3 -0.000176 -0.001626 0.012554 -0.001332 -0.002407 -0.000421
# 4 -0.000178 -0.000287 -0.001332 0.025953 0.004138 0.001558
# 5 -0.003735 -0.000844 -0.002407 0.004138 0.019207 0.000111
# 6 0.001439 0.000597 -0.000421 0.001558 0.000111 0.015885
#
#
# Mechanical properties :
#
#
# Convention : Reuss Voigt Hill
#
# Bulk Modulus (GPa) = 45.23437 66.35797 55.79617
# Shear Modulus (GPa) = 49.66623 58.27530 53.97076
#
# Velocity S-wave (km/s) = 4.37186 4.73563 4.55737
# Velocity P-wave (km/s) = 6.54918 7.44568 7.01178
#
# Compressibility (1/GPa) = 0.02210708
#
# Stress axis : x y z
#
# Youngs Moduli (GPa) = 97.69782 227.64605 79.65702
#
# Poissons Ratio (x) = 0.16747 0.01400
# Poissons Ratio (y) = 0.07187 0.12953
# Poissons Ratio (z) = 0.01717 0.37019
#
# Static dielectric constant tensor:
#      x y z
#    x 2.077140 0.051350 -0.019310 
#    y 0.051350 2.165980 0.062330 
#    z -0.019310 0.062330 2.065760 
# 
# From -- ./inp_files/14082.got.cif
#   From: 2010.05.17/outbox.cif.g08.bks.cpg/sg2_8_cif.got.tgz:14082.got - 2010.06.03 11:33:40.
