data_PCOD9009277
_publ_section_title
;
Structure prediction by ZEFSAII (Michael W. Deem and Ramdas Pophale) SiO2 
 PCOD9009277
Probable space group: P -1
;
_chemical_formula_sum "Si O2"
_cell_formula_units_Z 16
_cell_length_a 12.321423
_cell_length_b 25.543596
_cell_length_c 5.539634
_cell_angle_alpha 112.808445
_cell_angle_beta 123.948269
_cell_angle_gamma 30.940665
_cell_volume 726.374876
_symmetry_space_group_name_H-M "P -1"
_symmetry_group_IT_number 2
_symmetry_cell_setting 'triclinic'
loop_
_space_group_symop_operation_xyz
x,y,z
-x,-y,-z
loop_
_atom_site_type_symbol
_atom_site_label
_atom_site_fract_x
_atom_site_fract_y
_atom_site_fract_z
Si Si1 0.948413 0.203601 0.781079
Si Si2 0.488170 0.073713 0.601807
Si Si3 0.766646 0.734488 0.640207
Si Si4 0.612041 0.612397 0.601436
Si Si5 0.925478 0.735416 0.226412
Si Si6 0.269670 0.557877 0.682073
Si Si7 0.564499 0.689193 0.175089
Si Si8 0.005751 0.128420 0.216828
O O1 0.675666 0.284607 0.565925
O O2 0.068234 0.126270 0.564116
O O3 0.989614 0.253188 0.854656
O O4 0.009597 0.172814 0.082115
O O5 0.375746 0.155162 0.399210
O O6 0.302816 0.155782 0.728888
O O7 0.500000 0.000000 0.500000
O O8 0.767823 0.991385 0.803835
O O9 0.627598 0.731983 0.358491
O O10 0.034386 0.635493 0.690829
O O11 0.820083 0.715111 0.956516
O O12 0.683753 0.520354 0.517324
O O13 0.664741 0.622058 0.423520
O O14 0.675465 0.621530 0.946543
O O15 0.166003 0.639448 0.504950
O O16 0.500000 0.500000 0.000000
O O17 0.271345 0.791012 0.984468
#
# Coordination Sequence:
#
# PCOD9009277 Si02
#       8
#     2   2   2   2   2   2   2   2
#     4  10  21  39  67  99 135 172 230 284 340 402
#     4  11  23  41  69 102 139 181 234 283 358 409
#     4  11  27  44  66 103 142 182 231 294 340 412
#     4  10  24  44  73  98 135 188 233 282 342 414
#     4  11  25  41  67  99 144 174 228 296 353 410
#     4  11  27  44  71 105 138 176 234 292 360 412
#     4  10  25  47  70  99 144 185 238 279 336 415
#     4  10  22  41  67 101 132 185 231 278 334 414
#
# _framework density 22.027191999999999
#
# number of rings (size 3 to 8) (size 9 to 14) (size 15 to 20)
#    0.000    1.500    1.250    1.500   14.000    3.500 
#    0.000    0.625    0.000    0.000    0.000    0.000 
#    0.000    0.000    0.000    0.000    0.000    0.000 
#
# Total GULP energy -89086.862121 kJ/mol
# GULP energy per Si atom -5567.928883 kJ/mol
# Density = 2.197706 g / cm^3
# Si number density = 22.027192 Si / 1000 Ang^3
#
#
#
# Elastic Constant Matrix: (Units=GPa)
#
#
# Indices 1 2 3 4 5 6 
#
# 1 67.3451 27.6473 55.6349 -9.1858 -4.2119 13.2014
# 2 27.6473 46.7451 82.7545 -99.9617 -15.6299 69.1499
# 3 55.6349 82.7545 117.2022 63.2588 15.1952 -22.5335
# 4 -9.1858 -99.9617 63.2588 -160.2177 -23.9850 125.1190
# 5 -4.2119 -15.6299 15.1952 -23.9850 22.2479 19.6979
# 6 13.2014 69.1499 -22.5335 125.1190 19.6979 -60.6439
#
#
#
# Elastic Compliance Matrix: (Units=1/GPa)
#
#
# Indices 1 2 3 4 5 6 
#
# 1 0.022307 -0.003875 -0.007250 -0.001849 0.003934 0.000593
# 2 -0.003875 0.012226 -0.003470 -0.004097 0.000431 0.006074
# 3 -0.007250 -0.003470 0.012508 0.001275 -0.003334 -0.008635
# 4 -0.001849 -0.004097 0.001275 0.013332 -0.007120 0.019646
# 5 0.003934 0.000431 -0.003334 -0.007120 0.039852 0.000840
# 6 0.000593 0.006074 -0.008635 0.019646 0.000840 0.034581
#
#
# Mechanical properties :
#
#
# Convention : Reuss Voigt Hill
#
# Bulk Modulus (GPa) = 56.02308 62.59619 59.30963
# Shear Modulus (GPa) = 29.42117 -35.37237 -2.97560
#
# Velocity S-wave (km/s) = 3.65865 -4.01165 -1.16353
# Velocity P-wave (km/s) = 6.58304 2.64982 5.01787
#
# Compressibility (1/GPa) = 0.01784979
#
# Stress axis : x y z
#
# Youngs Moduli (GPa) = 44.82915 81.79557 79.94951
#
# Poissons Ratio (x) = 0.31696 0.57967
# Poissons Ratio (y) = 0.17371 0.27741
# Poissons Ratio (z) = 0.32503 0.28381
#
# Static dielectric constant tensor:
#      x y z
#    x 1.090560 -0.022440 2.171860 
#    y -0.022440 1.826110 0.114920 
#    z 2.171860 0.114920 -4.784890 
# 
# From -- ./inp_files/84458.got.cif
#   From: 2010.05.17/outbox.cif.g08.bks.cpg/sg2_43_cif.got.tgz:84458.got - 2010.06.03 11:33:40.
