data_PCOD9009311
_publ_section_title
;
Structure prediction by ZEFSAII (Michael W. Deem and Ramdas Pophale) SiO2 
 PCOD9009311
Probable space group: P -1
;
_chemical_formula_sum "Si O2"
_cell_formula_units_Z 12
_cell_length_a 11.903682
_cell_length_b 11.407152
_cell_length_c 12.517405
_cell_angle_alpha 34.434908
_cell_angle_beta 31.017567
_cell_angle_gamma 40.710060
_cell_volume 487.570093
_symmetry_space_group_name_H-M "P -1"
_symmetry_group_IT_number 2
_symmetry_cell_setting 'triclinic'
loop_
_space_group_symop_operation_xyz
x,y,z
-x,-y,-z
loop_
_atom_site_type_symbol
_atom_site_label
_atom_site_fract_x
_atom_site_fract_y
_atom_site_fract_z
Si Si1 0.359752 0.422808 0.325124
Si Si2 0.931700 0.246440 0.354579
Si Si3 0.082362 0.055856 0.009879
Si Si4 0.481795 0.189836 0.201586
Si Si5 0.783313 0.402110 0.135995
Si Si6 0.982421 0.302226 0.497505
O O1 0.417866 0.221595 0.353964
O O2 0.113493 0.478383 0.530741
O O3 0.386895 0.623660 0.078224
O O4 0.545165 0.420931 0.263953
O O5 0.129983 0.379589 0.077175
O O6 0.840581 0.311929 0.497531
O O7 0.791287 0.290583 0.328460
O O8 0.000000 0.000000 0.500000
O O9 0.951348 0.266987 0.014135
O O10 0.350297 0.022297 0.803600
O O11 0.000000 0.000000 0.000000
O O12 0.046575 0.884437 0.258226
O O13 0.241903 0.249782 0.297799
#
# Coordination Sequence:
#
# PCOD9009311 Si02
#       6
#     2   2   2   2   2   2
#     4  10  21  39  68 102 138 179 229 285 344 413
#     4  11  24  46  72  98 142 185 238 285 338 417
#     4  11  23  42  68 104 144 176 225 291 348 412
#     4  10  21  40  66 100 145 180 219 287 350 412
#     4  11  23  45  72 103 140 182 233 291 340 409
#     4  11  23  42  67  99 138 186 229 279 348 409
#
# _framework density 24.611847000000001
#
# number of rings (size 3 to 8) (size 9 to 14) (size 15 to 20)
#    0.000    1.333    5.000    0.500    0.000    2.667 
#    3.000    5.000    0.000    0.000    0.000    0.000 
#    0.000    0.000    0.000    0.000    0.000    0.000 
#
# Total GULP energy -67022.771812 kJ/mol
# GULP energy per Si atom -5585.230984 kJ/mol
# Density = 2.455583 g / cm^3
# Si number density = 24.611847 Si / 1000 Ang^3
#
#
#
# Elastic Constant Matrix: (Units=GPa)
#
#
# Indices 1 2 3 4 5 6 
#
# 1 152.1924 24.0385 16.4541 11.0377 32.7691 -0.8479
# 2 24.0385 126.1728 35.8909 25.8390 -12.2007 -1.2482
# 3 16.4541 35.8909 79.0009 4.2289 19.2947 -3.9292
# 4 11.0377 25.8390 4.2289 55.5129 -11.4273 -1.0161
# 5 32.7691 -12.2007 19.2947 -11.4273 41.7827 0.6304
# 6 -0.8479 -1.2482 -3.9292 -1.0161 0.6304 27.0763
#
#
#
# Elastic Compliance Matrix: (Units=1/GPa)
#
#
# Indices 1 2 3 4 5 6 
#
# 1 0.008992 -0.002565 0.001740 -0.002638 -0.009334 0.000534
# 2 -0.002565 0.011560 -0.006463 -0.002826 0.007611 -0.000769
# 3 0.001740 -0.006463 0.018384 -0.001181 -0.012105 0.002662
# 4 -0.002638 -0.002826 -0.001181 0.021528 0.007673 0.000245
# 5 -0.009334 0.007611 -0.012105 0.007673 0.041200 -0.002369
# 6 0.000534 -0.000769 0.002662 0.000245 -0.002369 0.037365
#
#
# Mechanical properties :
#
#
# Convention : Reuss Voigt Hill
#
# Bulk Modulus (GPa) = 41.05272 56.68144 48.86708
# Shear Modulus (GPa) = 30.91678 43.60656 37.26167
#
# Velocity S-wave (km/s) = 3.54810 4.21381 3.89520
# Velocity P-wave (km/s) = 5.78806 6.83777 6.33469
#
# Compressibility (1/GPa) = 0.02435892
#
# Stress axis : x y z
#
# Youngs Moduli (GPa) = 111.21328 86.50596 54.39520
#
# Poissons Ratio (x) = 0.22190 -0.09465
# Poissons Ratio (y) = 0.28528 0.35157
# Poissons Ratio (z) = -0.19352 0.55911
#
# Static dielectric constant tensor:
#      x y z
#    x 2.040430 0.049180 0.037580 
#    y 0.049180 2.021250 -0.004280 
#    z 0.037580 -0.004280 2.030310 
# 
# From -- ./inp_files/94967.got.cif
#   From: 2010.05.17/outbox.cif.g08.bks.cpg/sg2_48_cif.got.tgz:94967.got - 2010.06.03 11:33:40.
