data_PCOD9009628
_publ_section_title
;
Structure prediction by ZEFSAII (Michael W. Deem and Ramdas Pophale) SiO2 
 PCOD9009628
Probable space group: P -1
;
_chemical_formula_sum "Si O2"
_cell_formula_units_Z 16
_cell_length_a 10.797227
_cell_length_b 13.244950
_cell_length_c 8.012770
_cell_angle_alpha 31.748261
_cell_angle_beta 70.110979
_cell_angle_gamma 72.337890
_cell_volume 566.762000
_symmetry_space_group_name_H-M "P -1"
_symmetry_group_IT_number 2
_symmetry_cell_setting 'triclinic'
loop_
_space_group_symop_operation_xyz
x,y,z
-x,-y,-z
loop_
_atom_site_type_symbol
_atom_site_label
_atom_site_fract_x
_atom_site_fract_y
_atom_site_fract_z
Si Si1 0.853368 0.153496 0.253712
Si Si2 0.632255 0.460184 0.257642
Si Si3 0.443830 0.943191 0.423358
Si Si4 0.169588 0.837816 0.111636
Si Si5 0.958391 0.558445 0.752189
Si Si6 0.248669 0.969622 0.222161
Si Si7 0.693213 0.694035 0.585625
Si Si8 0.336902 0.474945 0.505074
O O1 0.690533 0.165464 0.314410
O O2 0.867859 0.022076 0.598414
O O3 0.881443 0.085739 0.149619
O O4 0.917606 0.358798 0.964443
O O5 0.706324 0.256047 0.498166
O O6 0.486714 0.445073 0.419439
O O7 0.696150 0.580887 0.209869
O O8 0.625054 0.550040 0.953210
O O9 0.374625 0.059495 0.132840
O O10 0.574176 0.849398 0.413119
O O11 0.500000 0.000000 0.500000
O O12 0.197034 0.994827 0.021714
O O13 0.300014 0.703094 0.206707
O O14 0.068266 0.680617 0.441785
O O15 0.829010 0.695335 0.622126
O O16 0.000000 0.500000 0.000000
O O17 0.733800 0.621440 0.483395
#
# Coordination Sequence:
#
# PCOD9009628 Si02
#       8
#     2   2   2   2   2   2   2   2
#     4  10  19  34  57  78 110 147 172 225 274 320
#     4  10  17  29  49  82 109 130 168 215 283 340
#     4  10  22  40  58  78 105 144 192 233 268 305
#     4  11  19  32  52  84 116 143 171 205 276 343
#     4  12  21  34  52  87 120 145 169 212 272 340
#     4   9  18  34  54  78 114 137 172 228 269 323
#     4  12  20  33  54  75 112 142 173 219 275 318
#     4  10  18  27  49  80 111 138 162 210 272 339
#
# _framework density 28.230544999999999
#
# number of rings (size 3 to 8) (size 9 to 14) (size 15 to 20)
#    0.750    0.750    5.000    2.250    0.000    0.000 
#    0.000    0.625    0.000    3.750    0.000    0.000 
#    0.000    0.000    0.000    0.000    0.000    0.000 
#
# Total GULP energy -89279.940290 kJ/mol
# GULP energy per Si atom -5579.996268 kJ/mol
# Density = 2.816629 g / cm^3
# Si number density = 28.230545 Si / 1000 Ang^3
#
#
#
# Elastic Constant Matrix: (Units=GPa)
#
#
# Indices 1 2 3 4 5 6 
#
# 1 137.7661 45.3537 47.0877 18.8931 22.4515 35.2099
# 2 45.3537 145.2700 32.0215 15.8297 18.0439 58.5952
# 3 47.0877 32.0215 100.9931 31.2079 8.4243 22.5202
# 4 18.8931 15.8297 31.2079 51.5422 12.0297 7.6953
# 5 22.4515 18.0439 8.4243 12.0297 46.6367 17.0262
# 6 35.2099 58.5952 22.5202 7.6953 17.0262 65.7000
#
#
#
# Elastic Compliance Matrix: (Units=1/GPa)
#
#
# Indices 1 2 3 4 5 6 
#
# 1 0.009874 -0.000932 -0.003443 -0.000219 -0.002790 -0.002531
# 2 -0.000932 0.011106 -0.000672 -0.001294 -0.000109 -0.008995
# 3 -0.003443 -0.000672 0.014291 -0.007336 0.002000 -0.002113
# 4 -0.000219 -0.001294 -0.007336 0.025248 -0.005394 0.002227
# 5 -0.002790 -0.000109 0.002000 -0.005394 0.025731 -0.005129
# 6 -0.002531 -0.008995 -0.002113 0.002227 -0.005129 0.026392
#
#
# Mechanical properties :
#
#
# Convention : Reuss Voigt Hill
#
# Bulk Modulus (GPa) = 39.72015 70.32835 55.02425
# Shear Modulus (GPa) = 38.13055 50.08020 44.10537
#
# Velocity S-wave (km/s) = 3.67915 4.21642 3.95692
# Velocity P-wave (km/s) = 5.66998 6.97643 6.35686
#
# Compressibility (1/GPa) = 0.02517614
#
# Stress axis : x y z
#
# Youngs Moduli (GPa) = 101.27390 90.04521 69.97219
#
# Poissons Ratio (x) = 0.08395 0.24094
# Poissons Ratio (y) = 0.09442 0.04701
# Poissons Ratio (z) = 0.34872 0.06050
#
# Static dielectric constant tensor:
#      x y z
#    x 2.301790 0.118750 0.053510 
#    y 0.118750 2.287680 -0.064180 
#    z 0.053510 -0.064180 2.428310 
# 
# From -- ./inp_files/266684.got.cif
#   From: 2010.05.17/outbox.cif.g08.bks.cpg/sg2_134_cif.got.tgz:266684.got - 2010.06.03 11:33:40.
