data_PCOD9009652
_publ_section_title
;
Structure prediction by ZEFSAII (Michael W. Deem and Ramdas Pophale) SiO2 
 PCOD9009652
Probable space group: P -1
;
_chemical_formula_sum "Si O2"
_cell_formula_units_Z 16
_cell_length_a 11.509938
_cell_length_b 8.079632
_cell_length_c 18.542010
_cell_angle_alpha 64.115073
_cell_angle_beta 27.400707
_cell_angle_gamma 55.059955
_cell_volume 638.596032
_symmetry_space_group_name_H-M "P -1"
_symmetry_group_IT_number 2
_symmetry_cell_setting 'triclinic'
loop_
_space_group_symop_operation_xyz
x,y,z
-x,-y,-z
loop_
_atom_site_type_symbol
_atom_site_label
_atom_site_fract_x
_atom_site_fract_y
_atom_site_fract_z
Si Si1 0.537817 0.078441 0.227155
Si Si2 0.427873 0.560854 0.663307
Si Si3 0.124649 0.576698 0.124123
Si Si4 0.040683 0.056207 0.236774
Si Si5 0.530991 0.184399 0.062146
Si Si6 0.242172 0.218820 0.588633
Si Si7 0.887000 0.313119 0.045048
Si Si8 0.148705 0.905681 0.512301
O O1 0.336982 0.028037 0.399297
O O2 0.378705 0.177465 0.221422
O O3 0.683326 0.204323 0.160692
O O4 0.797871 0.870339 0.093334
O O5 0.217691 0.732516 0.690041
O O6 0.657505 0.644664 0.540406
O O7 0.238451 0.568730 0.834924
O O8 0.617292 0.330142 0.577750
O O9 0.328048 0.365188 0.088566
O O10 0.841790 0.667688 0.309198
O O11 0.244553 0.742467 0.041262
O O12 0.116186 0.555922 0.047841
O O13 0.053447 0.073850 0.312467
O O14 0.993380 0.848679 0.294795
O O15 0.293966 0.007919 0.049760
O O16 0.500000 0.000000 0.500000
O O17 0.000000 0.000000 0.500000
#
# Coordination Sequence:
#
# PCOD9009652 Si02
#       8
#     2   2   2   2   2   2   2   2
#     4  10  22  42  67  94 129 164 206 273 317 378
#     4  11  23  42  63  95 127 170 217 261 319 388
#     4   9  19  33  62 100 126 153 202 268 325 370
#     4  10  21  44  66  89 122 172 218 267 312 379
#     4   9  18  38  62  92 127 159 205 263 324 372
#     4   9  20  36  68  96 123 161 215 266 313 372
#     4  10  21  39  72 100 119 156 221 275 316 361
#     4  12  29  44  59  89 140 177 211 254 324 390
#
# _framework density 25.054963999999998
#
# number of rings (size 3 to 8) (size 9 to 14) (size 15 to 20)
#    0.000    2.000    1.250    1.125   12.250    0.500 
#    0.000    1.875    0.000    0.000    0.000    0.000 
#    0.000    0.000    0.000    0.000    0.000    0.000 
#
# Total GULP energy -89445.255013 kJ/mol
# GULP energy per Si atom -5590.328438 kJ/mol
# Density = 2.499794 g / cm^3
# Si number density = 25.054964 Si / 1000 Ang^3
#
#
#
# Elastic Constant Matrix: (Units=GPa)
#
#
# Indices 1 2 3 4 5 6 
#
# 1 86.5881 18.4603 10.0674 -0.1514 24.9928 -2.0356
# 2 18.4603 54.9236 12.9284 7.5488 11.8931 0.1245
# 3 10.0674 12.9284 111.2996 1.7866 36.2421 3.2612
# 4 -0.1514 7.5488 1.7866 29.1636 -0.6381 -2.1145
# 5 24.9928 11.8931 36.2421 -0.6381 40.1515 -10.2380
# 6 -2.0356 0.1245 3.2612 -2.1145 -10.2380 34.4644
#
#
#
# Elastic Compliance Matrix: (Units=1/GPa)
#
#
# Indices 1 2 3 4 5 6 
#
# 1 0.015288 -0.003278 0.002976 0.000273 -0.011968 -0.002905
# 2 -0.003278 0.021153 -0.000655 -0.005674 -0.004183 -0.001799
# 3 0.002976 -0.000655 0.014219 -0.001474 -0.016053 -0.006027
# 4 0.000273 -0.005674 -0.001474 0.036213 0.004359 0.003693
# 5 -0.011968 -0.004183 -0.016053 0.004359 0.052402 0.016661
# 6 -0.002905 -0.001799 -0.006027 0.003693 0.016661 0.034596
#
#
# Mechanical properties :
#
#
# Convention : Reuss Voigt Hill
#
# Bulk Modulus (GPa) = 20.51473 37.30260 28.90867
# Shear Modulus (GPa) = 26.03688 34.84625 30.44157
#
# Velocity S-wave (km/s) = 3.22714 3.73338 3.48945
# Velocity P-wave (km/s) = 4.70017 5.78833 5.27240
#
# Compressibility (1/GPa) = 0.04874545
#
# Stress axis : x y z
#
# Youngs Moduli (GPa) = 65.40872 47.27500 70.32727
#
# Poissons Ratio (x) = 0.15499 -0.20927
# Poissons Ratio (y) = 0.21444 0.04605
# Poissons Ratio (z) = -0.19464 0.03095
#
# Static dielectric constant tensor:
#      x y z
#    x 2.092680 0.043650 -0.050640 
#    y 0.043650 1.969140 -0.093610 
#    z -0.050640 -0.093610 2.017470 
# 
# From -- ./inp_files/566619.got.cif
#   From: 2010.05.17/outbox.cif.g08.bks.cpg/sg2_284_cif.got.tgz:566619.got - 2010.06.03 11:33:40.
