data_PCOD9009233
_publ_section_title
;
Structure prediction by ZEFSAII (Michael W. Deem and Ramdas Pophale) SiO2 
 PCOD9009233
Probable space group: P -1
;
_chemical_formula_sum "Si O2"
_cell_formula_units_Z 10
_cell_length_a 7.123772
_cell_length_b 8.547801
_cell_length_c 9.438992
_cell_angle_alpha 117.058013
_cell_angle_beta 118.712437
_cell_angle_gamma 55.270361
_cell_volume 400.984164
_symmetry_space_group_name_H-M "P -1"
_symmetry_group_IT_number 2
_symmetry_cell_setting 'triclinic'
loop_
_space_group_symop_operation_xyz
x,y,z
-x,-y,-z
loop_
_atom_site_type_symbol
_atom_site_label
_atom_site_fract_x
_atom_site_fract_y
_atom_site_fract_z
Si Si1 0.058656 0.110518 0.234884
Si Si2 0.531154 0.020944 0.186968
Si Si3 0.690042 0.567969 0.778865
Si Si4 0.884927 0.302813 0.980547
Si Si5 0.016169 0.203194 0.571833
O O1 0.307346 0.047773 0.214852
O O2 0.062364 0.209996 0.424700
O O3 0.038454 0.907083 0.156218
O O4 0.856133 0.254448 0.112698
O O5 0.531535 0.235006 0.275153
O O6 0.753648 0.840121 0.263941
O O7 0.500000 0.000000 0.000000
O O8 0.899436 0.636227 0.909047
O O9 0.797947 0.396866 0.631698
O O10 0.677268 0.465266 0.878407
O O11 0.000000 0.000000 0.500000
#
# Coordination Sequence:
#
# PCOD9009233 Si02
#       5
#     2   2   2   2   2
#     4  10  21  39  67  97 131 167 217 263 326 378
#     4  11  25  43  68  95 132 172 216 266 319 386
#     4  10  21  42  67  95 130 171 216 257 329 385
#     4   9  18  37  66  92 127 170 207 261 314 388
#     4  12  24  42  69  95 133 170 210 276 325 370
#
# _framework density 24.938641000000001
#
# number of rings (size 3 to 8) (size 9 to 14) (size 15 to 20)
#    0.000    1.600    2.000    4.200    2.800    4.000 
#    0.000    6.000    0.000    0.000    0.000    0.000 
#    0.000    0.000    0.000    0.000    0.000    0.000 
#
# Total GULP energy -55892.191102 kJ/mol
# GULP energy per Si atom -5589.219110 kJ/mol
# Density = 2.488188 g / cm^3
# Si number density = 24.938641 Si / 1000 Ang^3
#
#
#
# Elastic Constant Matrix: (Units=GPa)
#
#
# Indices 1 2 3 4 5 6 
#
# 1 53.7824 14.3120 30.7838 -0.1502 -19.6116 -1.5998
# 2 14.3120 138.2015 47.6939 5.9160 -11.1583 -1.8430
# 3 30.7838 47.6939 179.7856 -2.7920 -39.0739 -7.9637
# 4 -0.1502 5.9160 -2.7920 37.1093 6.0726 -2.1714
# 5 -19.6116 -11.1583 -39.0739 6.0726 33.0151 2.8709
# 6 -1.5998 -1.8430 -7.9637 -2.1714 2.8709 39.2914
#
#
#
# Elastic Compliance Matrix: (Units=1/GPa)
#
#
# Indices 1 2 3 4 5 6 
#
# 1 0.024273 -0.000998 -0.001065 -0.002007 0.013221 -0.000351
# 2 -0.000998 0.008092 -0.001990 -0.001464 0.000069 -0.000150
# 3 -0.001065 -0.001990 0.008105 -0.000381 0.008281 0.000880
# 4 -0.002007 -0.001464 -0.000381 0.028489 -0.007543 0.001898
# 5 0.013221 0.000069 0.008281 -0.007543 0.049512 -0.001815
# 6 -0.000351 -0.000150 0.000880 0.001898 -0.001815 0.025845
#
#
# Mechanical properties :
#
#
# Convention : Reuss Voigt Hill
#
# Bulk Modulus (GPa) = 30.89706 61.92767 46.41236
# Shear Modulus (GPa) = 30.63506 40.48183 35.55845
#
# Velocity S-wave (km/s) = 3.50868 4.03334 3.78012
# Velocity P-wave (km/s) = 5.36941 6.82469 6.14031
#
# Compressibility (1/GPa) = 0.03236554
#
# Stress axis : x y z
#
# Youngs Moduli (GPa) = 41.19744 123.57554 123.37544
#
# Poissons Ratio (x) = 0.12327 0.13138
# Poissons Ratio (y) = 0.04110 0.24555
# Poissons Ratio (z) = 0.04387 0.24595
#
# Static dielectric constant tensor:
#      x y z
#    x 2.034840 -0.001320 0.018960 
#    y -0.001320 2.028180 -0.024860 
#    z 0.018960 -0.024860 2.023990 
# 
# From -- ./inp_files/143991.got.cif
#   From: 2010.05.17/outbox.cif.g08.bks.cpg/sg2_72_cif.got.tgz:143991.got - 2010.06.03 11:33:40.
