data_PCOD9009492
_publ_section_title
;
Structure prediction by ZEFSAII (Michael W. Deem and Ramdas Pophale) SiO2 
 PCOD9009492
Probable space group: P -1
;
_chemical_formula_sum "Si O2"
_cell_formula_units_Z 16
_cell_length_a 16.752830
_cell_length_b 17.214068
_cell_length_c 6.806386
_cell_angle_alpha 108.644611
_cell_angle_beta 114.008191
_cell_angle_gamma 24.503256
_cell_volume 737.012732
_symmetry_space_group_name_H-M "P -1"
_symmetry_group_IT_number 2
_symmetry_cell_setting 'triclinic'
loop_
_space_group_symop_operation_xyz
x,y,z
-x,-y,-z
loop_
_atom_site_type_symbol
_atom_site_label
_atom_site_fract_x
_atom_site_fract_y
_atom_site_fract_z
Si Si1 0.281325 0.480349 0.022941
Si Si2 0.602691 0.142921 0.791891
Si Si3 0.926625 0.664734 0.754585
Si Si4 0.665871 0.946899 0.998015
Si Si5 0.774028 0.174863 0.986980
Si Si6 0.479267 0.486825 0.249234
Si Si7 0.582064 0.757961 0.703438
Si Si8 0.973818 0.593785 0.290490
O O1 0.327410 0.537530 0.124465
O O2 0.385059 0.349303 0.210058
O O3 0.388016 0.356930 0.831870
O O4 0.055023 0.637511 0.909947
O O5 0.739157 0.107476 0.886070
O O6 0.575849 0.124017 0.536643
O O7 0.671640 0.025886 0.943353
O O8 0.918899 0.659362 0.511736
O O9 0.054893 0.479998 0.820276
O O10 0.702967 0.854382 0.776669
O O11 0.488602 0.110955 0.109740
O O12 0.848438 0.760525 0.164167
O O13 0.617513 0.355907 0.838489
O O14 0.692504 0.276159 0.199217
O O15 0.000000 0.000000 0.000000
O O16 0.500000 0.500000 0.500000
O O17 0.791986 0.593941 0.672261
#
# Coordination Sequence:
#
# PCOD9009492 Si02
#       8
#     2   2   2   2   2   2   2   2
#     4  10  21  39  69  88 129 166 204 259 313 364
#     4  10  22  43  62  93 134 158 211 257 313 372
#     4  11  23  43  63  95 125 164 212 262 305 370
#     4  11  24  41  63  96 123 164 213 260 307 371
#     4  10  23  41  64  92 127 165 201 260 311 370
#     4  10  22  43  64  96 124 163 208 253 314 373
#     4  11  22  41  65  94 122 174 205 259 309 366
#     4  11  24  43  67  88 126 170 214 252 314 367
#
# _framework density 21.709257000000001
#
# number of rings (size 3 to 8) (size 9 to 14) (size 15 to 20)
#    0.000    1.500    2.500    1.875    1.750    1.000 
#    4.500    1.875    0.000    0.000    0.000    0.000 
#    0.000    0.000    0.000    0.000    0.000    0.000 
#
# Total GULP energy -89243.040012 kJ/mol
# GULP energy per Si atom -5577.690001 kJ/mol
# Density = 2.165985 g / cm^3
# Si number density = 21.709257 Si / 1000 Ang^3
#
#
#
# Elastic Constant Matrix: (Units=GPa)
#
#
# Indices 1 2 3 4 5 6 
#
# 1 83.6874 25.6493 29.1665 6.2522 -14.7712 -4.1185
# 2 25.6493 90.8534 35.4351 26.9409 -0.1529 -10.7853
# 3 29.1665 35.4351 127.7530 38.5871 -12.0101 -5.7915
# 4 6.2522 26.9409 38.5871 29.1253 -4.7485 -12.5567
# 5 -14.7712 -0.1529 -12.0101 -4.7485 22.7887 2.9269
# 6 -4.1185 -10.7853 -5.7915 -12.5567 2.9269 37.3489
#
#
#
# Elastic Compliance Matrix: (Units=1/GPa)
#
#
# Indices 1 2 3 4 5 6 
#
# 1 0.016211 -0.005573 -0.003957 0.009397 0.010095 0.001933
# 2 -0.005573 0.017278 0.001228 -0.017868 -0.006452 -0.000936
# 3 -0.003957 0.001228 0.014992 -0.022222 0.001400 -0.005338
# 4 0.009397 -0.017868 -0.022222 0.089263 0.010079 0.021651
# 5 0.010095 -0.006452 0.001400 0.010079 0.053390 -0.001329
# 6 0.001933 -0.000936 -0.005338 0.021651 -0.001329 0.033273
#
#
# Mechanical properties :
#
#
# Convention : Reuss Voigt Hill
#
# Bulk Modulus (GPa) = 31.37112 53.64397 42.50754
# Shear Modulus (GPa) = 19.86990 31.98876 25.92933
#
# Velocity S-wave (km/s) = 3.02863 3.84279 3.45974
# Velocity P-wave (km/s) = 5.16837 6.66733 5.96512
#
# Compressibility (1/GPa) = 0.03187645
#
# Stress axis : x y z
#
# Youngs Moduli (GPa) = 61.68514 57.87813 66.70275
#
# Poissons Ratio (x) = 0.32258 0.26393
# Poissons Ratio (y) = 0.34380 -0.08191
# Poissons Ratio (z) = 0.24407 -0.07107
#
# Static dielectric constant tensor:
#      x y z
#    x 1.825720 -0.020180 -0.025300 
#    y -0.020180 1.831130 0.035950 
#    z -0.025300 0.035950 1.804550 
# 
# From -- ./inp_files/125077.got.cif
#   From: 2010.05.17/outbox.cif.g08.bks.cpg/sg2_63_cif.got.tgz:125077.got - 2010.06.03 11:33:40.
