data_PCOD9009145
_publ_section_title
;
Structure prediction by ZEFSAII (Michael W. Deem and Ramdas Pophale) SiO2 
 PCOD9009145
Probable space group: P -1
;
_chemical_formula_sum "Si O2"
_cell_formula_units_Z 16
_cell_length_a 8.416218
_cell_length_b 8.350514
_cell_length_c 11.086979
_cell_angle_alpha 83.758778
_cell_angle_beta 84.104188
_cell_angle_gamma 68.146552
_cell_volume 717.272011
_symmetry_space_group_name_H-M "P -1"
_symmetry_group_IT_number 2
_symmetry_cell_setting 'triclinic'
loop_
_space_group_symop_operation_xyz
x,y,z
-x,-y,-z
loop_
_atom_site_type_symbol
_atom_site_label
_atom_site_fract_x
_atom_site_fract_y
_atom_site_fract_z
Si Si1 0.953740 0.763900 0.474831
Si Si2 0.453210 0.555705 0.637876
Si Si3 0.519323 0.050109 0.808754
Si Si4 0.073357 0.635168 0.087609
Si Si5 0.107619 0.501932 0.676890
Si Si6 0.247131 0.739919 0.269141
Si Si7 0.271154 0.265177 0.020093
Si Si8 0.367350 0.957699 0.599564
O O1 0.877008 0.637383 0.418758
O O2 0.997828 0.686298 0.610426
O O3 0.120614 0.754791 0.388672
O O4 0.816004 0.952715 0.454510
O O5 0.500000 0.500000 0.500000
O O6 0.292135 0.505802 0.691415
O O7 0.613583 0.453281 0.716503
O O8 0.409970 0.757360 0.629605
O O9 0.649471 0.133686 0.738837
O O10 0.636620 0.861733 0.866889
O O11 0.387081 0.034547 0.721221
O O12 0.405554 0.179109 0.909619
O O13 0.148156 0.754912 0.149288
O O14 0.222297 0.470300 0.030165
O O15 0.985403 0.549221 0.201004
O O16 0.917374 0.735859 0.001829
O O17 0.500000 0.000000 0.500000
#
# Coordination Sequence:
#
# PCOD9009145 Si02
#       8
#     2   2   2   2   2   2   2   2
#     4  10  22  39  64  97 132 175 205 266 322 394
#     4  12  23  41  61  94 133 176 212 262 327 396
#     4  11  24  44  65  96 131 173 214 277 324 383
#     4  10  22  41  66  98 122 176 222 269 320 384
#     4  10  21  39  67  91 137 169 217 260 326 385
#     4  11  22  40  69  96 135 170 218 267 330 391
#     4  10  23  44  67  88 132 173 223 270 325 373
#     4  12  27  41  65  97 135 172 218 265 330 394
#
# _framework density 22.306739
#
# number of rings (size 3 to 8) (size 9 to 14) (size 15 to 20)
#    0.000    1.250    1.250    5.250    5.250    2.500 
#    0.000    5.000    0.000    0.000    0.000    0.000 
#    0.000    0.000    0.000    0.000    0.000    0.000 
#
# Total GULP energy -89541.789236 kJ/mol
# GULP energy per Si atom -5596.361827 kJ/mol
# Density = 2.225597 g / cm^3
# Si number density = 22.306739 Si / 1000 Ang^3
#
#
#
# Elastic Constant Matrix: (Units=GPa)
#
#
# Indices 1 2 3 4 5 6 
#
# 1 81.8065 27.4316 -7.6506 -0.6723 -0.8149 -11.8634
# 2 27.4316 66.0196 6.3068 -15.4860 -5.0820 -15.5001
# 3 -7.6506 6.3068 36.4261 -1.3531 12.7042 -14.5292
# 4 -0.6723 -15.4860 -1.3531 32.2068 -6.6383 14.9127
# 5 -0.8149 -5.0820 12.7042 -6.6383 33.1816 -7.4173
# 6 -11.8634 -15.5001 -14.5292 14.9127 -7.4173 39.3303
#
#
#
# Elastic Compliance Matrix: (Units=1/GPa)
#
#
# Indices 1 2 3 4 5 6 
#
# 1 0.016739 -0.008182 0.008956 -0.007372 -0.004148 0.007146
# 2 -0.008182 0.023018 -0.008105 0.012075 0.009006 0.000729
# 3 0.008956 -0.008105 0.042786 -0.013253 -0.016190 0.017285
# 4 -0.007372 0.012075 -0.013253 0.046916 0.012136 -0.017861
# 5 -0.004148 0.009006 -0.016190 0.012136 0.039870 -0.000765
# 6 0.007146 0.000729 0.017285 -0.017861 -0.000765 0.040882
#
#
# Mechanical properties :
#
#
# Convention : Reuss Voigt Hill
#
# Bulk Modulus (GPa) = 14.73184 26.26975 20.50080
# Shear Modulus (GPa) = 20.20190 31.48803 25.84497
#
# Velocity S-wave (km/s) = 3.01265 3.76119 3.40754
# Velocity P-wave (km/s) = 4.32666 5.53753 4.96912
#
# Compressibility (1/GPa) = 0.06788018
#
# Stress axis : x y z
#
# Youngs Moduli (GPa) = 59.73918 43.44469 23.37218
#
# Poissons Ratio (x) = 0.35545 -0.20931
# Poissons Ratio (y) = 0.48877 0.18944
# Poissons Ratio (z) = -0.53501 0.35214
#
# Static dielectric constant tensor:
#      x y z
#    x 1.935380 0.027440 0.089060 
#    y 0.027440 1.842560 0.033690 
#    z 0.089060 0.033690 1.862150 
# 
# From -- ./inp_files/215981.got.cif
#   From: 2010.05.17/outbox.cif.g08.bks.cpg/sg2_108_cif.got.tgz:215981.got - 2010.06.03 11:33:40.
