data_PCOD9009613
_publ_section_title
;
Structure prediction by ZEFSAII (Michael W. Deem and Ramdas Pophale) SiO2 
 PCOD9009613
Probable space group: P -1
;
_chemical_formula_sum "Si O2"
_cell_formula_units_Z 16
_cell_length_a 5.704395
_cell_length_b 16.153581
_cell_length_c 9.724905
_cell_angle_alpha 112.963850
_cell_angle_beta 53.961860
_cell_angle_gamma 94.602610
_cell_volume 653.646118
_symmetry_space_group_name_H-M "P -1"
_symmetry_group_IT_number 2
_symmetry_cell_setting 'triclinic'
loop_
_space_group_symop_operation_xyz
x,y,z
-x,-y,-z
loop_
_atom_site_type_symbol
_atom_site_label
_atom_site_fract_x
_atom_site_fract_y
_atom_site_fract_z
Si Si1 0.530720 0.482351 0.638349
Si Si2 0.480765 0.775614 0.719749
Si Si3 0.897828 0.647493 0.275337
Si Si4 0.931859 0.711326 0.999066
Si Si5 0.076299 0.063511 0.638821
Si Si6 0.726155 0.219909 0.693960
Si Si7 0.721153 0.093140 0.361023
Si Si8 0.156193 0.360246 0.300934
O O1 0.500000 0.500000 0.500000
O O2 0.236658 0.444402 0.748881
O O3 0.595098 0.578261 0.731747
O O4 0.844872 0.411282 0.508012
O O5 0.629805 0.711960 0.497469
O O6 0.357284 0.870384 0.742218
O O7 0.723360 0.738064 0.731350
O O8 0.191193 0.756148 0.881053
O O9 0.957096 0.667985 0.111183
O O10 0.179838 0.680834 0.270530
O O11 0.615015 0.778055 0.162506
O O12 0.898299 0.643558 0.843361
O O13 0.405075 0.079270 0.515595
O O14 0.881720 0.161732 0.732114
O O15 0.062719 0.004718 0.743907
O O16 0.000000 0.000000 0.500000
O O17 0.813313 0.166736 0.484834
#
# Coordination Sequence:
#
# PCOD9009613 Si02
#       8
#     2   2   2   2   2   2   2   2
#     4  11  24  45  72 100 135 178 234 285 349 410
#     4  12  24  44  69 101 135 182 231 277 347 410
#     4  12  25  43  71  98 136 182 229 284 346 411
#     4  12  26  43  66 106 136 180 237 287 337 416
#     4   9  19  36  65 106 136 179 232 278 339 406
#     4  11  22  40  69 102 138 182 232 284 343 405
#     4  10  21  39  70  99 139 184 229 279 339 412
#     4  11  25  43  71  99 137 181 229 292 342 416
#
# _framework density 24.478079000000001
#
# number of rings (size 3 to 8) (size 9 to 14) (size 15 to 20)
#    0.000    1.000    5.000    0.750    3.500    0.500 
#    0.000    5.000    0.000   12.750    0.000    0.000 
#    0.000    0.000    0.000    0.000    0.000    0.000 
#
# Total GULP energy -89162.545633 kJ/mol
# GULP energy per Si atom -5572.659102 kJ/mol
# Density = 2.442237 g / cm^3
# Si number density = 24.478079 Si / 1000 Ang^3
#
#
#
# Elastic Constant Matrix: (Units=GPa)
#
#
# Indices 1 2 3 4 5 6 
#
# 1 90.4663 55.3051 23.2122 -17.3563 -1.3431 -2.1045
# 2 55.3051 97.8438 44.1568 -34.7611 1.9881 -3.3289
# 3 23.2122 44.1568 110.8658 -37.3230 -2.2639 -0.8930
# 4 -17.3563 -34.7611 -37.3230 34.1547 -0.2777 2.9746
# 5 -1.3431 1.9881 -2.2639 -0.2777 49.0136 1.0143
# 6 -2.1045 -3.3289 -0.8930 2.9746 1.0143 39.9377
#
#
#
# Elastic Compliance Matrix: (Units=1/GPa)
#
#
# Indices 1 2 3 4 5 6 
#
# 1 0.016998 -0.010256 -0.000100 -0.001917 0.000863 0.000159
# 2 -0.010256 0.022359 -0.001395 0.016000 -0.001164 0.000130
# 3 -0.000100 -0.001395 0.014458 0.014414 0.000822 -0.000893
# 4 -0.001917 0.016000 0.014414 0.060600 0.000369 -0.002968
# 5 0.000863 -0.001164 0.000822 0.000369 0.020525 -0.000582
# 6 0.000159 0.000130 -0.000893 -0.002968 -0.000582 0.025274
#
#
# Mechanical properties :
#
#
# Convention : Reuss Voigt Hill
#
# Bulk Modulus (GPa) = 32.98815 60.50264 46.74539
# Shear Modulus (GPa) = 25.79699 36.38798 31.09249
#
# Velocity S-wave (km/s) = 3.24988 3.85977 3.56788
# Velocity P-wave (km/s) = 5.25244 6.68090 6.00927
#
# Compressibility (1/GPa) = 0.03031392
#
# Stress axis : x y z
#
# Youngs Moduli (GPa) = 58.83029 44.72505 69.16430
#
# Poissons Ratio (x) = 0.45868 0.00695
# Poissons Ratio (y) = 0.60334 0.09645
# Poissons Ratio (z) = 0.00591 0.06237
#
# Static dielectric constant tensor:
#      x y z
#    x 2.046510 0.039080 -0.030250 
#    y 0.039080 2.116520 0.039280 
#    z -0.030250 0.039280 1.939210 
# 
# From -- ./inp_files/139107.got.cif
#   From: 2010.05.17/outbox.cif.g08.bks.cpg/sg2_70_cif.got.tgz:139107.got - 2010.06.03 11:33:40.
