data_PCOD9009814
_publ_section_title
;
Structure prediction by ZEFSAII (Michael W. Deem and Ramdas Pophale) SiO2 
 PCOD9009814
Probable space group: P -1
;
_chemical_formula_sum "Si O2"
_cell_formula_units_Z 14
_cell_length_a 22.841842
_cell_length_b 5.133413
_cell_length_c 7.692654
_cell_angle_alpha 96.917928
_cell_angle_beta 135.098304
_cell_angle_gamma 101.876812
_cell_volume 574.960884
_symmetry_space_group_name_H-M "P -1"
_symmetry_group_IT_number 2
_symmetry_cell_setting 'triclinic'
loop_
_space_group_symop_operation_xyz
x,y,z
-x,-y,-z
loop_
_atom_site_type_symbol
_atom_site_label
_atom_site_fract_x
_atom_site_fract_y
_atom_site_fract_z
Si Si1 0.763315 0.368134 0.275841
Si Si2 0.516380 0.694236 0.831012
Si Si3 0.642054 0.294030 0.317996
Si Si4 0.769274 0.924718 0.038997
Si Si5 0.809046 0.450987 0.921260
Si Si6 0.396953 0.591929 0.264680
Si Si7 0.936198 0.667765 0.865135
O O1 0.715294 0.456047 0.340069
O O2 0.867673 0.575984 0.548551
O O3 0.772387 0.063810 0.246601
O O4 0.684107 0.325413 0.962895
O O5 0.431346 0.583321 0.776004
O O6 0.472578 0.784530 0.576039
O O7 0.555655 0.485911 0.807283
O O8 0.590016 0.975691 0.101525
O O9 0.706138 0.311552 0.616342
O O10 0.813391 0.192520 0.022197
O O11 0.819597 0.718568 0.088606
O O12 0.661969 0.710813 0.781593
O O13 0.876321 0.574216 0.909720
O O14 0.000000 0.500000 0.000000
O O15 0.000000 0.000000 0.000000
#
# Coordination Sequence:
#
# PCOD9009814 Si02
#       7
#     2   2   2   2   2   2   2
#     4  11  25  43  74  97 142 186 228 289 363 414
#     4  10  21  40  60 100 145 188 256 285 330 393
#     4  10  21  40  61 101 138 193 238 294 340 398
#     4  12  22  45  68 103 134 197 227 274 346 421
#     4  11  25  45  75  98 145 183 228 281 358 412
#     4  11  23  42  65  99 143 196 235 294 336 399
#     4  11  27  51  79 111 136 171 227 293 355 430
#
# _framework density 24.349485999999999
#
# number of rings (size 3 to 8) (size 9 to 14) (size 15 to 20)
#    0.000    1.143    4.286    0.857    2.000    3.429 
#   10.286    4.286    0.000    0.000    0.000    0.000 
#    0.000    0.000    0.000    0.000    0.000    0.000 
#
# Total GULP energy -78065.026803 kJ/mol
# GULP energy per Si atom -5576.073343 kJ/mol
# Density = 2.429407 g / cm^3
# Si number density = 24.349486 Si / 1000 Ang^3
#
#
#
# Elastic Constant Matrix: (Units=GPa)
#
#
# Indices 1 2 3 4 5 6 
#
# 1 147.5750 38.2972 34.3267 3.8571 3.5752 -15.9973
# 2 38.2972 128.8585 43.3298 2.3822 6.6717 -10.0061
# 3 34.3267 43.3298 143.2978 9.1637 6.9882 -21.6102
# 4 3.8571 2.3822 9.1637 35.8444 -0.7377 -3.4179
# 5 3.5752 6.6717 6.9882 -0.7377 40.1480 -1.9431
# 6 -15.9973 -10.0061 -21.6102 -3.4179 -1.9431 36.7036
#
#
#
# Elastic Compliance Matrix: (Units=1/GPa)
#
#
# Indices 1 2 3 4 5 6 
#
# 1 0.007717 -0.001789 -0.000940 -0.000255 -0.000120 0.002292
# 2 -0.001789 0.009119 -0.002240 0.000173 -0.000946 0.000353
# 3 -0.000940 -0.002240 0.008608 -0.001601 -0.000885 0.003851
# 4 -0.000255 0.000173 -0.001601 0.028503 0.000878 0.001694
# 5 -0.000120 -0.000946 -0.000885 0.000878 0.025274 0.000588
# 6 0.002292 0.000353 0.003851 0.001694 0.000588 0.030797
#
#
# Mechanical properties :
#
#
# Convention : Reuss Voigt Hill
#
# Bulk Modulus (GPa) = 64.49425 72.40432 68.44929
# Shear Modulus (GPa) = 39.96021 42.79104 41.37562
#
# Velocity S-wave (km/s) = 4.05546 4.19665 4.12666
# Velocity P-wave (km/s) = 6.96228 7.29948 7.13288
#
# Compressibility (1/GPa) = 0.01550526
#
# Stress axis : x y z
#
# Youngs Moduli (GPa) = 129.58289 109.66609 116.17772
#
# Poissons Ratio (x) = 0.19614 0.10920
# Poissons Ratio (y) = 0.23176 0.26030
# Poissons Ratio (z) = 0.12180 0.24571
#
# Static dielectric constant tensor:
#      x y z
#    x 2.028680 0.105540 -0.085020 
#    y 0.105540 2.031680 -0.070080 
#    z -0.085020 -0.070080 1.956470 
# 
# From -- ./inp_files/355832.got.cif
#   From: 2010.05.17/outbox.cif.g08.bks.cpg/sg2_178_cif.got.tgz:355832.got - 2010.06.03 11:33:40.
