data_PCOD9009595
_publ_section_title
;
Structure prediction by ZEFSAII (Michael W. Deem and Ramdas Pophale) SiO2 
 PCOD9009595
Probable space group: P -1
;
_chemical_formula_sum "Si O2"
_cell_formula_units_Z 14
_cell_length_a 8.208892
_cell_length_b 12.911184
_cell_length_c 11.603398
_cell_angle_alpha 128.920302
_cell_angle_beta 41.846386
_cell_angle_gamma 118.433837
_cell_volume 638.245315
_symmetry_space_group_name_H-M "P -1"
_symmetry_group_IT_number 2
_symmetry_cell_setting 'triclinic'
loop_
_space_group_symop_operation_xyz
x,y,z
-x,-y,-z
loop_
_atom_site_type_symbol
_atom_site_label
_atom_site_fract_x
_atom_site_fract_y
_atom_site_fract_z
Si Si1 0.848543 0.822723 0.872517
Si Si2 0.148785 0.891082 0.989523
Si Si3 0.466656 0.653608 0.102861
Si Si4 0.360726 0.761470 0.485772
Si Si5 0.999443 0.212284 0.588273
Si Si6 0.219859 0.055238 0.577088
Si Si7 0.498627 0.341623 0.408962
O O1 0.065493 0.761935 0.637777
O O2 0.734277 0.958114 0.973856
O O3 0.655819 0.721669 0.961139
O O4 0.015311 0.867754 0.923323
O O5 0.938658 0.900232 0.200603
O O6 0.317518 0.762014 0.822734
O O7 0.468268 0.711718 0.273441
O O8 0.202077 0.679296 0.205950
O O9 0.500000 0.500000 0.000000
O O10 0.494244 0.905839 0.536719
O O11 0.446058 0.680766 0.498418
O O12 0.110850 0.138569 0.587579
O O13 0.236787 0.285729 0.465235
O O14 0.849615 0.096491 0.519474
O O15 0.500000 0.500000 0.500000
#
# Coordination Sequence:
#
# PCOD9009595 Si02
#       7
#     2   2   2   2   2   2   2
#     4  10  23  40  67 103 124 169 229 267 319 387
#     4  10  21  39  70  96 124 172 227 263 316 398
#     4  12  27  44  66  97 139 172 217 270 328 396
#     4  10  23  45  70  93 131 181 215 269 329 386
#     4  10  25  40  63 100 133 167 218 280 323 377
#     4  10  21  43  69  97 131 171 220 275 328 377
#     4  10  24  45  67  92 136 176 216 266 329 396
#
# _framework density 21.935140000000001
#
# number of rings (size 3 to 8) (size 9 to 14) (size 15 to 20)
#    0.000    1.714    1.429    0.857   14.000    3.429 
#    5.143    2.857    0.000    0.000    0.000    0.000 
#    0.000    0.000    0.000    0.000    0.000    0.000 
#
# Total GULP energy -78077.052983 kJ/mol
# GULP energy per Si atom -5576.932356 kJ/mol
# Density = 2.188521 g / cm^3
# Si number density = 21.935140 Si / 1000 Ang^3
#
#
#
# Elastic Constant Matrix: (Units=GPa)
#
#
# Indices 1 2 3 4 5 6 
#
# 1 50.5359 22.2858 28.9347 7.5653 -14.6826 -3.7813
# 2 22.2858 132.6260 78.3931 21.0320 -24.2998 -22.4226
# 3 28.9347 78.3931 114.3465 -2.7221 -27.6921 4.2832
# 4 7.5653 21.0320 -2.7221 37.4255 -9.3385 -4.1455
# 5 -14.6826 -24.2998 -27.6921 -9.3385 40.2014 -1.2985
# 6 -3.7813 -22.4226 4.2832 -4.1455 -1.2985 -0.8118
#
#
#
# Elastic Compliance Matrix: (Units=1/GPa)
#
#
# Indices 1 2 3 4 5 6 
#
# 1 0.023236 -0.003485 -0.002216 -0.003356 0.003673 -0.012398
# 2 -0.003485 0.002902 -0.000459 -0.005410 -0.002227 -0.035161
# 3 -0.002216 -0.000459 0.010846 0.007046 0.008986 0.029872
# 4 -0.003356 -0.005410 0.007046 0.034482 0.008760 0.012147
# 5 0.003673 -0.002227 0.008986 0.008760 0.032915 -0.005562
# 6 -0.012398 -0.035161 0.029872 0.012147 -0.005562 -0.098434
#
#
# Mechanical properties :
#
#
# Convention : Reuss Voigt Hill
#
# Bulk Modulus (GPa) = 40.54688 61.85951 51.20320
# Shear Modulus (GPa) = 188.76523 26.55601 107.66062
#
# Velocity S-wave (km/s) = 9.28671 3.48323 7.01341
# Velocity P-wave (km/s) = 11.55489 6.66630 9.43279
#
# Compressibility (1/GPa) = 0.02466281
#
# Stress axis : x y z
#
# Youngs Moduli (GPa) = 43.03716 344.56023 92.20271
#
# Poissons Ratio (x) = 1.20084 0.20435
# Poissons Ratio (y) = 0.14999 0.04231
# Poissons Ratio (z) = 0.09539 0.15812
#
# Static dielectric constant tensor:
#      x y z
#    x 1.829250 -0.001720 0.021100 
#    y -0.001720 1.838000 -0.006360 
#    z 0.021100 -0.006360 2.351960 
# 
# From -- ./inp_files/268290.got.cif
#   From: 2010.05.17/outbox.cif.g08.bks.cpg/sg2_135_cif.got.tgz:268290.got - 2010.06.03 11:33:40.
