data_PCOD9009088
_publ_section_title
;
Structure prediction by ZEFSAII (Michael W. Deem and Ramdas Pophale) SiO2 
 PCOD9009088
Probable space group: P -1
;
_chemical_formula_sum "Si O2"
_cell_formula_units_Z 16
_cell_length_a 9.755812
_cell_length_b 15.984922
_cell_length_c 7.697714
_cell_angle_alpha 85.450813
_cell_angle_beta 79.835317
_cell_angle_gamma 34.550837
_cell_volume 665.415976
_symmetry_space_group_name_H-M "P -1"
_symmetry_group_IT_number 2
_symmetry_cell_setting 'triclinic'
loop_
_space_group_symop_operation_xyz
x,y,z
-x,-y,-z
loop_
_atom_site_type_symbol
_atom_site_label
_atom_site_fract_x
_atom_site_fract_y
_atom_site_fract_z
Si Si1 0.519761 0.689449 0.149977
Si Si2 0.814733 0.388444 0.810188
Si Si3 0.931704 0.557756 0.252309
Si Si4 0.651896 0.753273 0.618010
Si Si5 0.114757 0.186641 0.463156
Si Si6 0.314573 0.572047 0.767329
Si Si7 0.880510 0.990414 0.650976
Si Si8 0.764373 0.150315 0.135753
O O1 0.775903 0.610392 0.111028
O O2 0.565625 0.581010 0.260318
O O3 0.328411 0.853372 0.232281
O O4 0.415672 0.716336 0.981876
O O5 0.002271 0.241416 0.673304
O O6 0.556792 0.509513 0.743450
O O7 0.924793 0.426711 0.780377
O O8 0.795313 0.372744 0.019613
O O9 0.724200 0.673515 0.432022
O O10 0.121915 0.391453 0.289693
O O11 0.399173 0.840943 0.737197
O O12 0.689733 0.834588 0.589125
O O13 0.889696 0.315481 0.355074
O O14 0.214530 0.045646 0.413195
O O15 0.105307 0.855837 0.751959
O O16 0.000000 0.000000 0.500000
O O17 0.000000 0.000000 0.000000
#
# Coordination Sequence:
#
# PCOD9009088 Si02
#       8
#     2   2   2   2   2   2   2   2
#     4  11  23  43  65 101 137 181 229 281 357 419
#     4  10  24  38  63 105 138 176 231 290 350 415
#     4  10  21  39  67 101 137 180 230 290 353 418
#     4  10  21  40  67 102 137 179 235 293 350 415
#     4  11  24  44  68 104 137 182 238 294 352 416
#     4  11  23  41  69 100 144 179 228 300 350 411
#     4  11  25  46  70  94 137 190 231 282 355 428
#     4  10  24  43  67  99 138 186 234 284 348 435
#
# _framework density 24.045109
#
# number of rings (size 3 to 8) (size 9 to 14) (size 15 to 20)
#    0.000    1.500    1.250    2.625    7.000    1.000 
#    2.250   10.625    0.000    0.000    0.000    0.000 
#    0.000    0.000    0.000    0.000    0.000    0.000 
#
# Total GULP energy -89486.780185 kJ/mol
# GULP energy per Si atom -5592.923762 kJ/mol
# Density = 2.399038 g / cm^3
# Si number density = 24.045109 Si / 1000 Ang^3
#
#
#
# Elastic Constant Matrix: (Units=GPa)
#
#
# Indices 1 2 3 4 5 6 
#
# 1 158.3579 47.7662 22.0115 22.1443 5.8354 -0.6488
# 2 47.7662 86.3728 29.7289 8.3966 11.0216 -0.9270
# 3 22.0115 29.7289 72.4314 14.4034 -4.8186 -5.6141
# 4 22.1443 8.3966 14.4034 45.7347 -10.5384 9.8243
# 5 5.8354 11.0216 -4.8186 -10.5384 42.3069 6.2490
# 6 -0.6488 -0.9270 -5.6141 9.8243 6.2490 51.5648
#
#
#
# Elastic Compliance Matrix: (Units=1/GPa)
#
#
# Indices 1 2 3 4 5 6 
#
# 1 0.008058 -0.003907 -0.000144 -0.003577 -0.001124 0.000833
# 2 -0.003907 0.016319 -0.005713 -0.000394 -0.004497 0.000242
# 3 -0.000144 -0.005713 0.017390 -0.004399 0.002042 0.002379
# 4 -0.003577 -0.000394 -0.004399 0.028437 0.008204 -0.006943
# 5 -0.001124 -0.004497 0.002042 0.008204 0.027952 -0.004823
# 6 0.000833 0.000242 0.002379 -0.006943 -0.004823 0.021574
#
#
# Mechanical properties :
#
#
# Convention : Reuss Voigt Hill
#
# Bulk Modulus (GPa) = 44.96515 57.35282 51.15898
# Shear Modulus (GPa) = 34.08984 42.43164 38.26074
#
# Velocity S-wave (km/s) = 3.76938 4.20535 3.99332
# Velocity P-wave (km/s) = 6.13883 6.89086 6.52569
#
# Compressibility (1/GPa) = 0.02223945
#
# Stress axis : x y z
#
# Youngs Moduli (GPa) = 124.09567 61.27725 57.50487
#
# Poissons Ratio (x) = 0.23939 0.00830
# Poissons Ratio (y) = 0.48479 0.32853
# Poissons Ratio (z) = 0.01791 0.35008
#
# Static dielectric constant tensor:
#      x y z
#    x 1.885150 -0.001590 0.019580 
#    y -0.001590 1.905280 -0.056510 
#    z 0.019580 -0.056510 1.907850 
# 
# From -- ./inp_files/207298.got.cif
#   From: 2010.05.17/outbox.cif.g08.bks.cpg/sg2_104_cif.got.tgz:207298.got - 2010.06.03 11:33:40.
