data_PCOD9009907
_publ_section_title
;
Structure prediction by ZEFSAII (Michael W. Deem and Ramdas Pophale) SiO2 
 PCOD9009907
Probable space group: P -1
;
_chemical_formula_sum "Si O2"
_cell_formula_units_Z 16
_cell_length_a 9.337616
_cell_length_b 13.981643
_cell_length_c 12.665401
_cell_angle_alpha 47.784152
_cell_angle_beta 34.606926
_cell_angle_gamma 60.911187
_cell_volume 686.678293
_symmetry_space_group_name_H-M "P -1"
_symmetry_group_IT_number 2
_symmetry_cell_setting 'triclinic'
loop_
_space_group_symop_operation_xyz
x,y,z
-x,-y,-z
loop_
_atom_site_type_symbol
_atom_site_label
_atom_site_fract_x
_atom_site_fract_y
_atom_site_fract_z
Si Si1 0.429850 0.856601 0.099229
Si Si2 0.377786 0.370669 0.303211
Si Si3 0.880776 0.900906 0.385314
Si Si4 0.693083 0.248447 0.525931
Si Si5 0.673085 0.950445 0.681599
Si Si6 0.145089 0.903448 0.915935
Si Si7 0.897654 0.543252 0.803584
Si Si8 0.227123 0.364786 0.628663
O O1 0.412694 0.763554 0.279539
O O2 0.144636 0.852045 0.230219
O O3 0.500000 0.000000 0.000000
O O4 0.620954 0.858087 0.884265
O O5 0.340063 0.212817 0.437058
O O6 0.230191 0.408998 0.260445
O O7 0.248406 0.407116 0.462417
O O8 0.668528 0.443245 0.068756
O O9 0.888411 0.921202 0.491675
O O10 0.858442 0.037579 0.242784
O O11 0.693615 0.102220 0.589259
O O12 0.493468 0.318837 0.530429
O O13 0.971794 0.335472 0.295856
O O14 0.424654 0.916844 0.783692
O O15 0.990780 0.760433 0.129340
O O16 0.000000 0.000000 0.000000
O O17 0.133883 0.473097 0.677642
#
# Coordination Sequence:
#
# PCOD9009907 Si02
#       8
#     2   2   2   2   2   2   2   2
#     4  10  21  40  60  93 136 170 213 270 327 397
#     4  11  24  47  70  97 134 174 230 282 315 400
#     4  12  22  41  70 100 134 171 219 277 340 395
#     4  11  23  44  66  98 141 173 223 280 325 402
#     4  11  23  39  67 102 136 175 214 274 349 392
#     4  12  20  40  70 100 133 169 213 280 340 394
#     4  11  26  46  67  97 134 181 232 267 326 395
#     4  12  24  45  73  96 134 182 218 277 339 391
#
# _framework density 23.300576
#
# number of rings (size 3 to 8) (size 9 to 14) (size 15 to 20)
#    0.000    0.750    5.000    2.625    0.000    3.500 
#    4.500    3.750    0.000    0.000    0.000    0.000 
#    0.000    0.000    0.000    0.000    0.000    0.000 
#
# Total GULP energy -89546.524528 kJ/mol
# GULP energy per Si atom -5596.657783 kJ/mol
# Density = 2.324754 g / cm^3
# Si number density = 23.300576 Si / 1000 Ang^3
#
#
#
# Elastic Constant Matrix: (Units=GPa)
#
#
# Indices 1 2 3 4 5 6 
#
# 1 80.6902 -5.8802 31.9692 -3.3127 -17.8692 6.0050
# 2 -5.8802 67.5306 30.5080 4.7573 -7.3192 12.4441
# 3 31.9692 30.5080 137.5119 -7.7339 -10.0563 21.3697
# 4 -3.3127 4.7573 -7.7339 27.5178 13.2954 -2.2098
# 5 -17.8692 -7.3192 -10.0563 13.2954 42.8149 2.0161
# 6 6.0050 12.4441 21.3697 -2.2098 2.0161 25.7117
#
#
#
# Elastic Compliance Matrix: (Units=1/GPa)
#
#
# Indices 1 2 3 4 5 6 
#
# 1 0.016290 0.005153 -0.003940 -0.004374 0.008304 -0.004051
# 2 0.005153 0.020217 -0.004232 -0.008471 0.007657 -0.008799
# 3 -0.003940 -0.004232 0.010030 0.003013 -0.000710 -0.005053
# 4 -0.004374 -0.008471 0.003013 0.047291 -0.017631 0.008064
# 5 0.008304 0.007657 -0.000710 -0.017631 0.033874 -0.009227
# 6 -0.004051 -0.008799 -0.005053 0.008064 -0.009227 0.049714
#
#
# Mechanical properties :
#
#
# Convention : Reuss Voigt Hill
#
# Bulk Modulus (GPa) = 24.69202 44.32520 34.50861
# Shear Modulus (GPa) = 25.38682 34.48460 29.93571
#
# Velocity S-wave (km/s) = 3.30439 3.85124 3.58825
# Velocity P-wave (km/s) = 5.01785 6.23222 5.65771
#
# Compressibility (1/GPa) = 0.04049892
#
# Stress axis : x y z
#
# Youngs Moduli (GPa) = 61.38646 49.46371 99.70325
#
# Poissons Ratio (x) = -0.25488 0.39279
# Poissons Ratio (y) = -0.31632 0.42197
# Poissons Ratio (z) = 0.24184 0.20934
#
# Static dielectric constant tensor:
#      x y z
#    x 1.923440 0.004060 -0.007780 
#    y 0.004060 1.880750 0.010350 
#    z -0.007780 0.010350 1.951540 
# 
# From -- ./inp_files/398522.got.cif
#   From: 2010.05.17/outbox.cif.g08.bks.cpg/sg2_200_cif.got.tgz:398522.got - 2010.06.03 11:33:40.
