data_PCOD9009157
_publ_section_title
;
Structure prediction by ZEFSAII (Michael W. Deem and Ramdas Pophale) SiO2 
 PCOD9009157
Probable space group: P -1
;
_chemical_formula_sum "Si O2"
_cell_formula_units_Z 16
_cell_length_a 9.414987
_cell_length_b 9.340295
_cell_length_c 24.875155
_cell_angle_alpha 142.719634
_cell_angle_beta 52.391231
_cell_angle_gamma 99.407975
_cell_volume 778.003950
_symmetry_space_group_name_H-M "P -1"
_symmetry_group_IT_number 2
_symmetry_cell_setting 'triclinic'
loop_
_space_group_symop_operation_xyz
x,y,z
-x,-y,-z
loop_
_atom_site_type_symbol
_atom_site_label
_atom_site_fract_x
_atom_site_fract_y
_atom_site_fract_z
Si Si1 0.402972 0.398546 0.203404
Si Si2 0.819816 0.323914 0.549996
Si Si3 0.769170 0.731803 0.901473
Si Si4 0.461426 0.307809 0.382555
Si Si5 0.758566 0.813517 0.410794
Si Si6 0.616661 0.146844 0.723334
Si Si7 0.416509 0.681105 0.017523
Si Si8 0.855558 0.326802 0.331021
O O1 0.275814 0.475806 0.312861
O O2 0.284673 0.338582 0.165972
O O3 0.382358 0.691822 0.281572
O O4 0.681273 0.074289 0.034175
O O5 0.652586 0.552296 0.607772
O O6 0.804647 0.052251 0.479313
O O7 0.097157 0.143185 0.418526
O O8 0.050069 0.443981 0.755187
O O9 0.596178 0.739570 0.982642
O O10 0.697563 0.260093 0.319958
O O11 0.260218 0.553214 0.547091
O O12 0.511535 0.990069 0.288336
O O13 0.801651 0.611319 0.393224
O O14 0.500000 0.000000 0.500000
O O15 0.487692 0.425344 0.880074
O O16 0.500000 0.500000 0.000000
O O17 0.138483 0.009494 0.174795
#
# Coordination Sequence:
#
# PCOD9009157 Si02
#       8
#     2   2   2   2   2   2   2   2
#     4  10  21  39  67  93 126 170 218 277 319 376
#     4  12  23  40  65  99 131 171 226 270 328 381
#     4  10  23  41  66  97 126 165 229 265 327 392
#     4  11  26  42  61 100 135 174 220 268 327 402
#     4  12  23  43  71  97 132 173 221 273 325 393
#     4  11  23  40  63  97 133 168 224 271 322 391
#     4  11  24  41  70  98 132 175 218 274 331 389
#     4  11  25  44  69  93 136 179 217 268 334 387
#
# _framework density 20.565450999999999
#
# number of rings (size 3 to 8) (size 9 to 14) (size 15 to 20)
#    0.000    1.000    3.750    4.500    5.250    0.500 
#    0.000    0.625    2.750    0.000    0.000    0.000 
#    0.000    0.000    0.000    0.000    0.000    0.000 
#
# Total GULP energy -89368.845197 kJ/mol
# GULP energy per Si atom -5585.552825 kJ/mol
# Density = 2.051864 g / cm^3
# Si number density = 20.565451 Si / 1000 Ang^3
#
#
#
# Elastic Constant Matrix: (Units=GPa)
#
#
# Indices 1 2 3 4 5 6 
#
# 1 41.4148 38.5518 25.6361 1.7120 -12.9147 0.5055
# 2 38.5518 112.7022 21.4428 -4.8235 -8.1221 -11.6067
# 3 25.6361 21.4428 121.5760 4.6173 -28.8369 -14.4824
# 4 1.7120 -4.8235 4.6173 28.3913 4.9232 5.3399
# 5 -12.9147 -8.1221 -28.8369 4.9232 33.4396 -0.6048
# 6 0.5055 -11.6067 -14.4824 5.3399 -0.6048 39.0446
#
#
#
# Elastic Compliance Matrix: (Units=1/GPa)
#
#
# Indices 1 2 3 4 5 6 
#
# 1 0.043608 -0.014079 -0.004883 -0.004850 0.009822 -0.005746
# 2 -0.014079 0.014005 0.000403 0.002744 -0.002019 0.004088
# 3 -0.004883 0.000403 0.012255 -0.004308 0.009513 0.005465
# 4 -0.004850 0.002744 -0.004308 0.039759 -0.010889 -0.006326
# 5 0.009822 -0.002019 0.009513 -0.010889 0.043104 0.004958
# 6 -0.005746 0.004088 0.005465 -0.006326 0.004958 0.029870
#
#
# Mechanical properties :
#
#
# Convention : Reuss Voigt Hill
#
# Bulk Modulus (GPa) = 30.53501 49.66160 40.09831
# Shear Modulus (GPa) = 21.67905 32.84593 27.26249
#
# Velocity S-wave (km/s) = 3.25029 4.00076 3.64489
# Velocity P-wave (km/s) = 5.38199 6.74848 6.10359
#
# Compressibility (1/GPa) = 0.03274929
#
# Stress axis : x y z
#
# Youngs Moduli (GPa) = 22.93170 71.40092 81.59966
#
# Poissons Ratio (x) = 1.00528 0.39843
# Poissons Ratio (y) = 0.32286 -0.03286
# Poissons Ratio (z) = 0.11197 -0.02875
#
# Static dielectric constant tensor:
#      x y z
#    x 1.737550 -0.004710 -0.002710 
#    y -0.004710 1.824120 0.038840 
#    z -0.002710 0.038840 1.779840 
# 
# From -- ./inp_files/606871.got.cif
#   From: 2010.05.17/outbox.cif.g08.bks.cpg/sg2_304_cif.got.tgz:606871.got - 2010.06.03 11:33:40.
