data_PCOD9009263
_publ_section_title
;
Structure prediction by ZEFSAII (Michael W. Deem and Ramdas Pophale) SiO2 
 PCOD9009263
Probable space group: P -1
;
_chemical_formula_sum "Si O2"
_cell_formula_units_Z 14
_cell_length_a 7.454063
_cell_length_b 8.497059
_cell_length_c 19.875282
_cell_angle_alpha 142.993029
_cell_angle_beta 52.745351
_cell_angle_gamma 101.374712
_cell_volume 483.676514
_symmetry_space_group_name_H-M "P -1"
_symmetry_group_IT_number 2
_symmetry_cell_setting 'triclinic'
loop_
_space_group_symop_operation_xyz
x,y,z
-x,-y,-z
loop_
_atom_site_type_symbol
_atom_site_label
_atom_site_fract_x
_atom_site_fract_y
_atom_site_fract_z
Si Si1 0.239211 0.679790 0.567574
Si Si2 0.018334 0.298489 0.134349
Si Si3 0.329844 0.895272 0.808649
Si Si4 0.597036 0.892718 0.363945
Si Si5 0.485537 0.688612 0.135101
Si Si6 0.377448 0.379535 0.160146
Si Si7 0.940802 0.719083 0.481697
O O1 0.500000 0.500000 0.500000
O O2 0.024979 0.613303 0.621456
O O3 0.203303 0.008820 0.673587
O O4 0.819368 0.974939 0.658829
O O5 0.893973 0.183495 0.177344
O O6 0.792683 0.506411 0.197779
O O7 0.107912 0.507584 0.216537
O O8 0.278173 0.997104 0.932670
O O9 0.621572 0.556579 0.609334
O O10 0.329433 0.175784 0.868167
O O11 0.500000 0.000000 0.500000
O O12 0.330574 0.077257 0.437981
O O13 0.561943 0.450507 0.099049
O O14 0.500000 0.500000 0.000000
O O15 0.218185 0.601563 0.337293
O O16 0.500000 0.000000 0.000000
#
# Coordination Sequence:
#
# PCOD9009263 Si02
#       7
#     2   2   2   2   2   2   2
#     4   9  18  37  63  99 141 170 224 286 353 416
#     4  11  22  40  71 104 139 175 234 289 359 417
#     4  10  21  39  67  98 134 180 225 293 339 420
#     4  11  19  38  73 108 138 175 232 300 356 417
#     4  11  24  48  72  97 149 194 239 291 351 431
#     4  12  26  47  71 102 145 187 235 296 360 430
#     4  10  23  44  69 105 143 188 238 289 357 427
#
# _framework density 28.944967999999999
#
# number of rings (size 3 to 8) (size 9 to 14) (size 15 to 20)
#    0.000    1.429    4.286    1.286    0.000    3.429 
#    0.000    7.857    0.000    0.000    0.000    0.000 
#    0.000    0.000    0.000    0.000    0.000    0.000 
#
# Total GULP energy -78327.122949 kJ/mol
# GULP energy per Si atom -5594.794496 kJ/mol
# Density = 2.887909 g / cm^3
# Si number density = 28.944968 Si / 1000 Ang^3
#
#
#
# Elastic Constant Matrix: (Units=GPa)
#
#
# Indices 1 2 3 4 5 6 
#
# 1 105.2697 40.4631 26.4312 -2.1713 13.1499 -10.7218
# 2 40.4631 253.3450 51.9474 9.8375 8.8792 44.8234
# 3 26.4312 51.9474 136.0917 2.3457 17.2049 -11.8900
# 4 -2.1713 9.8375 2.3457 56.4067 -6.6729 7.7155
# 5 13.1499 8.8792 17.2049 -6.6729 52.7172 -5.1152
# 6 -10.7218 44.8234 -11.8900 7.7155 -5.1152 51.8431
#
#
#
# Elastic Compliance Matrix: (Units=1/GPa)
#
#
# Indices 1 2 3 4 5 6 
#
# 1 0.011179 -0.002268 -0.000742 0.000112 -0.001771 0.003911
# 2 -0.002268 0.005871 -0.002290 -0.000221 -0.000292 -0.006066
# 3 -0.000742 -0.002290 0.008975 -0.000768 -0.002087 0.003793
# 4 0.000112 -0.000221 -0.000768 0.018419 0.002352 -0.002471
# 5 -0.001771 -0.000292 -0.002087 0.002352 0.020544 0.001085
# 6 0.003911 -0.006066 0.003793 -0.002471 0.001085 0.026687
#
#
# Mechanical properties :
#
#
# Convention : Reuss Voigt Hill
#
# Bulk Modulus (GPa) = 64.82563 81.37666 73.10114
# Shear Modulus (GPa) = 46.54776 57.25103 51.89940
#
# Velocity S-wave (km/s) = 4.01452 4.45221 4.23902
# Velocity P-wave (km/s) = 6.62822 7.38951 7.01920
#
# Compressibility (1/GPa) = 0.01542600
#
# Stress axis : x y z
#
# Youngs Moduli (GPa) = 89.45218 170.33006 111.42506
#
# Poissons Ratio (x) = 0.38624 0.08268
# Poissons Ratio (y) = 0.20284 0.25514
# Poissons Ratio (z) = 0.06637 0.39002
#
# Static dielectric constant tensor:
#      x y z
#    x 2.534150 -0.118570 -0.093840 
#    y -0.118570 2.242470 0.069680 
#    z -0.093840 0.069680 2.347930 
# 
# From -- ./inp_files/200735.got.cif
#   From: 2010.05.17/outbox.cif.g08.bks.cpg/sg2_101_cif.got.tgz:200735.got - 2010.06.03 11:33:40.
