data_PCOD9009139
_publ_section_title
;
Structure prediction by ZEFSAII (Michael W. Deem and Ramdas Pophale) SiO2 
 PCOD9009139
Probable space group: P -1
;
_chemical_formula_sum "Si O2"
_cell_formula_units_Z 11
_cell_length_a 16.042748
_cell_length_b 5.656113
_cell_length_c 5.393730
_cell_angle_alpha 106.450580
_cell_angle_beta 91.257406
_cell_angle_gamma 69.684489
_cell_volume 438.601540
_symmetry_space_group_name_H-M "P -1"
_symmetry_group_IT_number 2
_symmetry_cell_setting 'triclinic'
loop_
_space_group_symop_operation_xyz
x,y,z
-x,-y,-z
loop_
_atom_site_type_symbol
_atom_site_label
_atom_site_fract_x
_atom_site_fract_y
_atom_site_fract_z
Si Si1 0.911829 0.937781 0.051061
Si Si2 0.000000 0.000000 0.500000
Si Si3 0.241673 0.501569 0.843317
Si Si4 0.841408 0.563519 0.671445
Si Si5 0.600951 0.306177 0.164521
Si Si6 0.560789 0.171183 0.620919
O O1 0.941467 0.840370 0.298834
O O2 0.825419 0.195174 0.094573
O O3 0.899717 0.738121 0.794874
O O4 0.000000 0.000000 0.000000
O O5 0.910574 0.265279 0.568896
O O6 0.216208 0.367027 0.561845
O O7 0.338086 0.522262 0.835648
O O8 0.219843 0.406842 0.078562
O O9 0.623495 0.157646 0.385110
O O10 0.501512 0.519907 0.257837
O O11 0.605092 0.113964 0.877515
O O12 0.500000 0.000000 0.500000
#
# Coordination Sequence:
#
# PCOD9009139 Si02
#       6
#     2   1   2   2   2   2
#     4  11  24  40  62  87 120 164 209 256 307 361
#     4  10  22  40  60  84 116 156 212 254 304 354
#     4  11  25  41  60  93 123 162 201 258 306 360
#     4  11  25  40  63  87 121 164 209 255 310 358
#     4  10  22  40  61  93 128 151 206 246 295 372
#     4  10  21  39  67  91 120 165 195 245 302 364
#
# _framework density 25.079713999999999
#
# number of rings (size 3 to 8) (size 9 to 14) (size 15 to 20)
#    0.000    1.455    1.818    2.182    2.545    4.364 
#    0.000    0.000    0.000    0.000    0.000    0.000 
#    0.000    0.000    0.000    0.000    0.000    0.000 
#
# Total GULP energy -61288.109814 kJ/mol
# GULP energy per Si atom -5571.646347 kJ/mol
# Density = 2.502263 g / cm^3
# Si number density = 25.079714 Si / 1000 Ang^3
#
#
#
# Elastic Constant Matrix: (Units=GPa)
#
#
# Indices 1 2 3 4 5 6 
#
# 1 84.5832 8.4108 53.5500 -11.2005 7.7351 17.8226
# 2 8.4108 44.4784 44.1562 -7.0642 -1.9073 -3.0510
# 3 53.5500 44.1562 218.6650 -16.5322 28.5769 18.5323
# 4 -11.2005 -7.0642 -16.5322 32.0726 16.8830 1.2887
# 5 7.7351 -1.9073 28.5769 16.8830 46.4500 4.6067
# 6 17.8226 -3.0510 18.5323 1.2887 4.6067 45.3420
#
#
#
# Elastic Compliance Matrix: (Units=1/GPa)
#
#
# Indices 1 2 3 4 5 6 
#
# 1 0.015490 0.000162 -0.002668 0.005567 -0.002470 -0.004895
# 2 0.000162 0.030083 -0.007144 0.000127 0.005125 0.004356
# 3 -0.002668 -0.007144 0.008098 0.005175 -0.006491 -0.002229
# 4 0.005567 0.000127 0.005175 0.046914 -0.020809 -0.003514
# 5 -0.002470 0.005125 -0.006491 -0.020809 0.033593 0.001147
# 6 -0.004895 0.004356 -0.002229 -0.003514 0.001147 0.025166
#
#
# Mechanical properties :
#
#
# Convention : Reuss Voigt Hill
#
# Bulk Modulus (GPa) = 29.09435 62.21786 45.65610
# Shear Modulus (GPa) = 26.30194 40.88023 33.59108
#
# Velocity S-wave (km/s) = 3.24193 4.04172 3.66371
# Velocity P-wave (km/s) = 5.06354 6.82954 6.01174
#
# Compressibility (1/GPa) = 0.03437094
#
# Stress axis : x y z
#
# Youngs Moduli (GPa) = 64.55867 33.24126 123.49409
#
# Poissons Ratio (x) = -0.00537 0.32943
# Poissons Ratio (y) = -0.01043 0.88221
# Poissons Ratio (z) = 0.17221 0.23747
#
# Static dielectric constant tensor:
#      x y z
#    x 1.919570 0.001650 0.067330 
#    y 0.001650 1.975160 -0.032530 
#    z 0.067330 -0.032530 2.338340 
# 
# From -- ./inp_files/3410.got.cif
#   From: 2010.05.17/outbox.cif.g08.bks.cpg/sg2_2_cif.got.tgz:3410.got - 2010.06.03 11:33:40.
