data_PCOD9009603
_publ_section_title
;
Structure prediction by ZEFSAII (Michael W. Deem and Ramdas Pophale) SiO2 
 PCOD9009603
Probable space group: P -1
;
_chemical_formula_sum "Si O2"
_cell_formula_units_Z 12
_cell_length_a 12.291432
_cell_length_b 9.410272
_cell_length_c 9.673845
_cell_angle_alpha 43.885984
_cell_angle_beta 130.197459
_cell_angle_gamma 139.549477
_cell_volume 491.411017
_symmetry_space_group_name_H-M "P -1"
_symmetry_group_IT_number 2
_symmetry_cell_setting 'triclinic'
loop_
_space_group_symop_operation_xyz
x,y,z
-x,-y,-z
loop_
_atom_site_type_symbol
_atom_site_label
_atom_site_fract_x
_atom_site_fract_y
_atom_site_fract_z
Si Si1 0.142541 0.383687 0.314161
Si Si2 0.758271 0.098603 0.080618
Si Si3 0.990562 0.282040 0.562403
Si Si4 0.342113 0.140046 0.561815
Si Si5 0.511767 0.765803 0.658253
Si Si6 0.253708 0.233122 0.936023
O O1 0.107983 0.377869 0.453172
O O2 0.259813 0.288902 0.433341
O O3 0.951699 0.194774 0.224543
O O4 0.219382 0.653290 0.126692
O O5 0.635406 0.965640 0.204415
O O6 0.707768 0.908746 0.047853
O O7 0.061926 0.157851 0.804648
O O8 0.000000 0.500000 0.500000
O O9 0.801442 0.096216 0.478442
O O10 0.491758 0.286978 0.470550
O O11 0.365453 0.526064 0.789098
O O12 0.500000 0.000000 0.500000
O O13 0.683735 0.811147 0.838037
#
# Coordination Sequence:
#
# PCOD9009603 Si02
#       6
#     2   2   2   2   2   2
#     4  10  21  40  66 102 135 163 212 279 331 388
#     4  10  21  39  70  97 132 167 219 267 333 393
#     4  11  22  40  72 102 132 169 219 273 333 392
#     4  11  22  44  67  97 133 167 218 278 325 389
#     4  11  28  45  64  93 140 178 223 272 326 387
#     4  11  24  45  66  97 134 177 222 268 328 396
#
# _framework density 24.419476
#
# number of rings (size 3 to 8) (size 9 to 14) (size 15 to 20)
#    0.000    1.333    3.333    2.000    4.667    8.000 
#    0.000    1.667    0.000    0.000    0.000    0.000 
#    0.000    0.000    0.000    0.000    0.000    0.000 
#
# Total GULP energy -67258.281525 kJ/mol
# GULP energy per Si atom -5604.856794 kJ/mol
# Density = 2.436390 g / cm^3
# Si number density = 24.419476 Si / 1000 Ang^3
#
#
#
# Elastic Constant Matrix: (Units=GPa)
#
#
# Indices 1 2 3 4 5 6 
#
# 1 100.1641 25.1891 40.1845 -10.6819 -12.7491 -16.9609
# 2 25.1891 101.7334 23.2178 -7.9875 5.9878 -26.7472
# 3 40.1845 23.2178 155.0970 -14.4837 -6.5486 -11.3791
# 4 -10.6819 -7.9875 -14.4837 46.6583 0.6540 6.9000
# 5 -12.7491 5.9878 -6.5486 0.6540 34.6959 1.5863
# 6 -16.9609 -26.7472 -11.3791 6.9000 1.5863 47.9586
#
#
#
# Elastic Compliance Matrix: (Units=1/GPa)
#
#
# Indices 1 2 3 4 5 6 
#
# 1 0.012602 -0.002087 -0.002467 0.001350 0.004392 0.002368
# 2 -0.002087 0.012376 -0.000969 0.000504 -0.003368 0.005973
# 3 -0.002467 -0.000969 0.007410 0.001546 0.000625 0.000102
# 4 0.001350 0.000504 0.001546 0.022619 0.000372 -0.002141
# 5 0.004392 -0.003368 0.000625 0.000372 0.031185 -0.001262
# 6 0.002368 0.005973 0.000102 -0.002141 -0.001262 0.025394
#
#
# Mechanical properties :
#
#
# Convention : Reuss Voigt Hill
#
# Bulk Modulus (GPa) = 46.85733 59.35303 53.10518
# Shear Modulus (GPa) = 38.53644 43.75609 41.14627
#
# Velocity S-wave (km/s) = 3.97684 4.23762 4.10930
# Velocity P-wave (km/s) = 6.34958 6.94994 6.65653
#
# Compressibility (1/GPa) = 0.02134138
#
# Stress axis : x y z
#
# Youngs Moduli (GPa) = 79.35047 80.80365 134.95005
#
# Poissons Ratio (x) = 0.16864 0.33299
# Poissons Ratio (y) = 0.16561 0.13074
# Poissons Ratio (z) = 0.19580 0.07828
#
# Static dielectric constant tensor:
#      x y z
#    x 1.954490 0.112270 -0.006770 
#    y 0.112270 1.964640 0.022370 
#    z -0.006770 0.022370 1.900090 
# 
# From -- ./inp_files/174246.got.cif
#   From: 2010.05.17/outbox.cif.g08.bks.cpg/sg2_88_cif.got.tgz:174246.got - 2010.06.03 11:33:40.
