data_PCOD9009133
_publ_section_title
;
Structure prediction by ZEFSAII (Michael W. Deem and Ramdas Pophale) SiO2 
 PCOD9009133
Probable space group: P -1
;
_chemical_formula_sum "Si O2"
_cell_formula_units_Z 16
_cell_length_a 22.449769
_cell_length_b 18.143260
_cell_length_c 12.053177
_cell_angle_alpha 27.650126
_cell_angle_beta 143.541450
_cell_angle_gamma 159.768366
_cell_volume 776.764730
_symmetry_space_group_name_H-M "P -1"
_symmetry_group_IT_number 2
_symmetry_cell_setting 'triclinic'
loop_
_space_group_symop_operation_xyz
x,y,z
-x,-y,-z
loop_
_atom_site_type_symbol
_atom_site_label
_atom_site_fract_x
_atom_site_fract_y
_atom_site_fract_z
Si Si1 0.269930 0.422391 0.035564
Si Si2 0.428973 0.725249 0.198531
Si Si3 0.588305 0.041761 0.687632
Si Si4 0.835101 0.172651 0.201155
Si Si5 0.162889 0.151393 0.471091
Si Si6 0.224068 0.039003 0.362711
Si Si7 0.510993 0.895451 0.333860
Si Si8 0.070330 0.457346 0.579936
O O1 0.174380 0.238481 0.248303
O O2 0.271707 0.283709 0.132247
O O3 0.467889 0.734002 0.944769
O O4 0.169535 0.446488 0.808790
O O5 0.336366 0.444905 0.397315
O O6 0.395467 0.709492 0.299822
O O7 0.638317 0.986802 0.146111
O O8 0.369352 0.801400 0.936423
O O9 0.500000 0.000000 0.500000
O O10 0.576243 0.150572 0.625275
O O11 0.788777 0.276582 0.644735
O O12 0.844697 0.045807 0.294388
O O13 0.842861 0.110713 0.418987
O O14 0.000000 0.500000 0.000000
O O15 0.000000 0.000000 0.500000
O O16 0.383666 0.128407 0.453469
O O17 0.079749 0.821598 0.343916
O O18 0.000000 0.500000 0.500000
#
# Coordination Sequence:
#
# PCOD9009133 Si02
#       8
#     2   2   2   2   2   2   2   2
#     4  10  22  44  61  93 131 164 213 270 314 388
#     4  10  22  40  65  89 134 168 212 268 320 380
#     4  10  21  40  67  90 121 168 213 259 319 381
#     4  10  24  39  63  93 127 168 216 262 324 385
#     4  11  24  39  65  95 132 169 215 264 323 380
#     4  10  22  40  63  88 127 166 206 266 321 376
#     4  10  21  39  67  89 125 168 215 254 325 377
#     4  11  24  41  66  94 124 165 217 265 327 380
#
# _framework density 20.598258999999999
#
# number of rings (size 3 to 8) (size 9 to 14) (size 15 to 20)
#    0.000    1.750    1.250    2.250    7.000    1.000 
#    0.000    6.875    0.000    0.000    0.000    0.000 
#    0.000    0.000    0.000    0.000    0.000    0.000 
#
# Total GULP energy -89326.659367 kJ/mol
# GULP energy per Si atom -5582.916210 kJ/mol
# Density = 2.055138 g / cm^3
# Si number density = 20.598259 Si / 1000 Ang^3
#
#
#
# Elastic Constant Matrix: (Units=GPa)
#
#
# Indices 1 2 3 4 5 6 
#
# 1 201.1327 67.5277 48.0269 -17.2114 25.4926 6.0958
# 2 67.5277 84.0646 38.2416 -17.1174 17.5039 -0.8827
# 3 48.0269 38.2416 74.9720 -13.5528 25.1062 10.1930
# 4 -17.2114 -17.1174 -13.5528 26.7460 -9.5936 -1.5735
# 5 25.4926 17.5039 25.1062 -9.5936 40.8273 -6.6247
# 6 6.0958 -0.8827 10.1930 -1.5735 -6.6247 30.2285
#
#
#
# Elastic Compliance Matrix: (Units=1/GPa)
#
#
# Indices 1 2 3 4 5 6 
#
# 1 0.007181 -0.004774 -0.001310 0.000149 -0.001847 -0.001543
# 2 -0.004774 0.020115 -0.006861 0.006915 0.000919 0.004425
# 3 -0.001310 -0.006861 0.023376 0.001741 -0.011882 -0.010332
# 4 0.000149 0.006915 0.001741 0.045564 0.007151 0.003524
# 5 -0.001847 0.000919 -0.011882 0.007151 0.036306 0.012735
# 6 -0.001543 0.004425 -0.010332 0.003524 0.012735 0.039980
#
#
# Mechanical properties :
#
#
# Convention : Reuss Voigt Hill
#
# Bulk Modulus (GPa) = 40.35324 74.19576 57.27450
# Shear Modulus (GPa) = 24.19286 33.31855 28.75571
#
# Velocity S-wave (km/s) = 3.43083 4.02623 3.74040
# Velocity P-wave (km/s) = 5.94367 7.59688 6.82055
#
# Compressibility (1/GPa) = 0.02478116
#
# Stress axis : x y z
#
# Youngs Moduli (GPa) = 139.25731 49.71496 42.77911
#
# Poissons Ratio (x) = 0.23733 0.05604
# Poissons Ratio (y) = 0.66478 0.29353
# Poissons Ratio (z) = 0.18242 0.34112
#
# Static dielectric constant tensor:
#      x y z
#    x 1.736410 -0.003580 0.006310 
#    y -0.003580 1.757620 0.013870 
#    z 0.006310 0.013870 1.774830 
# 
# From -- ./inp_files/472342.got.cif
#   From: 2010.05.17/outbox.cif.g08.bks.cpg/sg2_237_cif.got.tgz:472342.got - 2010.06.03 11:33:40.
