data_PCOD9009000
_publ_section_title
;
Structure prediction by ZEFSAII (Michael W. Deem and Ramdas Pophale) SiO2 
 PCOD9009000
Probable space group: P -1
;
_chemical_formula_sum "Si O2"
_cell_formula_units_Z 16
_cell_length_a 5.130392
_cell_length_b 16.805118
_cell_length_c 11.505634
_cell_angle_alpha 42.943050
_cell_angle_beta 83.724860
_cell_angle_gamma 82.890773
_cell_volume 670.354547
_symmetry_space_group_name_H-M "P -1"
_symmetry_group_IT_number 2
_symmetry_cell_setting 'triclinic'
loop_
_space_group_symop_operation_xyz
x,y,z
-x,-y,-z
loop_
_atom_site_type_symbol
_atom_site_label
_atom_site_fract_x
_atom_site_fract_y
_atom_site_fract_z
Si Si1 0.978072 0.231806 0.837062
Si Si2 0.817941 0.574146 0.772096
Si Si3 0.148702 0.739877 0.433344
Si Si4 0.176629 0.108898 0.180366
Si Si5 0.030953 0.678059 0.892867
Si Si6 0.581298 0.239111 0.383809
Si Si7 0.666967 0.983972 0.390581
Si Si8 0.476018 0.363146 0.656081
O O1 0.984202 0.193449 0.741734
O O2 0.687774 0.293909 0.804732
O O3 0.184472 0.331445 0.729646
O O4 0.075783 0.135219 0.026972
O O5 0.519710 0.627790 0.723732
O O6 0.979038 0.635028 0.598483
O O7 0.905909 0.624503 0.839933
O O8 0.860941 0.435255 0.919579
O O9 0.230469 0.806073 0.472967
O O10 0.419550 0.689141 0.415732
O O11 0.153507 0.232173 0.119903
O O12 0.954261 0.030398 0.329902
O O13 0.471377 0.052735 0.235454
O O14 0.265408 0.752064 0.752900
O O15 0.344863 0.154462 0.483777
O O16 0.500000 0.000000 0.500000
O O17 0.500000 0.500000 0.500000
#
# Coordination Sequence:
#
# PCOD9009000 Si02
#       8
#     2   2   2   2   2   2   2   2
#     4  10  23  42  62  95 139 170 223 275 328 400
#     4  10  21  41  64 100 134 175 223 268 351 401
#     4   9  23  38  66  94 132 179 217 272 329 408
#     4  12  26  45  68 103 135 178 225 285 337 394
#     4  10  23  38  65  99 136 174 216 285 337 412
#     4  11  22  42  68  94 135 177 227 279 334 404
#     4  12  26  45  72  98 133 179 234 278 339 394
#     4  10  21  39  66  96 132 179 224 269 328 402
#
# _framework density 23.867965999999999
#
# number of rings (size 3 to 8) (size 9 to 14) (size 15 to 20)
#    0.750    0.750    1.250    3.375    5.250    1.000 
#    0.000    1.250    0.000    0.000    0.000    0.000 
#    0.000    0.000    0.000    0.000    0.000    0.000 
#
# Total GULP energy -89390.560985 kJ/mol
# GULP energy per Si atom -5586.910062 kJ/mol
# Density = 2.381364 g / cm^3
# Si number density = 23.867966 Si / 1000 Ang^3
#
#
#
# Elastic Constant Matrix: (Units=GPa)
#
#
# Indices 1 2 3 4 5 6 
#
# 1 65.4615 13.7087 -6.7550 -3.2251 9.9145 5.2517
# 2 13.7087 46.0792 33.2117 -14.5629 2.4933 -5.7777
# 3 -6.7550 33.2117 88.3075 11.4765 17.0336 6.4571
# 4 -3.2251 -14.5629 11.4765 37.0013 -1.0632 7.8401
# 5 9.9145 2.4933 17.0336 -1.0632 41.4129 -4.8741
# 6 5.2517 -5.7777 6.4571 7.8401 -4.8741 22.0125
#
#
#
# Elastic Compliance Matrix: (Units=1/GPa)
#
#
# Indices 1 2 3 4 5 6 
#
# 1 0.023894 -0.021114 0.014281 -0.007747 -0.012335 -0.015403
# 2 -0.021114 0.065707 -0.036000 0.030142 0.019798 0.026492
# 3 0.014281 -0.036000 0.033371 -0.019635 -0.017787 -0.019590
# 4 -0.007747 0.030142 -0.019635 0.044177 0.009472 0.001882
# 5 -0.012335 0.019798 -0.017787 0.009472 0.035569 0.017859
# 6 -0.015403 0.026492 -0.019590 0.001882 0.017859 0.065088
#
#
# Mechanical properties :
#
#
# Convention : Reuss Voigt Hill
#
# Bulk Modulus (GPa) = 26.80576 31.13098 28.96837
# Shear Modulus (GPa) = 13.66469 30.73087 22.19778
#
# Velocity S-wave (km/s) = 2.39532 3.59212 3.05294
# Velocity P-wave (km/s) = 4.34802 5.50234 4.95888
#
# Compressibility (1/GPa) = 0.03730542
#
# Stress axis : x y z
#
# Youngs Moduli (GPa) = 41.85220 15.21912 29.96624
#
# Poissons Ratio (x) = 0.32133 -0.42794
# Poissons Ratio (y) = 0.88366 1.07878
# Poissons Ratio (z) = -0.59768 0.54789
#
# Static dielectric constant tensor:
#      x y z
#    x 1.945320 0.033830 0.048130 
#    y 0.033830 1.924760 0.036200 
#    z 0.048130 0.036200 1.925760 
# 
# From -- ./inp_files/368837.got.cif
#   From: 2010.05.17/outbox.cif.g08.bks.cpg/sg2_185_cif.got.tgz:368837.got - 2010.06.03 11:33:40.
