data_PCOD9009840
_publ_section_title
;
Structure prediction by ZEFSAII (Michael W. Deem and Ramdas Pophale) SiO2 
 PCOD9009840
Probable space group: P -1
;
_chemical_formula_sum "Si O2"
_cell_formula_units_Z 16
_cell_length_a 17.417411
_cell_length_b 8.667457
_cell_length_c 8.708439
_cell_angle_alpha 68.502825
_cell_angle_beta 105.765163
_cell_angle_gamma 54.718360
_cell_volume 770.241224
_symmetry_space_group_name_H-M "P -1"
_symmetry_group_IT_number 2
_symmetry_cell_setting 'triclinic'
loop_
_space_group_symop_operation_xyz
x,y,z
-x,-y,-z
loop_
_atom_site_type_symbol
_atom_site_label
_atom_site_fract_x
_atom_site_fract_y
_atom_site_fract_z
Si Si1 0.070831 0.382512 0.247589
Si Si2 0.515375 0.830697 0.446180
Si Si3 0.464533 0.901662 0.857346
Si Si4 0.294051 0.376501 0.770448
Si Si5 0.646681 0.127829 0.468910
Si Si6 0.280264 0.666437 0.415179
Si Si7 0.944743 0.255022 0.301116
Si Si8 0.987071 0.843619 0.977327
O O1 0.021990 0.304216 0.347927
O O2 0.214412 0.138147 0.392832
O O3 0.000000 0.500000 0.000000
O O4 0.041649 0.614692 0.198323
O O5 0.521202 0.932799 0.261885
O O6 0.404235 0.886204 0.403384
O O7 0.637842 0.528688 0.610090
O O8 0.500000 0.000000 0.500000
O O9 0.353810 0.110883 0.838301
O O10 0.430733 0.821389 0.737164
O O11 0.597873 0.677319 0.082873
O O12 0.241674 0.568305 0.531501
O O13 0.189496 0.512721 0.787927
O O14 0.643455 0.324883 0.441967
O O15 0.157598 0.954418 0.198176
O O16 0.948026 0.242002 0.122402
O O17 0.000000 0.000000 0.500000
O O18 0.000000 0.000000 0.000000
#
# Coordination Sequence:
#
# PCOD9009840 Si02
#       8
#     2   2   2   2   2   2   2   2
#     4  10  22  39  62  94 127 169 209 260 322 383
#     4   9  21  35  60  87 116 161 206 255 322 378
#     4   9  22  37  60  88 115 161 210 265 314 376
#     4  10  21  40  60  86 121 165 214 257 319 387
#     4  11  20  38  61  89 123 157 207 266 322 380
#     4  11  21  40  59  89 129 158 212 270 323 377
#     4  11  21  42  68  90 130 178 209 264 323 389
#     4  11  25  39  63  95 129 171 216 269 321 383
#
# _framework density 20.772714000000001
#
# number of rings (size 3 to 8) (size 9 to 14) (size 15 to 20)
#    0.000    1.750    3.750    0.375    8.750    1.500 
#    0.000    3.750    0.000    0.000    0.000    0.000 
#    0.000    0.000    0.000    0.000    0.000    0.000 
#
# Total GULP energy -89092.256929 kJ/mol
# GULP energy per Si atom -5568.266058 kJ/mol
# Density = 2.072543 g / cm^3
# Si number density = 20.772714 Si / 1000 Ang^3
#
#
#
# Elastic Constant Matrix: (Units=GPa)
#
#
# Indices 1 2 3 4 5 6 
#
# 1 123.4327 59.1822 21.7160 -12.3081 -10.0410 -15.3885
# 2 59.1822 128.1615 12.3084 -6.3148 0.2028 -23.3964
# 3 21.7160 12.3084 34.3564 -10.1500 -2.3406 -13.3787
# 4 -12.3081 -6.3148 -10.1500 27.2716 9.1187 11.5095
# 5 -10.0410 0.2028 -2.3406 9.1187 28.7604 -6.5873
# 6 -15.3885 -23.3964 -13.3787 11.5095 -6.5873 38.9234
#
#
#
# Elastic Compliance Matrix: (Units=1/GPa)
#
#
# Indices 1 2 3 4 5 6 
#
# 1 0.011723 -0.004834 -0.005030 0.001024 0.003457 0.000283
# 2 -0.004834 0.010862 0.000772 -0.001675 0.000064 0.005389
# 3 -0.005030 0.000772 0.038042 0.007733 0.001045 0.009441
# 4 0.001024 -0.001675 0.007733 0.053499 -0.019887 -0.017129
# 5 0.003457 0.000064 0.001045 -0.019887 0.045897 0.015413
# 6 0.000283 0.005389 0.009441 -0.017129 0.015413 0.039961
#
#
# Mechanical properties :
#
#
# Convention : Reuss Voigt Hill
#
# Bulk Modulus (GPa) = 23.56073 52.48486 38.02280
# Shear Modulus (GPa) = 21.52257 31.84067 26.68162
#
# Velocity S-wave (km/s) = 3.22234 3.91936 3.58782
# Velocity P-wave (km/s) = 5.02110 6.76779 5.95879
#
# Compressibility (1/GPa) = 0.04244350
#
# Stress axis : x y z
#
# Youngs Moduli (GPa) = 85.30462 92.06574 26.28694
#
# Poissons Ratio (x) = 0.44501 0.13222
# Poissons Ratio (y) = 0.41233 -0.02030
# Poissons Ratio (z) = 0.42907 -0.07109
#
# Static dielectric constant tensor:
#      x y z
#    x 1.791950 0.048450 -0.009080 
#    y 0.048450 1.862490 -0.011210 
#    z -0.009080 -0.011210 1.830070 
# 
# From -- ./inp_files/297685.got.cif
#   From: 2010.05.17/outbox.cif.g08.bks.cpg/sg2_149_cif.got.tgz:297685.got - 2010.06.03 11:33:40.
