data_PCOD9009762
_publ_section_title
;
Structure prediction by ZEFSAII (Michael W. Deem and Ramdas Pophale) SiO2 
 PCOD9009762
Probable space group: P -1
;
_chemical_formula_sum "Si O2"
_cell_formula_units_Z 16
_cell_length_a 16.865072
_cell_length_b 19.989065
_cell_length_c 8.341849
_cell_angle_alpha 132.424639
_cell_angle_beta 57.939363
_cell_angle_gamma 159.892508
_cell_volume 652.608421
_symmetry_space_group_name_H-M "P -1"
_symmetry_group_IT_number 2
_symmetry_cell_setting 'triclinic'
loop_
_space_group_symop_operation_xyz
x,y,z
-x,-y,-z
loop_
_atom_site_type_symbol
_atom_site_label
_atom_site_fract_x
_atom_site_fract_y
_atom_site_fract_z
Si Si1 0.125065 0.890432 0.024913
Si Si2 0.422447 0.014399 0.740256
Si Si3 0.404441 0.638850 0.274556
Si Si4 0.153890 0.168707 0.345388
Si Si5 0.286686 0.735744 0.640565
Si Si6 0.068890 0.571390 0.222403
Si Si7 0.123403 0.973250 0.825922
Si Si8 0.679613 0.762618 0.423118
O O1 0.217739 0.057919 0.299283
O O2 0.342319 0.013439 0.959268
O O3 0.864078 0.620700 0.940101
O O4 0.059574 0.853071 0.849052
O O5 0.458042 0.953600 0.702886
O O6 0.186465 0.772651 0.487920
O O7 0.679143 0.266107 0.775788
O O8 0.374394 0.711179 0.501304
O O9 0.633117 0.841660 0.231654
O O10 0.468649 0.615776 0.296174
O O11 0.349357 0.335108 0.554717
O O12 0.187698 0.122862 0.098961
O O13 0.091472 0.201507 0.359729
O O14 0.889840 0.915630 0.318837
O O15 0.000000 0.500000 0.500000
O O16 0.203037 0.691268 0.831967
O O17 0.000000 0.500000 0.000000
#
# Coordination Sequence:
#
# PCOD9009762 Si02
#       8
#     2   2   2   2   2   2   2   2
#     4  11  22  38  61  91 121 154 207 242 298 343
#     4  10  23  39  60  83 123 166 199 246 294 345
#     4  11  22  39  60  90 121 157 205 242 299 344
#     4   8  16  42  59  87 124 152 190 240 319 353
#     4  10  21  40  59  83 125 165 199 244 290 353
#     4  10  22  39  59  85 112 163 204 245 291 346
#     4   9  20  36  67  87 118 161 190 250 297 364
#     4   9  20  38  65  87 122 155 190 256 293 364
#
# _framework density 24.516999999999999
#
# number of rings (size 3 to 8) (size 9 to 14) (size 15 to 20)
#    0.000    2.250    2.500    0.000    7.000    0.500 
#    0.000   28.750    0.000    0.000    0.000    0.000 
#    0.000    0.000    0.000    0.000    0.000    0.000 
#
# Total GULP energy -89069.020867 kJ/mol
# GULP energy per Si atom -5566.813804 kJ/mol
# Density = 2.446120 g / cm^3
# Si number density = 24.517000 Si / 1000 Ang^3
#
#
#
# Elastic Constant Matrix: (Units=GPa)
#
#
# Indices 1 2 3 4 5 6 
#
# 1 48.2077 19.3167 11.6460 -10.2852 1.4509 15.7400
# 2 19.3167 128.3435 22.6153 -18.8514 2.7542 24.5510
# 3 11.6460 22.6153 64.9127 -16.6182 12.9364 3.7344
# 4 -10.2852 -18.8514 -16.6182 35.1809 -3.2597 -0.4396
# 5 1.4509 2.7542 12.9364 -3.2597 28.4580 -11.4763
# 6 15.7400 24.5510 3.7344 -0.4396 -11.4763 40.9120
#
#
#
# Elastic Compliance Matrix: (Units=1/GPa)
#
#
# Indices 1 2 3 4 5 6 
#
# 1 0.026289 -0.000663 -0.001462 0.006114 -0.004227 -0.010703
# 2 -0.000663 0.010003 -0.001485 0.004176 -0.002285 -0.006208
# 3 -0.001462 -0.001485 0.020077 0.007369 -0.009229 -0.002889
# 4 0.006114 0.004176 0.007369 0.035643 -0.002322 -0.005799
# 5 -0.004227 -0.002285 -0.009229 -0.002322 0.046279 0.016797
# 6 -0.010703 -0.006208 -0.002889 -0.005799 0.016797 0.037199
#
#
# Mechanical properties :
#
#
# Convention : Reuss Voigt Hill
#
# Bulk Modulus (GPa) = 20.34607 38.73554 29.54080
# Shear Modulus (GPa) = 25.11408 33.43591 29.27499
#
# Velocity S-wave (km/s) = 3.20402 3.69695 3.45928
# Velocity P-wave (km/s) = 4.69089 5.83584 5.29441
#
# Compressibility (1/GPa) = 0.04914955
#
# Stress axis : x y z
#
# Youngs Moduli (GPa) = 38.03932 99.97126 49.80841
#
# Poissons Ratio (x) = 0.06627 0.07282
# Poissons Ratio (y) = 0.02521 0.07394
# Poissons Ratio (z) = 0.05561 0.14841
#
# Static dielectric constant tensor:
#      x y z
#    x 1.682700 0.750270 -0.252250 
#    y 0.750270 0.799910 0.545230 
#    z -0.252250 0.545230 1.700090 
# 
# From -- ./inp_files/337824.got.cif
#   From: 2010.05.17/outbox.cif.g08.bks.cpg/sg2_169_cif.got.tgz:337824.got - 2010.06.03 11:33:40.
