data_PCOD9009092
_publ_section_title
;
Structure prediction by ZEFSAII (Michael W. Deem and Ramdas Pophale) SiO2 
 PCOD9009092
Probable space group: P -1
;
_chemical_formula_sum "Si O2"
_cell_formula_units_Z 12
_cell_length_a 8.105534
_cell_length_b 6.200986
_cell_length_c 13.307362
_cell_angle_alpha 131.829445
_cell_angle_beta 92.554377
_cell_angle_gamma 99.382068
_cell_volume 480.914593
_symmetry_space_group_name_H-M "P -1"
_symmetry_group_IT_number 2
_symmetry_cell_setting 'triclinic'
loop_
_space_group_symop_operation_xyz
x,y,z
-x,-y,-z
loop_
_atom_site_type_symbol
_atom_site_label
_atom_site_fract_x
_atom_site_fract_y
_atom_site_fract_z
Si Si1 0.821501 0.114941 0.799486
Si Si2 0.836781 0.797492 0.061063
Si Si3 0.687860 0.104645 0.997140
Si Si4 0.914117 0.237464 0.501929
Si Si5 0.351797 0.269241 0.783070
Si Si6 0.646592 0.199214 0.637243
O O1 0.736925 0.014121 0.659328
O O2 0.003026 0.068525 0.820810
O O3 0.847893 0.474595 0.922323
O O4 0.692123 0.002740 0.851470
O O5 0.663263 0.795390 0.118338
O O6 0.825991 0.988327 0.024047
O O7 0.734463 0.456547 0.130741
O O8 0.500000 0.000000 0.000000
O O9 0.803827 0.369228 0.623463
O O10 0.000000 0.500000 0.500000
O O11 0.768780 0.005745 0.363284
O O12 0.000000 0.000000 0.500000
O O13 0.535110 0.347939 0.757390
O O14 0.500000 0.000000 0.500000
#
# Coordination Sequence:
#
# PCOD9009092 Si02
#       6
#     2   2   2   2   2   2
#     4  10  21  41  65 102 140 185 242 290 367 429
#     4  10  21  39  67 101 143 185 232 302 359 439
#     4  11  22  38  67 105 147 189 234 298 372 438
#     4  11  26  50  74 106 140 195 250 309 370 439
#     4  10  23  44  67 104 143 187 241 302 365 442
#     4  10  22  46  72 100 141 188 242 304 366 440
#
# _framework density 24.952456999999999
#
# number of rings (size 3 to 8) (size 9 to 14) (size 15 to 20)
#    0.000    1.667    0.000    3.500    2.333    2.667 
#   15.000    2.500    0.000    0.000    0.000    0.000 
#    0.000    0.000    0.000    0.000    0.000    0.000 
#
# Total GULP energy -66857.388701 kJ/mol
# GULP energy per Si atom -5571.449058 kJ/mol
# Density = 2.489566 g / cm^3
# Si number density = 24.952457 Si / 1000 Ang^3
#
#
#
# Elastic Constant Matrix: (Units=GPa)
#
#
# Indices 1 2 3 4 5 6 
#
# 1 144.9255 71.4901 43.7127 -32.8545 -5.8973 17.9510
# 2 71.4901 127.3843 35.8832 -32.5365 2.6926 15.0178
# 3 43.7127 35.8832 86.4636 -21.5778 3.7838 2.1815
# 4 -32.8545 -32.5365 -21.5778 42.4580 3.4535 -0.7762
# 5 -5.8973 2.6926 3.7838 3.4535 56.9566 -20.3693
# 6 17.9510 15.0178 2.1815 -0.7762 -20.3693 48.0830
#
#
#
# Elastic Compliance Matrix: (Units=1/GPa)
#
#
# Indices 1 2 3 4 5 6 
#
# 1 0.010966 -0.004096 -0.002846 0.003822 0.000410 -0.002450
# 2 -0.004096 0.012472 -0.001476 0.005776 -0.002422 -0.003232
# 3 -0.002846 -0.001476 0.014732 0.004268 -0.001334 0.000359
# 4 0.003822 0.005776 0.004268 0.033331 -0.003788 -0.004491
# 5 0.000410 -0.002422 -0.001334 -0.003788 0.021506 0.009713
# 6 -0.002450 -0.003232 0.000359 -0.004491 0.009713 0.026747
#
#
# Mechanical properties :
#
#
# Convention : Reuss Voigt Hill
#
# Bulk Modulus (GPa) = 46.87722 73.43838 60.15780
# Shear Modulus (GPa) = 34.79397 43.34535 39.06966
#
# Velocity S-wave (km/s) = 3.73823 4.17240 3.96127
# Velocity P-wave (km/s) = 6.12045 7.25996 6.71442
#
# Compressibility (1/GPa) = 0.02133232
#
# Stress axis : x y z
#
# Youngs Moduli (GPa) = 91.19368 80.17707 67.88078
#
# Poissons Ratio (x) = 0.32840 0.19321
# Poissons Ratio (y) = 0.37353 0.10022
# Poissons Ratio (z) = 0.25957 0.11838
#
# Static dielectric constant tensor:
#      x y z
#    x 2.019160 -0.020420 -0.062890 
#    y -0.020420 2.244160 -0.010480 
#    z -0.062890 -0.010480 1.967540 
# 
# From -- ./inp_files/28567.got.cif
#   From: 2010.05.17/outbox.cif.g08.bks.cpg/sg2_15_cif.got.tgz:28567.got - 2010.06.03 11:33:40.
