data_PCOD9009630
_publ_section_title
;
Structure prediction by ZEFSAII (Michael W. Deem and Ramdas Pophale) SiO2 
 PCOD9009630
Probable space group: P -1
;
_chemical_formula_sum "Si O2"
_cell_formula_units_Z 16
_cell_length_a 16.406095
_cell_length_b 11.508346
_cell_length_c 13.604114
_cell_angle_alpha 57.781177
_cell_angle_beta 143.951133
_cell_angle_gamma 147.436983
_cell_volume 718.910545
_symmetry_space_group_name_H-M "P -1"
_symmetry_group_IT_number 2
_symmetry_cell_setting 'triclinic'
loop_
_space_group_symop_operation_xyz
x,y,z
-x,-y,-z
loop_
_atom_site_type_symbol
_atom_site_label
_atom_site_fract_x
_atom_site_fract_y
_atom_site_fract_z
Si Si1 0.967742 0.528610 0.346561
Si Si2 0.723403 0.421909 0.494543
Si Si3 0.887751 0.859599 0.849100
Si Si4 0.395075 0.101050 0.489610
Si Si5 0.502995 0.697662 0.301526
Si Si6 0.054091 0.129854 0.394453
Si Si7 0.409345 0.353311 0.078180
Si Si8 0.517714 0.733049 0.080476
O O1 0.055672 0.483988 0.377444
O O2 0.000000 0.500000 0.500000
O O3 0.157300 0.809826 0.391680
O O4 0.693727 0.356012 0.138516
O O5 0.565013 0.203736 0.516153
O O6 0.817386 0.625246 0.559130
O O7 0.570770 0.365129 0.280347
O O8 0.693567 0.817932 0.655433
O O9 0.742640 0.597969 0.812000
O O10 0.000000 0.000000 0.000000
O O11 0.131479 0.073204 0.924463
O O12 0.509997 0.209122 0.661763
O O13 0.748426 0.800747 0.503492
O O14 0.539211 0.797925 0.185303
O O15 0.000000 0.000000 0.500000
O O16 0.775515 0.942800 0.179625
O O17 0.430956 0.502142 0.105305
O O18 0.500000 0.500000 0.000000
#
# Coordination Sequence:
#
# PCOD9009630 Si02
#       8
#     2   2   2   2   2   2   2   2
#     4  12  29  49  71 100 140 197 238 285 357 429
#     4  12  25  47  69 103 146 187 234 294 355 412
#     4  12  20  41  72 105 142 177 231 287 354 414
#     4  12  25  45  71  99 144 187 233 296 351 423
#     4  11  23  42  75 110 138 181 235 296 361 412
#     4  10  21  39  71 106 143 170 229 299 358 400
#     4  12  24  38  71 107 138 182 237 292 343 415
#     4  11  23  44  70 101 143 184 232 294 354 416
#
# _framework density 22.255898999999999
#
# number of rings (size 3 to 8) (size 9 to 14) (size 15 to 20)
#    0.000    0.500    7.500    1.500    5.250    0.500 
#    0.000    0.625    0.000    0.000    0.000    0.000 
#    0.000    0.000    0.000    0.000    0.000    0.000 
#
# Total GULP energy -89398.286900 kJ/mol
# GULP energy per Si atom -5587.392931 kJ/mol
# Density = 2.220524 g / cm^3
# Si number density = 22.255899 Si / 1000 Ang^3
#
#
#
# Elastic Constant Matrix: (Units=GPa)
#
#
# Indices 1 2 3 4 5 6 
#
# 1 111.1088 27.5729 45.9419 -2.3987 -2.6103 26.2941
# 2 27.5729 71.2002 37.5480 25.9460 8.6065 23.4307
# 3 45.9419 37.5480 131.1391 20.8807 8.8392 13.6482
# 4 -2.3987 25.9460 20.8807 28.2192 10.8355 11.0348
# 5 -2.6103 8.6065 8.8392 10.8355 34.1061 -1.0779
# 6 26.2941 23.4307 13.6482 11.0348 -1.0779 34.8318
#
#
#
# Elastic Compliance Matrix: (Units=1/GPa)
#
#
# Indices 1 2 3 4 5 6 
#
# 1 0.014967 -0.004531 -0.004940 0.013706 -0.001123 -0.010691
# 2 -0.004531 0.026803 -0.002034 -0.020558 -0.000283 -0.007308
# 3 -0.004940 -0.002034 0.010847 -0.007849 -0.000077 0.003331
# 4 0.013706 -0.020558 -0.007849 0.074224 -0.015862 -0.017447
# 5 -0.001123 -0.000283 -0.000077 -0.015862 0.034591 0.007164
# 6 -0.010691 -0.007308 0.003331 -0.017447 0.007164 0.046140
#
#
# Mechanical properties :
#
#
# Convention : Reuss Voigt Hill
#
# Bulk Modulus (GPa) = 33.77657 59.50817 46.64237
# Shear Modulus (GPa) = 20.79426 32.92377 26.85902
#
# Velocity S-wave (km/s) = 3.05999 3.85038 3.47771
# Velocity P-wave (km/s) = 5.26252 6.82374 6.09334
#
# Compressibility (1/GPa) = 0.02960632
#
# Stress axis : x y z
#
# Youngs Moduli (GPa) = 66.81420 37.30941 92.19470
#
# Poissons Ratio (x) = 0.16907 0.45542
# Poissons Ratio (y) = 0.30277 0.18750
# Poissons Ratio (z) = 0.33005 0.07588
#
# Static dielectric constant tensor:
#      x y z
#    x 1.831740 -0.780020 -0.187660 
#    y -0.780020 -6.456580 -1.285880 
#    z -0.187660 -1.285880 1.634050 
# 
# From -- ./inp_files/381020.got.cif
#   From: 2010.05.17/outbox.cif.g08.bks.cpg/sg2_191_cif.got.tgz:381020.got - 2010.06.03 11:33:40.
