data_PCOD9009204
_publ_section_title
;
Structure prediction by ZEFSAII (Michael W. Deem and Ramdas Pophale) SiO2 
 PCOD9009204
Probable space group: P -1
;
_chemical_formula_sum "Si O2"
_cell_formula_units_Z 14
_cell_length_a 12.043826
_cell_length_b 21.831890
_cell_length_c 15.438949
_cell_angle_alpha 154.024307
_cell_angle_beta 153.592184
_cell_angle_gamma 20.125796
_cell_volume 574.862886
_symmetry_space_group_name_H-M "P -1"
_symmetry_group_IT_number 2
_symmetry_cell_setting 'triclinic'
loop_
_space_group_symop_operation_xyz
x,y,z
-x,-y,-z
loop_
_atom_site_type_symbol
_atom_site_label
_atom_site_fract_x
_atom_site_fract_y
_atom_site_fract_z
Si Si1 0.442534 0.237142 0.912241
Si Si2 0.637931 0.486000 0.671957
Si Si3 0.831592 0.518428 0.547292
Si Si4 0.831163 0.196138 0.796166
Si Si5 0.360815 0.112736 0.327849
Si Si6 0.345836 0.944878 0.705216
Si Si7 0.435865 0.415384 0.958604
O O1 0.475764 0.319059 0.953805
O O2 0.047766 0.336808 0.767178
O O3 0.666075 0.011136 0.786716
O O4 0.496393 0.315280 0.131941
O O5 0.500000 0.500000 0.500000
O O6 0.482536 0.432890 0.560972
O O7 0.659059 0.716896 0.635153
O O8 0.015960 0.336840 0.382025
O O9 0.118850 0.463043 0.745576
O O10 0.645165 0.118043 0.562004
O O11 0.763852 0.271115 0.942047
O O12 0.655820 0.384477 0.852966
O O13 0.211527 0.039920 0.826372
O O14 0.519442 0.000257 0.203822
O O15 0.000000 0.000000 0.500000
#
# Coordination Sequence:
#
# PCOD9009204 Si02
#       7
#     2   2   2   2   2   2   2
#     4  11  25  44  75 104 144 191 233 293 367 429
#     4  11  24  44  71 106 142 187 238 294 354 427
#     4  11  23  42  68 101 141 188 240 301 353 420
#     4   9  21  40  68  97 142 188 234 287 354 420
#     4  10  23  42  67 106 140 190 238 294 360 424
#     4  10  21  39  67  95 133 183 238 287 355 415
#     4  10  22  43  68 107 139 186 241 286 361 430
#
# _framework density 24.353632000000001
#
# number of rings (size 3 to 8) (size 9 to 14) (size 15 to 20)
#    0.000    1.714    1.429    2.143    8.000    3.429 
#    5.143    1.429    0.000    0.000    0.000    0.000 
#    0.000    0.000    0.000    0.000    0.000    0.000 
#
# Total GULP energy -78296.357096 kJ/mol
# GULP energy per Si atom -5592.596935 kJ/mol
# Density = 2.429820 g / cm^3
# Si number density = 24.353632 Si / 1000 Ang^3
#
#
#
# Elastic Constant Matrix: (Units=GPa)
#
#
# Indices 1 2 3 4 5 6 
#
# 1 161.0923 47.0675 44.4207 11.9838 3.2904 -1.2644
# 2 47.0675 104.8648 45.1848 18.8252 -6.3008 -2.1842
# 3 44.4207 45.1848 111.8219 -0.8423 10.1353 3.2923
# 4 11.9838 18.8252 -0.8423 44.4777 -2.1764 9.0336
# 5 3.2904 -6.3008 10.1353 -2.1764 34.4334 13.7157
# 6 -1.2644 -2.1842 3.2923 9.0336 13.7157 31.3364
#
#
#
# Elastic Compliance Matrix: (Units=1/GPa)
#
#
# Indices 1 2 3 4 5 6 
#
# 1 0.007581 -0.002323 -0.002016 -0.001411 -0.001149 0.001266
# 2 -0.002323 0.014021 -0.005132 -0.005563 0.003320 0.001573
# 3 -0.002016 -0.005132 0.012210 0.002946 -0.003791 -0.000912
# 4 -0.001411 -0.005563 0.002946 0.027623 0.004200 -0.010556
# 5 -0.001149 0.003320 -0.003791 0.004200 0.038018 -0.017268
# 6 0.001266 0.001573 -0.000912 -0.010556 -0.017268 0.042769
#
#
# Mechanical properties :
#
#
# Convention : Reuss Voigt Hill
#
# Bulk Modulus (GPa) = 67.25397 72.34720 69.80059
# Shear Modulus (GPa) = 30.09846 38.12324 34.11085
#
# Velocity S-wave (km/s) = 3.51934 3.96081 3.74658
# Velocity P-wave (km/s) = 6.64755 7.11961 6.88762
#
# Compressibility (1/GPa) = 0.01486901
#
# Stress axis : x y z
#
# Youngs Moduli (GPa) = 131.91287 71.32224 81.89951
#
# Poissons Ratio (x) = 0.16569 0.16514
# Poissons Ratio (y) = 0.30645 0.42029
# Poissons Ratio (z) = 0.26599 0.36601
#
# Static dielectric constant tensor:
#      x y z
#    x 1.964400 0.024560 -0.050630 
#    y 0.024560 1.951370 -0.007150 
#    z -0.050630 -0.007150 1.993570 
# 
# From -- ./inp_files/418801.got.cif
#   From: 2010.05.17/outbox.cif.g08.bks.cpg/sg2_210_cif.got.tgz:418801.got - 2010.06.03 11:33:40.
