data_PCOD9009414
_publ_section_title
;
Structure prediction by ZEFSAII (Michael W. Deem and Ramdas Pophale) SiO2 
 PCOD9009414
Probable space group: P -1
;
_chemical_formula_sum "Si O2"
_cell_formula_units_Z 15
_cell_length_a 9.063018
_cell_length_b 20.679714
_cell_length_c 12.485507
_cell_angle_alpha 28.108476
_cell_angle_beta 70.081583
_cell_angle_gamma 51.378241
_cell_volume 707.629241
_symmetry_space_group_name_H-M "P -1"
_symmetry_group_IT_number 2
_symmetry_cell_setting 'triclinic'
loop_
_space_group_symop_operation_xyz
x,y,z
-x,-y,-z
loop_
_atom_site_type_symbol
_atom_site_label
_atom_site_fract_x
_atom_site_fract_y
_atom_site_fract_z
Si Si1 0.210709 0.051980 0.904784
Si Si2 0.896104 0.912165 0.661141
Si Si3 0.257186 0.648925 0.658310
Si Si4 0.725219 0.069814 0.703545
Si Si5 0.330160 0.667839 0.385085
Si Si6 0.197929 0.229312 0.447944
Si Si7 0.710625 0.526932 0.889256
Si Si8 0.500000 0.000000 0.500000
O O1 0.277180 0.127110 0.694985
O O2 0.932451 0.214995 0.737926
O O3 0.284276 0.015107 0.064085
O O4 0.313323 0.843492 0.138251
O O5 0.681318 0.003198 0.506758
O O6 0.824486 0.938873 0.763973
O O7 0.000000 0.000000 0.500000
O O8 0.101067 0.681835 0.912198
O O9 0.144965 0.870501 0.384761
O O10 0.401280 0.572528 0.625942
O O11 0.047105 0.682932 0.637248
O O12 0.379367 0.502732 0.943442
O O13 0.485812 0.292176 0.403755
O O14 0.500000 0.500000 0.500000
O O15 0.175196 0.406768 0.193136
O O16 0.364295 0.077012 0.534535
#
# Coordination Sequence:
#
# PCOD9009414 Si02
#       8
#     2   2   2   2   2   2   2   1
#     4   9  22  42  63  93 140 181 229 285 352 416
#     4  12  26  45  70 104 140 181 239 298 352 422
#     4  10  21  39  68  97 132 177 226 295 349 409
#     4  11  23  44  66  96 135 185 228 283 357 420
#     4   9  19  39  66  99 128 179 239 286 348 422
#     4  11  23  43  67  98 141 178 227 296 346 422
#     4  12  24  41  64 100 139 176 230 282 356 421
#     4  12  24  44  72 106 132 188 234 282 368 412
#
# _framework density 21.197543
#
# number of rings (size 3 to 8) (size 9 to 14) (size 15 to 20)
#    0.000    1.333    4.000    1.600    0.000    3.733 
#    2.400    0.667    0.000    0.000    0.000    0.000 
#    0.000    0.000    0.000    0.000    0.000    0.000 
#
# Total GULP energy -83509.937888 kJ/mol
# GULP energy per Si atom -5567.329193 kJ/mol
# Density = 2.114930 g / cm^3
# Si number density = 21.197543 Si / 1000 Ang^3
#
#
#
# Elastic Constant Matrix: (Units=GPa)
#
#
# Indices 1 2 3 4 5 6 
#
# 1 89.1753 42.0103 29.5683 12.5030 -3.4692 13.3844
# 2 42.0103 200.5363 78.3206 18.9287 -13.6526 29.3760
# 3 29.5683 78.3206 99.1405 29.7334 -3.5215 9.9939
# 4 12.5030 18.9287 29.7334 32.6056 0.8363 5.6622
# 5 -3.4692 -13.6526 -3.5215 0.8363 30.2965 5.5552
# 6 13.3844 29.3760 9.9939 5.6622 5.5552 29.4029
#
#
#
# Elastic Compliance Matrix: (Units=1/GPa)
#
#
# Indices 1 2 3 4 5 6 
#
# 1 0.013380 -0.001076 -0.002080 -0.001913 0.001638 -0.004250
# 2 -0.001076 0.008951 -0.006546 0.002379 0.004465 -0.007530
# 3 -0.002080 -0.006546 0.019637 -0.013924 -0.001204 0.003722
# 4 -0.001913 0.002379 -0.013924 0.043611 -0.001058 -0.004971
# 5 0.001638 0.004465 -0.001204 -0.001058 0.037228 -0.011627
# 6 -0.004250 -0.007530 0.003722 -0.004971 -0.011627 0.045357
#
#
# Mechanical properties :
#
#
# Convention : Reuss Voigt Hill
#
# Bulk Modulus (GPa) = 44.31986 76.51674 60.41830
# Shear Modulus (GPa) = 25.62930 34.39118 30.01024
#
# Velocity S-wave (km/s) = 3.48094 4.03229 3.76672
# Velocity P-wave (km/s) = 6.09174 7.60621 6.89071
#
# Compressibility (1/GPa) = 0.02256325
#
# Stress axis : x y z
#
# Youngs Moduli (GPa) = 74.73663 111.71768 50.92473
#
# Poissons Ratio (x) = 0.12021 0.10594
# Poissons Ratio (y) = 0.08042 0.33337
# Poissons Ratio (z) = 0.15547 0.73133
#
# Static dielectric constant tensor:
#      x y z
#    x 1.883080 0.022850 0.035410 
#    y 0.022850 1.723590 0.028960 
#    z 0.035410 0.028960 1.782010 
# 
# From -- ./inp_files/404517.got.cif
#   From: 2010.05.17/outbox.cif.g08.bks.cpg/sg2_203_cif.got.tgz:404517.got - 2010.06.03 11:33:40.
