data_PCOD9009827
_publ_section_title
;
Structure prediction by ZEFSAII (Michael W. Deem and Ramdas Pophale) SiO2 
 PCOD9009827
Probable space group: P -1
;
_chemical_formula_sum "Si O2"
_cell_formula_units_Z 12
_cell_length_a 13.021391
_cell_length_b 7.808867
_cell_length_c 5.521992
_cell_angle_alpha 121.291979
_cell_angle_beta 93.222085
_cell_angle_gamma 100.928614
_cell_volume 463.033611
_symmetry_space_group_name_H-M "P -1"
_symmetry_group_IT_number 2
_symmetry_cell_setting 'triclinic'
loop_
_space_group_symop_operation_xyz
x,y,z
-x,-y,-z
loop_
_atom_site_type_symbol
_atom_site_label
_atom_site_fract_x
_atom_site_fract_y
_atom_site_fract_z
Si Si1 0.453040 0.717704 0.875246
Si Si2 0.875402 0.954542 0.001875
Si Si3 0.547113 0.764638 0.422209
Si Si4 0.124646 0.579420 0.125757
Si Si5 0.209961 0.631918 0.679167
Si Si6 0.209752 0.078307 0.530004
O O1 0.531248 0.825731 0.745491
O O2 0.464226 0.482145 0.732138
O O3 0.336843 0.703399 0.740872
O O4 0.468953 0.794639 0.214366
O O5 0.816392 0.842388 0.675830
O O6 0.842493 0.857845 0.189146
O O7 0.839539 0.169477 0.168860
O O8 0.000000 0.000000 0.000000
O O9 0.663364 0.866321 0.404016
O O10 0.157978 0.515955 0.345983
O O11 0.160317 0.830231 0.328215
O O12 0.183510 0.526242 0.858437
O O13 0.000000 0.500000 0.000000
#
# Coordination Sequence:
#
# PCOD9009827 Si02
#       6
#     2   2   2   2   2   2
#     4  10  21  40  64  90 125 162 201 255 314 366
#     4  10  21  40  60  83 129 159 203 256 307 356
#     4  10  21  40  64  90 125 162 201 255 314 366
#     4  10  21  40  60  83 129 159 203 256 307 356
#     4  10  21  40  62  91 119 163 210 247 309 373
#     4  10  21  40  62  91 119 163 210 247 309 373
#
# _framework density 25.916043999999999
#
# number of rings (size 3 to 8) (size 9 to 14) (size 15 to 20)
#    0.000    2.000    0.000    3.000    0.000    0.000 
#   18.000   20.000    0.000    0.000    0.000    0.000 
#    0.000    0.000    0.000    0.000    0.000    0.000 
#
# Total GULP energy -67168.883143 kJ/mol
# GULP energy per Si atom -5597.406929 kJ/mol
# Density = 2.585706 g / cm^3
# Si number density = 25.916044 Si / 1000 Ang^3
#
#
#
# Elastic Constant Matrix: (Units=GPa)
#
#
# Indices 1 2 3 4 5 6 
#
# 1 3.2800 60.0721 114.2710 18.6848 125.9066 100.1422
# 2 60.0721 143.2073 22.0563 -50.4346 -44.3846 -26.1472
# 3 114.2710 22.0563 193.0190 -92.3635 -83.4319 -39.2496
# 4 18.6848 -50.4346 -92.3635 24.0847 -56.2481 -44.9475
# 5 125.9066 -44.3846 -83.4319 -56.2481 -59.2813 -88.1419
# 6 100.1422 -26.1472 -39.2496 -44.9475 -88.1419 -0.3549
#
#
#
# Elastic Compliance Matrix: (Units=1/GPa)
#
#
# Indices 1 2 3 4 5 6 
#
# 1 0.008777 0.001207 0.001637 0.011292 0.003122 0.001074
# 2 0.001207 0.006891 -0.001130 0.002816 -0.001600 -0.001397
# 3 0.001637 -0.001130 0.004867 0.004341 -0.002173 -0.003007
# 4 0.011292 0.002816 0.004341 0.031360 -0.005908 -0.005435
# 5 0.003122 -0.001600 -0.002173 -0.005908 0.008025 -0.005650
# 6 0.001074 -0.001397 -0.003007 -0.005435 -0.005650 0.012352
#
#
# Mechanical properties :
#
#
# Convention : Reuss Voigt Hill
#
# Bulk Modulus (GPa) = 41.73111 81.36723 61.54917
# Shear Modulus (GPa) = 65.07646 2.43015 33.75331
#
# Velocity S-wave (km/s) = 5.01647 0.96940 3.61281
# Velocity P-wave (km/s) = 7.04916 5.71993 6.41905
#
# Compressibility (1/GPa) = 0.02396294
#
# Stress axis : x y z
#
# Youngs Moduli (GPa) = 113.93441 145.10952 205.46896
#
# Poissons Ratio (x) = -0.17510 -0.33645
# Poissons Ratio (y) = -0.13748 0.23224
# Poissons Ratio (z) = -0.18656 0.16402
#
# Static dielectric constant tensor:
#      x y z
#    x 1.886510 0.094150 0.127330 
#    y 0.094150 2.125190 -0.509050 
#    z 0.127330 -0.509050 1.847120 
# 
# From -- ./inp_files/26169.got.cif
#   From: 2010.05.17/outbox.cif.g08.bks.cpg/sg2_14_cif.got.tgz:26169.got - 2010.06.03 11:33:40.
