data_PCOD9009820
_publ_section_title
;
Structure prediction by ZEFSAII (Michael W. Deem and Ramdas Pophale) SiO2 
 PCOD9009820
Probable space group: P -1
;
_chemical_formula_sum "Si O2"
_cell_formula_units_Z 14
_cell_length_a 7.130515
_cell_length_b 7.557756
_cell_length_c 11.299752
_cell_angle_alpha 74.755417
_cell_angle_beta 114.176005
_cell_angle_gamma 76.618756
_cell_volume 494.615666
_symmetry_space_group_name_H-M "P -1"
_symmetry_group_IT_number 2
_symmetry_cell_setting 'triclinic'
loop_
_space_group_symop_operation_xyz
x,y,z
-x,-y,-z
loop_
_atom_site_type_symbol
_atom_site_label
_atom_site_fract_x
_atom_site_fract_y
_atom_site_fract_z
Si Si1 0.398407 0.865173 0.809483
Si Si2 0.930290 0.814114 0.481999
Si Si3 0.092684 0.705177 0.913276
Si Si4 0.736927 0.699197 0.117823
Si Si5 0.435693 0.540614 0.223113
Si Si6 0.180971 0.681070 0.357654
Si Si7 0.731845 0.921963 0.640705
O O1 0.291874 0.068007 0.672219
O O2 0.208600 0.827035 0.845506
O O3 0.471679 0.681548 0.767712
O O4 0.576987 0.858858 0.955619
O O5 0.878021 0.759623 0.607937
O O6 0.000000 0.000000 0.500000
O O7 0.113602 0.646199 0.481184
O O8 0.178665 0.491808 0.912488
O O9 0.828639 0.806528 0.807452
O O10 0.199926 0.669284 0.075668
O O11 0.596404 0.642794 0.194013
O O12 0.947799 0.729265 0.220679
O O13 0.376100 0.544518 0.345415
O O14 0.230149 0.877105 0.359309
O O15 0.500000 0.000000 0.500000
#
# Coordination Sequence:
#
# PCOD9009820 Si02
#       7
#     2   2   2   2   2   2   2
#     4   9  17  40  65  90 122 170 195 242 317 372
#     4  10  21  40  60  81 127 168 201 239 298 365
#     4   9  18  42  63  88 126 164 197 249 310 369
#     4   9  21  38  67  93 122 156 201 260 313 350
#     4   9  21  38  67  96 122 152 206 255 310 360
#     4  11  23  40  61  96 124 151 209 266 296 352
#     4  11  25  42  62  84 125 176 205 239 310 373
#
# _framework density 28.304807
#
# number of rings (size 3 to 8) (size 9 to 14) (size 15 to 20)
#    0.000    2.286    2.857    1.714    2.000    5.714 
#    0.000    7.143    0.000    0.000    0.000    0.000 
#    0.000    0.000    0.000    0.000    0.000    0.000 
#
# Total GULP energy -78332.569647 kJ/mol
# GULP energy per Si atom -5595.183546 kJ/mol
# Density = 2.824038 g / cm^3
# Si number density = 28.304807 Si / 1000 Ang^3
#
#
#
# Elastic Constant Matrix: (Units=GPa)
#
#
# Indices 1 2 3 4 5 6 
#
# 1 139.4962 42.0968 60.5644 25.8183 -1.1227 -12.0586
# 2 42.0968 102.8464 40.5101 27.6976 -15.8095 -23.5367
# 3 60.5644 40.5101 150.1440 -3.4693 10.6746 -9.5843
# 4 25.8183 27.6976 -3.4693 56.6455 -8.1979 -3.2677
# 5 -1.1227 -15.8095 10.6746 -8.1979 65.5751 14.9513
# 6 -12.0586 -23.5367 -9.5843 -3.2677 14.9513 46.0227
#
#
#
# Elastic Compliance Matrix: (Units=1/GPa)
#
#
# Indices 1 2 3 4 5 6 
#
# 1 0.010024 -0.001368 -0.003687 -0.004113 -0.000291 0.000962
# 2 -0.001368 0.014866 -0.003408 -0.006238 0.002102 0.005409
# 3 -0.003687 -0.003408 0.009300 0.003638 -0.001973 0.000127
# 4 -0.004113 -0.006238 0.003638 0.022845 0.001209 -0.002281
# 5 -0.000291 0.002102 -0.001973 0.001209 0.017356 -0.004964
# 6 0.000962 0.005409 0.000127 -0.002281 -0.004964 0.026224
#
#
# Mechanical properties :
#
#
# Convention : Reuss Voigt Hill
#
# Bulk Modulus (GPa) = 57.92265 75.42546 66.67406
# Shear Modulus (GPa) = 40.55311 50.26970 45.41141
#
# Velocity S-wave (km/s) = 3.78925 4.21885 4.00981
# Velocity P-wave (km/s) = 6.29705 7.10190 6.71155
#
# Compressibility (1/GPa) = 0.01726440
#
# Stress axis : x y z
#
# Youngs Moduli (GPa) = 99.75686 67.26609 107.53225
#
# Poissons Ratio (x) = 0.09201 0.39652
# Poissons Ratio (y) = 0.13645 0.36643
# Poissons Ratio (z) = 0.36785 0.22922
#
# Static dielectric constant tensor:
#      x y z
#    x 2.385050 -0.062030 -0.009700 
#    y -0.062030 2.164560 -0.026280 
#    z -0.009700 -0.026280 2.187470 
# 
# From -- ./inp_files/223802.got.cif
#   From: 2010.05.17/outbox.cif.g08.bks.cpg/sg2_112_cif.got.tgz:223802.got - 2010.06.03 11:33:40.
