data_PCOD9009096
_publ_section_title
;
Structure prediction by ZEFSAII (Michael W. Deem and Ramdas Pophale) SiO2 
 PCOD9009096
Probable space group: P -1
;
_chemical_formula_sum "Si O2"
_cell_formula_units_Z 16
_cell_length_a 20.202728
_cell_length_b 8.247738
_cell_length_c 18.545436
_cell_angle_alpha 141.886339
_cell_angle_beta 28.034301
_cell_angle_gamma 126.440958
_cell_volume 840.954187
_symmetry_space_group_name_H-M "P -1"
_symmetry_group_IT_number 2
_symmetry_cell_setting 'triclinic'
loop_
_space_group_symop_operation_xyz
x,y,z
-x,-y,-z
loop_
_atom_site_type_symbol
_atom_site_label
_atom_site_fract_x
_atom_site_fract_y
_atom_site_fract_z
Si Si1 0.957185 0.113654 0.761157
Si Si2 0.385043 0.170329 0.307810
Si Si3 0.898492 0.440558 0.205664
Si Si4 0.863492 0.396034 0.802339
Si Si5 0.034918 0.141646 0.123445
Si Si6 0.740014 0.303858 0.746817
Si Si7 0.716065 0.881999 0.908101
Si Si8 0.180945 0.368250 0.435865
O O1 0.861602 0.281632 0.843274
O O2 0.017587 0.342059 0.819334
O O3 0.843967 0.976955 0.856150
O O4 0.102212 0.869909 0.504540
O O5 0.271794 0.377601 0.545930
O O6 0.314254 0.274144 0.333062
O O7 0.367959 0.866807 0.226551
O O8 0.557401 0.129001 0.138044
O O9 0.968793 0.287384 0.160454
O O10 0.918307 0.187829 0.043583
O O11 0.764861 0.305472 0.809077
O O12 0.834164 0.728877 0.944266
O O13 0.039562 0.282588 0.568715
O O14 0.900968 0.293347 0.361752
O O15 0.695008 0.622230 0.878422
O O16 0.772270 0.754799 0.730332
#
# Coordination Sequence:
#
# PCOD9009096 Si02
#       8
#     2   2   2   2   2   2   2   2
#     4  10  17  29  49  71  92 121 161 195 226 266
#     4  10  20  33  47  68  99 129 150 184 240 287
#     4   8  14  29  52  69  88 119 160 196 221 273
#     4   9  16  30  52  71  89 120 156 199 224 271
#     4   7  13  27  51  75  83 114 162 201 221 260
#     4  11  19  32  47  66  97 129 159 186 226 282
#     4  12  22  28  45  74 103 123 147 194 238 279
#     4   9  17  31  50  73  93 119 154 197 229 273
#
# _framework density 19.026007
#
# number of rings (size 3 to 8) (size 9 to 14) (size 15 to 20)
#    0.750    1.750    3.750    2.250    0.000    0.000 
#    0.000    0.000    0.000   21.000    0.000    0.000 
#    0.000    0.000    0.000    0.000    0.000    0.125 
#
# Total GULP energy -89104.435555 kJ/mol
# GULP energy per Si atom -5569.027222 kJ/mol
# Density = 1.898270 g / cm^3
# Si number density = 19.026007 Si / 1000 Ang^3
#
#
#
# Elastic Constant Matrix: (Units=GPa)
#
#
# Indices 1 2 3 4 5 6 
#
# 1 19.3197 24.2528 24.3285 5.9056 -2.3368 8.2996
# 2 24.2528 29.8142 29.9288 17.9058 5.6841 15.4595
# 3 24.3285 29.9288 67.3218 16.5334 7.0063 24.6667
# 4 5.9056 17.9058 16.5334 28.2335 7.5153 3.2527
# 5 -2.3368 5.6841 7.0063 7.5153 18.2570 0.5441
# 6 8.2996 15.4595 24.6667 3.2527 0.5441 28.1707
#
#
#
# Elastic Compliance Matrix: (Units=1/GPa)
#
#
# Indices 1 2 3 4 5 6 
#
# 1 -0.102701 0.139596 0.010794 -0.058412 -0.035263 -0.048376
# 2 0.139596 -0.091206 -0.035877 0.033529 0.045169 0.035595
# 3 0.010794 -0.035877 0.029407 0.004474 -0.000285 -0.009752
# 4 -0.058412 0.033529 0.004474 0.033549 -0.033194 -0.008341
# 5 -0.035263 0.045169 -0.000285 -0.033194 0.050307 -0.011288
# 6 -0.048376 0.035595 -0.009752 -0.008341 -0.011288 0.039936
#
#
# Mechanical properties :
#
#
# Convention : Reuss Voigt Hill
#
# Bulk Modulus (GPa) = 15.49752 30.38621 22.94187
# Shear Modulus (GPa) = -20.14295 17.46195 -1.34050
#
# Velocity S-wave (km/s) = -3.25731 3.03280 -0.84029
# Velocity P-wave (km/s) = 2.44614 5.31689 3.33810
#
# Compressibility (1/GPa) = 0.06452644
#
# Stress axis : x y z
#
# Youngs Moduli (GPa) = -9.73700 -10.96422 34.00595
#
# Poissons Ratio (x) = 1.53056 -0.36708
# Poissons Ratio (y) = 1.35924 1.22003
# Poissons Ratio (z) = 0.10511 -0.39336
#
# Static dielectric constant tensor:
#      x y z
#    x 1.691970 -0.019850 0.011840 
#    y -0.019850 1.731010 0.032710 
#    z 0.011840 0.032710 1.659090 
# 
# From -- ./inp_files/614356.got.cif
#   From: 2010.05.17/outbox.cif.g08.bks.cpg/sg2_308_cif.got.tgz:614356.got - 2010.06.03 11:33:40.
