data_PCOD9009779
_publ_section_title
;
Structure prediction by ZEFSAII (Michael W. Deem and Ramdas Pophale) SiO2 
 PCOD9009779
Probable space group: P -1
;
_chemical_formula_sum "Si O2"
_cell_formula_units_Z 10
_cell_length_a 6.848941
_cell_length_b 7.305987
_cell_length_c 15.445365
_cell_angle_alpha 57.875203
_cell_angle_beta 51.960623
_cell_angle_gamma 61.705146
_cell_volume 502.939263
_symmetry_space_group_name_H-M "P -1"
_symmetry_group_IT_number 2
_symmetry_cell_setting 'triclinic'
loop_
_space_group_symop_operation_xyz
x,y,z
-x,-y,-z
loop_
_atom_site_type_symbol
_atom_site_label
_atom_site_fract_x
_atom_site_fract_y
_atom_site_fract_z
Si Si1 0.309553 0.204626 0.954831
Si Si2 0.724321 0.300335 0.123640
Si Si3 0.529246 0.241213 0.540680
Si Si4 0.595880 0.026073 0.762828
Si Si5 0.174482 0.937308 0.666809
O O1 0.325953 0.436352 0.935949
O O2 0.405322 0.198588 0.831443
O O3 0.013568 0.196273 0.041369
O O4 0.500000 0.000000 0.000000
O O5 0.524566 0.189150 0.156725
O O6 0.713976 0.231933 0.244497
O O7 0.500000 0.500000 0.500000
O O8 0.721521 0.156542 0.430984
O O9 0.614547 0.118567 0.638369
O O10 0.273457 0.161093 0.602977
O O11 0.873053 0.976237 0.740740
#
# Coordination Sequence:
#
# PCOD9009779 Si02
#       5
#     2   2   2   2   2
#     4  11  22  41  62  88 122 158 199 244 294 351
#     4  10  23  41  60  89 124 154 197 249 289 352
#     4  10  22  38  60  87 119 156 196 245 296 352
#     4  11  22  39  62  87 119 161 197 241 302 349
#     4  10  21  40  59  87 122 151 199 246 291 354
#
# _framework density 19.883116000000001
#
# number of rings (size 3 to 8) (size 9 to 14) (size 15 to 20)
#    0.000    1.600    2.000    2.400    0.000    3.200 
#    3.600    0.000    0.000    0.000    0.000    0.000 
#    0.000    0.000    0.000    0.000    0.000    0.000 
#
# Total GULP energy -55866.563662 kJ/mol
# GULP energy per Si atom -5586.656366 kJ/mol
# Density = 1.983786 g / cm^3
# Si number density = 19.883116 Si / 1000 Ang^3
#
#
#
# Elastic Constant Matrix: (Units=GPa)
#
#
# Indices 1 2 3 4 5 6 
#
# 1 78.7417 53.2817 30.1218 -5.5504 -18.4266 7.3924
# 2 53.2817 114.0786 30.4336 -14.5694 -17.3035 8.0670
# 3 30.1218 30.4336 82.6193 13.9931 -11.7602 -5.1454
# 4 -5.5504 -14.5694 13.9931 36.7784 12.0000 0.0211
# 5 -18.4266 -17.3035 -11.7602 12.0000 34.1043 -4.7101
# 6 7.3924 8.0670 -5.1454 0.0211 -4.7101 19.6566
#
#
#
# Elastic Compliance Matrix: (Units=1/GPa)
#
#
# Indices 1 2 3 4 5 6 
#
# 1 0.021259 -0.007537 -0.004546 0.000207 0.005358 -0.004808
# 2 -0.007537 0.014334 -0.004043 0.006427 -0.001059 -0.004367
# 3 -0.004546 -0.004043 0.019021 -0.012042 0.007698 0.010206
# 4 0.000207 0.006427 -0.012042 0.039594 -0.016059 -0.009758
# 5 0.005358 -0.001059 0.007698 -0.016059 0.041418 0.010376
# 6 -0.004808 -0.004367 0.010206 -0.009758 0.010376 0.059642
#
#
# Mechanical properties :
#
#
# Convention : Reuss Voigt Hill
#
# Bulk Modulus (GPa) = 44.72065 55.90153 50.31109
# Shear Modulus (GPa) = 21.27886 28.88137 25.08012
#
# Velocity S-wave (km/s) = 3.27494 3.81538 3.55544
# Velocity P-wave (km/s) = 6.06967 6.89823 6.49717
#
# Compressibility (1/GPa) = 0.02236103
#
# Stress axis : x y z
#
# Youngs Moduli (GPa) = 47.03959 69.76442 52.57213
#
# Poissons Ratio (x) = 0.52583 0.23900
# Poissons Ratio (y) = 0.35455 0.21256
# Poissons Ratio (z) = 0.21384 0.28207
#
# Static dielectric constant tensor:
#      x y z
#    x 1.682720 0.012790 0.015170 
#    y 0.012790 1.666440 -0.004080 
#    z 0.015170 -0.004080 1.728920 
# 
# From -- ./inp_files/1550.got.cif
#   From: 2010.05.17/outbox.cif.g08.bks.cpg/sg2_1_cif.got.tgz:1550.got - 2010.06.03 11:33:40.
