data_PCOD9009019
_publ_section_title
;
Structure prediction by ZEFSAII (Michael W. Deem and Ramdas Pophale) SiO2 
 PCOD9009019
Probable space group: P -1
;
_chemical_formula_sum "Si O2"
_cell_formula_units_Z 12
_cell_length_a 16.297603
_cell_length_b 10.604094
_cell_length_c 6.485314
_cell_angle_alpha 51.418601
_cell_angle_beta 63.517395
_cell_angle_gamma 33.380765
_cell_volume 474.710839
_symmetry_space_group_name_H-M "P -1"
_symmetry_group_IT_number 2
_symmetry_cell_setting 'triclinic'
loop_
_space_group_symop_operation_xyz
x,y,z
-x,-y,-z
loop_
_atom_site_type_symbol
_atom_site_label
_atom_site_fract_x
_atom_site_fract_y
_atom_site_fract_z
Si Si1 0.039848 0.466192 0.223862
Si Si2 0.356366 0.874686 0.628618
Si Si3 0.630298 0.620869 0.313079
Si Si4 0.926533 0.329101 0.723444
Si Si5 0.421816 0.012093 0.762640
Si Si6 0.209423 0.752495 0.827256
O O1 0.017007 0.681268 0.106840
O O2 0.929880 0.496864 0.437184
O O3 0.213886 0.166252 0.380484
O O4 0.000000 0.500000 0.000000
O O5 0.510043 0.698917 0.512962
O O6 0.363372 0.935273 0.790163
O O7 0.322305 0.733422 0.795838
O O8 0.760310 0.332928 0.357107
O O9 0.680686 0.711136 0.285308
O O10 0.537296 0.801946 0.027412
O O11 0.789997 0.405307 0.864653
O O12 0.044703 0.058736 0.738922
O O13 0.500000 0.000000 0.500000
#
# Coordination Sequence:
#
# PCOD9009019 Si02
#       6
#     2   2   2   2   2   2
#     4  10  22  44  70  92 122 175 222 262 313 389
#     4  10  22  41  67  96 131 164 216 269 322 373
#     4  10  21  39  66  97 129 169 214 258 325 388
#     4   9  22  43  63  91 132 168 215 266 317 376
#     4   9  21  39  60  98 127 170 212 260 318 383
#     4  10  21  42  64  94 136 165 208 269 326 378
#
# _framework density 25.278545000000001
#
# number of rings (size 3 to 8) (size 9 to 14) (size 15 to 20)
#    0.000    2.333    0.000    0.500    7.000    4.667 
#    0.000   15.833    0.000    0.000    0.000    0.000 
#    0.000    0.000    0.000    0.000    0.000    0.000 
#
# Total GULP energy -67075.313819 kJ/mol
# GULP energy per Si atom -5589.609485 kJ/mol
# Density = 2.522101 g / cm^3
# Si number density = 25.278545 Si / 1000 Ang^3
#
#
#
# Elastic Constant Matrix: (Units=GPa)
#
#
# Indices 1 2 3 4 5 6 
#
# 1 146.2646 64.3185 46.5541 22.6200 -16.2049 35.7142
# 2 64.3185 187.9270 34.2690 44.3303 -3.0972 27.8529
# 3 46.5541 34.2690 77.0041 20.6293 -4.1371 14.9838
# 4 22.6200 44.3303 20.6293 38.6143 2.5917 9.6426
# 5 -16.2049 -3.0972 -4.1371 2.5917 54.2025 7.3990
# 6 35.7142 27.8529 14.9838 9.6426 7.3990 47.1239
#
#
#
# Elastic Compliance Matrix: (Units=1/GPa)
#
#
# Indices 1 2 3 4 5 6 
#
# 1 0.011099 -0.001824 -0.004230 -0.000799 0.003806 -0.006423
# 2 -0.001824 0.008063 -0.000016 -0.007747 0.000541 -0.001878
# 3 -0.004230 -0.000016 0.017577 -0.006657 0.000544 -0.001097
# 4 -0.000799 -0.007747 -0.006657 0.039074 -0.003028 -0.000218
# 5 0.003806 0.000541 0.000544 -0.003028 0.020623 -0.005996
# 6 -0.006423 -0.001878 -0.001097 -0.000218 -0.005996 0.028533
#
#
# Mechanical properties :
#
#
# Convention : Reuss Voigt Hill
#
# Bulk Modulus (GPa) = 40.65119 77.94210 59.29664
# Shear Modulus (GPa) = 34.40986 45.72507 40.06746
#
# Velocity S-wave (km/s) = 3.69348 4.25767 3.98557
# Velocity P-wave (km/s) = 5.85707 7.42096 6.68490
#
# Compressibility (1/GPa) = 0.02459953
#
# Stress axis : x y z
#
# Youngs Moduli (GPa) = 90.09900 124.02175 56.89382
#
# Poissons Ratio (x) = 0.22623 0.24065
# Poissons Ratio (y) = 0.16435 0.00088
# Poissons Ratio (z) = 0.38111 0.00193
#
# Static dielectric constant tensor:
#      x y z
#    x 2.008520 -0.034640 0.027290 
#    y -0.034640 2.128650 -0.074120 
#    z 0.027290 -0.074120 2.007740 
# 
# From -- ./inp_files/104678.got.cif
#   From: 2010.05.17/outbox.cif.g08.bks.cpg/sg2_53_cif.got.tgz:104678.got - 2010.06.03 11:33:40.
