data_PCOD9009156
_publ_section_title
;
Structure prediction by ZEFSAII (Michael W. Deem and Ramdas Pophale) SiO2 
 PCOD9009156
Probable space group: P -1
;
_chemical_formula_sum "Si O2"
_cell_formula_units_Z 16
_cell_length_a 12.550898
_cell_length_b 9.762447
_cell_length_c 23.094336
_cell_angle_alpha 152.415941
_cell_angle_beta 36.532262
_cell_angle_gamma 134.732569
_cell_volume 779.620071
_symmetry_space_group_name_H-M "P -1"
_symmetry_group_IT_number 2
_symmetry_cell_setting 'triclinic'
loop_
_space_group_symop_operation_xyz
x,y,z
-x,-y,-z
loop_
_atom_site_type_symbol
_atom_site_label
_atom_site_fract_x
_atom_site_fract_y
_atom_site_fract_z
Si Si1 0.822362 0.202722 0.655009
Si Si2 0.742686 0.678484 0.634026
Si Si3 0.494278 0.847038 0.633263
Si Si4 0.694953 0.370475 0.888150
Si Si5 0.411797 0.892325 0.557505
Si Si6 0.135847 0.411357 0.328214
Si Si7 0.028522 0.150085 0.861113
Si Si8 0.123769 0.113040 0.936271
O O1 0.820301 0.388403 0.783815
O O2 0.795987 0.415368 0.691820
O O3 0.655389 0.990034 0.650055
O O4 0.000000 0.000000 0.500000
O O5 0.620846 0.456836 0.568474
O O6 0.741294 0.592286 0.670177
O O7 0.946804 0.586124 0.491187
O O8 0.694796 0.024889 0.776858
O O9 0.500000 0.500000 0.500000
O O10 0.508818 0.942984 0.595233
O O11 0.307632 0.929847 0.776303
O O12 0.500000 0.500000 0.000000
O O13 0.795525 0.564563 0.964565
O O14 0.500000 0.000000 0.500000
O O15 0.219932 0.054899 0.713731
O O16 0.101838 0.072964 0.197845
O O17 0.025994 0.091905 0.909306
O O18 0.000000 0.500000 0.000000
O O19 0.000000 0.000000 0.000000
#
# Coordination Sequence:
#
# PCOD9009156 Si02
#       8
#     2   2   2   2   2   2   2   2
#     4  12  24  42  69  97 129 173 222 268 330 392
#     4  10  21  40  65  94 126 171 216 266 325 387
#     4  11  25  41  64  95 131 169 218 271 319 388
#     4  12  24  43  64  95 136 169 215 278 326 386
#     4  10  22  41  64  91 130 168 214 265 327 390
#     4  10  21  39  67  93 125 168 223 265 317 394
#     4  10  22  42  63  93 129 168 215 269 322 390
#     4  11  25  42  64  93 132 173 215 265 329 386
#
# _framework density 20.522817
#
# number of rings (size 3 to 8) (size 9 to 14) (size 15 to 20)
#    0.000    1.250    2.500    3.000    5.250    1.000 
#    2.250    0.625    0.000    0.000    0.000    0.000 
#    0.000    0.000    0.000    0.000    0.000    0.000 
#
# Total GULP energy -89315.599216 kJ/mol
# GULP energy per Si atom -5582.224951 kJ/mol
# Density = 2.047611 g / cm^3
# Si number density = 20.522817 Si / 1000 Ang^3
#
#
#
# Elastic Constant Matrix: (Units=GPa)
#
#
# Indices 1 2 3 4 5 6 
#
# 1 65.3171 7.4204 24.3070 -5.8042 11.5672 -0.8618
# 2 7.4204 84.2722 40.0737 4.1692 -0.4732 -25.1499
# 3 24.3070 40.0737 125.1001 17.1069 13.1467 -9.3953
# 4 -5.8042 4.1692 17.1069 43.8424 -6.9649 15.6900
# 5 11.5672 -0.4732 13.1467 -6.9649 28.5741 3.3903
# 6 -0.8618 -25.1499 -9.3953 15.6900 3.3903 29.9632
#
#
#
# Elastic Compliance Matrix: (Units=1/GPa)
#
#
# Indices 1 2 3 4 5 6 
#
# 1 0.017829 -0.001149 -0.003516 0.004395 -0.004146 -0.003386
# 2 -0.001149 0.020017 -0.003278 -0.008420 -0.002167 0.020395
# 3 -0.003516 -0.003278 0.011974 -0.008001 -0.006786 0.005859
# 4 0.004395 -0.008420 -0.008001 0.041659 0.015839 -0.033056
# 5 -0.004146 -0.002167 -0.006786 0.015839 0.045702 -0.017531
# 6 -0.003386 0.020395 0.005859 -0.033056 -0.017531 0.071526
#
#
# Mechanical properties :
#
#
# Convention : Reuss Voigt Hill
#
# Bulk Modulus (GPa) = 29.46903 46.47684 37.97294
# Shear Modulus (GPa) = 21.19497 34.00183 27.59840
#
# Velocity S-wave (km/s) = 3.21713 4.07477 3.67108
# Velocity P-wave (km/s) = 5.30945 6.69582 6.04252
#
# Compressibility (1/GPa) = 0.03393393
#
# Stress axis : x y z
#
# Youngs Moduli (GPa) = 56.08888 49.95681 83.51477
#
# Poissons Ratio (x) = 0.05743 0.29360
# Poissons Ratio (y) = 0.06447 0.27376
# Poissons Ratio (z) = 0.19718 0.16376
#
# Static dielectric constant tensor:
#      x y z
#    x 1.753320 -0.031260 0.012060 
#    y -0.031260 1.738550 -0.004610 
#    z 0.012060 -0.004610 1.694070 
# 
# From -- ./inp_files/279986.got.cif
#   From: 2010.05.17/outbox.cif.g08.bks.cpg/sg2_140_cif.got.tgz:279986.got - 2010.06.03 11:33:40.
