data_PCOD9009725
_publ_section_title
;
Structure prediction by ZEFSAII (Michael W. Deem and Ramdas Pophale) SiO2 
 PCOD9009725
Probable space group: P -1
;
_chemical_formula_sum "Si O2"
_cell_formula_units_Z 14
_cell_length_a 24.320253
_cell_length_b 5.100677
_cell_length_c 6.423199
_cell_angle_alpha 104.526427
_cell_angle_beta 113.475937
_cell_angle_gamma 107.213803
_cell_volume 633.276328
_symmetry_space_group_name_H-M "P -1"
_symmetry_group_IT_number 2
_symmetry_cell_setting 'triclinic'
loop_
_space_group_symop_operation_xyz
x,y,z
-x,-y,-z
loop_
_atom_site_type_symbol
_atom_site_label
_atom_site_fract_x
_atom_site_fract_y
_atom_site_fract_z
Si Si1 0.929318 0.154316 0.491610
Si Si2 0.405031 0.852163 0.260062
Si Si3 0.298988 0.715966 0.768558
Si Si4 0.527289 0.243607 0.275730
Si Si5 0.375179 0.346065 0.793059
Si Si6 0.045869 0.195688 0.918220
Si Si7 0.858432 0.552689 0.534148
O O1 0.941077 0.012086 0.270776
O O2 0.884301 0.874301 0.519863
O O3 0.893638 0.366019 0.443014
O O4 0.000877 0.323563 0.751563
O O5 0.421181 0.811931 0.510131
O O6 0.462744 0.155770 0.306687
O O7 0.409301 0.573896 0.084077
O O8 0.332571 0.809526 0.068763
O O9 0.340773 0.006504 0.748582
O O10 0.317684 0.450198 0.670411
O O11 0.221132 0.617210 0.629157
O O12 0.569737 0.559383 0.286032
O O13 0.500000 0.000000 0.000000
O O14 0.114042 0.411085 0.180099
O O15 0.000000 0.000000 0.000000
#
# Coordination Sequence:
#
# PCOD9009725 Si02
#       7
#     2   2   2   2   2   2   2
#     4  10  22  39  64  94 121 162 210 249 308 359
#     4   8  19  36  59  85 114 155 195 253 309 357
#     4  10  21  40  58  82 126 159 199 246 307 367
#     4   9  16  38  61  86 112 149 204 255 301 358
#     4   9  20  38  57  84 114 156 199 250 301 363
#     4   9  21  40  66  93 124 159 205 261 300 357
#     4  11  22  40  62  89 130 165 203 253 303 371
#
# _framework density 22.107254000000001
#
# number of rings (size 3 to 8) (size 9 to 14) (size 15 to 20)
#    0.857    1.714    0.000    1.286    0.000    8.000 
#    5.143    3.571    0.000    0.000    0.000    0.000 
#    0.000    0.000    0.000    0.000    0.000    0.000 
#
# Total GULP energy -78160.248395 kJ/mol
# GULP energy per Si atom -5582.874885 kJ/mol
# Density = 2.205694 g / cm^3
# Si number density = 22.107254 Si / 1000 Ang^3
#
#
#
# Elastic Constant Matrix: (Units=GPa)
#
#
# Indices 1 2 3 4 5 6 
#
# 1 82.5354 14.8998 74.5309 -0.3385 24.6379 0.1410
# 2 14.8998 90.0184 27.4377 -9.8414 12.1658 3.0303
# 3 74.5309 27.4377 132.8838 -4.2778 24.4933 23.1428
# 4 -0.3385 -9.8414 -4.2778 16.9703 3.1621 -1.1455
# 5 24.6379 12.1658 24.4933 3.1621 46.7762 3.8627
# 6 0.1410 3.0303 23.1428 -1.1455 3.8627 31.7611
#
#
#
# Elastic Compliance Matrix: (Units=1/GPa)
#
#
# Indices 1 2 3 4 5 6 
#
# 1 0.031309 0.001044 -0.018846 -0.001053 -0.008015 0.014430
# 2 0.001044 0.012954 -0.002677 0.007535 -0.003140 0.001363
# 3 -0.018846 -0.002677 0.021249 0.002297 0.000591 -0.015133
# 4 -0.001053 0.007535 0.002297 0.065230 -0.007086 0.000827
# 5 -0.008015 -0.003140 0.000591 -0.007086 0.026885 -0.003620
# 6 0.014430 0.001363 -0.015133 0.000827 -0.003620 0.042788
#
#
# Mechanical properties :
#
#
# Convention : Reuss Voigt Hill
#
# Bulk Modulus (GPa) = 40.72368 59.90824 50.31596
# Shear Modulus (GPa) = 20.03552 31.67279 25.85415
#
# Velocity S-wave (km/s) = 3.01373 3.78919 3.42349
# Velocity P-wave (km/s) = 5.52911 6.80454 6.19971
#
# Compressibility (1/GPa) = 0.02455574
#
# Stress axis : x y z
#
# Youngs Moduli (GPa) = 31.93948 77.19585 47.06162
#
# Poissons Ratio (x) = -0.08061 0.88691
# Poissons Ratio (y) = -0.03335 0.12596
# Poissons Ratio (z) = 0.60193 0.20662
#
# Static dielectric constant tensor:
#      x y z
#    x 1.812970 -0.035230 -0.003720 
#    y -0.035230 1.826490 0.007530 
#    z -0.003720 0.007530 1.847010 
# 
# From -- ./inp_files/121280.got.cif
#   From: 2010.05.17/outbox.cif.g08.bks.cpg/sg2_61_cif.got.tgz:121280.got - 2010.06.03 11:33:40.
