data_PCOD9009919
_publ_section_title
;
Structure prediction by ZEFSAII (Michael W. Deem and Ramdas Pophale) SiO2 
 PCOD9009919
Probable space group: P -1
;
_chemical_formula_sum "Si O2"
_cell_formula_units_Z 16
_cell_length_a 14.488310
_cell_length_b 16.179002
_cell_length_c 8.007764
_cell_angle_alpha 33.269050
_cell_angle_beta 135.163024
_cell_angle_gamma 142.864695
_cell_volume 616.477944
_symmetry_space_group_name_H-M "P -1"
_symmetry_group_IT_number 2
_symmetry_cell_setting 'triclinic'
loop_
_space_group_symop_operation_xyz
x,y,z
-x,-y,-z
loop_
_atom_site_type_symbol
_atom_site_label
_atom_site_fract_x
_atom_site_fract_y
_atom_site_fract_z
Si Si1 0.809578 0.710076 0.730829
Si Si2 0.198758 0.205216 0.781088
Si Si3 0.837809 0.076350 0.226686
Si Si4 0.407951 0.714130 0.341956
Si Si5 0.492412 0.543936 0.104911
Si Si6 0.616472 0.011044 0.353369
Si Si7 0.941840 0.571721 0.652730
Si Si8 0.194274 0.872375 0.271384
O O1 0.743833 0.700879 0.480412
O O2 0.684091 0.525568 0.964725
O O3 0.984580 0.765836 0.832554
O O4 0.824739 0.885485 0.536042
O O5 0.354368 0.270895 0.972567
O O6 0.096298 0.279074 0.592111
O O7 0.122944 0.997656 0.000500
O O8 0.766501 0.096840 0.926776
O O9 0.764002 0.076740 0.307392
O O10 0.471517 0.601043 0.530077
O O11 0.225500 0.587348 0.350978
O O12 0.493328 0.816921 0.448359
O O13 0.439845 0.861894 0.998586
O O14 0.500000 0.500000 0.000000
O O15 0.669679 0.056687 0.536134
O O16 0.070248 0.671566 0.506201
O O17 0.000000 0.500000 0.000000
#
# Coordination Sequence:
#
# PCOD9009919 Si02
#       8
#     2   2   2   2   2   2   2   2
#     4  10  21  40  60  97 133 165 216 276 328 378
#     4  10  23  38  67  97 125 178 215 271 329 387
#     4  10  23  39  66  97 131 168 219 276 321 387
#     4  10  23  39  67  93 129 181 212 267 332 392
#     4  11  22  39  65  97 131 171 221 271 322 391
#     4  11  21  45  69  92 135 175 218 265 335 389
#     4  11  22  41  65  98 132 171 218 268 329 390
#     4  11  23  42  69  97 129 172 226 265 326 396
#
# _framework density 25.953890000000001
#
# number of rings (size 3 to 8) (size 9 to 14) (size 15 to 20)
#    0.000    1.500    2.500    2.250    3.500    1.000 
#    0.000    4.375    2.750    0.000    0.000    0.000 
#    0.000    0.000    0.000    0.000    0.000    0.000 
#
# Total GULP energy -89412.604360 kJ/mol
# GULP energy per Si atom -5588.287773 kJ/mol
# Density = 2.589482 g / cm^3
# Si number density = 25.953890 Si / 1000 Ang^3
#
#
#
# Elastic Constant Matrix: (Units=GPa)
#
#
# Indices 1 2 3 4 5 6 
#
# 1 61.2043 33.8716 9.0472 -0.8496 -8.0379 28.0350
# 2 33.8716 145.4333 32.0127 14.6648 -18.6785 25.7874
# 3 9.0472 32.0127 76.7160 15.8881 -17.2238 5.9770
# 4 -0.8496 14.6648 15.8881 54.4901 -7.8652 -8.7002
# 5 -8.0379 -18.6785 -17.2238 -7.8652 34.8849 -6.6396
# 6 28.0350 25.7874 5.9770 -8.7002 -6.6396 40.9110
#
#
#
# Elastic Compliance Matrix: (Units=1/GPa)
#
#
# Indices 1 2 3 4 5 6 
#
# 1 0.025144 -0.002838 -0.000110 -0.001142 0.001012 -0.015504
# 2 -0.002838 0.009155 -0.002329 -0.002130 0.001928 -0.003626
# 3 -0.000110 -0.002329 0.016051 -0.003308 0.005799 -0.000564
# 4 -0.001142 -0.002130 -0.003308 0.021583 0.003302 0.007734
# 5 0.001012 0.001928 0.005799 0.003302 0.034204 0.003498
# 6 -0.015504 -0.003626 -0.000564 0.007734 0.003498 0.039648
#
#
# Mechanical properties :
#
#
# Convention : Reuss Voigt Hill
#
# Bulk Modulus (GPa) = 25.12750 48.13517 36.63133
# Shear Modulus (GPa) = 29.48033 39.95202 34.71617
#
# Velocity S-wave (km/s) = 3.37393 3.92771 3.66130
# Velocity P-wave (km/s) = 4.98803 6.25746 5.65846
#
# Compressibility (1/GPa) = 0.03979704
#
# Stress axis : x y z
#
# Youngs Moduli (GPa) = 39.77044 109.23190 62.30123
#
# Poissons Ratio (x) = 0.30998 0.00683
# Poissons Ratio (y) = 0.11286 0.14511
# Poissons Ratio (z) = 0.00436 0.25443
#
# Static dielectric constant tensor:
#      x y z
#    x 2.086550 0.073000 0.068800 
#    y 0.073000 2.115940 0.023160 
#    z 0.068800 0.023160 2.155600 
# 
# From -- ./inp_files/338043.got.cif
#   From: 2010.05.17/outbox.cif.g08.bks.cpg/sg2_170_cif.got.tgz:338043.got - 2010.06.03 11:33:40.
