data_PCOD9009449
_publ_section_title
;
Structure prediction by ZEFSAII (Michael W. Deem and Ramdas Pophale) SiO2 
 PCOD9009449
Probable space group: P -1
;
_chemical_formula_sum "Si O2"
_cell_formula_units_Z 14
_cell_length_a 10.788834
_cell_length_b 10.608040
_cell_length_c 14.004911
_cell_angle_alpha 52.542930
_cell_angle_beta 148.812439
_cell_angle_gamma 135.143431
_cell_volume 585.432526
_symmetry_space_group_name_H-M "P -1"
_symmetry_group_IT_number 2
_symmetry_cell_setting 'triclinic'
loop_
_space_group_symop_operation_xyz
x,y,z
-x,-y,-z
loop_
_atom_site_type_symbol
_atom_site_label
_atom_site_fract_x
_atom_site_fract_y
_atom_site_fract_z
Si Si1 0.548406 0.624399 0.569326
Si Si2 0.945543 0.138550 0.829388
Si Si3 0.062009 0.197896 0.085608
Si Si4 0.854796 0.018529 0.493018
Si Si5 0.939533 0.434348 0.597478
Si Si6 0.661371 0.912884 0.095766
Si Si7 0.430824 0.734573 0.860685
O O1 0.500000 0.500000 0.500000
O O2 0.754172 0.655678 0.782128
O O3 0.668807 0.825982 0.509731
O O4 0.268699 0.538766 0.483555
O O5 0.845180 0.226107 0.642457
O O6 0.934308 0.216002 0.891760
O O7 0.264303 0.203539 0.997377
O O8 0.806361 0.927817 0.809580
O O9 0.816961 0.062406 0.049990
O O10 0.114620 0.116043 0.687403
O O11 0.695573 0.134400 0.316886
O O12 0.000000 0.000000 0.500000
O O13 0.000000 0.500000 0.500000
O O14 0.232703 0.539647 0.787163
O O15 0.500000 0.000000 0.000000
O O16 0.445409 0.737183 0.983429
#
# Coordination Sequence:
#
# PCOD9009449 Si02
#       7
#     2   2   2   2   2   2   2
#     4  11  26  46  68 109 149 187 245 302 369 435
#     4  10  23  46  71 102 141 186 252 298 361 427
#     4   9  22  43  72  99 139 184 245 296 363 421
#     4  11  23  43  73 101 143 193 240 293 361 440
#     4  12  28  44  72 108 150 194 239 304 370 432
#     4  10  21  39  68  99 134 182 238 285 350 423
#     4  11  24  43  69 101 139 184 239 289 360 425
#
# _framework density 23.913943
#
# number of rings (size 3 to 8) (size 9 to 14) (size 15 to 20)
#    0.000    1.429    1.429    2.143   14.000    0.571 
#    2.571    0.714    0.000    0.000    0.000    0.000 
#    0.000    0.000    0.000    0.000    0.000    0.000 
#
# Total GULP energy -77947.813854 kJ/mol
# GULP energy per Si atom -5567.700990 kJ/mol
# Density = 2.385951 g / cm^3
# Si number density = 23.913943 Si / 1000 Ang^3
#
#
#
# Elastic Constant Matrix: (Units=GPa)
#
#
# Indices 1 2 3 4 5 6 
#
# 1 162.7405 9.1987 42.4632 -4.7517 -21.6914 3.3566
# 2 9.1987 50.3666 23.9687 -6.9164 -21.1622 -11.8612
# 3 42.4632 23.9687 123.6601 6.5065 -17.7211 -11.7489
# 4 -4.7517 -6.9164 6.5065 43.7219 -3.4411 -13.0871
# 5 -21.6914 -21.1622 -17.7211 -3.4411 38.9695 3.6899
# 6 3.3566 -11.8612 -11.7489 -13.0871 3.6899 31.7577
#
#
#
# Elastic Compliance Matrix: (Units=1/GPa)
#
#
# Indices 1 2 3 4 5 6 
#
# 1 0.007272 0.001413 -0.002373 0.001375 0.003953 -0.001011
# 2 0.001413 0.033244 -0.003826 0.011371 0.016817 0.013583
# 3 -0.002373 -0.003826 0.010018 -0.001780 0.000839 0.001697
# 4 0.001375 0.011371 -0.001780 0.030160 0.007373 0.015015
# 5 0.003953 0.016817 0.000839 0.007373 0.037568 0.004847
# 6 -0.001011 0.013583 0.001697 0.015015 0.004847 0.042921
#
#
# Mechanical properties :
#
#
# Convention : Reuss Voigt Hill
#
# Bulk Modulus (GPa) = 24.41370 54.22538 39.31954
# Shear Modulus (GPa) = 27.11374 40.29893 33.70633
#
# Velocity S-wave (km/s) = 3.37085 4.10953 3.75838
# Velocity P-wave (km/s) = 5.03799 6.72622 5.94237
#
# Compressibility (1/GPa) = 0.04096062
#
# Stress axis : x y z
#
# Youngs Moduli (GPa) = 137.51444 30.08105 99.81730
#
# Poissons Ratio (x) = -0.04250 0.23685
# Poissons Ratio (y) = -0.19427 0.38195
# Poissons Ratio (z) = 0.32630 0.11510
#
# Static dielectric constant tensor:
#      x y z
#    x 1.900010 -0.108450 -0.077020 
#    y -0.108450 2.076930 -0.031620 
#    z -0.077020 -0.031620 1.988710 
# 
# From -- ./inp_files/518809.got.cif
#   From: 2010.05.17/outbox.cif.g08.bks.cpg/sg2_260_cif.got.tgz:518809.got - 2010.06.03 11:33:40.
