data_PCOD9009817
_publ_section_title
;
Structure prediction by ZEFSAII (Michael W. Deem and Ramdas Pophale) SiO2 
 PCOD9009817
Probable space group: P -1
;
_chemical_formula_sum "Si O2"
_cell_formula_units_Z 16
_cell_length_a 19.459942
_cell_length_b 7.997836
_cell_length_c 9.564639
_cell_angle_alpha 133.337655
_cell_angle_beta 143.807752
_cell_angle_gamma 58.014507
_cell_volume 638.319459
_symmetry_space_group_name_H-M "P -1"
_symmetry_group_IT_number 2
_symmetry_cell_setting 'triclinic'
loop_
_space_group_symop_operation_xyz
x,y,z
-x,-y,-z
loop_
_atom_site_type_symbol
_atom_site_label
_atom_site_fract_x
_atom_site_fract_y
_atom_site_fract_z
Si Si1 0.340983 0.011577 0.668846
Si Si2 0.262244 0.786940 0.689628
Si Si3 0.306443 0.272026 0.340959
Si Si4 0.497971 0.772543 0.154724
Si Si5 0.113799 0.551235 0.814813
Si Si6 0.029742 0.552719 0.238186
Si Si7 0.358696 0.504492 0.282255
Si Si8 0.850806 0.907123 0.808603
O O1 0.288863 0.970916 0.714552
O O2 0.345230 0.755888 0.468650
O O3 0.462474 0.136005 0.883766
O O4 0.250981 0.139082 0.498204
O O5 0.284591 0.530886 0.514881
O O6 0.133824 0.749579 0.520669
O O7 0.365576 0.829442 0.994282
O O8 0.412247 0.163681 0.537771
O O9 0.329055 0.314207 0.241545
O O10 0.194626 0.123814 0.125323
O O11 0.500000 0.500000 0.000000
O O12 0.078390 0.412796 0.819320
O O13 0.000000 0.500000 0.500000
O O14 0.252011 0.495788 0.986442
O O15 0.113896 0.826432 0.994458
O O16 0.070820 0.303931 0.211026
O O17 0.000000 0.500000 0.000000
O O18 0.500000 0.500000 0.500000
#
# Coordination Sequence:
#
# PCOD9009817 Si02
#       8
#     2   2   2   2   2   2   2   2
#     4   9  17  33  56  84 115 153 201 248 299 362
#     4   9  17  29  50  82 115 144 187 250 303 344
#     4   8  16  32  55  79 107 148 198 244 290 354
#     4   9  16  28  50  81 116 144 178 240 303 346
#     4  11  24  41  61  92 128 159 201 262 312 356
#     4  11  21  38  63  88 117 161 207 249 305 379
#     4  10  21  40  60  78 111 162 208 245 297 372
#     4   9  18  37  63  86 114 159 204 246 303 375
#
# _framework density 25.065819000000001
#
# number of rings (size 3 to 8) (size 9 to 14) (size 15 to 20)
#    0.000    2.500    0.000    4.500    0.000    1.000 
#    0.000   14.375    0.000    0.000    0.000    0.000 
#    0.000    0.000    0.000    0.000    0.000    0.000 
#
# Total GULP energy -89168.078717 kJ/mol
# GULP energy per Si atom -5573.004920 kJ/mol
# Density = 2.500877 g / cm^3
# Si number density = 25.065819 Si / 1000 Ang^3
#
#
#
# Elastic Constant Matrix: (Units=GPa)
#
#
# Indices 1 2 3 4 5 6 
#
# 1 68.8341 33.8463 45.7105 2.2209 20.1069 26.5648
# 2 33.8463 94.3150 23.4172 0.0751 20.7062 21.2200
# 3 45.7105 23.4172 126.0769 -11.9069 31.9351 12.2082
# 4 2.2209 0.0751 -11.9069 44.8948 4.9070 7.9423
# 5 20.1069 20.7062 31.9351 4.9070 42.1313 13.3928
# 6 26.5648 21.2200 12.2082 7.9423 13.3928 42.9833
#
#
#
# Elastic Compliance Matrix: (Units=1/GPa)
#
#
# Indices 1 2 3 4 5 6 
#
# 1 0.026650 -0.004945 -0.007551 -0.001207 -0.000796 -0.011413
# 2 -0.004945 0.013771 0.000705 0.001378 -0.004183 -0.002893
# 3 -0.007551 0.000705 0.012608 0.004128 -0.007517 0.002317
# 4 -0.001207 0.001378 0.004128 0.024688 -0.004777 -0.004180
# 5 -0.000796 -0.004183 -0.007517 -0.004777 0.034023 -0.005026
# 6 -0.011413 -0.002893 0.002317 -0.004180 -0.005026 0.033427
#
#
# Mechanical properties :
#
#
# Convention : Reuss Voigt Hill
#
# Bulk Modulus (GPa) = 33.96043 55.01933 44.48988
# Shear Modulus (GPa) = 28.00124 38.41868 33.20996
#
# Velocity S-wave (km/s) = 3.34594 3.91923 3.64388
# Velocity P-wave (km/s) = 5.33901 6.51752 5.95748
#
# Compressibility (1/GPa) = 0.02944604
#
# Stress axis : x y z
#
# Youngs Moduli (GPa) = 37.52404 72.61847 79.31602
#
# Poissons Ratio (x) = 0.35912 0.59889
# Poissons Ratio (y) = 0.18557 -0.05592
# Poissons Ratio (z) = 0.28333 -0.05120
#
# Static dielectric constant tensor:
#      x y z
#    x 2.158390 -0.085450 0.214390 
#    y -0.085450 2.005760 -0.208290 
#    z 0.214390 -0.208290 2.502110 
# 
# From -- ./inp_files/469030.got.cif
#   From: 2010.05.17/outbox.cif.g08.bks.cpg/sg2_235_cif.got.tgz:469030.got - 2010.06.03 11:33:40.
