data_PCOD9009849
_publ_section_title
;
Structure prediction by ZEFSAII (Michael W. Deem and Ramdas Pophale) SiO2 
 PCOD9009849
Probable space group: P -1
;
_chemical_formula_sum "Si O2"
_cell_formula_units_Z 8
_cell_length_a 7.453782
_cell_length_b 9.546488
_cell_length_c 9.665758
_cell_angle_alpha 48.126429
_cell_angle_beta 112.169473
_cell_angle_gamma 84.129055
_cell_volume 406.946925
_symmetry_space_group_name_H-M "P -1"
_symmetry_group_IT_number 2
_symmetry_cell_setting 'triclinic'
loop_
_space_group_symop_operation_xyz
x,y,z
-x,-y,-z
loop_
_atom_site_type_symbol
_atom_site_label
_atom_site_fract_x
_atom_site_fract_y
_atom_site_fract_z
Si Si1 0.223121 0.248029 0.369306
Si Si2 0.133921 0.472199 0.698606
Si Si3 0.551329 0.396736 0.431294
Si Si4 0.713899 0.915743 0.799993
O O1 0.329723 0.405126 0.300921
O O2 0.169406 0.213998 0.220924
O O3 0.024151 0.341887 0.359463
O O4 0.443017 0.017434 0.632931
O O5 0.346958 0.493127 0.706917
O O6 0.000000 0.500000 0.500000
O O7 0.202302 0.242916 0.941393
O O8 0.500000 0.500000 0.500000
O O9 0.726729 0.134691 0.670111
#
# Coordination Sequence:
#
# PCOD9009849 Si02
#       4
#     2   2   2   2
#     4   9  21  44  57  87 122 146 199 243 279 351
#     4  12  22  37  64  88 116 157 193 235 297 343
#     4  10  21  40  60  88 117 152 197 237 290 344
#     4   9  22  43  58  86 123 148 193 249 280 342
#
# _framework density 19.658584000000001
#
# number of rings (size 3 to 8) (size 9 to 14) (size 15 to 20)
#    1.500    0.500    2.500    0.750    0.000    7.000 
#    4.500    0.000    0.000    0.000    0.000    0.000 
#    0.000    0.000    0.000    0.000    0.000    0.000 
#
# Total GULP energy -44588.104989 kJ/mol
# GULP energy per Si atom -5573.513124 kJ/mol
# Density = 1.961384 g / cm^3
# Si number density = 19.658584 Si / 1000 Ang^3
#
#
#
# Elastic Constant Matrix: (Units=GPa)
#
#
# Indices 1 2 3 4 5 6 
#
# 1 58.5618 18.6037 -18.3638 7.5522 -6.1904 -18.8264
# 2 18.6037 116.3811 3.4543 5.8948 -12.4072 1.1388
# 3 -18.3638 3.4543 92.1170 14.2680 -8.3388 9.5830
# 4 7.5522 5.8948 14.2680 19.6668 -1.5612 -0.8418
# 5 -6.1904 -12.4072 -8.3388 -1.5612 20.4994 0.0506
# 6 -18.8264 1.1388 9.5830 -0.8418 0.0506 20.0041
#
#
#
# Elastic Compliance Matrix: (Units=1/GPa)
#
#
# Indices 1 2 3 4 5 6 
#
# 1 0.031492 -0.003845 0.006669 -0.013968 0.008768 0.026052
# 2 -0.003845 0.009809 -0.000089 -0.001209 0.004658 -0.004197
# 3 0.006669 -0.000089 0.014979 -0.012902 0.007074 -0.001455
# 4 -0.013968 -0.001209 -0.012902 0.065343 -0.005212 -0.004133
# 5 0.008768 0.004658 0.007074 -0.005212 0.056719 0.004235
# 6 0.026052 -0.004197 -0.001455 -0.004133 0.004235 0.075259
#
#
# Mechanical properties :
#
#
# Convention : Reuss Voigt Hill
#
# Bulk Modulus (GPa) = 16.19417 30.49428 23.34422
# Shear Modulus (GPa) = 18.60728 29.59179 24.09953
#
# Velocity S-wave (km/s) = 3.07990 3.88401 3.50509
# Velocity P-wave (km/s) = 4.57201 5.97157 5.31803
#
# Compressibility (1/GPa) = 0.06175064
#
# Stress axis : x y z
#
# Youngs Moduli (GPa) = 31.75414 101.95201 66.76139
#
# Poissons Ratio (x) = 0.39198 -0.44524
# Poissons Ratio (y) = 0.12209 0.00593
# Poissons Ratio (z) = -0.21177 0.00905
#
# Static dielectric constant tensor:
#      x y z
#    x 1.684760 0.001750 0.049780 
#    y 0.001750 1.682200 -0.017680 
#    z 0.049780 -0.017680 1.705180 
# 
# From -- ./inp_files/1931.got.cif
#   From: 2010.05.17/outbox.cif.g08.bks.cpg/sg2_1_cif.got.tgz:1931.got - 2010.06.03 11:33:40.
