data_PCOD9009620
_publ_section_title
;
Structure prediction by ZEFSAII (Michael W. Deem and Ramdas Pophale) SiO2 
 PCOD9009620
Probable space group: P -1
;
_chemical_formula_sum "Si O2"
_cell_formula_units_Z 16
_cell_length_a 23.152286
_cell_length_b 12.457724
_cell_length_c 8.830965
_cell_angle_alpha 61.646891
_cell_angle_beta 147.845852
_cell_angle_gamma 132.736733
_cell_volume 962.734078
_symmetry_space_group_name_H-M "P -1"
_symmetry_group_IT_number 2
_symmetry_cell_setting 'triclinic'
loop_
_space_group_symop_operation_xyz
x,y,z
-x,-y,-z
loop_
_atom_site_type_symbol
_atom_site_label
_atom_site_fract_x
_atom_site_fract_y
_atom_site_fract_z
Si Si1 0.309217 0.378326 0.801872
Si Si2 0.202077 0.716111 0.359325
Si Si3 0.528064 0.054543 0.351996
Si Si4 0.505533 0.311787 0.173535
Si Si5 0.910136 0.606628 0.819811
Si Si6 0.656483 0.248987 0.037283
Si Si7 0.248106 0.535527 0.145977
Si Si8 0.367544 0.489306 0.182357
O O1 0.419863 0.550548 0.872474
O O2 0.170555 0.326064 0.451543
O O3 0.374253 0.293276 0.956264
O O4 0.297524 0.387564 0.948517
O O5 0.314109 0.837769 0.410112
O O6 0.155817 0.549757 0.315993
O O7 0.269996 0.751240 0.651336
O O8 0.067825 0.707334 0.072817
O O9 0.479020 0.161106 0.150113
O O10 0.500000 0.000000 0.500000
O O11 0.452274 0.914065 0.163917
O O12 0.615474 0.367383 0.515123
O O13 0.873270 0.556281 0.946387
O O14 0.756285 0.351482 0.051167
O O15 0.597268 0.344355 0.879612
O O16 0.272426 0.437611 0.153159
O O17 0.500000 0.500000 0.500000
#
# Coordination Sequence:
#
# PCOD9009620 Si02
#       8
#     2   2   2   2   2   2   2   2
#     4  10  17  32  53  77 107 131 179 220 264 309
#     4  11  21  33  53  77 105 146 174 217 267 314
#     4  12  20  36  53  79 112 137 178 213 272 318
#     4  10  18  30  53  80 101 138 172 218 264 309
#     4  10  19  35  52  75 110 138 181 214 262 325
#     4  10  20  32  51  80 109 137 171 222 264 314
#     4   9  17  31  48  82 102 134 169 218 268 304
#     4  10  17  29  49  82 109 129 166 224 275 300
#
# _framework density 16.619335
#
# number of rings (size 3 to 8) (size 9 to 14) (size 15 to 20)
#    0.750    1.000    6.250    0.375    0.000    0.500 
#    0.000    1.250    0.000    1.500    0.000    0.000 
#    0.000    0.000    0.000    0.000    0.000    0.000 
#
# Total GULP energy -89096.358585 kJ/mol
# GULP energy per Si atom -5568.522412 kJ/mol
# Density = 1.658151 g / cm^3
# Si number density = 16.619335 Si / 1000 Ang^3
#
#
#
# Elastic Constant Matrix: (Units=GPa)
#
#
# Indices 1 2 3 4 5 6 
#
# 1 99.8987 26.0967 47.7225 9.0026 13.6125 4.0127
# 2 26.0967 44.5799 27.7995 3.0617 18.2055 -3.5665
# 3 47.7225 27.7995 68.4404 4.7813 13.0986 7.4590
# 4 9.0026 3.0617 4.7813 15.1770 -4.3250 0.7809
# 5 13.6125 18.2055 13.0986 -4.3250 31.3220 -8.3508
# 6 4.0127 -3.5665 7.4590 0.7809 -8.3508 24.6635
#
#
#
# Elastic Compliance Matrix: (Units=1/GPa)
#
#
# Indices 1 2 3 4 5 6 
#
# 1 0.016009 -0.001926 -0.009154 -0.007101 -0.003255 -0.000992
# 2 -0.001926 0.037973 -0.010648 -0.008181 -0.016968 0.003539
# 3 -0.009154 -0.010648 0.027250 -0.001658 -0.004017 -0.009599
# 4 -0.007101 -0.008181 -0.001658 0.077893 0.020620 0.004989
# 5 -0.003255 -0.016968 -0.004017 0.020620 0.052067 0.016267
# 6 -0.000992 0.003539 -0.009599 0.004989 0.016267 0.049472
#
#
# Mechanical properties :
#
#
# Convention : Reuss Voigt Hill
#
# Bulk Modulus (GPa) = 26.47099 46.23961 36.35530
# Shear Modulus (GPa) = 15.78721 21.65251 18.71986
#
# Velocity S-wave (km/s) = 3.08544 3.61342 3.35982
# Velocity P-wave (km/s) = 5.35310 6.72995 6.08062
#
# Compressibility (1/GPa) = 0.03777720
#
# Stress axis : x y z
#
# Youngs Moduli (GPa) = 62.46358 26.33429 36.69780
#
# Poissons Ratio (x) = 0.05072 0.33591
# Poissons Ratio (y) = 0.12031 0.39076
# Poissons Ratio (z) = 0.57176 0.28041
#
# Static dielectric constant tensor:
#      x y z
#    x 1.595140 0.002400 -0.013710 
#    y 0.002400 1.557770 -0.019870 
#    z -0.013710 -0.019870 1.555390 
# 
# From -- ./inp_files/353007.got.cif
#   From: 2010.05.17/outbox.cif.g08.bks.cpg/sg2_177_cif.got.tgz:353007.got - 2010.06.03 11:33:40.
