data_PCOD9009099
_publ_section_title
;
Structure prediction by ZEFSAII (Michael W. Deem and Ramdas Pophale) SiO2 
 PCOD9009099
Probable space group: P -1
;
_chemical_formula_sum "Si O2"
_cell_formula_units_Z 16
_cell_length_a 5.141725
_cell_length_b 5.263674
_cell_length_c 24.763156
_cell_angle_alpha 86.542103
_cell_angle_beta 108.359380
_cell_angle_gamma 97.156543
_cell_volume 630.972130
_symmetry_space_group_name_H-M "P -1"
_symmetry_group_IT_number 2
_symmetry_cell_setting 'triclinic'
loop_
_space_group_symop_operation_xyz
x,y,z
-x,-y,-z
loop_
_atom_site_type_symbol
_atom_site_label
_atom_site_fract_x
_atom_site_fract_y
_atom_site_fract_z
Si Si1 0.425382 0.062722 0.814458
Si Si2 0.949829 0.373718 0.142206
Si Si3 0.222544 0.306975 0.532495
Si Si4 0.138186 0.108384 0.421467
Si Si5 0.844183 0.267811 0.760755
Si Si6 0.882023 0.177727 0.034824
Si Si7 0.271181 0.612038 0.369541
Si Si8 0.506979 0.732338 0.072834
O O1 0.636510 0.047825 0.779251
O O2 0.585382 0.207067 0.873732
O O3 0.161368 0.208063 0.777852
O O4 0.262160 0.812227 0.833310
O O5 0.076921 0.262913 0.097482
O O6 0.755622 0.564818 0.099265
O O7 0.153334 0.507692 0.197934
O O8 0.332570 0.224185 0.482460
O O9 0.433542 0.440332 0.587690
O O10 0.000000 0.500000 0.500000
O O11 0.108489 0.044490 0.558759
O O12 0.081758 0.355103 0.379425
O O13 0.223037 0.878330 0.392772
O O14 0.742713 0.343378 0.695172
O O15 0.646676 0.001152 0.054772
O O16 0.725569 0.367893 0.984210
O O17 0.000000 0.000000 0.000000
#
# Coordination Sequence:
#
# PCOD9009099 Si02
#       8
#     2   2   2   2   2   2   2   2
#     4  10  25  48  72 101 143 186 247 307 367 439
#     4  10  23  46  72  99 140 193 234 303 375 442
#     4  11  25  45  78 112 155 195 245 309 378 448
#     4  11  26  46  71 112 148 195 243 304 377 439
#     4  11  28  49  71 106 143 194 251 302 366 445
#     4  10  21  39  67 102 138 174 237 301 367 449
#     4  12  28  45  75 106 153 195 254 308 372 447
#     4   9  21  41  62 100 136 178 235 293 368 446
#
# _framework density 25.357697000000002
#
# number of rings (size 3 to 8) (size 9 to 14) (size 15 to 20)
#    0.000    1.500    1.250    1.125   12.250    2.500 
#    9.000    0.000    0.000    0.000    0.000    0.000 
#    0.000    0.000    0.000    0.000    0.000    0.000 
#
# Total GULP energy -89392.422957 kJ/mol
# GULP energy per Si atom -5587.026435 kJ/mol
# Density = 2.529998 g / cm^3
# Si number density = 25.357697 Si / 1000 Ang^3
#
#
#
# Elastic Constant Matrix: (Units=GPa)
#
#
# Indices 1 2 3 4 5 6 
#
# 1 72.0966 27.5026 58.9054 3.3663 -5.3421 -8.0798
# 2 27.5026 97.9463 63.5441 -8.0691 -0.8798 -4.6635
# 3 58.9054 63.5441 247.7616 -6.4667 -8.1610 1.8045
# 4 3.3663 -8.0691 -6.4667 31.0735 2.7611 -7.2657
# 5 -5.3421 -0.8798 -8.1610 2.7611 33.5401 -1.2871
# 6 -8.0798 -4.6635 1.8045 -7.2657 -1.2871 43.9252
#
#
#
# Elastic Compliance Matrix: (Units=1/GPa)
#
#
# Indices 1 2 3 4 5 6 
#
# 1 0.018654 -0.002933 -0.003707 -0.003102 0.002356 0.002828
# 2 -0.002933 0.013088 -0.002609 0.003619 -0.000998 0.001527
# 3 -0.003707 -0.002609 0.005630 0.000589 0.000621 -0.001074
# 4 -0.003102 0.003619 0.000589 0.035131 -0.002936 0.005514
# 5 0.002356 -0.000998 0.000621 -0.002936 0.030584 0.000712
# 6 0.002828 0.001527 -0.001074 0.005514 0.000712 0.024425
#
#
# Mechanical properties :
#
#
# Convention : Reuss Voigt Hill
#
# Bulk Modulus (GPa) = 52.98040 79.74540 66.36290
# Shear Modulus (GPa) = 32.82983 39.56460 36.19721
#
# Velocity S-wave (km/s) = 3.60205 3.95430 3.78228
# Velocity P-wave (km/s) = 6.18371 7.23637 6.73065
#
# Compressibility (1/GPa) = 0.01887490
#
# Stress axis : x y z
#
# Youngs Moduli (GPa) = 53.60791 76.40828 177.61365
#
# Poissons Ratio (x) = 0.22409 0.65837
# Poissons Ratio (y) = 0.15722 0.46337
# Poissons Ratio (z) = 0.19871 0.19934
#
# Static dielectric constant tensor:
#      x y z
#    x 2.111310 0.025080 0.023170 
#    y 0.025080 2.172270 0.059950 
#    z 0.023170 0.059950 1.937260 
# 
# From -- ./inp_files/581043.got.cif
#   From: 2010.05.17/outbox.cif.g08.bks.cpg/sg2_291_cif.got.tgz:581043.got - 2010.06.03 11:33:40.
