data_PCOD9009256
_publ_section_title
;
Structure prediction by ZEFSAII (Michael W. Deem and Ramdas Pophale) SiO2 
 PCOD9009256
Probable space group: P -1
;
_chemical_formula_sum "Si O2"
_cell_formula_units_Z 14
_cell_length_a 8.177829
_cell_length_b 17.387046
_cell_length_c 7.312881
_cell_angle_alpha 146.246703
_cell_angle_beta 101.438121
_cell_angle_gamma 77.370594
_cell_volume 563.494766
_symmetry_space_group_name_H-M "P -1"
_symmetry_group_IT_number 2
_symmetry_cell_setting 'triclinic'
loop_
_space_group_symop_operation_xyz
x,y,z
-x,-y,-z
loop_
_atom_site_type_symbol
_atom_site_label
_atom_site_fract_x
_atom_site_fract_y
_atom_site_fract_z
Si Si1 0.837130 0.358473 0.589828
Si Si2 0.571903 0.594410 0.858032
Si Si3 0.807862 0.056677 0.871794
Si Si4 0.007102 0.656634 0.753051
Si Si5 0.791510 0.969906 0.094639
Si Si6 0.737345 0.287976 0.803901
Si Si7 0.310471 0.154234 0.834087
O O1 0.734302 0.501064 0.785741
O O2 0.850401 0.348036 0.789245
O O3 0.001300 0.340749 0.463454
O O4 0.754660 0.215801 0.233979
O O5 0.500000 0.500000 0.500000
O O6 0.441805 0.625542 0.055183
O O7 0.588752 0.741349 0.051864
O O8 0.704690 0.989977 0.559204
O O9 0.789643 0.960295 0.856284
O O10 0.007291 0.047454 0.847275
O O11 0.000000 0.500000 0.500000
O O12 0.871243 0.757522 0.025777
O O13 0.181777 0.697852 0.951604
O O14 0.730028 0.128006 0.442874
O O15 0.674940 0.879431 0.012399
#
# Coordination Sequence:
#
# PCOD9009256 Si02
#       7
#     2   2   2   2   2   2   2
#     4  11  23  43  68  90 128 172 213 263 323 379
#     4  12  26  47  63  93 133 178 215 261 324 384
#     4  10  21  40  66 100 129 160 215 265 323 381
#     4  12  22  40  64 100 128 165 221 267 317 378
#     4  10  21  39  67  98 128 167 207 267 325 377
#     4  11  24  44  65  90 133 175 212 259 326 383
#     4  12  23  40  69  98 130 165 215 270 318 378
#
# _framework density 24.844950000000001
#
# number of rings (size 3 to 8) (size 9 to 14) (size 15 to 20)
#    0.000    0.857    5.714    1.714    0.000    1.143 
#    7.714    1.429    0.000    0.000    0.000    0.000 
#    0.000    0.000    0.000    0.000    0.000    0.000 
#
# Total GULP energy -78233.997834 kJ/mol
# GULP energy per Si atom -5588.142702 kJ/mol
# Density = 2.478840 g / cm^3
# Si number density = 24.844950 Si / 1000 Ang^3
#
#
#
# Elastic Constant Matrix: (Units=GPa)
#
#
# Indices 1 2 3 4 5 6 
#
# 1 22.2302 -2.9141 17.3755 -9.2239 -6.5499 4.5872
# 2 -2.9141 127.7227 11.8358 -13.6308 9.6917 31.6156
# 3 17.3755 11.8358 99.0678 8.6160 -11.7633 7.1931
# 4 -9.2239 -13.6308 8.6160 41.2509 6.0878 -7.5398
# 5 -6.5499 9.6917 -11.7633 6.0878 24.2337 7.7581
# 6 4.5872 31.6156 7.1931 -7.5398 7.7581 33.2627
#
#
#
# Elastic Compliance Matrix: (Units=1/GPa)
#
#
# Indices 1 2 3 4 5 6 
#
# 1 0.066986 0.006457 -0.012017 0.016204 0.009222 -0.011255
# 2 0.006457 0.011155 -0.002339 0.004124 -0.001804 -0.009632
# 3 -0.012017 -0.002339 0.014281 -0.008067 0.007541 -0.002795
# 4 0.016204 0.004124 -0.008067 0.033699 -0.011547 0.005922
# 5 0.009222 -0.001804 0.007541 -0.011547 0.056475 -0.016978
# 6 -0.011255 -0.009632 -0.002795 0.005922 -0.016978 0.046677
#
#
# Mechanical properties :
#
#
# Convention : Reuss Voigt Hill
#
# Bulk Modulus (GPa) = 13.05058 33.51278 23.28168
# Shear Modulus (GPa) = 18.47663 34.59770 26.53717
#
# Velocity S-wave (km/s) = 2.73000 3.73573 3.27174
# Velocity P-wave (km/s) = 3.89890 5.66795 4.86452
#
# Compressibility (1/GPa) = 0.07662495
#
# Stress axis : x y z
#
# Youngs Moduli (GPa) = 14.92840 89.64881 70.02235
#
# Poissons Ratio (x) = -0.57890 0.84148
# Poissons Ratio (y) = -0.09640 0.16376
# Poissons Ratio (z) = 0.17940 0.20966
#
# Static dielectric constant tensor:
#      x y z
#    x 1.993890 0.029400 0.002630 
#    y 0.029400 1.986920 0.018090 
#    z 0.002630 0.018090 1.885220 
# 
# From -- ./inp_files/221465.got.cif
#   From: 2010.05.17/outbox.cif.g08.bks.cpg/sg2_111_cif.got.tgz:221465.got - 2010.06.03 11:33:40.
