data_PCOD9009521
_publ_section_title
;
Structure prediction by ZEFSAII (Michael W. Deem and Ramdas Pophale) SiO2 
 PCOD9009521
Probable space group: P -1
;
_chemical_formula_sum "Si O2"
_cell_formula_units_Z 16
_cell_length_a 18.822388
_cell_length_b 6.348444
_cell_length_c 7.698436
_cell_angle_alpha 88.122683
_cell_angle_beta 58.668200
_cell_angle_gamma 112.896144
_cell_volume 690.795054
_symmetry_space_group_name_H-M "P -1"
_symmetry_group_IT_number 2
_symmetry_cell_setting 'triclinic'
loop_
_space_group_symop_operation_xyz
x,y,z
-x,-y,-z
loop_
_atom_site_type_symbol
_atom_site_label
_atom_site_fract_x
_atom_site_fract_y
_atom_site_fract_z
Si Si1 0.040276 0.786661 0.965028
Si Si2 0.212656 0.172564 0.236967
Si Si3 0.947488 0.821583 0.731971
Si Si4 0.395339 0.480715 0.816888
Si Si5 0.887285 0.294595 0.795425
Si Si6 0.216885 0.252258 0.605990
Si Si7 0.724652 0.313955 0.234740
Si Si8 0.606841 0.790979 0.520378
O O1 0.982970 0.849708 0.887012
O O2 0.145832 0.986456 0.771451
O O3 0.049889 0.789625 0.163795
O O4 0.000000 0.500000 0.000000
O O5 0.161305 0.235131 0.144988
O O6 0.189724 0.259144 0.442262
O O7 0.162787 0.884941 0.295297
O O8 0.323237 0.305806 0.055959
O O9 0.945759 0.574572 0.681431
O O10 0.000000 0.000000 0.500000
O O11 0.345035 0.626002 0.794596
O O12 0.501465 0.662478 0.732649
O O13 0.400060 0.310491 0.664096
O O14 0.798989 0.267843 0.028861
O O15 0.219145 0.464655 0.711318
O O16 0.321326 0.280152 0.475247
O O17 0.657297 0.076296 0.435024
#
# Coordination Sequence:
#
# PCOD9009521 Si02
#       8
#     2   2   2   2   2   2   2   2
#     4  10  22  45  64  94 126 178 219 267 315 394
#     4  12  24  43  65  94 134 169 211 273 330 382
#     4  11  24  44  63  99 133 170 213 274 332 381
#     4  10  21  39  69  96 125 165 220 262 323 384
#     4  11  23  43  69  94 127 172 222 265 319 386
#     4  11  24  41  63  94 133 168 211 270 332 379
#     4  11  20  41  67  93 124 168 215 265 321 381
#     4  10  21  41  66  96 126 169 213 269 316 392
#
# _framework density 23.161715999999998
#
# number of rings (size 3 to 8) (size 9 to 14) (size 15 to 20)
#    0.000    1.250    5.000    1.125    0.000    2.500 
#    4.500    0.625    0.000    0.000    0.000    0.000 
#    0.000    0.000    0.000    0.000    0.000    0.000 
#
# Total GULP energy -89348.877011 kJ/mol
# GULP energy per Si atom -5584.304813 kJ/mol
# Density = 2.310900 g / cm^3
# Si number density = 23.161716 Si / 1000 Ang^3
#
#
#
# Elastic Constant Matrix: (Units=GPa)
#
#
# Indices 1 2 3 4 5 6 
#
# 1 95.2983 40.3257 42.2865 -8.2505 -13.0257 13.6626
# 2 40.3257 87.3341 32.8616 -13.9715 -0.4924 13.7539
# 3 42.2865 32.8616 96.6347 -16.7451 -11.4922 14.2840
# 4 -8.2505 -13.9715 -16.7451 44.8365 3.2746 5.3102
# 5 -13.0257 -0.4924 -11.4922 3.2746 37.6499 -0.9437
# 6 13.6626 13.7539 14.2840 5.3102 -0.9437 33.7931
#
#
#
# Elastic Compliance Matrix: (Units=1/GPa)
#
#
# Indices 1 2 3 4 5 6 
#
# 1 0.015396 -0.005219 -0.004251 -0.000417 0.003944 -0.002128
# 2 -0.005219 0.015935 -0.002171 0.003882 -0.002701 -0.004144
# 3 -0.004251 -0.002171 0.014606 0.004310 0.002480 -0.004180
# 4 -0.000417 0.003882 0.004310 0.026006 -0.001224 -0.007354
# 5 0.003944 -0.002701 0.002480 -0.001224 0.028739 -0.000548
# 6 -0.002128 -0.004144 -0.004180 -0.007354 -0.000548 0.035046
#
#
# Mechanical properties :
#
#
# Convention : Reuss Voigt Hill
#
# Bulk Modulus (GPa) = 44.13949 56.69053 50.41501
# Shear Modulus (GPa) = 30.01857 34.17545 32.09701
#
# Velocity S-wave (km/s) = 3.60396 3.84541 3.72664
# Velocity P-wave (km/s) = 6.03461 6.65172 6.35066
#
# Compressibility (1/GPa) = 0.02265545
#
# Stress axis : x y z
#
# Youngs Moduli (GPa) = 64.95164 62.75332 68.46277
#
# Poissons Ratio (x) = 0.32749 0.29105
# Poissons Ratio (y) = 0.33896 0.14866
# Poissons Ratio (z) = 0.27612 0.13626
#
# Static dielectric constant tensor:
#      x y z
#    x 1.894990 -0.021810 -0.042460 
#    y -0.021810 1.969110 0.002120 
#    z -0.042460 0.002120 1.898940 
# 
# From -- ./inp_files/339710.got.cif
#   From: 2010.05.17/outbox.cif.g08.bks.cpg/sg2_170_cif.got.tgz:339710.got - 2010.06.03 11:33:40.
