data_PCOD9009494
_publ_section_title
;
Structure prediction by ZEFSAII (Michael W. Deem and Ramdas Pophale) SiO2 
 PCOD9009494
Probable space group: P -1
;
_chemical_formula_sum "Si O2"
_cell_formula_units_Z 16
_cell_length_a 11.045947
_cell_length_b 11.999273
_cell_length_c 17.512108
_cell_angle_alpha 30.281361
_cell_angle_beta 140.877179
_cell_angle_gamma 134.921588
_cell_volume 733.719683
_symmetry_space_group_name_H-M "P -1"
_symmetry_group_IT_number 2
_symmetry_cell_setting 'triclinic'
loop_
_space_group_symop_operation_xyz
x,y,z
-x,-y,-z
loop_
_atom_site_type_symbol
_atom_site_label
_atom_site_fract_x
_atom_site_fract_y
_atom_site_fract_z
Si Si1 0.406277 0.042692 0.848793
Si Si2 0.273994 0.103107 0.018410
Si Si3 0.008882 0.738764 0.645450
Si Si4 0.995232 0.282074 0.176374
Si Si5 0.215469 0.906130 0.444248
Si Si6 0.634688 0.403061 0.188053
Si Si7 0.845784 0.077098 0.771954
Si Si8 0.835796 0.591067 0.496439
O O1 0.554019 0.999127 0.879742
O O2 0.207428 0.878492 0.835853
O O3 0.350660 0.291545 0.683109
O O4 0.500000 0.000000 0.000000
O O5 0.267356 0.045986 0.139380
O O6 0.297725 0.370331 0.867041
O O7 0.066780 0.023988 0.924855
O O8 0.984775 0.632588 0.778349
O O9 0.208214 0.694239 0.731184
O O10 0.857577 0.633913 0.572172
O O11 0.000000 0.000000 0.500000
O O12 0.162580 0.128271 0.329037
O O13 0.000000 0.500000 0.000000
O O14 0.381622 0.786491 0.640268
O O15 0.225064 0.961540 0.326323
O O16 0.021759 0.729557 0.465433
O O17 0.500000 0.500000 0.000000
O O18 0.834380 0.336919 0.626824
#
# Coordination Sequence:
#
# PCOD9009494 Si02
#       8
#     2   2   2   2   2   2   2   2
#     4  11  24  42  65 100 135 171 221 280 338 387
#     4  11  24  40  65  98 132 171 214 279 326 393
#     4  11  19  41  64  92 124 174 224 260 326 406
#     4  11  24  41  72 100 130 175 228 277 331 404
#     4  10  21  40  66  97 127 178 221 271 327 408
#     4  11  23  39  65  91 128 176 217 267 336 390
#     4  11  23  42  66  98 132 172 228 262 332 407
#     4  10  21  39  69  89 126 181 215 269 331 401
#
# _framework density 21.806694
#
# number of rings (size 3 to 8) (size 9 to 14) (size 15 to 20)
#    0.000    1.250    6.250    2.625    3.500    1.500 
#    0.000    1.875    0.000    0.000    0.000    0.000 
#    0.000    0.000    0.000    0.000    0.000    0.000 
#
# Total GULP energy -89298.353498 kJ/mol
# GULP energy per Si atom -5581.147094 kJ/mol
# Density = 2.175706 g / cm^3
# Si number density = 21.806694 Si / 1000 Ang^3
#
#
#
# Elastic Constant Matrix: (Units=GPa)
#
#
# Indices 1 2 3 4 5 6 
#
# 1 80.2575 20.2836 44.9149 11.7673 -13.3454 -7.7034
# 2 20.2836 30.8035 10.1683 13.6218 0.2689 -6.3809
# 3 44.9149 10.1683 139.9605 21.9819 -4.2646 2.6369
# 4 11.7673 13.6218 21.9819 46.6628 -18.4021 -15.7360
# 5 -13.3454 0.2689 -4.2646 -18.4021 47.5526 6.7084
# 6 -7.7034 -6.3809 2.6369 -15.7360 6.7084 23.2186
#
#
#
# Elastic Compliance Matrix: (Units=1/GPa)
#
#
# Indices 1 2 3 4 5 6 
#
# 1 0.020051 -0.012685 -0.006445 0.006476 0.006733 0.006342
# 2 -0.012685 0.046929 0.002763 -0.015342 -0.009621 0.000757
# 3 -0.006445 0.002763 0.010210 -0.007365 -0.002811 -0.006718
# 4 0.006476 -0.015342 -0.007365 0.040761 0.013859 0.022390
# 5 0.006733 -0.009621 -0.002811 0.013859 0.027910 0.001238
# 6 0.006342 0.000757 -0.006718 0.022390 0.001238 0.060961
#
#
# Mechanical properties :
#
#
# Convention : Reuss Voigt Hill
#
# Bulk Modulus (GPa) = 22.49298 44.63945 33.56621
# Shear Modulus (GPa) = 19.65607 35.19711 27.42659
#
# Velocity S-wave (km/s) = 3.00555 4.02188 3.55027
# Velocity P-wave (km/s) = 4.73092 6.48709 5.67732
#
# Compressibility (1/GPa) = 0.04445832
#
# Stress axis : x y z
#
# Youngs Moduli (GPa) = 49.87262 21.30856 97.94396
#
# Poissons Ratio (x) = 0.27030 0.63121
# Poissons Ratio (y) = 0.63263 -0.27065
# Poissons Ratio (z) = 0.32141 -0.05888
#
# Static dielectric constant tensor:
#      x y z
#    x 1.810720 0.036840 -0.052200 
#    y 0.036840 1.809790 0.025100 
#    z -0.052200 0.025100 1.797040 
# 
# From -- ./inp_files/461135.got.cif
#   From: 2010.05.17/outbox.cif.g08.bks.cpg/sg2_231_cif.got.tgz:461135.got - 2010.06.03 11:33:40.
