data_PCOD9009017
_publ_section_title
;
Structure prediction by ZEFSAII (Michael W. Deem and Ramdas Pophale) SiO2 
 PCOD9009017
Probable space group: P -1
;
_chemical_formula_sum "Si O2"
_cell_formula_units_Z 16
_cell_length_a 21.226380
_cell_length_b 19.118151
_cell_length_c 7.337796
_cell_angle_alpha 34.124831
_cell_angle_beta 148.387802
_cell_angle_gamma 157.035926
_cell_volume 594.905372
_symmetry_space_group_name_H-M "P -1"
_symmetry_group_IT_number 2
_symmetry_cell_setting 'triclinic'
loop_
_space_group_symop_operation_xyz
x,y,z
-x,-y,-z
loop_
_atom_site_type_symbol
_atom_site_label
_atom_site_fract_x
_atom_site_fract_y
_atom_site_fract_z
Si Si1 0.790703 0.823701 0.388724
Si Si2 0.824573 0.355425 0.498271
Si Si3 0.705790 0.517430 0.718798
Si Si4 0.198482 0.875302 0.568670
Si Si5 0.345674 0.240604 0.221970
Si Si6 0.697677 0.305015 0.655796
Si Si7 0.689176 0.996615 0.821205
Si Si8 0.148413 0.332192 0.608817
O O1 0.737774 0.640632 0.694168
O O2 0.694825 0.769829 0.071510
O O3 0.000000 0.000000 0.500000
O O4 0.720793 0.881114 0.221505
O O5 0.851457 0.408944 0.659114
O O6 0.735442 0.152367 0.714780
O O7 0.000000 0.500000 0.500000
O O8 0.701699 0.372934 0.083831
O O9 0.531173 0.414396 0.395664
O O10 0.867408 0.659388 0.666853
O O11 0.182512 0.894072 0.275480
O O12 0.022165 0.766503 0.481992
O O13 0.325691 0.076184 0.538811
O O14 0.273785 0.793058 0.936828
O O15 0.209737 0.235952 0.988964
O O16 0.714371 0.453643 0.461773
O O17 0.508734 0.147050 0.434364
#
# Coordination Sequence:
#
# PCOD9009017 Si02
#       8
#     2   2   2   2   2   2   2   2
#     4  10  21  39  66  97 128 166 212 266 321 375
#     4  12  25  42  62  93 131 171 214 268 322 377
#     4  11  22  43  68  95 131 174 212 261 322 386
#     4  11  22  39  64  94 124 166 213 264 316 380
#     4  10  22  41  66  96 129 170 215 261 319 388
#     4  12  24  41  63  93 126 168 217 266 317 379
#     4  11  23  42  62  89 126 168 211 262 321 385
#     4  11  21  39  65  95 126 165 214 264 316 384
#
# _framework density 26.895033000000002
#
# number of rings (size 3 to 8) (size 9 to 14) (size 15 to 20)
#    0.000    1.000    0.000    9.000    0.000    2.000 
#    0.000    6.250    0.000    0.000    0.000    0.000 
#    0.000    0.000    0.000    0.000    0.000    0.000 
#
# Total GULP energy -89651.639709 kJ/mol
# GULP energy per Si atom -5603.227482 kJ/mol
# Density = 2.683382 g / cm^3
# Si number density = 26.895033 Si / 1000 Ang^3
#
#
#
# Elastic Constant Matrix: (Units=GPa)
#
#
# Indices 1 2 3 4 5 6 
#
# 1 94.4556 7.5670 21.0805 -15.7669 18.8784 -8.8251
# 2 7.5670 113.6147 36.4045 -10.2989 18.2568 -28.4430
# 3 21.0805 36.4045 130.3888 -4.1593 23.8706 -16.4570
# 4 -15.7669 -10.2989 -4.1593 34.7637 -9.6975 15.3096
# 5 18.8784 18.2568 23.8706 -9.6975 43.8120 -15.1904
# 6 -8.8251 -28.4430 -16.4570 15.3096 -15.1904 46.5083
#
#
#
# Elastic Compliance Matrix: (Units=1/GPa)
#
#
# Indices 1 2 3 4 5 6 
#
# 1 0.012381 0.000509 -0.001348 0.004799 -0.003993 -0.000701
# 2 0.000509 0.011140 -0.002181 0.000395 -0.001694 0.005454
# 3 -0.001348 -0.002181 0.009223 -0.001599 -0.003526 0.001049
# 4 0.004799 0.000395 -0.001599 0.036287 0.003081 -0.010352
# 5 -0.003993 -0.001694 -0.003526 0.003081 0.029826 0.005686
# 6 -0.000701 0.005454 0.001049 -0.010352 0.005686 0.030340
#
#
# Mechanical properties :
#
#
# Convention : Reuss Voigt Hill
#
# Bulk Modulus (GPa) = 37.44943 52.06256 44.75600
# Shear Modulus (GPa) = 34.68874 43.24392 38.96633
#
# Velocity S-wave (km/s) = 3.59525 4.01419 3.81048
# Velocity P-wave (km/s) = 5.58471 6.39411 6.00306
#
# Compressibility (1/GPa) = 0.02670268
#
# Stress axis : x y z
#
# Youngs Moduli (GPa) = 80.77016 89.76420 108.42270
#
# Poissons Ratio (x) = -0.04566 0.14615
# Poissons Ratio (y) = -0.04108 0.23651
# Poissons Ratio (z) = 0.10888 0.19581
#
# Static dielectric constant tensor:
#      x y z
#    x 2.110470 0.046980 0.010590 
#    y 0.046980 2.130920 -0.098010 
#    z 0.010590 -0.098010 2.204570 
# 
# From -- ./inp_files/274365.got.cif
#   From: 2010.05.17/outbox.cif.g08.bks.cpg/sg2_138_cif.got.tgz:274365.got - 2010.06.03 11:33:40.
