data_PCOD9009712
_publ_section_title
;
Structure prediction by ZEFSAII (Michael W. Deem and Ramdas Pophale) SiO2 
 PCOD9009712
Probable space group: P -1
;
_chemical_formula_sum "Si O2"
_cell_formula_units_Z 14
_cell_length_a 7.899375
_cell_length_b 11.652882
_cell_length_c 7.342428
_cell_angle_alpha 78.329314
_cell_angle_beta 95.890044
_cell_angle_gamma 54.236291
_cell_volume 515.931661
_symmetry_space_group_name_H-M "P -1"
_symmetry_group_IT_number 2
_symmetry_cell_setting 'triclinic'
loop_
_space_group_symop_operation_xyz
x,y,z
-x,-y,-z
loop_
_atom_site_type_symbol
_atom_site_label
_atom_site_fract_x
_atom_site_fract_y
_atom_site_fract_z
Si Si1 0.169567 0.860989 0.934372
Si Si2 0.651035 0.406872 0.735877
Si Si3 0.174341 0.639869 0.586242
Si Si4 0.847698 0.939848 0.567746
Si Si5 0.534382 0.734472 0.474733
Si Si6 0.406383 0.172799 0.924171
Si Si7 0.840052 0.697686 0.796542
O O1 0.394829 0.833129 0.974771
O O2 0.045830 0.906216 0.718069
O O3 0.211288 0.709797 0.053692
O O4 0.000000 0.000000 0.000000
O O5 0.418790 0.561792 0.713168
O O6 0.778704 0.425442 0.590926
O O7 0.579922 0.321111 0.635890
O O8 0.989035 0.816954 0.467292
O O9 0.068984 0.605637 0.743407
O O10 0.751487 0.866174 0.682964
O O11 0.659999 0.112284 0.498285
O O12 0.703665 0.660196 0.683798
O O13 0.631571 0.771440 0.306734
O O14 0.203482 0.287209 0.998307
O O15 0.500000 0.000000 0.000000
#
# Coordination Sequence:
#
# PCOD9009712 Si02
#       7
#     2   2   2   2   2   2   2
#     4  11  21  38  63  93 121 160 207 260 305 363
#     4  10  22  42  64  86 121 165 209 255 308 372
#     4   9  23  42  59  90 121 163 210 249 314 372
#     4  10  21  40  56  96 118 156 214 245 309 366
#     4  11  22  40  63  94 122 165 205 260 308 364
#     4  11  21  37  60  92 129 158 201 253 314 367
#     4  10  23  38  62  88 130 160 204 257 308 369
#
# _framework density 27.135377999999999
#
# number of rings (size 3 to 8) (size 9 to 14) (size 15 to 20)
#    0.857    0.857    4.286    0.429    2.000    5.143 
#    0.000    2.857    0.000    0.000    0.000    0.000 
#    0.000    0.000    0.000    0.000    0.000    0.000 
#
# Total GULP energy -78106.215343 kJ/mol
# GULP energy per Si atom -5579.015382 kJ/mol
# Density = 2.707362 g / cm^3
# Si number density = 27.135378 Si / 1000 Ang^3
#
#
#
# Elastic Constant Matrix: (Units=GPa)
#
#
# Indices 1 2 3 4 5 6 
#
# 1 83.8906 27.7213 13.9694 24.1691 5.3879 -19.0272
# 2 27.7213 110.5449 35.2042 28.5654 -9.2677 -23.3135
# 3 13.9694 35.2042 84.9834 21.8278 -18.3840 -27.6535
# 4 24.1691 28.5654 21.8278 42.0538 -5.0960 -8.6299
# 5 5.3879 -9.2677 -18.3840 -5.0960 38.0200 7.9490
# 6 -19.0272 -23.3135 -27.6535 -8.6299 7.9490 54.3440
#
#
#
# Elastic Compliance Matrix: (Units=1/GPa)
#
#
# Indices 1 2 3 4 5 6 
#
# 1 0.015966 -0.001515 0.000630 -0.008055 -0.004373 0.004621
# 2 -0.001515 0.012223 -0.002406 -0.005580 0.000762 0.002492
# 3 0.000630 -0.002406 0.017423 -0.005792 0.005654 0.006308
# 4 -0.008055 -0.005580 -0.005792 0.034874 0.002273 -0.002956
# 5 -0.004373 0.000762 0.005654 0.002273 0.030658 -0.002451
# 6 0.004621 0.002492 0.006308 -0.002956 -0.002451 0.024187
#
#
# Mechanical properties :
#
#
# Convention : Reuss Voigt Hill
#
# Bulk Modulus (GPa) = 25.62064 48.13429 36.87746
# Shear Modulus (GPa) = 32.27405 40.38516 36.32961
#
# Velocity S-wave (km/s) = 3.45247 3.86201 3.66297
# Velocity P-wave (km/s) = 5.03537 6.13710 5.61333
#
# Compressibility (1/GPa) = 0.03903103
#
# Stress axis : x y z
#
# Youngs Moduli (GPa) = 62.63422 81.81080 57.39458
#
# Poissons Ratio (x) = 0.12392 -0.03615
# Poissons Ratio (y) = 0.09488 0.13807
# Poissons Ratio (z) = -0.03945 0.19681
#
# Static dielectric constant tensor:
#      x y z
#    x 2.326270 0.193870 -0.185750 
#    y 0.193870 2.314440 -0.197950 
#    z -0.185750 -0.197950 2.251920 
# 
# From -- ./inp_files/206910.got.cif
#   From: 2010.05.17/outbox.cif.g08.bks.cpg/sg2_104_cif.got.tgz:206910.got - 2010.06.03 11:33:40.
