data_PCOD9009755
_publ_section_title
;
Structure prediction by ZEFSAII (Michael W. Deem and Ramdas Pophale) SiO2 
 PCOD9009755
Probable space group: P -1
;
_chemical_formula_sum "Si O2"
_cell_formula_units_Z 16
_cell_length_a 18.927600
_cell_length_b 18.246962
_cell_length_c 11.438801
_cell_angle_alpha 147.243874
_cell_angle_beta 23.460609
_cell_angle_gamma 157.922316
_cell_volume 590.073741
_symmetry_space_group_name_H-M "P -1"
_symmetry_group_IT_number 2
_symmetry_cell_setting 'triclinic'
loop_
_space_group_symop_operation_xyz
x,y,z
-x,-y,-z
loop_
_atom_site_type_symbol
_atom_site_label
_atom_site_fract_x
_atom_site_fract_y
_atom_site_fract_z
Si Si1 0.920857 0.043897 0.366856
Si Si2 0.452771 0.721403 0.787075
Si Si3 0.060009 0.325375 0.209584
Si Si4 0.202607 0.432489 0.589534
Si Si5 0.522393 0.686252 0.897170
Si Si6 0.625513 0.699184 0.139518
Si Si7 0.599045 0.037750 0.687211
Si Si8 0.271724 0.916907 0.822027
O O1 0.734522 0.979987 0.455074
O O2 0.988466 0.224395 0.570853
O O3 0.732594 0.856550 0.484699
O O4 0.189111 0.140613 0.030573
O O5 0.217542 0.546322 0.826994
O O6 0.454395 0.654741 0.822052
O O7 0.444509 0.876576 0.032852
O O8 0.815103 0.222069 0.521687
O O9 0.973056 0.249057 0.106739
O O10 0.274539 0.558199 0.185695
O O11 0.189078 0.267688 0.000432
O O12 0.356472 0.391030 0.359787
O O13 0.366225 0.599870 0.466468
O O14 0.707760 0.913275 0.948655
O O15 0.500000 0.500000 0.000000
O O16 0.346269 0.883895 0.785613
O O17 0.500000 0.000000 0.500000
#
# Coordination Sequence:
#
# PCOD9009755 Si02
#       8
#     2   2   2   2   2   2   2   2
#     4  10  21  40  59  80 119 155 190 248 290 330
#     4  11  23  36  57  86 119 158 194 231 289 354
#     4   9  18  37  63  85 114 151 188 242 294 327
#     4  10  22  39  60  86 115 155 197 232 290 354
#     4  10  22  39  59  89 121 146 194 248 282 345
#     4   8  17  37  60  83 111 147 193 238 282 338
#     4   9  20  39  58  86 120 150 196 244 283 342
#     4   9  19  35  59  89 112 147 194 235 291 340
#
# _framework density 27.115257
#
# number of rings (size 3 to 8) (size 9 to 14) (size 15 to 20)
#    0.000    2.500    0.000    0.750    0.000   10.000 
#    0.000   25.000    0.000    0.000    0.000    0.000 
#    0.000    0.000    0.000    0.000    0.000    0.000 
#
# Total GULP energy -89388.001595 kJ/mol
# GULP energy per Si atom -5586.750100 kJ/mol
# Density = 2.705354 g / cm^3
# Si number density = 27.115257 Si / 1000 Ang^3
#
#
#
# Elastic Constant Matrix: (Units=GPa)
#
#
# Indices 1 2 3 4 5 6 
#
# 1 118.5438 18.0825 23.2262 -10.6626 7.1317 2.9769
# 2 18.0825 97.1777 16.0907 -26.6172 15.4758 5.2758
# 3 23.2262 16.0907 83.6676 -5.0252 15.2100 -7.7362
# 4 -10.6626 -26.6172 -5.0252 45.6550 0.6629 8.5368
# 5 7.1317 15.4758 15.2100 0.6629 36.6513 3.3033
# 6 2.9769 5.2758 -7.7362 8.5368 3.3033 55.9126
#
#
#
# Elastic Compliance Matrix: (Units=1/GPa)
#
#
# Indices 1 2 3 4 5 6 
#
# 1 0.009204 -0.000755 -0.002318 0.001641 -0.000453 -0.000963
# 2 -0.000755 0.013853 -0.001249 0.008286 -0.005117 -0.002402
# 3 -0.002318 -0.001249 0.013976 -0.000124 -0.005044 0.002492
# 4 0.001641 0.008286 -0.000124 0.028085 -0.003829 -0.004948
# 5 -0.000453 -0.005117 -0.005044 -0.003829 0.031830 -0.001487
# 6 -0.000963 -0.002402 0.002492 -0.004948 -0.001487 0.019351
#
#
# Mechanical properties :
#
#
# Convention : Reuss Voigt Hill
#
# Bulk Modulus (GPa) = 35.22497 46.02090 40.62294
# Shear Modulus (GPa) = 37.20137 43.77643 40.48890
#
# Velocity S-wave (km/s) = 3.70803 4.02239 3.86841
# Velocity P-wave (km/s) = 5.59926 6.21144 5.91328
#
# Compressibility (1/GPa) = 0.02838895
#
# Stress axis : x y z
#
# Youngs Moduli (GPa) = 108.64752 72.18877 71.55345
#
# Poissons Ratio (x) = 0.05450 0.16586
# Poissons Ratio (y) = 0.08202 0.08935
# Poissons Ratio (z) = 0.25185 0.09014
#
# Static dielectric constant tensor:
#      x y z
#    x 2.134160 0.043590 -0.017010 
#    y 0.043590 2.189450 0.080820 
#    z -0.017010 0.080820 2.177000 
# 
# From -- ./inp_files/472751.got.cif
#   From: 2010.05.17/outbox.cif.g08.bks.cpg/sg2_237_cif.got.tgz:472751.got - 2010.06.03 11:33:40.
