data_PCOD9009173
_publ_section_title
;
Structure prediction by ZEFSAII (Michael W. Deem and Ramdas Pophale) SiO2 
 PCOD9009173
Probable space group: P -1
;
_chemical_formula_sum "Si O2"
_cell_formula_units_Z 14
_cell_length_a 9.537356
_cell_length_b 8.443874
_cell_length_c 15.379711
_cell_angle_alpha 78.551453
_cell_angle_beta 142.968891
_cell_angle_gamma 116.243663
_cell_volume 641.078111
_symmetry_space_group_name_H-M "P -1"
_symmetry_group_IT_number 2
_symmetry_cell_setting 'triclinic'
loop_
_space_group_symop_operation_xyz
x,y,z
-x,-y,-z
loop_
_atom_site_type_symbol
_atom_site_label
_atom_site_fract_x
_atom_site_fract_y
_atom_site_fract_z
Si Si1 0.592333 0.019818 0.186845
Si Si2 0.266262 0.540596 0.574367
Si Si3 0.728225 0.807355 0.902275
Si Si4 0.967509 0.404782 0.899980
Si Si5 0.575712 0.702414 0.554099
Si Si6 0.347752 0.186907 0.609234
Si Si7 0.891019 0.234229 0.144470
O O1 0.741318 0.967199 0.341632
O O2 0.458663 0.137153 0.142377
O O3 0.789392 0.136401 0.195899
O O4 0.345386 0.852241 0.033211
O O5 0.522992 0.675962 0.742518
O O6 0.326784 0.652986 0.500141
O O7 0.278693 0.349952 0.583234
O O8 0.000000 0.500000 0.500000
O O9 0.841461 0.680437 0.011215
O O10 0.000000 0.000000 0.000000
O O11 0.662643 0.257118 0.765147
O O12 0.019214 0.551946 0.835342
O O13 0.000000 0.500000 0.000000
O O14 0.500000 0.500000 0.500000
O O15 0.670882 0.836521 0.502497
O O16 0.838453 0.773536 0.736807
#
# Coordination Sequence:
#
# PCOD9009173 Si02
#       7
#     2   2   2   2   2   2   2
#     4  11  25  40  67 102 132 171 230 288 331 388
#     4  11  24  42  70  99 140 177 227 283 339 407
#     4  12  23  39  70 102 133 171 230 288 332 393
#     4  12  19  40  71  90 127 181 228 262 343 402
#     4  10  21  39  67  94 127 181 222 260 335 413
#     4  11  22  43  70  95 133 189 219 269 345 418
#     4  11  22  43  67  95 135 177 225 276 336 411
#
# _framework density 21.838214000000001
#
# number of rings (size 3 to 8) (size 9 to 14) (size 15 to 20)
#    0.000    0.857    7.143    0.857    4.000    1.143 
#    0.000    3.571    0.000    0.000    0.000    0.000 
#    0.000    0.000    0.000    0.000    0.000    0.000 
#
# Total GULP energy -77996.377448 kJ/mol
# GULP energy per Si atom -5571.169818 kJ/mol
# Density = 2.178851 g / cm^3
# Si number density = 21.838214 Si / 1000 Ang^3
#
#
#
# Elastic Constant Matrix: (Units=GPa)
#
#
# Indices 1 2 3 4 5 6 
#
# 1 151.4494 47.0596 43.5060 -24.2747 14.2759 18.2750
# 2 47.0596 67.4717 21.4359 -21.9325 -13.1100 19.9792
# 3 43.5060 21.4359 106.3332 -19.2069 3.0571 13.7631
# 4 -24.2747 -21.9325 -19.2069 35.3048 2.0288 1.9486
# 5 14.2759 -13.1100 3.0571 2.0288 21.3754 -11.7725
# 6 18.2750 19.9792 13.7631 1.9486 -11.7725 36.4211
#
#
#
# Elastic Compliance Matrix: (Units=1/GPa)
#
#
# Indices 1 2 3 4 5 6 
#
# 1 0.012935 -0.008531 -0.001304 0.004340 -0.018187 -0.007429
# 2 -0.008531 0.030654 -0.000140 0.012351 0.019596 -0.006809
# 3 -0.001304 -0.000140 0.011914 0.006068 -0.004563 -0.005570
# 4 0.004340 0.012351 0.006068 0.043749 -0.009521 -0.016664
# 5 -0.018187 0.019596 -0.004563 -0.009521 0.088616 0.029253
# 6 -0.007429 -0.006809 -0.005570 -0.016664 0.029253 0.047371
#
#
# Mechanical properties :
#
#
# Convention : Reuss Voigt Hill
#
# Bulk Modulus (GPa) = 28.12719 61.02861 44.57790
# Shear Modulus (GPa) = 18.72371 32.83710 25.78040
#
# Velocity S-wave (km/s) = 2.93129 3.88190 3.43959
# Velocity P-wave (km/s) = 4.93603 6.93532 6.01926
#
# Compressibility (1/GPa) = 0.03555279
#
# Stress axis : x y z
#
# Youngs Moduli (GPa) = 77.31230 32.62183 83.93153
#
# Poissons Ratio (x) = 0.27829 0.10946
# Poissons Ratio (y) = 0.65953 0.01179
# Poissons Ratio (z) = 0.10083 0.00458
#
# Static dielectric constant tensor:
#      x y z
#    x 1.863810 0.019270 -0.000810 
#    y 0.019270 1.783200 0.022110 
#    z -0.000810 0.022110 1.916740 
# 
# From -- ./inp_files/494989.got.cif
#   From: 2010.05.17/outbox.cif.g08.bks.cpg/sg2_248_cif.got.tgz:494989.got - 2010.06.03 11:33:40.
