data_PCOD9009357
_publ_section_title
;
Structure prediction by ZEFSAII (Michael W. Deem and Ramdas Pophale) SiO2 
 PCOD9009357
Probable space group: P -1
;
_chemical_formula_sum "Si O2"
_cell_formula_units_Z 16
_cell_length_a 8.761337
_cell_length_b 13.401964
_cell_length_c 13.088839
_cell_angle_alpha 133.936567
_cell_angle_beta 40.686129
_cell_angle_gamma 112.207772
_cell_volume 684.600927
_symmetry_space_group_name_H-M "P -1"
_symmetry_group_IT_number 2
_symmetry_cell_setting 'triclinic'
loop_
_space_group_symop_operation_xyz
x,y,z
-x,-y,-z
loop_
_atom_site_type_symbol
_atom_site_label
_atom_site_fract_x
_atom_site_fract_y
_atom_site_fract_z
Si Si1 0.759460 0.372352 0.286238
Si Si2 0.927901 0.627361 0.332371
Si Si3 0.853417 0.134506 0.238879
Si Si4 0.214107 0.805137 0.060083
Si Si5 0.528275 0.400020 0.045862
Si Si6 0.307199 0.209610 0.625031
Si Si7 0.532419 0.287839 0.759834
Si Si8 0.071966 0.129390 0.341818
O O1 0.500000 0.500000 0.500000
O O2 0.933672 0.472182 0.259777
O O3 0.792351 0.280780 0.307395
O O4 0.789138 0.260950 0.097462
O O5 0.758143 0.672709 0.349951
O O6 0.198319 0.614419 0.145511
O O7 0.846442 0.752812 0.549709
O O8 0.590197 0.112484 0.388907
O O9 0.019984 0.147432 0.260256
O O10 0.000000 0.000000 0.000000
O O11 0.422274 0.685072 0.933901
O O12 0.943186 0.832469 0.268993
O O13 0.242906 0.964826 0.157823
O O14 0.435296 0.318385 0.945373
O O15 0.397540 0.573409 0.226465
O O16 0.341564 0.264974 0.759590
O O17 0.788000 0.156744 0.542493
#
# Coordination Sequence:
#
# PCOD9009357 Si02
#       8
#     2   2   2   2   2   2   2   2
#     4  12  24  42  70  95 125 172 219 258 323 386
#     4  10  21  40  65  95 126 169 215 264 315 384
#     4  11  23  45  65  95 134 169 207 273 319 377
#     4  11  23  41  67  97 124 174 216 260 317 387
#     4   9  19  35  61  92 133 162 208 265 319 371
#     4  10  21  39  68  93 128 166 216 261 316 376
#     4   9  18  34  57  92 127 164 201 267 316 363
#     4  10  23  41  64  90 135 167 211 266 323 373
#
# _framework density 23.371281
#
# number of rings (size 3 to 8) (size 9 to 14) (size 15 to 20)
#    0.000    1.750    2.500    1.500    1.750    9.000 
#    2.250    2.500    5.500    0.000    0.000    0.000 
#    0.000    0.000    0.000    0.000    0.000    0.000 
#
# Total GULP energy -89311.656105 kJ/mol
# GULP energy per Si atom -5581.978507 kJ/mol
# Density = 2.331809 g / cm^3
# Si number density = 23.371281 Si / 1000 Ang^3
#
#
#
# Elastic Constant Matrix: (Units=GPa)
#
#
# Indices 1 2 3 4 5 6 
#
# 1 63.1415 1.8777 -18.5798 -8.7738 -1.8243 -5.7591
# 2 1.8777 46.9859 9.4872 10.9902 0.2490 -10.5072
# 3 -18.5798 9.4872 63.7714 7.8570 -5.3385 14.5187
# 4 -8.7738 10.9902 7.8570 32.9597 -4.3549 -1.0201
# 5 -1.8243 0.2490 -5.3385 -4.3549 25.5493 5.1227
# 6 -5.7591 -10.5072 14.5187 -1.0201 5.1227 26.0896
#
#
#
# Elastic Compliance Matrix: (Units=1/GPa)
#
#
# Indices 1 2 3 4 5 6 
#
# 1 0.018343 -0.003318 0.005741 0.005066 0.003604 -0.000992
# 2 -0.003318 0.029053 -0.008624 -0.008948 -0.007223 0.016836
# 3 0.005741 -0.008624 0.023266 -0.000522 0.008649 -0.016872
# 4 0.005066 -0.008948 -0.000522 0.035635 0.006844 -0.002146
# 5 0.003604 -0.007223 0.008649 0.006844 0.045571 -0.015607
# 6 -0.000992 0.016836 -0.016872 -0.002146 -0.015607 0.057261
#
#
# Mechanical properties :
#
#
# Convention : Reuss Voigt Hill
#
# Bulk Modulus (GPa) = 17.16429 17.71878 17.44153
# Shear Modulus (GPa) = 20.75107 28.99397 24.87252
#
# Velocity S-wave (km/s) = 2.98298 3.52601 3.26580
# Velocity P-wave (km/s) = 4.38456 4.91680 4.65828
#
# Compressibility (1/GPa) = 0.05826050
#
# Stress axis : x y z
#
# Youngs Moduli (GPa) = 54.51623 34.41960 42.98055
#
# Poissons Ratio (x) = 0.11421 -0.24676
# Poissons Ratio (y) = 0.18090 0.37067
# Poissons Ratio (z) = -0.31299 0.29684
#
# Static dielectric constant tensor:
#      x y z
#    x 1.950520 0.067740 -0.035850 
#    y 0.067740 1.916920 -0.028810 
#    z -0.035850 -0.028810 1.914320 
# 
# From -- ./inp_files/392960.got.cif
#   From: 2010.05.17/outbox.cif.g08.bks.cpg/sg2_197_cif.got.tgz:392960.got - 2010.06.03 11:33:40.
