data_PCOD9009122
_publ_section_title
;
Structure prediction by ZEFSAII (Michael W. Deem and Ramdas Pophale) SiO2 
 PCOD9009122
Probable space group: P -1
;
_chemical_formula_sum "Si O2"
_cell_formula_units_Z 16
_cell_length_a 15.025346
_cell_length_b 6.398712
_cell_length_c 14.218219
_cell_angle_alpha 97.269368
_cell_angle_beta 36.338709
_cell_angle_gamma 85.029224
_cell_volume 761.031485
_symmetry_space_group_name_H-M "P -1"
_symmetry_group_IT_number 2
_symmetry_cell_setting 'triclinic'
loop_
_space_group_symop_operation_xyz
x,y,z
-x,-y,-z
loop_
_atom_site_type_symbol
_atom_site_label
_atom_site_fract_x
_atom_site_fract_y
_atom_site_fract_z
Si Si1 0.210194 0.771257 0.041615
Si Si2 0.124691 0.425634 0.211101
Si Si3 0.139912 0.770826 0.370088
Si Si4 0.358605 0.942866 0.533608
Si Si5 0.895503 0.182457 0.382345
Si Si6 0.627634 0.627616 0.379597
Si Si7 0.647451 0.038574 0.925847
Si Si8 0.825264 0.168731 0.144381
O O1 0.201489 0.535101 0.070941
O O2 0.360004 0.814966 0.966262
O O3 0.214742 0.815609 0.930606
O O4 0.044859 0.950718 0.232975
O O5 0.090994 0.596098 0.337318
O O6 0.976344 0.364553 0.290770
O O7 0.237516 0.200724 0.150571
O O8 0.162526 0.729818 0.458908
O O9 0.282316 0.828007 0.201549
O O10 0.000000 0.000000 0.500000
O O11 0.248295 0.862169 0.552448
O O12 0.539796 0.780366 0.374982
O O13 0.281563 0.922690 0.700087
O O14 0.356356 0.197154 0.546024
O O15 0.500000 0.500000 0.500000
O O16 0.790359 0.428190 0.216269
O O17 0.500000 0.000000 0.000000
O O18 0.000000 0.000000 0.000000
#
# Coordination Sequence:
#
# PCOD9009122 Si02
#       8
#     2   2   2   2   2   2   2   2
#     4  10  22  39  61  95 127 162 218 267 319 394
#     4  10  21  39  67  86 134 161 213 273 318 377
#     4  11  20  39  62  94 126 163 212 268 320 386
#     4  10  22  44  64  90 134 166 220 272 323 391
#     4  11  21  38  63  98 119 165 216 268 321 385
#     4   9  22  44  63  88 127 170 212 272 326 383
#     4  10  23  43  60  91 131 170 212 267 330 391
#     4  11  22  42  65  95 127 173 216 265 333 387
#
# _framework density 21.024097000000001
#
# number of rings (size 3 to 8) (size 9 to 14) (size 15 to 20)
#    0.000    1.750    5.000    0.375    0.000    6.500 
#   11.250    0.000    0.000    0.000    0.000    0.000 
#    0.000    0.000    0.000    0.000    0.000    0.000 
#
# Total GULP energy -89086.917227 kJ/mol
# GULP energy per Si atom -5567.932327 kJ/mol
# Density = 2.097625 g / cm^3
# Si number density = 21.024097 Si / 1000 Ang^3
#
#
#
# Elastic Constant Matrix: (Units=GPa)
#
#
# Indices 1 2 3 4 5 6 
#
# 1 129.9970 40.1263 12.4225 -9.3160 -3.2883 29.0170
# 2 40.1263 113.7652 13.0146 6.5522 -6.6225 25.1475
# 3 12.4225 13.0146 22.5890 6.5840 5.6593 -2.4439
# 4 -9.3160 6.5522 6.5840 25.6794 -11.8030 -3.3910
# 5 -3.2883 -6.6225 5.6593 -11.8030 39.2438 -8.1237
# 6 29.0170 25.1475 -2.4439 -3.3910 -8.1237 36.4119
#
#
#
# Elastic Compliance Matrix: (Units=1/GPa)
#
#
# Indices 1 2 3 4 5 6 
#
# 1 0.011170 -0.001622 -0.008609 0.006871 0.002487 -0.007165
# 2 -0.001622 0.011901 -0.005992 -0.002952 0.000288 -0.007539
# 3 -0.008609 -0.005992 0.064765 -0.024553 -0.016516 0.009375
# 4 0.006871 -0.002952 -0.024553 0.059649 0.022704 0.005536
# 5 0.002487 0.000288 -0.016516 0.022704 0.036386 0.006943
# 6 -0.007165 -0.007539 0.009375 0.005536 0.006943 0.041074
#
#
# Mechanical properties :
#
#
# Convention : Reuss Voigt Hill
#
# Bulk Modulus (GPa) = 18.05405 44.16421 31.10913
# Shear Modulus (GPa) = 18.12541 33.65286 25.88913
#
# Velocity S-wave (km/s) = 2.93938 4.00519 3.51294
# Velocity P-wave (km/s) = 4.48619 6.51466 5.59315
#
# Compressibility (1/GPa) = 0.05538923
#
# Stress axis : x y z
#
# Youngs Moduli (GPa) = 89.52198 84.02611 15.44051
#
# Poissons Ratio (x) = 0.13632 0.13293
# Poissons Ratio (y) = 0.14523 0.09252
# Poissons Ratio (z) = 0.77071 0.50349
#
# Static dielectric constant tensor:
#      x y z
#    x 1.778190 0.035750 -0.043370 
#    y 0.035750 1.751070 0.068200 
#    z -0.043370 0.068200 1.759800 
# 
# From -- ./inp_files/89933.got.cif
#   From: 2010.05.17/outbox.cif.g08.bks.cpg/sg2_45_cif.got.tgz:89933.got - 2010.06.03 11:33:40.
