data_PCOD9009669
_publ_section_title
;
Structure prediction by ZEFSAII (Michael W. Deem and Ramdas Pophale) SiO2 
 PCOD9009669
Probable space group: P -1
;
_chemical_formula_sum "Si O2"
_cell_formula_units_Z 15
_cell_length_a 11.314746
_cell_length_b 17.518690
_cell_length_c 9.161156
_cell_angle_alpha 94.671507
_cell_angle_beta 105.657529
_cell_angle_gamma 149.382575
_cell_volume 684.497993
_symmetry_space_group_name_H-M "P -1"
_symmetry_group_IT_number 2
_symmetry_cell_setting 'triclinic'
loop_
_space_group_symop_operation_xyz
x,y,z
-x,-y,-z
loop_
_atom_site_type_symbol
_atom_site_label
_atom_site_fract_x
_atom_site_fract_y
_atom_site_fract_z
Si Si1 0.500000 0.500000 0.000000
Si Si2 0.398873 0.159757 0.576242
Si Si3 0.544644 0.798516 0.907449
Si Si4 0.316995 0.578413 0.541368
Si Si5 0.226404 0.698041 0.055273
Si Si6 0.874875 0.226488 0.152880
Si Si7 0.838561 0.762805 0.863151
Si Si8 0.286986 0.222373 0.798673
O O1 0.336820 0.364763 0.069809
O O2 0.491350 0.578246 0.090251
O O3 0.606251 0.317152 0.544807
O O4 0.533769 0.164466 0.708867
O O5 0.358118 0.203598 0.689689
O O6 0.061139 0.946796 0.368532
O O7 0.300780 0.619797 0.688566
O O8 0.388179 0.763288 0.969612
O O9 0.692287 0.815655 0.055070
O O10 0.831051 0.005587 0.957710
O O11 0.611250 0.689733 0.685461
O O12 0.025374 0.359533 0.359418
O O13 0.078021 0.692884 0.961570
O O14 0.000000 0.500000 0.000000
O O15 0.056220 0.250764 0.198387
O O16 0.500000 0.000000 0.000000
#
# Coordination Sequence:
#
# PCOD9009669 Si02
#       8
#     1   2   2   2   2   2   2   2
#     4  12  24  38  64 106 146 166 216 300 360 392
#     4  10  21  39  72  94 129 182 236 271 338 422
#     4  11  23  45  72 102 141 181 233 294 351 417
#     4  12  23  43  74 108 132 183 239 292 354 410
#     4  11  24  46  70  96 139 194 235 277 341 430
#     4  12  27  47  67 103 145 190 234 287 348 422
#     4  12  25  44  73 105 144 180 231 299 353 415
#     4  10  21  40  64 101 135 173 221 288 347 407
#
# _framework density 21.913868000000001
#
# number of rings (size 3 to 8) (size 9 to 14) (size 15 to 20)
#    0.000    0.800    5.333    2.400    1.867    1.600 
#    0.000    0.000    0.000    3.200    0.000    0.000 
#    0.000    0.000    0.000    0.000    0.000    0.000 
#
# Total GULP energy -83580.091462 kJ/mol
# GULP energy per Si atom -5572.006097 kJ/mol
# Density = 2.186399 g / cm^3
# Si number density = 21.913868 Si / 1000 Ang^3
#
#
#
# Elastic Constant Matrix: (Units=GPa)
#
#
# Indices 1 2 3 4 5 6 
#
# 1 54.0145 21.3542 20.3010 -10.1519 5.5491 -12.2962
# 2 21.3542 98.8214 25.4500 -9.4496 -6.3398 1.1015
# 3 20.3010 25.4500 113.8798 -9.8125 -0.1255 5.5484
# 4 -10.1519 -9.4496 -9.8125 26.2174 5.6199 3.2782
# 5 5.5491 -6.3398 -0.1255 5.6199 29.0469 -2.4633
# 6 -12.2962 1.1015 5.5484 3.2782 -2.4633 35.1244
#
#
#
# Elastic Compliance Matrix: (Units=1/GPa)
#
#
# Indices 1 2 3 4 5 6 
#
# 1 0.025518 -0.004466 -0.003334 0.007376 -0.006575 0.008450
# 2 -0.004466 0.011861 -0.001645 0.001485 0.003012 -0.001603
# 3 -0.003334 -0.001645 0.010089 0.002343 -0.000382 -0.002955
# 4 0.007376 0.001485 0.002343 0.044894 -0.009992 -0.002725
# 5 -0.006575 0.003012 -0.000382 -0.009992 0.038381 0.001289
# 6 0.008450 -0.001603 -0.002955 -0.002725 0.001289 0.032290
#
#
# Mechanical properties :
#
#
# Convention : Reuss Voigt Hill
#
# Bulk Modulus (GPa) = 34.99388 44.54735 39.77062
# Shear Modulus (GPa) = 26.11655 31.38510 28.75083
#
# Velocity S-wave (km/s) = 3.45596 3.78855 3.62607
# Velocity P-wave (km/s) = 5.65052 6.28570 5.97656
#
# Compressibility (1/GPa) = 0.02857642
#
# Stress axis : x y z
#
# Youngs Moduli (GPa) = 39.18830 84.30920 99.12064
#
# Poissons Ratio (x) = 0.37653 0.33050
# Poissons Ratio (y) = 0.17502 0.16308
# Poissons Ratio (z) = 0.13067 0.13871
#
# Static dielectric constant tensor:
#      x y z
#    x 1.837010 0.014680 0.024390 
#    y 0.014680 1.789890 0.034920 
#    z 0.024390 0.034920 1.865280 
# 
# From -- ./inp_files/277939.got.cif
#   From: 2010.05.17/outbox.cif.g08.bks.cpg/sg2_139_cif.got.tgz:277939.got - 2010.06.03 11:33:40.
