data_PCOD9009916
_publ_section_title
;
Structure prediction by ZEFSAII (Michael W. Deem and Ramdas Pophale) SiO2 
 PCOD9009916
Probable space group: P -1
;
_chemical_formula_sum "Si O2"
_cell_formula_units_Z 15
_cell_length_a 9.191988
_cell_length_b 12.955617
_cell_length_c 8.161890
_cell_angle_alpha 63.917966
_cell_angle_beta 54.299772
_cell_angle_gamma 71.095713
_cell_volume 705.911632
_symmetry_space_group_name_H-M "P -1"
_symmetry_group_IT_number 2
_symmetry_cell_setting 'triclinic'
loop_
_space_group_symop_operation_xyz
x,y,z
-x,-y,-z
loop_
_atom_site_type_symbol
_atom_site_label
_atom_site_fract_x
_atom_site_fract_y
_atom_site_fract_z
Si Si1 0.118975 0.900131 0.398936
Si Si2 0.207786 0.458554 0.897264
Si Si3 0.667383 0.311824 0.491099
Si Si4 0.690947 0.374580 0.808450
Si Si5 0.062963 0.227636 0.670211
Si Si6 0.654174 0.623252 0.782020
Si Si7 0.311319 0.223893 0.801598
Si Si8 0.500000 0.000000 0.000000
O O1 0.158918 0.782128 0.562173
O O2 0.315987 0.937114 0.204735
O O3 0.018925 0.867294 0.321822
O O4 0.000000 0.000000 0.500000
O O5 0.305702 0.565455 0.688924
O O6 0.240309 0.342380 0.852464
O O7 0.268604 0.429395 0.061119
O O8 0.000000 0.500000 0.000000
O O9 0.640134 0.332497 0.690691
O O10 0.494246 0.258027 0.568714
O O11 0.669941 0.513330 0.728222
O O12 0.894611 0.323277 0.744860
O O13 0.551341 0.335497 0.063433
O O14 0.217958 0.283775 0.427275
O O15 0.161934 0.187162 0.799870
O O16 0.374939 0.120807 0.952598
#
# Coordination Sequence:
#
# PCOD9009916 Si02
#       8
#     2   2   2   2   2   2   2   1
#     4  10  24  45  73  93 130 178 225 284 331 401
#     4  12  23  36  68 106 134 178 223 274 333 402
#     4  10  22  42  65  97 138 177 219 273 346 387
#     4  10  21  40  60  95 138 189 206 270 329 397
#     4  11  24  42  66  99 132 172 226 279 337 390
#     4  11  23  36  65  98 143 176 221 268 331 404
#     4  11  24  44  68  97 137 176 219 281 334 403
#     4  10  26  48  72  90 134 176 224 274 350 388
#
# _framework density 21.249120000000001
#
# number of rings (size 3 to 8) (size 9 to 14) (size 15 to 20)
#    0.000    1.333    1.333    4.000    7.467    0.533 
#    0.000    2.667    0.000    0.000    0.000    0.000 
#    0.000    0.000    0.000    0.000    0.000    0.000 
#
# Total GULP energy -83613.212881 kJ/mol
# GULP energy per Si atom -5574.214192 kJ/mol
# Density = 2.120076 g / cm^3
# Si number density = 21.249120 Si / 1000 Ang^3
#
#
#
# Elastic Constant Matrix: (Units=GPa)
#
#
# Indices 1 2 3 4 5 6 
#
# 1 115.6402 43.5908 11.5354 4.8731 -6.9080 -5.2391
# 2 43.5908 127.0977 33.7016 -5.4953 13.8008 -12.5683
# 3 11.5354 33.7016 58.4803 -14.9904 -16.1009 -3.4507
# 4 4.8731 -5.4953 -14.9904 28.9356 -2.6627 -0.7004
# 5 -6.9080 13.8008 -16.1009 -2.6627 27.4559 -3.1401
# 6 -5.2391 -12.5683 -3.4507 -0.7004 -3.1401 24.7528
#
#
#
# Elastic Compliance Matrix: (Units=1/GPa)
#
#
# Indices 1 2 3 4 5 6 
#
# 1 0.010770 -0.005012 0.002431 -0.000871 0.006672 0.000895
# 2 -0.005012 0.014980 -0.013327 -0.004701 -0.016785 0.002425
# 3 0.002431 -0.013327 0.038578 0.020111 0.032318 0.003794
# 4 -0.000871 -0.004701 0.020111 0.046062 0.018854 0.003927
# 5 0.006672 -0.016785 0.032318 0.018854 0.068069 0.006564
# 6 0.000895 0.002425 0.003794 0.003927 0.006564 0.043293
#
#
# Mechanical properties :
#
#
# Convention : Reuss Voigt Hill
#
# Bulk Modulus (GPa) = 30.75971 53.20820 41.98395
# Shear Modulus (GPa) = 18.91028 30.38822 24.64925
#
# Velocity S-wave (km/s) = 2.98641 3.78576 3.40959
# Velocity P-wave (km/s) = 5.13797 6.64860 5.94149
#
# Compressibility (1/GPa) = 0.03251006
#
# Stress axis : x y z
#
# Youngs Moduli (GPa) = 92.84891 66.75573 25.92177
#
# Poissons Ratio (x) = 0.33458 -0.06300
# Poissons Ratio (y) = 0.46536 0.34547
# Poissons Ratio (z) = -0.22568 0.88968
#
# Static dielectric constant tensor:
#      x y z
#    x 1.788520 -0.002040 -0.007350 
#    y -0.002040 1.756850 0.001690 
#    z -0.007350 0.001690 1.727680 
# 
# From -- ./inp_files/184816.got.cif
#   From: 2010.05.17/outbox.cif.g08.bks.cpg/sg2_93_cif.got.tgz:184816.got - 2010.06.03 11:33:40.
