data_PCOD9009151
_publ_section_title
;
Structure prediction by ZEFSAII (Michael W. Deem and Ramdas Pophale) SiO2 
 PCOD9009151
Probable space group: P -1
;
_chemical_formula_sum "Si O2"
_cell_formula_units_Z 16
_cell_length_a 8.655456
_cell_length_b 15.615316
_cell_length_c 8.626946
_cell_angle_alpha 106.045737
_cell_angle_beta 127.092859
_cell_angle_gamma 110.069917
_cell_volume 667.460421
_symmetry_space_group_name_H-M "P -1"
_symmetry_group_IT_number 2
_symmetry_cell_setting 'triclinic'
loop_
_space_group_symop_operation_xyz
x,y,z
-x,-y,-z
loop_
_atom_site_type_symbol
_atom_site_label
_atom_site_fract_x
_atom_site_fract_y
_atom_site_fract_z
Si Si1 0.437077 0.767291 0.876766
Si Si2 0.439059 0.428600 0.768323
Si Si3 0.840762 0.026782 0.322289
Si Si4 0.817404 0.624953 0.896313
Si Si5 0.870811 0.833692 0.970216
Si Si6 0.748936 0.901737 0.631884
Si Si7 0.722020 0.331375 0.935424
Si Si8 0.056286 0.744722 0.436700
O O1 0.250981 0.727997 0.601287
O O2 0.686113 0.786764 0.985240
O O3 0.303232 0.684137 0.902638
O O4 0.557398 0.900160 0.060816
O O5 0.613998 0.394022 0.852517
O O6 0.145933 0.313224 0.570495
O O7 0.500000 0.500000 0.000000
O O8 0.523618 0.509783 0.708668
O O9 0.833714 0.121600 0.439294
O O10 0.011558 0.077187 0.294684
O O11 0.000000 0.000000 0.500000
O O12 0.862051 0.727388 0.874204
O O13 0.990997 0.601356 0.914685
O O14 0.941260 0.684251 0.170596
O O15 0.739512 0.855223 0.771435
O O16 0.149225 0.965373 0.232422
O O17 0.484495 0.802261 0.330615
#
# Coordination Sequence:
#
# PCOD9009151 Si02
#       8
#     2   2   2   2   2   2   2   2
#     4  11  23  38  63  97 129 169 213 261 324 390
#     4  10  22  45  68  89 126 175 220 271 323 377
#     4  11  19  38  65  93 128 171 206 260 323 381
#     4  11  25  41  66  93 129 174 220 268 321 381
#     4  10  23  43  62  94 135 172 215 259 332 380
#     4  10  21  39  67  92 132 171 209 271 317 389
#     4  12  23  41  66  97 130 165 224 266 327 379
#     4  11  22  41  64  92 129 169 218 265 320 383
#
# _framework density 23.971457999999998
#
# number of rings (size 3 to 8) (size 9 to 14) (size 15 to 20)
#    0.000    1.250    2.500    4.500    1.750    0.500 
#    2.250    9.375    0.000    0.000    0.000    0.000 
#    0.000    0.000    0.000    0.000    0.000    0.000 
#
# Total GULP energy -89462.051065 kJ/mol
# GULP energy per Si atom -5591.378192 kJ/mol
# Density = 2.391690 g / cm^3
# Si number density = 23.971458 Si / 1000 Ang^3
#
#
#
# Elastic Constant Matrix: (Units=GPa)
#
#
# Indices 1 2 3 4 5 6 
#
# 1 83.0365 19.7481 -14.4326 2.2681 7.1394 17.0902
# 2 19.7481 84.3550 5.1818 0.4070 10.0099 11.4056
# 3 -14.4326 5.1818 30.8324 -10.5843 -1.0105 -3.4809
# 4 2.2681 0.4070 -10.5843 25.6652 0.2287 -6.6357
# 5 7.1394 10.0099 -1.0105 0.2287 23.1793 -4.0316
# 6 17.0902 11.4056 -3.4809 -6.6357 -4.0316 37.8680
#
#
#
# Elastic Compliance Matrix: (Units=1/GPa)
#
#
# Indices 1 2 3 4 5 6 
#
# 1 0.015497 -0.002725 0.006894 0.000004 -0.004340 -0.006001
# 2 -0.002725 0.014275 -0.005643 -0.003519 -0.006386 -0.004885
# 3 0.006894 -0.005643 0.044038 0.019254 0.003147 0.006346
# 4 0.000004 -0.003519 0.019254 0.050031 0.003954 0.012016
# 5 -0.004340 -0.006386 0.003147 0.003954 0.049090 0.010090
# 6 -0.006001 -0.004885 0.006346 0.012016 0.010090 0.034350
#
#
# Mechanical properties :
#
#
# Convention : Reuss Voigt Hill
#
# Bulk Modulus (GPa) = 14.11227 24.35762 19.23495
# Shear Modulus (GPa) = 21.38124 29.85761 25.61942
#
# Velocity S-wave (km/s) = 2.98979 3.53306 3.27272
# Velocity P-wave (km/s) = 4.22118 5.17943 4.72466
#
# Compressibility (1/GPa) = 0.07086032
#
# Stress axis : x y z
#
# Youngs Moduli (GPa) = 64.52724 70.05483 22.70765
#
# Poissons Ratio (x) = 0.19091 -0.15654
# Poissons Ratio (y) = 0.17585 0.12815
# Poissons Ratio (z) = -0.44484 0.39535
#
# Static dielectric constant tensor:
#      x y z
#    x 1.957510 0.037220 -0.036370 
#    y 0.037220 1.938870 0.023910 
#    z -0.036370 0.023910 1.963570 
# 
# From -- ./inp_files/208045.got.cif
#   From: 2010.05.17/outbox.cif.g08.bks.cpg/sg2_105_cif.got.tgz:208045.got - 2010.06.03 11:33:40.
