data_PCOD9009155
_publ_section_title
;
Structure prediction by ZEFSAII (Michael W. Deem and Ramdas Pophale) SiO2 
 PCOD9009155
Probable space group: P -1
;
_chemical_formula_sum "Si O2"
_cell_formula_units_Z 14
_cell_length_a 14.768157
_cell_length_b 15.363330
_cell_length_c 9.169699
_cell_angle_alpha 93.063732
_cell_angle_beta 65.666273
_cell_angle_gamma 150.626496
_cell_volume 678.419255
_symmetry_space_group_name_H-M "P -1"
_symmetry_group_IT_number 2
_symmetry_cell_setting 'triclinic'
loop_
_space_group_symop_operation_xyz
x,y,z
-x,-y,-z
loop_
_atom_site_type_symbol
_atom_site_label
_atom_site_fract_x
_atom_site_fract_y
_atom_site_fract_z
Si Si1 0.801541 0.552583 0.036509
Si Si2 0.310004 0.202893 0.964739
Si Si3 0.257935 0.052190 0.239439
Si Si4 0.924743 0.680836 0.641475
Si Si5 0.822094 0.276960 0.658741
Si Si6 0.200444 0.835828 0.054582
Si Si7 0.689344 0.640832 0.241694
O O1 0.922571 0.688639 0.816946
O O2 0.563946 0.290482 0.123964
O O3 0.653120 0.511264 0.211331
O O4 0.027360 0.700749 0.010267
O O5 0.611068 0.402399 0.770499
O O6 0.366267 0.339176 0.854999
O O7 0.256144 0.144392 0.168413
O O8 0.021289 0.928302 0.070757
O O9 0.207554 0.935647 0.141093
O O10 0.035646 0.854732 0.495188
O O11 0.125510 0.766156 0.474735
O O12 0.918550 0.328115 0.761101
O O13 0.000000 0.500000 0.500000
O O14 0.508388 0.052844 0.845228
O O15 0.500000 0.500000 0.500000
#
# Coordination Sequence:
#
# PCOD9009155 Si02
#       7
#     2   2   2   2   2   2   2
#     4  11  24  41  65  95 127 166 214 260 316 377
#     4  10  21  40  65  89 129 163 211 262 304 382
#     4  10  21  42  64  94 132 170 207 259 312 370
#     4  10  23  41  64  95 131 167 207 264 316 371
#     4  10  21  39  67  93 124 172 209 251 322 368
#     4  10  22  42  64  93 130 166 212 259 303 383
#     4  11  24  40  64  97 123 168 216 260 319 375
#
# _framework density 20.636206999999999
#
# number of rings (size 3 to 8) (size 9 to 14) (size 15 to 20)
#    0.000    1.714    1.429    2.571    2.000    6.286 
#    0.000   14.286    0.000    0.000    0.000    0.000 
#    0.000    0.000    0.000    0.000    0.000    0.000 
#
# Total GULP energy -78015.201673 kJ/mol
# GULP energy per Si atom -5572.514405 kJ/mol
# Density = 2.058924 g / cm^3
# Si number density = 20.636207 Si / 1000 Ang^3
#
#
#
# Elastic Constant Matrix: (Units=GPa)
#
#
# Indices 1 2 3 4 5 6 
#
# 1 127.4645 34.4739 55.2905 -1.9560 29.1275 20.8041
# 2 34.4739 54.9947 15.6337 -9.1831 15.9986 33.1219
# 3 55.2905 15.6337 123.2031 0.2824 33.9350 8.9768
# 4 -1.9560 -9.1831 0.2824 25.2573 -10.5663 5.2431
# 5 29.1275 15.9986 33.9350 -10.5663 32.2633 -4.4810
# 6 20.8041 33.1219 8.9768 5.2431 -4.4810 34.7745
#
#
#
# Elastic Compliance Matrix: (Units=1/GPa)
#
#
# Indices 1 2 3 4 5 6 
#
# 1 0.012613 0.004382 -0.001365 -0.000613 -0.014144 -0.013097
# 2 0.004382 0.173223 0.025534 0.050814 -0.127612 -0.198309
# 3 -0.001365 0.025534 0.016998 0.001828 -0.033217 -0.032448
# 4 -0.000613 0.050814 0.001828 0.064727 -0.013706 -0.060030
# 5 -0.014144 -0.127612 -0.033217 -0.013706 0.159890 0.161253
# 6 -0.013097 -0.198309 -0.032448 -0.060030 0.161253 0.263683
#
#
# Mechanical properties :
#
#
# Convention : Reuss Voigt Hill
#
# Bulk Modulus (GPa) = 3.84708 57.38426 30.61567
# Shear Modulus (GPa) = 6.93794 31.80996 19.37395
#
# Velocity S-wave (km/s) = 1.83557 3.93041 3.06736
# Velocity P-wave (km/s) = 2.52205 6.96171 5.23575
#
# Compressibility (1/GPa) = 0.25993740
#
# Stress axis : x y z
#
# Youngs Moduli (GPa) = 79.28640 5.77292 58.82935
#
# Poissons Ratio (x) = -0.02530 0.08028
# Poissons Ratio (y) = -0.34745 -1.50218
# Poissons Ratio (z) = 0.10820 -0.14741
#
# Static dielectric constant tensor:
#      x y z
#    x 1.755900 0.025970 0.051150 
#    y 0.025970 1.721140 -0.048860 
#    z 0.051150 -0.048860 1.717820 
# 
# From -- ./inp_files/312789.got.cif
#   From: 2010.05.17/outbox.cif.g08.bks.cpg/sg2_157_cif.got.tgz:312789.got - 2010.06.03 11:33:40.
