data_PCOD9009324
_publ_section_title
;
Structure prediction by ZEFSAII (Michael W. Deem and Ramdas Pophale) SiO2 
 PCOD9009324
Probable space group: P -1
;
_chemical_formula_sum "Si O2"
_cell_formula_units_Z 16
_cell_length_a 14.164678
_cell_length_b 14.796928
_cell_length_c 5.111671
_cell_angle_alpha 98.721446
_cell_angle_beta 98.347383
_cell_angle_gamma 141.345230
_cell_volume 598.158609
_symmetry_space_group_name_H-M "P -1"
_symmetry_group_IT_number 2
_symmetry_cell_setting 'triclinic'
loop_
_space_group_symop_operation_xyz
x,y,z
-x,-y,-z
loop_
_atom_site_type_symbol
_atom_site_label
_atom_site_fract_x
_atom_site_fract_y
_atom_site_fract_z
Si Si1 0.643681 0.056455 0.927626
Si Si2 0.580597 0.904620 0.316799
Si Si3 0.475103 0.387021 0.176646
Si Si4 0.982807 0.375977 0.449551
Si Si5 0.715290 0.437607 0.026087
Si Si6 0.997518 0.236296 0.803247
Si Si7 0.781692 0.918759 0.711063
Si Si8 0.780339 0.731655 0.392224
O O1 0.834065 0.240987 0.120810
O O2 0.623195 0.951223 0.052230
O O3 0.500000 0.000000 0.000000
O O4 0.605969 0.001079 0.591977
O O5 0.385045 0.727665 0.183578
O O6 0.697874 0.913113 0.448714
O O7 0.373307 0.239295 0.254910
O O8 0.630774 0.569107 0.434175
O O9 0.579974 0.406895 0.026357
O O10 0.331724 0.326269 0.928755
O O11 0.000000 0.500000 0.500000
O O12 0.913329 0.251157 0.600063
O O13 0.176170 0.501593 0.646940
O O14 0.847774 0.584067 0.941020
O O15 0.083034 0.232895 0.631150
O O16 0.915517 0.102681 0.921470
O O17 0.857060 0.882679 0.620310
#
# Coordination Sequence:
#
# PCOD9009324 Si02
#       8
#     2   2   2   2   2   2   2   2
#     4  12  27  49  77 113 151 199 266 328 389 464
#     4  12  24  46  77 112 151 199 263 319 387 471
#     4  10  21  39  68 106 145 200 255 313 369 469
#     4  10  22  47  77 104 151 201 255 317 393 462
#     4   9  20  45  72 108 147 202 248 313 386 453
#     4   9  22  42  70 105 157 194 254 319 389 455
#     4  12  22  39  69 107 150 196 252 314 384 455
#     4  10  21  41  67 101 155 192 261 303 388 458
#
# _framework density 26.748760000000001
#
# number of rings (size 3 to 8) (size 9 to 14) (size 15 to 20)
#    0.750    0.750    2.500    2.625    0.000    0.500 
#    0.000   10.000    0.000    0.000    0.000    0.000 
#    0.000    0.000    0.000    0.000    0.000    0.000 
#
# Total GULP energy -89135.475736 kJ/mol
# GULP energy per Si atom -5570.967233 kJ/mol
# Density = 2.668788 g / cm^3
# Si number density = 26.748760 Si / 1000 Ang^3
#
#
#
# Elastic Constant Matrix: (Units=GPa)
#
#
# Indices 1 2 3 4 5 6 
#
# 1 115.4230 41.1533 44.3777 -4.5015 11.3576 -11.1189
# 2 41.1533 167.6847 25.4111 19.3975 -9.6949 -13.7014
# 3 44.3777 25.4111 91.1629 27.7175 -8.8054 -5.6712
# 4 -4.5015 19.3975 27.7175 53.5545 -15.7385 1.5417
# 5 11.3576 -9.6949 -8.8054 -15.7385 29.5200 2.7200
# 6 -11.1189 -13.7014 -5.6712 1.5417 2.7200 49.9178
#
#
#
# Elastic Compliance Matrix: (Units=1/GPa)
#
#
# Indices 1 2 3 4 5 6 
#
# 1 0.013552 -0.002901 -0.007581 0.004208 -0.006330 0.001576
# 2 -0.002901 0.007123 0.000468 -0.002470 0.002156 0.001321
# 3 -0.007581 0.000468 0.017608 -0.008897 0.003531 0.000523
# 4 0.004208 -0.002470 -0.008897 0.027452 0.009748 -0.002131
# 5 -0.006330 0.002156 0.003531 0.009748 0.043554 -0.003091
# 6 0.001576 0.001321 0.000523 -0.002131 -0.003091 0.021040
#
#
# Mechanical properties :
#
#
# Convention : Reuss Voigt Hill
#
# Bulk Modulus (GPa) = 54.77875 66.23942 60.50908
# Shear Modulus (GPa) = 31.96096 44.15370 38.05733
#
# Velocity S-wave (km/s) = 3.46042 4.06727 3.77605
# Velocity P-wave (km/s) = 6.04065 6.84647 6.45615
#
# Compressibility (1/GPa) = 0.01825526
#
# Stress axis : x y z
#
# Youngs Moduli (GPa) = 73.79226 140.39141 56.79258
#
# Poissons Ratio (x) = 0.40727 0.43054
# Poissons Ratio (y) = 0.21407 -0.02659
# Poissons Ratio (z) = 0.55941 -0.06574
#
# Static dielectric constant tensor:
#      x y z
#    x 2.260360 -0.034850 -0.056170 
#    y -0.034850 2.345790 0.127450 
#    z -0.056170 0.127450 2.189430 
# 
# From -- ./inp_files/98204.got.cif
#   From: 2010.05.17/outbox.cif.g08.bks.cpg/sg2_50_cif.got.tgz:98204.got - 2010.06.03 11:33:40.
