data_PCOD9009734
_publ_section_title
;
Structure prediction by ZEFSAII (Michael W. Deem and Ramdas Pophale) SiO2 
 PCOD9009734
Probable space group: P -1
;
_chemical_formula_sum "Si O2"
_cell_formula_units_Z 16
_cell_length_a 19.916777
_cell_length_b 15.636747
_cell_length_c 8.353061
_cell_angle_alpha 106.975661
_cell_angle_beta 118.906560
_cell_angle_gamma 23.555971
_cell_volume 820.808044
_symmetry_space_group_name_H-M "P -1"
_symmetry_group_IT_number 2
_symmetry_cell_setting 'triclinic'
loop_
_space_group_symop_operation_xyz
x,y,z
-x,-y,-z
loop_
_atom_site_type_symbol
_atom_site_label
_atom_site_fract_x
_atom_site_fract_y
_atom_site_fract_z
Si Si1 0.066730 0.981937 0.913568
Si Si2 0.791864 0.997602 0.014748
Si Si3 0.648332 0.451498 0.195520
Si Si4 0.043392 0.141926 0.526428
Si Si5 0.685432 0.315347 0.494383
Si Si6 0.260068 0.271615 0.842238
Si Si7 0.048961 0.562927 0.439426
Si Si8 0.052239 0.547893 0.072079
O O1 0.865238 0.188084 0.686434
O O2 0.127991 0.018302 0.033155
O O3 0.255641 0.725093 0.911170
O O4 0.000000 0.000000 0.000000
O O5 0.909389 0.902148 0.256118
O O6 0.860234 0.821759 0.974138
O O7 0.557408 0.273193 0.927915
O O8 0.824955 0.333985 0.352646
O O9 0.617173 0.429768 0.310300
O O10 0.049871 0.235277 0.520526
O O11 0.206545 0.896926 0.513204
O O12 0.500000 0.500000 0.500000
O O13 0.205459 0.370795 0.657892
O O14 0.126198 0.324094 0.714082
O O15 0.183240 0.411615 0.985102
O O16 0.500000 0.000000 0.000000
O O17 0.137162 0.477697 0.311774
O O18 0.000000 0.500000 0.000000
#
# Coordination Sequence:
#
# PCOD9009734 Si02
#       8
#     2   2   2   2   2   2   2   2
#     4  11  22  37  58  89 124 158 207 253 302 372
#     4  11  21  39  64  85 120 165 201 255 313 364
#     4  11  22  39  61  84 121 162 197 255 307 357
#     4  10  21  40  58  87 123 159 204 248 301 379
#     4  11  22  38  57  86 124 160 199 253 303 361
#     4  10  21  41  65  90 126 158 204 267 311 367
#     4   9  21  40  63  89 121 165 202 254 319 364
#     4   9  21  41  62  91 124 158 209 259 310 376
#
# _framework density 19.492985000000001
#
# number of rings (size 3 to 8) (size 9 to 14) (size 15 to 20)
#    0.000    1.750    2.500    1.875    1.750    6.500 
#    2.250    6.250    0.000    0.000    0.000    0.000 
#    0.000    0.000    0.000    0.000    0.000    0.000 
#
# Total GULP energy -89153.806196 kJ/mol
# GULP energy per Si atom -5572.112887 kJ/mol
# Density = 1.944862 g / cm^3
# Si number density = 19.492985 Si / 1000 Ang^3
#
#
#
# Elastic Constant Matrix: (Units=GPa)
#
#
# Indices 1 2 3 4 5 6 
#
# 1 77.5569 60.5142 29.9161 -3.6028 -15.0718 10.9010
# 2 60.5142 121.2095 39.9977 -12.0974 -0.8457 6.7569
# 3 29.9161 39.9977 96.9701 -13.7084 -10.8469 1.4627
# 4 -3.6028 -12.0974 -13.7084 24.0291 -1.6775 -6.5836
# 5 -15.0718 -0.8457 -10.8469 -1.6775 32.0425 6.0186
# 6 10.9010 6.7569 1.4627 -6.5836 6.0186 28.9607
#
#
#
# Elastic Compliance Matrix: (Units=1/GPa)
#
#
# Indices 1 2 3 4 5 6 
#
# 1 0.028093 -0.013089 -0.002374 -0.005951 0.013942 -0.011651
# 2 -0.013089 0.015899 -0.002651 0.005127 -0.007117 0.003996
# 3 -0.002374 -0.002651 0.013436 0.006661 0.003402 0.001641
# 4 -0.005951 0.005127 0.006661 0.050440 -0.000057 0.012186
# 5 0.013942 -0.007117 0.003402 -0.000057 0.041038 -0.012301
# 6 -0.011651 0.003996 0.001641 0.012186 -0.012301 0.043226
#
#
# Mechanical properties :
#
#
# Convention : Reuss Voigt Hill
#
# Bulk Modulus (GPa) = 47.17203 61.84361 54.50782
# Shear Modulus (GPa) = 21.23792 28.02703 24.63247
#
# Velocity S-wave (km/s) = 3.30436 3.79595 3.55865
# Velocity P-wave (km/s) = 6.22980 7.14194 6.70141
#
# Compressibility (1/GPa) = 0.02119900
#
# Stress axis : x y z
#
# Youngs Moduli (GPa) = 35.59614 62.89578 74.42694
#
# Poissons Ratio (x) = 0.82326 0.17668
# Poissons Ratio (y) = 0.46593 0.19734
# Poissons Ratio (z) = 0.08450 0.16676
#
# Static dielectric constant tensor:
#      x y z
#    x 1.719150 0.013990 -0.039570 
#    y 0.013990 1.681680 0.045360 
#    z -0.039570 0.045360 1.805350 
# 
# From -- ./inp_files/347628.got.cif
#   From: 2010.05.17/outbox.cif.g08.bks.cpg/sg2_174_cif.got.tgz:347628.got - 2010.06.03 11:33:40.
