data_PCOD9009127
_publ_section_title
;
Structure prediction by ZEFSAII (Michael W. Deem and Ramdas Pophale) SiO2 
 PCOD9009127
Probable space group: P -1
;
_chemical_formula_sum "Si O2"
_cell_formula_units_Z 14
_cell_length_a 9.849895
_cell_length_b 26.196621
_cell_length_c 6.167257
_cell_angle_alpha 127.135817
_cell_angle_beta 46.729128
_cell_angle_gamma 147.799515
_cell_volume 616.302650
_symmetry_space_group_name_H-M "P -1"
_symmetry_group_IT_number 2
_symmetry_cell_setting 'triclinic'
loop_
_space_group_symop_operation_xyz
x,y,z
-x,-y,-z
loop_
_atom_site_type_symbol
_atom_site_label
_atom_site_fract_x
_atom_site_fract_y
_atom_site_fract_z
Si Si1 0.904849 0.253379 0.398365
Si Si2 0.316614 0.261074 0.865505
Si Si3 0.450008 0.109630 0.825304
Si Si4 0.728499 0.576575 0.213991
Si Si5 0.271010 0.715463 0.717024
Si Si6 0.015711 0.056339 0.818979
Si Si7 0.679802 0.441168 0.197734
O O1 0.711102 0.157865 0.511869
O O2 0.723588 0.253504 0.449255
O O3 0.088976 0.343231 0.588545
O O4 0.099644 0.261414 0.049766
O O5 0.548547 0.302787 0.540910
O O6 0.133828 0.152179 0.840461
O O7 0.485553 0.331364 0.068727
O O8 0.227945 0.084338 0.840132
O O9 0.574029 0.196215 0.067125
O O10 0.284835 0.017687 0.921179
O O11 0.654469 0.487174 0.150143
O O12 0.457976 0.553762 0.439506
O O13 0.949412 0.626919 0.908929
O O14 0.000000 0.000000 0.500000
O O15 0.000000 0.500000 0.000000
#
# Coordination Sequence:
#
# PCOD9009127 Si02
#       7
#     2   2   2   2   2   2   2
#     4  10  21  41  61  94 127 163 210 254 306 371
#     4  11  23  39  65  93 125 163 212 256 305 374
#     4  10  21  39  67  88 125 172 200 253 323 362
#     4   9  22  40  62  90 127 166 203 253 316 364
#     4  11  21  41  64  91 130 164 203 260 309 365
#     4  11  21  41  66  93 126 164 208 257 312 366
#     4  10  21  40  64  93 124 164 209 255 307 372
#
# _framework density 22.716114000000001
#
# number of rings (size 3 to 8) (size 9 to 14) (size 15 to 20)
#    0.000    1.714    2.857    0.857    2.000    2.286 
#    5.143   12.857    0.000    0.000    0.000    0.000 
#    0.000    0.000    0.000    0.000    0.000    0.000 
#
# Total GULP energy -78162.432571 kJ/mol
# GULP energy per Si atom -5583.030898 kJ/mol
# Density = 2.266441 g / cm^3
# Si number density = 22.716114 Si / 1000 Ang^3
#
#
#
# Elastic Constant Matrix: (Units=GPa)
#
#
# Indices 1 2 3 4 5 6 
#
# 1 38.5067 14.0800 17.5131 6.9956 -5.1550 11.1184
# 2 14.0800 127.9520 41.4725 -8.2371 -1.4723 -2.9988
# 3 17.5131 41.4725 119.4430 -27.5530 -27.8509 -0.0972
# 4 6.9956 -8.2371 -27.5530 48.5126 5.3854 1.8517
# 5 -5.1550 -1.4723 -27.8509 5.3854 36.5910 0.3298
# 6 11.1184 -2.9988 -0.0972 1.8517 0.3298 30.7514
#
#
#
# Elastic Compliance Matrix: (Units=1/GPa)
#
#
# Indices 1 2 3 4 5 6 
#
# 1 0.034967 -0.002822 -0.005682 -0.008479 0.001848 -0.012445
# 2 -0.002822 0.009242 -0.003337 0.000299 -0.002627 0.001921
# 3 -0.005682 -0.003337 0.014058 0.007225 0.008691 0.001245
# 4 -0.008479 0.000299 0.007225 0.025876 0.000494 0.001554
# 5 0.001848 -0.002627 0.008691 0.000494 0.034038 -0.001292
# 6 -0.012445 0.001921 0.001245 0.001554 -0.001292 0.037130
#
#
# Mechanical properties :
#
#
# Convention : Reuss Voigt Hill
#
# Bulk Modulus (GPa) = 28.91537 48.00365 38.45951
# Shear Modulus (GPa) = 26.24384 37.36007 31.80195
#
# Velocity S-wave (km/s) = 3.40265 4.05983 3.74568
# Velocity P-wave (km/s) = 5.30981 6.56918 5.97278
#
# Compressibility (1/GPa) = 0.03458368
#
# Stress axis : x y z
#
# Youngs Moduli (GPa) = 28.59850 108.20550 71.13338
#
# Poissons Ratio (x) = 0.30539 0.40419
# Poissons Ratio (y) = 0.08071 0.23737
# Poissons Ratio (z) = 0.16250 0.36108
#
# Static dielectric constant tensor:
#      x y z
#    x 1.798400 0.017290 -0.007940 
#    y 0.017290 1.857140 -0.067880 
#    z -0.007940 -0.067880 1.903790 
# 
# From -- ./inp_files/55159.got.cif
#   From: 2010.05.17/outbox.cif.g08.bks.cpg/sg2_28_cif.got.tgz:55159.got - 2010.06.03 11:33:40.
