data_PCOD9009971
_publ_section_title
;
Structure prediction by ZEFSAII (Michael W. Deem and Ramdas Pophale) SiO2 
 PCOD9009971
Probable space group: P -1
;
_chemical_formula_sum "Si O2"
_cell_formula_units_Z 16
_cell_length_a 5.022733
_cell_length_b 5.611800
_cell_length_c 23.332483
_cell_angle_alpha 76.637325
_cell_angle_beta 106.730732
_cell_angle_gamma 83.241088
_cell_volume 600.674308
_symmetry_space_group_name_H-M "P -1"
_symmetry_group_IT_number 2
_symmetry_cell_setting 'triclinic'
loop_
_space_group_symop_operation_xyz
x,y,z
-x,-y,-z
loop_
_atom_site_type_symbol
_atom_site_label
_atom_site_fract_x
_atom_site_fract_y
_atom_site_fract_z
Si Si1 0.610525 0.016658 0.328758
Si Si2 0.177005 0.565177 0.454156
Si Si3 0.789738 0.199109 0.013776
Si Si4 0.374529 0.303548 0.079620
Si Si5 0.968847 0.337011 0.792410
Si Si6 0.331969 0.457862 0.706882
Si Si7 0.305670 0.076215 0.427458
Si Si8 0.205015 0.167335 0.187670
O O1 0.778315 0.242876 0.316472
O O2 0.487441 0.050711 0.382738
O O3 0.358715 0.079423 0.261924
O O4 0.721443 0.724838 0.337343
O O5 0.500000 0.500000 0.500000
O O6 0.170401 0.363572 0.415192
O O7 0.000000 0.500000 0.500000
O O8 0.117723 0.862879 0.423847
O O9 0.563155 0.146423 0.049941
O O10 0.035660 0.307793 0.056072
O O11 0.612597 0.411703 0.949846
O O12 0.000000 0.000000 0.000000
O O13 0.438650 0.203484 0.152787
O O14 0.216832 0.344601 0.762662
O O15 0.972654 0.553266 0.827414
O O16 0.671348 0.426731 0.735198
O O17 0.946237 0.060231 0.827217
O O18 0.500000 0.000000 0.500000
#
# Coordination Sequence:
#
# PCOD9009971 Si02
#       8
#     2   2   2   2   2   2   2   2
#     4  10  21  41  64  93 131 168 218 269 329 389
#     4  10  21  40  63  90 122 160 213 264 321 384
#     4  10  22  43  66  96 131 175 218 274 328 395
#     4  10  23  40  65  97 131 170 226 269 331 397
#     4  10  22  40  63  90 131 164 215 257 325 385
#     4  10  21  40  61  88 123 169 207 266 320 388
#     4  10  21  40  63  93 127 171 216 271 326 391
#     4  10  23  42  63  98 127 174 214 273 326 393
#
# _framework density 26.63673
#
# number of rings (size 3 to 8) (size 9 to 14) (size 15 to 20)
#    0.000    2.000    0.000    2.250    1.750    4.000 
#    0.000   30.000    0.000    0.000    0.000    0.000 
#    0.000    0.000    0.000    0.000    0.000    0.000 
#
# Total GULP energy -89503.150244 kJ/mol
# GULP energy per Si atom -5593.946890 kJ/mol
# Density = 2.657610 g / cm^3
# Si number density = 26.636730 Si / 1000 Ang^3
#
#
#
# Elastic Constant Matrix: (Units=GPa)
#
#
# Indices 1 2 3 4 5 6 
#
# 1 97.6423 34.7409 30.6861 -1.8731 -21.2924 -4.9779
# 2 34.7409 273.5460 55.2952 4.8223 -20.6817 0.1153
# 3 30.6861 55.2952 129.7782 -6.1776 -44.8558 -19.9689
# 4 -1.8731 4.8223 -6.1776 36.3097 -8.8208 -12.2414
# 5 -21.2924 -20.6817 -44.8558 -8.8208 60.4172 2.2276
# 6 -4.9779 0.1153 -19.9689 -12.2414 2.2276 46.6344
#
#
#
# Elastic Compliance Matrix: (Units=1/GPa)
#
#
# Indices 1 2 3 4 5 6 
#
# 1 0.011729 -0.001090 -0.000894 0.001803 0.003316 0.001187
# 2 -0.001090 0.004186 -0.002036 -0.001581 -0.000643 -0.001383
# 3 -0.000894 -0.002036 0.013701 0.007423 0.009977 0.007248
# 4 0.001803 -0.001581 0.007423 0.035763 0.010374 0.012267
# 5 0.003316 -0.000643 0.009977 0.010374 0.026197 0.006099
# 6 0.001187 -0.001383 0.007248 0.012267 0.006099 0.027606
#
#
# Mechanical properties :
#
#
# Convention : Reuss Voigt Hill
#
# Bulk Modulus (GPa) = 46.35004 82.49007 64.42006
# Shear Modulus (GPa) = 37.19893 54.02187 45.61040
#
# Velocity S-wave (km/s) = 3.74107 4.50833 4.14250
# Velocity P-wave (km/s) = 6.00827 7.62468 6.86422
#
# Compressibility (1/GPa) = 0.02157495
#
# Stress axis : x y z
#
# Youngs Moduli (GPa) = 85.26166 238.91866 72.98685
#
# Poissons Ratio (x) = 0.26052 0.06526
# Poissons Ratio (y) = 0.09297 0.14857
# Poissons Ratio (z) = 0.07623 0.48635
#
# Static dielectric constant tensor:
#      x y z
#    x 2.188160 -0.080610 0.244210 
#    y -0.080610 2.210050 -0.130020 
#    z 0.244210 -0.130020 2.259240 
# 
# From -- ./inp_files/581022.got.cif
#   From: 2010.05.17/outbox.cif.g08.bks.cpg/sg2_291_cif.got.tgz:581022.got - 2010.06.03 11:33:40.
