data_PCOD9009750
_publ_section_title
;
Structure prediction by ZEFSAII (Michael W. Deem and Ramdas Pophale) SiO2 
 PCOD9009750
Probable space group: P -1
;
_chemical_formula_sum "Si O2"
_cell_formula_units_Z 16
_cell_length_a 5.124616
_cell_length_b 20.417876
_cell_length_c 11.800668
_cell_angle_alpha 38.781182
_cell_angle_beta 98.039149
_cell_angle_gamma 120.858809
_cell_volume 581.118445
_symmetry_space_group_name_H-M "P -1"
_symmetry_group_IT_number 2
_symmetry_cell_setting 'triclinic'
loop_
_space_group_symop_operation_xyz
x,y,z
-x,-y,-z
loop_
_atom_site_type_symbol
_atom_site_label
_atom_site_fract_x
_atom_site_fract_y
_atom_site_fract_z
Si Si1 0.669511 0.393255 0.971373
Si Si2 0.539026 0.392273 0.199872
Si Si3 0.353136 0.837683 0.795328
Si Si4 0.260868 0.030197 0.571378
Si Si5 0.333241 0.092196 0.057260
Si Si6 0.482057 0.434950 0.380180
Si Si7 0.832934 0.324783 0.623129
Si Si8 0.420346 0.068577 0.775639
O O1 0.473240 0.434729 0.837763
O O2 0.061133 0.529563 0.846166
O O3 0.470677 0.313636 0.184345
O O4 0.737842 0.306363 0.023670
O O5 0.348796 0.345552 0.373472
O O6 0.500000 0.500000 0.000000
O O7 0.393226 0.880986 0.608127
O O8 0.681080 0.922467 0.787843
O O9 0.148671 0.879151 0.786306
O O10 0.386594 0.105488 0.597199
O O11 0.000000 0.000000 0.500000
O O12 0.382460 0.990186 0.144266
O O13 0.668244 0.247005 0.836288
O O14 0.978695 0.053062 0.048913
O O15 0.771730 0.431096 0.450617
O O16 0.209524 0.380827 0.537933
O O17 0.593911 0.196955 0.693541
#
# Coordination Sequence:
#
# PCOD9009750 Si02
#       8
#     2   2   2   2   2   2   2   2
#     4  10  21  42  63  95 130 172 208 259 329 382
#     4   9  20  38  63  89 132 159 218 265 308 388
#     4  10  23  40  66  91 132 175 204 262 323 382
#     4  10  21  40  58  96 131 160 215 259 311 393
#     4  11  23  45  64  96 129 170 222 257 313 393
#     4  11  23  42  61  98 129 160 218 269 313 379
#     4  12  24  41  69  94 130 171 213 274 315 363
#     4  11  23  41  68  94 130 168 214 266 326 375
#
# _framework density 27.533109
#
# number of rings (size 3 to 8) (size 9 to 14) (size 15 to 20)
#    0.000    1.500    2.500    2.250    1.750    2.000 
#    4.500    1.250    0.000    0.000    0.000    0.000 
#    0.000    0.000    0.000    0.000    0.000    0.000 
#
# Total GULP energy -89397.409686 kJ/mol
# GULP energy per Si atom -5587.338105 kJ/mol
# Density = 2.747044 g / cm^3
# Si number density = 27.533109 Si / 1000 Ang^3
#
#
#
# Elastic Constant Matrix: (Units=GPa)
#
#
# Indices 1 2 3 4 5 6 
#
# 1 104.3922 15.9551 -2.1090 -0.3698 13.7106 -10.0069
# 2 15.9551 88.6575 14.5635 10.6509 6.5367 -4.4627
# 3 -2.1090 14.5635 96.9761 18.1075 16.9087 -3.8949
# 4 -0.3698 10.6509 18.1075 43.8991 -10.2733 3.5434
# 5 13.7106 6.5367 16.9087 -10.2733 48.6057 1.7497
# 6 -10.0069 -4.4627 -3.8949 3.5434 1.7497 30.3935
#
#
#
# Elastic Compliance Matrix: (Units=1/GPa)
#
#
# Indices 1 2 3 4 5 6 
#
# 1 0.010708 -0.001542 0.001532 -0.001363 -0.003774 0.003872
# 2 -0.001542 0.012287 -0.000954 -0.003107 -0.001601 0.001628
# 3 0.001532 -0.000954 0.013019 -0.006882 -0.006403 0.003204
# 4 -0.001363 -0.003107 -0.006882 0.029056 0.009544 -0.005724
# 5 -0.003774 -0.001601 -0.006403 0.009544 0.026275 -0.004923
# 6 0.003872 0.001628 0.003204 -0.005724 -0.004923 0.035777
#
#
# Mechanical properties :
#
#
# Convention : Reuss Voigt Hill
#
# Bulk Modulus (GPa) = 29.33734 38.53833 33.93784
# Shear Modulus (GPa) = 35.60987 42.02076 38.81531
#
# Velocity S-wave (km/s) = 3.60022 3.91089 3.75876
# Velocity P-wave (km/s) = 5.28777 5.86693 5.58486
#
# Compressibility (1/GPa) = 0.03408625
#
# Stress axis : x y z
#
# Youngs Moduli (GPa) = 93.38981 81.38836 76.81314
#
# Poissons Ratio (x) = 0.12549 -0.11772
# Poissons Ratio (y) = 0.14399 0.07329
# Poissons Ratio (z) = -0.14312 0.07766
#
# Static dielectric constant tensor:
#      x y z
#    x 2.281780 0.009810 -0.172110 
#    y 0.009810 2.171620 -0.031340 
#    z -0.172110 -0.031340 2.365350 
# 
# From -- ./inp_files/370030.got.cif
#   From: 2010.05.17/outbox.cif.g08.bks.cpg/sg2_186_cif.got.tgz:370030.got - 2010.06.03 11:33:40.
