data_PCOD9009200
_publ_section_title
;
Structure prediction by ZEFSAII (Michael W. Deem and Ramdas Pophale) SiO2 
 PCOD9009200
Probable space group: P -1
;
_chemical_formula_sum "Si O2"
_cell_formula_units_Z 14
_cell_length_a 12.498544
_cell_length_b 9.414295
_cell_length_c 12.089938
_cell_angle_alpha 56.344552
_cell_angle_beta 40.399937
_cell_angle_gamma 44.570116
_cell_volume 646.821950
_symmetry_space_group_name_H-M "P -1"
_symmetry_group_IT_number 2
_symmetry_cell_setting 'triclinic'
loop_
_space_group_symop_operation_xyz
x,y,z
-x,-y,-z
loop_
_atom_site_type_symbol
_atom_site_label
_atom_site_fract_x
_atom_site_fract_y
_atom_site_fract_z
Si Si1 0.306889 0.460924 0.555508
Si Si2 0.002304 0.231347 0.677757
Si Si3 0.142832 0.039477 0.044693
Si Si4 0.068409 0.359294 0.364135
Si Si5 0.312394 0.074146 0.691750
Si Si6 0.687589 0.793017 0.984922
Si Si7 0.714943 0.406454 0.237851
O O1 0.284628 0.274576 0.683142
O O2 0.526809 0.389085 0.378236
O O3 0.259798 0.588573 0.650450
O O4 0.154785 0.562721 0.529981
O O5 0.124437 0.191620 0.485990
O O6 0.141253 0.129991 0.716713
O O7 0.905283 0.468636 0.676409
O O8 0.868492 0.140958 0.815306
O O9 0.211985 0.141233 0.033086
O O10 0.920265 0.220769 0.109619
O O11 0.290086 0.956666 0.860474
O O12 0.180411 0.297657 0.188374
O O13 0.500000 0.000000 0.500000
O O14 0.664035 0.618627 0.132877
O O15 0.500000 0.000000 0.000000
#
# Coordination Sequence:
#
# PCOD9009200 Si02
#       7
#     2   2   2   2   2   2   2
#     4  10  21  39  67  95 130 175 220 268 333 390
#     4  10  24  42  69  96 134 179 220 271 340 395
#     4  12  24  44  72 100 131 179 228 277 329 397
#     4  10  23  46  65  97 143 175 215 280 337 394
#     4  11  23  40  64  95 131 173 225 274 322 397
#     4  12  27  42  68 100 138 176 222 278 335 396
#     4  11  22  42  69 100 132 173 222 280 329 392
#
# _framework density 21.644288
#
# number of rings (size 3 to 8) (size 9 to 14) (size 15 to 20)
#    0.000    1.143    2.857    3.429    4.000    4.000 
#    0.000    0.714    0.000    0.000    0.000    0.000 
#    0.000    0.000    0.000    0.000    0.000    0.000 
#
# Total GULP energy -78171.816378 kJ/mol
# GULP energy per Si atom -5583.701170 kJ/mol
# Density = 2.159502 g / cm^3
# Si number density = 21.644288 Si / 1000 Ang^3
#
#
#
# Elastic Constant Matrix: (Units=GPa)
#
#
# Indices 1 2 3 4 5 6 
#
# 1 57.1228 21.0438 28.1091 -14.2959 -5.5330 9.5368
# 2 21.0438 53.9924 28.7476 -17.9353 -6.0889 -2.2668
# 3 28.1091 28.7476 112.4264 -16.7925 12.9738 3.6863
# 4 -14.2959 -17.9353 -16.7925 44.4265 1.7324 -4.6057
# 5 -5.5330 -6.0889 12.9738 1.7324 40.1690 2.6226
# 6 9.5368 -2.2668 3.6863 -4.6057 2.6226 19.9897
#
#
#
# Elastic Compliance Matrix: (Units=1/GPa)
#
#
# Indices 1 2 3 4 5 6 
#
# 1 0.025145 -0.006704 -0.004356 0.002315 0.004539 -0.012015
# 2 -0.006704 0.027026 -0.004810 0.007657 0.003848 0.008410
# 3 -0.004356 -0.004810 0.012030 0.001446 -0.005299 0.000343
# 4 0.002315 0.007657 0.001446 0.027526 -0.000561 0.005913
# 5 0.004539 0.003848 -0.005299 -0.000561 0.028138 -0.004573
# 6 -0.012015 0.008410 0.000343 0.005913 -0.004573 0.058611
#
#
# Mechanical properties :
#
#
# Convention : Reuss Voigt Hill
#
# Bulk Modulus (GPa) = 30.80851 42.14917 36.47884
# Shear Modulus (GPa) = 22.62064 30.62644 26.62354
#
# Velocity S-wave (km/s) = 3.23632 3.76572 3.51101
# Velocity P-wave (km/s) = 5.31319 6.19866 5.77292
#
# Compressibility (1/GPa) = 0.03245856
#
# Stress axis : x y z
#
# Youngs Moduli (GPa) = 39.76973 37.00174 83.12438
#
# Poissons Ratio (x) = 0.24807 0.36213
# Poissons Ratio (y) = 0.26662 0.39986
# Poissons Ratio (z) = 0.17326 0.17799
#
# Static dielectric constant tensor:
#      x y z
#    x 1.801920 -0.014500 0.006250 
#    y -0.014500 1.832510 0.051470 
#    z 0.006250 0.051470 1.813350 
# 
# From -- ./inp_files/174120.got.cif
#   From: 2010.05.17/outbox.cif.g08.bks.cpg/sg2_88_cif.got.tgz:174120.got - 2010.06.03 11:33:40.
