data_PCOD9009198
_publ_section_title
;
Structure prediction by ZEFSAII (Michael W. Deem and Ramdas Pophale) SiO2 
 PCOD9009198
Probable space group: P -1
;
_chemical_formula_sum "Si O2"
_cell_formula_units_Z 16
_cell_length_a 15.169466
_cell_length_b 11.584927
_cell_length_c 9.004540
_cell_angle_alpha 139.296235
_cell_angle_beta 128.016243
_cell_angle_gamma 73.219350
_cell_volume 762.569568
_symmetry_space_group_name_H-M "P -1"
_symmetry_group_IT_number 2
_symmetry_cell_setting 'triclinic'
loop_
_space_group_symop_operation_xyz
x,y,z
-x,-y,-z
loop_
_atom_site_type_symbol
_atom_site_label
_atom_site_fract_x
_atom_site_fract_y
_atom_site_fract_z
Si Si1 0.296395 0.630738 0.668347
Si Si2 0.135818 0.579920 0.162690
Si Si3 0.655010 0.682051 0.198011
Si Si4 0.576315 0.663714 0.422253
Si Si5 0.107828 0.377199 0.643313
Si Si6 0.132851 0.741822 0.845649
Si Si7 0.263886 0.928917 0.438059
Si Si8 0.516599 0.974221 0.817301
O O1 0.226847 0.600921 0.411536
O O2 0.335737 0.452194 0.567635
O O3 0.211135 0.679359 0.746594
O O4 0.413793 0.817220 0.967253
O O5 0.176314 0.785998 0.324749
O O6 0.139124 0.425312 0.893881
O O7 0.000000 0.500000 0.000000
O O8 0.597438 0.728020 0.334706
O O9 0.779037 0.655150 0.340683
O O10 0.689279 0.846763 0.271216
O O11 0.556870 0.489628 0.852071
O O12 0.588071 0.837327 0.712026
O O13 0.094846 0.568771 0.754092
O O14 0.979424 0.227956 0.321590
O O15 0.206809 0.906334 0.192824
O O16 0.385522 0.883128 0.521068
O O17 0.500000 0.000000 0.000000
#
# Coordination Sequence:
#
# PCOD9009198 Si02
#       8
#     2   2   2   2   2   2   2   2
#     4  12  23  43  71 101 139 179 232 283 342 408
#     4  11  23  43  67  95 134 185 229 273 343 413
#     4  11  23  42  67 104 136 177 231 292 339 401
#     4  11  25  41  70 104 139 176 232 287 344 406
#     4  10  21  40  66  94 131 178 232 273 338 405
#     4  10  21  39  67  95 129 179 230 279 333 400
#     4  11  24  42  67  99 139 179 229 284 344 409
#     4  12  26  44  65 103 147 182 221 279 354 418
#
# _framework density 20.981693
#
# number of rings (size 3 to 8) (size 9 to 14) (size 15 to 20)
#    0.000    1.000    5.000    2.250    1.750    3.000 
#    0.000    1.875    0.000    0.000    0.000    0.000 
#    0.000    0.000    0.000    0.000    0.000    0.000 
#
# Total GULP energy -89273.634575 kJ/mol
# GULP energy per Si atom -5579.602161 kJ/mol
# Density = 2.093394 g / cm^3
# Si number density = 20.981693 Si / 1000 Ang^3
#
#
#
# Elastic Constant Matrix: (Units=GPa)
#
#
# Indices 1 2 3 4 5 6 
#
# 1 79.4104 19.4846 39.3127 -3.5487 5.5549 -1.6000
# 2 19.4846 70.1146 24.8476 6.8358 8.0343 8.1870
# 3 39.3127 24.8476 84.3223 -9.1583 5.8021 10.2039
# 4 -3.5487 6.8358 -9.1583 31.2969 0.1792 -0.1213
# 5 5.5549 8.0343 5.8021 0.1792 41.0410 -2.6259
# 6 -1.6000 8.1870 10.2039 -0.1213 -2.6259 29.0449
#
#
#
# Elastic Compliance Matrix: (Units=1/GPa)
#
#
# Indices 1 2 3 4 5 6 
#
# 1 0.017165 -0.002508 -0.007728 0.000252 -0.000464 0.004326
# 2 -0.002508 0.017657 -0.003931 -0.005291 -0.002795 -0.004009
# 3 -0.007728 -0.003931 0.017954 0.005220 -0.001110 -0.005704
# 4 0.000252 -0.005291 0.005220 0.034663 0.000101 -0.000175
# 5 -0.000464 -0.002795 -0.001110 0.000101 0.025353 0.003445
# 6 0.004326 -0.004009 -0.005704 -0.000175 0.003445 0.038112
#
#
# Mechanical properties :
#
#
# Convention : Reuss Voigt Hill
#
# Bulk Modulus (GPa) = 40.91295 44.57077 42.74186
# Shear Modulus (GPa) = 26.68325 30.29006 28.48666
#
# Velocity S-wave (km/s) = 3.57001 3.80365 3.68868
# Velocity P-wave (km/s) = 6.04442 6.37018 6.20944
#
# Compressibility (1/GPa) = 0.02444214
#
# Stress axis : x y z
#
# Youngs Moduli (GPa) = 58.25889 56.63627 55.69782
#
# Poissons Ratio (x) = 0.14204 0.43042
# Poissons Ratio (y) = 0.14611 0.21894
# Poissons Ratio (z) = 0.45021 0.22263
#
# Static dielectric constant tensor:
#      x y z
#    x 1.768850 0.005600 0.034490 
#    y 0.005600 1.775190 -0.010930 
#    z 0.034490 -0.010930 1.847920 
# 
# From -- ./inp_files/216736.got.cif
#   From: 2010.05.17/outbox.cif.g08.bks.cpg/sg2_109_cif.got.tgz:216736.got - 2010.06.03 11:33:40.
