data_PCOD9009548
_publ_section_title
;
Structure prediction by ZEFSAII (Michael W. Deem and Ramdas Pophale) SiO2 
 PCOD9009548
Probable space group: P -1
;
_chemical_formula_sum "Si O2"
_cell_formula_units_Z 14
_cell_length_a 9.123360
_cell_length_b 13.508561
_cell_length_c 10.802063
_cell_angle_alpha 64.866299
_cell_angle_beta 114.897523
_cell_angle_gamma 150.942204
_cell_volume 581.618124
_symmetry_space_group_name_H-M "P -1"
_symmetry_group_IT_number 2
_symmetry_cell_setting 'triclinic'
loop_
_space_group_symop_operation_xyz
x,y,z
-x,-y,-z
loop_
_atom_site_type_symbol
_atom_site_label
_atom_site_fract_x
_atom_site_fract_y
_atom_site_fract_z
Si Si1 0.539329 0.239440 0.371342
Si Si2 0.045580 0.373068 0.524465
Si Si3 0.355169 0.537527 0.933187
Si Si4 0.263131 0.856885 0.204371
Si Si5 0.710432 0.893362 0.014368
Si Si6 0.229641 0.032325 0.719316
Si Si7 0.884304 0.800902 0.486490
O O1 0.774307 0.276086 0.403878
O O2 0.516683 0.311542 0.212109
O O3 0.219231 0.014673 0.428467
O O4 0.717791 0.403691 0.457586
O O5 0.890182 0.236567 0.666073
O O6 0.200391 0.364269 0.509930
O O7 0.443645 0.651958 0.028992
O O8 0.000447 0.322376 0.892975
O O9 0.500000 0.500000 0.000000
O O10 0.518795 0.912365 0.254528
O O11 0.370106 0.040646 0.118729
O O12 0.796872 0.977588 0.138205
O O13 0.000000 0.000000 0.000000
O O14 0.940858 0.835854 0.635449
O O15 0.297810 0.196843 0.620402
#
# Coordination Sequence:
#
# PCOD9009548 Si02
#       7
#     2   2   2   2   2   2   2
#     4  10  21  39  69  99 125 167 229 264 316 393
#     4  10  21  40  72  95 127 174 219 266 324 390
#     4  11  24  40  69 102 124 173 226 262 319 393
#     4  11  23  44  65 101 136 164 221 274 316 391
#     4  12  24  45  71  92 128 179 219 267 331 389
#     4  11  26  42  64  99 135 169 221 271 328 389
#     4  11  23  44  66  96 134 175 213 270 330 384
#
# _framework density 24.070775000000001
#
# number of rings (size 3 to 8) (size 9 to 14) (size 15 to 20)
#    0.000    1.143    2.857    3.429    4.000    0.571 
#    0.000    5.714    0.000    0.000    0.000    0.000 
#    0.000    0.000    0.000    0.000    0.000    0.000 
#
# Total GULP energy -78427.437896 kJ/mol
# GULP energy per Si atom -5601.959850 kJ/mol
# Density = 2.401599 g / cm^3
# Si number density = 24.070775 Si / 1000 Ang^3
#
#
#
# Elastic Constant Matrix: (Units=GPa)
#
#
# Indices 1 2 3 4 5 6 
#
# 1 161.4376 21.8913 51.4715 -6.4552 23.1795 -32.9606
# 2 21.8913 71.9195 10.3077 -0.9443 7.7114 -28.8693
# 3 51.4715 10.3077 117.0896 -4.9251 15.7030 -13.0541
# 4 -6.4552 -0.9443 -4.9251 22.9163 -3.7805 3.1350
# 5 23.1795 7.7114 15.7030 -3.7805 54.9190 -0.1063
# 6 -32.9606 -28.8693 -13.0541 3.1350 -0.1063 39.4319
#
#
#
# Elastic Compliance Matrix: (Units=1/GPa)
#
#
# Indices 1 2 3 4 5 6 
#
# 1 0.008853 0.000874 -0.002753 0.000470 -0.003026 0.007083
# 2 0.000874 0.020267 -0.000049 -0.001614 -0.003281 0.015672
# 3 -0.002753 -0.000049 0.010123 0.000998 -0.001655 0.000930
# 4 0.000470 -0.001614 0.000998 0.044934 0.002829 -0.004024
# 5 -0.003026 -0.003281 -0.001655 0.002829 0.020603 -0.005649
# 6 0.007083 0.015672 0.000930 -0.004024 -0.005649 0.043367
#
#
# Mechanical properties :
#
#
# Convention : Reuss Voigt Hill
#
# Bulk Modulus (GPa) = 28.26029 57.53196 42.89612
# Shear Modulus (GPa) = 30.52505 41.23850 35.88178
#
# Velocity S-wave (km/s) = 3.56496 4.14359 3.86512
# Velocity P-wave (km/s) = 5.35828 6.84438 6.14641
#
# Compressibility (1/GPa) = 0.03538534
#
# Stress axis : x y z
#
# Youngs Moduli (GPa) = 112.95494 49.34156 98.78734
#
# Poissons Ratio (x) = -0.04310 0.27200
# Poissons Ratio (y) = -0.09867 0.00482
# Poissons Ratio (z) = 0.31101 0.00241
#
# Static dielectric constant tensor:
#      x y z
#    x 1.918130 0.024380 -0.012160 
#    y 0.024380 1.976390 0.018070 
#    z -0.012160 0.018070 1.935330 
# 
# From -- ./inp_files/389827.got.cif
#   From: 2010.05.17/outbox.cif.g08.bks.cpg/sg2_195_cif.got.tgz:389827.got - 2010.06.03 11:33:40.
