data_PCOD9009574
_publ_section_title
;
Structure prediction by ZEFSAII (Michael W. Deem and Ramdas Pophale) SiO2 
 PCOD9009574
Probable space group: P -1
;
_chemical_formula_sum "Si O2"
_cell_formula_units_Z 14
_cell_length_a 8.394159
_cell_length_b 10.666301
_cell_length_c 9.232811
_cell_angle_alpha 75.474105
_cell_angle_beta 132.528690
_cell_angle_gamma 113.133085
_cell_volume 560.080122
_symmetry_space_group_name_H-M "P -1"
_symmetry_group_IT_number 2
_symmetry_cell_setting 'triclinic'
loop_
_space_group_symop_operation_xyz
x,y,z
-x,-y,-z
loop_
_atom_site_type_symbol
_atom_site_label
_atom_site_fract_x
_atom_site_fract_y
_atom_site_fract_z
Si Si1 0.267249 0.792232 0.288118
Si Si2 0.406554 0.855046 0.903260
Si Si3 0.622752 0.683772 0.621316
Si Si4 0.917545 0.283921 0.481920
Si Si5 0.061112 0.652661 0.940431
Si Si6 0.356910 0.501139 0.766698
Si Si7 0.733799 0.924921 0.841726
O O1 0.431252 0.699601 0.391555
O O2 0.179542 0.767720 0.404236
O O3 0.063872 0.735665 0.066063
O O4 0.372215 0.951616 0.276873
O O5 0.195257 0.836163 0.666649
O O6 0.613020 0.844135 0.932780
O O7 0.296257 0.733405 0.983727
O O8 0.500000 0.000000 0.000000
O O9 0.515633 0.569587 0.709270
O O10 0.684972 0.827273 0.703149
O O11 0.851072 0.661987 0.710710
O O12 0.804045 0.401942 0.334032
O O13 0.183638 0.356916 0.650268
O O14 0.000000 0.500000 0.000000
O O15 0.500000 0.500000 0.000000
O O16 0.000000 0.000000 0.000000
#
# Coordination Sequence:
#
# PCOD9009574 Si02
#       7
#     2   2   2   2   2   2   2
#     4  11  23  46  73 103 146 194 255 304 368 449
#     4  12  25  48  72 112 155 195 251 322 378 448
#     4  11  24  44  73 105 141 198 253 300 372 458
#     4  10  24  41  73 107 143 188 253 303 362 452
#     4  12  29  47  73 108 159 197 239 319 398 435
#     4  10  21  39  70 106 137 183 255 300 359 434
#     4  12  23  45  77 108 140 200 257 306 369 456
#
# _framework density 24.996423
#
# number of rings (size 3 to 8) (size 9 to 14) (size 15 to 20)
#    0.000    0.857    5.714    1.286    8.000    0.571 
#    0.000    0.714    0.000    0.000    0.000    0.000 
#    0.000    0.000    0.000    0.000    0.000    0.000 
#
# Total GULP energy -78329.376534 kJ/mol
# GULP energy per Si atom -5594.955467 kJ/mol
# Density = 2.493953 g / cm^3
# Si number density = 24.996423 Si / 1000 Ang^3
#
#
#
# Elastic Constant Matrix: (Units=GPa)
#
#
# Indices 1 2 3 4 5 6 
#
# 1 71.3906 42.4690 30.7960 -4.5361 12.7847 30.2079
# 2 42.4690 153.0808 43.5957 15.0521 -1.9435 27.9205
# 3 30.7960 43.5957 141.0893 10.1285 -4.5060 19.3785
# 4 -4.5361 15.0521 10.1285 55.3973 -2.3869 -2.1479
# 5 12.7847 -1.9435 -4.5060 -2.3869 41.0967 8.8366
# 6 30.2079 27.9205 19.3785 -2.1479 8.8366 46.6713
#
#
#
# Elastic Compliance Matrix: (Units=1/GPa)
#
#
# Indices 1 2 3 4 5 6 
#
# 1 0.023094 -0.004115 -0.002744 0.002886 -0.005317 -0.010206
# 2 -0.004115 0.008758 -0.001214 -0.002509 0.001966 -0.002560
# 3 -0.002744 -0.001214 0.008421 -0.001406 0.001945 -0.001427
# 4 0.002886 -0.002509 -0.001406 0.019259 -0.000302 0.001161
# 5 -0.005317 0.001966 0.001945 -0.000302 0.027067 -0.003681
# 6 -0.010206 -0.002560 -0.001427 0.001161 -0.003681 0.030907
#
#
# Mechanical properties :
#
#
# Convention : Reuss Voigt Hill
#
# Bulk Modulus (GPa) = 41.44751 66.58692 54.01722
# Shear Modulus (GPa) = 35.28748 45.21305 40.25027
#
# Velocity S-wave (km/s) = 3.76134 4.25759 4.01713
# Velocity P-wave (km/s) = 5.95659 7.13203 6.57065
#
# Compressibility (1/GPa) = 0.02412690
#
# Stress axis : x y z
#
# Youngs Moduli (GPa) = 43.30212 114.17699 118.75405
#
# Poissons Ratio (x) = 0.46984 0.32590
# Poissons Ratio (y) = 0.17819 0.14411
# Poissons Ratio (z) = 0.11884 0.13856
#
# Static dielectric constant tensor:
#      x y z
#    x 2.042560 -0.028000 0.049680 
#    y -0.028000 2.009270 -0.018070 
#    z 0.049680 -0.018070 1.989280 
# 
# From -- ./inp_files/186229.got.cif
#   From: 2010.05.17/outbox.cif.g08.bks.cpg/sg2_94_cif.got.tgz:186229.got - 2010.06.03 11:33:40.
