data_PCOD9009806
_publ_section_title
;
Structure prediction by ZEFSAII (Michael W. Deem and Ramdas Pophale) SiO2 
 PCOD9009806
Probable space group: P -1
;
_chemical_formula_sum "Si O2"
_cell_formula_units_Z 14
_cell_length_a 12.942753
_cell_length_b 5.188274
_cell_length_c 12.554410
_cell_angle_alpha 124.610841
_cell_angle_beta 107.525046
_cell_angle_gamma 63.092966
_cell_volume 617.611734
_symmetry_space_group_name_H-M "P -1"
_symmetry_group_IT_number 2
_symmetry_cell_setting 'triclinic'
loop_
_space_group_symop_operation_xyz
x,y,z
-x,-y,-z
loop_
_atom_site_type_symbol
_atom_site_label
_atom_site_fract_x
_atom_site_fract_y
_atom_site_fract_z
Si Si1 0.080649 0.178492 0.014897
Si Si2 0.287181 0.672969 0.458263
Si Si3 0.662770 0.450290 0.328674
Si Si4 0.505363 0.362568 0.087987
Si Si5 0.942603 0.350911 0.700655
Si Si6 0.405817 0.889273 0.348497
Si Si7 0.104124 0.707530 0.730063
O O1 0.146516 0.894700 0.883201
O O2 0.125729 0.351842 0.165470
O O3 0.000000 0.500000 0.000000
O O4 0.000000 0.000000 0.000000
O O5 0.316394 0.769076 0.608525
O O6 0.152333 0.726608 0.417480
O O7 0.333803 0.820622 0.407971
O O8 0.354242 0.269729 0.383781
O O9 0.622012 0.310416 0.178863
O O10 0.544526 0.765948 0.384766
O O11 0.782877 0.497167 0.351265
O O12 0.406435 0.634855 0.192356
O O13 0.500000 0.500000 0.000000
O O14 0.500000 0.000000 0.000000
O O15 0.031241 0.489380 0.699525
O O16 0.017647 0.013275 0.706179
#
# Coordination Sequence:
#
# PCOD9009806 Si02
#       7
#     2   2   2   2   2   2   2
#     4   8  16  33  54  79 115 158 204 248 303 367
#     4  12  23  44  64  98 128 182 216 264 312 392
#     4  10  26  41  70  92 137 168 219 268 331 379
#     4  10  23  42  64  97 127 160 213 269 330 383
#     4  10  22  37  64  89 129 165 220 252 320 380
#     4  10  25  41  69  90 132 171 221 262 323 381
#     4  10  21  40  59  95 124 170 205 273 315 378
#
# _framework density 22.667960999999998
#
# number of rings (size 3 to 8) (size 9 to 14) (size 15 to 20)
#    0.857    1.143    0.000    2.571    0.000    8.000 
#    0.000    5.714    0.000    0.000    0.000    0.000 
#    0.000    0.000    0.000    0.000    0.000    0.000 
#
# Total GULP energy -78100.783714 kJ/mol
# GULP energy per Si atom -5578.627408 kJ/mol
# Density = 2.261637 g / cm^3
# Si number density = 22.667961 Si / 1000 Ang^3
#
#
#
# Elastic Constant Matrix: (Units=GPa)
#
#
# Indices 1 2 3 4 5 6 
#
# 1 107.0615 31.6581 48.6834 -1.0861 -12.4234 3.6671
# 2 31.6581 82.7554 47.3652 5.4217 -0.5448 23.4615
# 3 48.6834 47.3652 123.3376 -22.6437 -5.5610 4.0867
# 4 -1.0861 5.4217 -22.6437 29.7771 -1.0199 -0.7007
# 5 -12.4234 -0.5448 -5.5610 -1.0199 37.4748 -2.3009
# 6 3.6671 23.4615 4.0867 -0.7007 -2.3009 43.7057
#
#
#
# Elastic Compliance Matrix: (Units=1/GPa)
#
#
# Indices 1 2 3 4 5 6 
#
# 1 0.012303 -0.002325 -0.004243 -0.002220 0.003401 0.000756
# 2 -0.002325 0.022452 -0.009639 -0.011868 -0.002891 -0.011298
# 3 -0.004243 -0.009639 0.015956 0.013886 0.001465 0.004338
# 4 -0.002220 -0.011868 0.013886 0.046463 0.002794 0.006151
# 5 0.003401 -0.002891 0.001465 0.002794 0.028227 0.002661
# 6 0.000756 -0.011298 0.004338 0.006151 0.002661 0.028715
#
#
# Mechanical properties :
#
#
# Convention : Reuss Voigt Hill
#
# Bulk Modulus (GPa) = 54.65249 63.17420 58.91335
# Shear Modulus (GPa) = 25.95659 34.55472 30.25565
#
# Velocity S-wave (km/s) = 3.38757 3.90857 3.65736
# Velocity P-wave (km/s) = 6.28197 6.94976 6.62429
#
# Compressibility (1/GPa) = 0.01829743
#
# Stress axis : x y z
#
# Youngs Moduli (GPa) = 81.27781 44.53976 62.67183
#
# Poissons Ratio (x) = 0.10354 0.26591
# Poissons Ratio (y) = 0.18894 0.60412
# Poissons Ratio (z) = 0.34486 0.42934
#
# Static dielectric constant tensor:
#      x y z
#    x 1.834010 -0.027190 0.002750 
#    y -0.027190 1.791410 0.016990 
#    z 0.002750 0.016990 2.056740 
# 
# From -- ./inp_files/123449.got.cif
#   From: 2010.05.17/outbox.cif.g08.bks.cpg/sg2_62_cif.got.tgz:123449.got - 2010.06.03 11:33:40.
