data_PCOD9009633
_publ_section_title
;
Structure prediction by ZEFSAII (Michael W. Deem and Ramdas Pophale) SiO2 
 PCOD9009633
Probable space group: P -1
;
_chemical_formula_sum "Si O2"
_cell_formula_units_Z 16
_cell_length_a 13.001625
_cell_length_b 11.601381
_cell_length_c 6.404847
_cell_angle_alpha 131.420582
_cell_angle_beta 88.368791
_cell_angle_gamma 93.790414
_cell_volume 722.707533
_symmetry_space_group_name_H-M "P -1"
_symmetry_group_IT_number 2
_symmetry_cell_setting 'triclinic'
loop_
_space_group_symop_operation_xyz
x,y,z
-x,-y,-z
loop_
_atom_site_type_symbol
_atom_site_label
_atom_site_fract_x
_atom_site_fract_y
_atom_site_fract_z
Si Si1 0.771766 0.992130 0.278935
Si Si2 0.473864 0.344459 0.186634
Si Si3 0.349386 0.139242 0.255814
Si Si4 0.989657 0.259612 0.261724
Si Si5 0.400942 0.894553 0.299588
Si Si6 0.082552 0.480170 0.160063
Si Si7 0.004775 0.051085 0.325236
Si Si8 0.278890 0.318058 0.854968
O O1 0.688126 0.097863 0.512909
O O2 0.882662 0.072939 0.336000
O O3 0.774613 0.845597 0.258367
O O4 0.734295 0.916818 0.975320
O O5 0.500000 0.500000 0.500000
O O6 0.443569 0.209805 0.195095
O O7 0.564658 0.274154 0.962067
O O8 0.375409 0.356632 0.052248
O O9 0.319789 0.276389 0.574994
O O10 0.367673 0.991040 0.217015
O O11 0.914448 0.373663 0.509878
O O12 0.056109 0.202099 0.389341
O O13 0.045029 0.346586 0.167712
O O14 0.953968 0.096384 0.968442
O O15 0.500000 0.000000 0.500000
O O16 0.193054 0.441114 0.018870
O O17 0.000000 0.500000 0.000000
O O18 0.000000 0.000000 0.500000
#
# Coordination Sequence:
#
# PCOD9009633 Si02
#       8
#     2   2   2   2   2   2   2   2
#     4  10  22  39  68  96 126 169 224 268 326 402
#     4  11  24  43  63  96 135 169 214 280 335 388
#     4  10  21  39  71  90 123 175 214 269 324 403
#     4  10  24  39  66  91 128 172 218 269 338 393
#     4  11  20  41  68  98 125 168 226 261 322 410
#     4  11  23  42  66  95 130 175 222 275 328 401
#     4  11  23  44  64  97 134 170 220 281 339 389
#     4  10  22  41  65  96 124 173 225 261 330 405
#
# _framework density 22.138968999999999
#
# number of rings (size 3 to 8) (size 9 to 14) (size 15 to 20)
#    0.000    1.500    5.000    1.125    1.750    4.500 
#    6.750    0.000    0.000    0.000    0.000    0.000 
#    0.000    0.000    0.000    0.000    0.000    0.000 
#
# Total GULP energy -89229.839825 kJ/mol
# GULP energy per Si atom -5576.864989 kJ/mol
# Density = 2.208858 g / cm^3
# Si number density = 22.138969 Si / 1000 Ang^3
#
#
#
# Elastic Constant Matrix: (Units=GPa)
#
#
# Indices 1 2 3 4 5 6 
#
# 1 95.1664 15.7598 64.4586 -2.4729 -37.1442 -7.8496
# 2 15.7598 90.8514 26.9966 -16.8407 0.4804 -5.7243
# 3 64.4586 26.9966 146.0199 -1.9677 -43.3980 -14.5859
# 4 -2.4729 -16.8407 -1.9677 50.5719 -5.6049 -3.8888
# 5 -37.1442 0.4804 -43.3980 -5.6049 35.9610 9.4497
# 6 -7.8496 -5.7243 -14.5859 -3.8888 9.4497 22.3739
#
#
#
# Elastic Compliance Matrix: (Units=1/GPa)
#
#
# Indices 1 2 3 4 5 6 
#
# 1 0.019812 -0.002382 -0.003388 0.001752 0.017451 -0.002933
# 2 -0.002382 0.013282 -0.002920 0.003772 -0.006658 0.004127
# 3 -0.003388 -0.002920 0.012366 0.000699 0.011169 0.001530
# 4 0.001752 0.003772 0.000699 0.021989 0.005051 0.003724
# 5 0.017451 -0.006658 0.011169 0.005051 0.063984 -0.014446
# 6 -0.002933 0.004127 0.001530 0.003724 -0.014446 0.052467
#
#
# Mechanical properties :
#
#
# Convention : Reuss Voigt Hill
#
# Bulk Modulus (GPa) = 35.61353 60.71863 48.16608
# Shear Modulus (GPa) = 23.73705 36.76955 30.25330
#
# Velocity S-wave (km/s) = 3.27797 4.07978 3.70066
# Velocity P-wave (km/s) = 5.51798 7.04829 6.32956
#
# Compressibility (1/GPa) = 0.02807922
#
# Stress axis : x y z
#
# Youngs Moduli (GPa) = 50.47421 75.28776 80.86889
#
# Poissons Ratio (x) = 0.17935 0.27401
# Poissons Ratio (y) = 0.12024 0.23613
# Poissons Ratio (z) = 0.17102 0.21983
#
# Static dielectric constant tensor:
#      x y z
#    x 1.856530 -0.060410 0.041700 
#    y -0.060410 2.177090 -0.092030 
#    z 0.041700 -0.092030 1.886050 
# 
# From -- ./inp_files/94213.got.cif
#   From: 2010.05.17/outbox.cif.g08.bks.cpg/sg2_48_cif.got.tgz:94213.got - 2010.06.03 11:33:40.
