data_PCOD9009858
_publ_section_title
;
Structure prediction by ZEFSAII (Michael W. Deem and Ramdas Pophale) SiO2 
 PCOD9009858
Probable space group: P -1
;
_chemical_formula_sum "Si O2"
_cell_formula_units_Z 16
_cell_length_a 8.741567
_cell_length_b 20.921117
_cell_length_c 15.196400
_cell_angle_alpha 159.664870
_cell_angle_beta 90.683667
_cell_angle_gamma 78.344094
_cell_volume 807.033922
_symmetry_space_group_name_H-M "P -1"
_symmetry_group_IT_number 2
_symmetry_cell_setting 'triclinic'
loop_
_space_group_symop_operation_xyz
x,y,z
-x,-y,-z
loop_
_atom_site_type_symbol
_atom_site_label
_atom_site_fract_x
_atom_site_fract_y
_atom_site_fract_z
Si Si1 0.018655 0.064165 0.679915
Si Si2 0.730786 0.079021 0.932668
Si Si3 0.277216 0.583422 0.749401
Si Si4 0.403974 0.038972 0.849244
Si Si5 0.346556 0.865879 0.792568
Si Si6 0.650049 0.317760 0.701283
Si Si7 0.128741 0.716708 0.495696
Si Si8 0.926277 0.606090 0.808799
O O1 0.167293 0.851256 0.460699
O O2 0.090343 0.227158 0.899595
O O3 0.000000 0.000000 0.500000
O O4 0.822143 0.212495 0.918660
O O5 0.578540 0.051860 0.851775
O O6 0.704269 0.307393 0.197251
O O7 0.707997 0.066911 0.021098
O O8 0.936624 0.880982 0.658881
O O9 0.468561 0.378451 0.518549
O O10 0.127273 0.518886 0.658562
O O11 0.383256 0.014368 0.921410
O O12 0.418412 0.828491 0.532132
O O13 0.224927 0.251168 0.081090
O O14 0.186645 0.858083 0.733336
O O15 0.714187 0.406312 0.735949
O O16 0.500000 0.500000 0.000000
O O17 0.103702 0.567865 0.370936
#
# Coordination Sequence:
#
# PCOD9009858 Si02
#       8
#     2   2   2   2   2   2   2   2
#     4   9  20  39  63  85 119 155 196 243 304 350
#     4  12  22  40  61  90 120 164 205 247 301 353
#     4  10  21  40  60  88 127 152 203 251 297 355
#     4  10  22  41  59  90 126 154 205 251 291 363
#     4  11  23  38  63  88 120 166 202 249 300 352
#     4  10  22  42  63  90 120 158 194 250 306 356
#     4  11  22  41  61  89 124 157 202 251 295 361
#     4   9  21  41  60  87 125 158 191 251 302 349
#
# _framework density 19.825685
#
# number of rings (size 3 to 8) (size 9 to 14) (size 15 to 20)
#    0.750    1.000    1.250    3.375    3.500    0.000 
#    2.250    4.375    0.000    0.000    0.000    0.000 
#    0.000    0.000    0.000    0.000    0.000    0.000 
#
# Total GULP energy -89279.444859 kJ/mol
# GULP energy per Si atom -5579.965304 kJ/mol
# Density = 1.978056 g / cm^3
# Si number density = 19.825685 Si / 1000 Ang^3
#
#
#
# Elastic Constant Matrix: (Units=GPa)
#
#
# Indices 1 2 3 4 5 6 
#
# 1 112.6794 31.1021 15.1415 3.4230 -2.3681 14.9847
# 2 31.1021 63.6738 12.5686 -2.4782 0.5309 14.1516
# 3 15.1415 12.5686 49.4546 -4.1233 -21.3904 8.5851
# 4 3.4230 -2.4782 -4.1233 37.9387 5.3444 7.6625
# 5 -2.3681 0.5309 -21.3904 5.3444 27.1411 7.2633
# 6 14.9847 14.1516 8.5851 7.6625 7.2633 30.9267
#
#
#
# Elastic Compliance Matrix: (Units=1/GPa)
#
#
# Indices 1 2 3 4 5 6 
#
# 1 0.010683 -0.004377 -0.001400 -0.000966 0.000838 -0.002742
# 2 -0.004377 0.020051 -0.003470 0.002930 -0.002414 -0.006250
# 3 -0.001400 -0.003470 0.040636 0.002891 0.036287 -0.018252
# 4 -0.000966 0.002930 0.002891 0.028851 -0.001263 -0.008527
# 5 0.000838 -0.002414 0.036287 -0.001263 0.072813 -0.026162
# 6 -0.002742 -0.006250 -0.018252 -0.008527 -0.026162 0.049847
#
#
# Mechanical properties :
#
#
# Convention : Reuss Voigt Hill
#
# Bulk Modulus (GPa) = 18.91285 38.15913 28.53599
# Shear Modulus (GPa) = 19.30496 30.33434 24.81965
#
# Velocity S-wave (km/s) = 3.12386 3.91583 3.54205
# Velocity P-wave (km/s) = 4.75096 6.30350 5.58147
#
# Compressibility (1/GPa) = 0.05287410
#
# Stress axis : x y z
#
# Youngs Moduli (GPa) = 93.61001 49.87222 24.60883
#
# Poissons Ratio (x) = 0.21828 0.03446
# Poissons Ratio (y) = 0.40971 0.08540
# Poissons Ratio (z) = 0.13110 0.17308
#
# Static dielectric constant tensor:
#      x y z
#    x 1.705000 0.016730 -0.005410 
#    y 0.016730 1.692710 -0.007010 
#    z -0.005410 -0.007010 1.689390 
# 
# From -- ./inp_files/296432.got.cif
#   From: 2010.05.17/outbox.cif.g08.bks.cpg/sg2_149_cif.got.tgz:296432.got - 2010.06.03 11:33:40.
