data_PCOD9009426
_publ_section_title
;
Structure prediction by ZEFSAII (Michael W. Deem and Ramdas Pophale) SiO2 
 PCOD9009426
Probable space group: P -1
;
_chemical_formula_sum "Si O2"
_cell_formula_units_Z 14
_cell_length_a 11.007687
_cell_length_b 8.662101
_cell_length_c 9.509979
_cell_angle_alpha 61.907530
_cell_angle_beta 57.084481
_cell_angle_gamma 57.178892
_cell_volume 619.385028
_symmetry_space_group_name_H-M "P -1"
_symmetry_group_IT_number 2
_symmetry_cell_setting 'triclinic'
loop_
_space_group_symop_operation_xyz
x,y,z
-x,-y,-z
loop_
_atom_site_type_symbol
_atom_site_label
_atom_site_fract_x
_atom_site_fract_y
_atom_site_fract_z
Si Si1 0.892243 0.290837 0.279109
Si Si2 0.912821 0.511307 0.404339
Si Si3 0.373484 0.275818 0.356008
Si Si4 0.423862 0.375288 0.690926
Si Si5 0.360755 0.886894 0.536245
Si Si6 0.970696 0.217927 0.960413
Si Si7 0.626225 0.541760 0.996571
O O1 0.971446 0.316231 0.361838
O O2 0.762289 0.507045 0.253251
O O3 0.785566 0.165792 0.391776
O O4 0.002299 0.232182 0.100192
O O5 0.736726 0.553317 0.550827
O O6 0.000000 0.500000 0.500000
O O7 0.937394 0.680102 0.230652
O O8 0.548185 0.218480 0.334218
O O9 0.342162 0.317314 0.193765
O O10 0.320383 0.104353 0.495967
O O11 0.500000 0.500000 0.500000
O O12 0.507796 0.177926 0.642711
O O13 0.447286 0.370842 0.845267
O O14 0.787378 0.358860 0.994946
O O15 0.000000 0.000000 0.000000
O O16 0.500000 0.500000 0.000000
#
# Coordination Sequence:
#
# PCOD9009426 Si02
#       7
#     2   2   2   2   2   2   2
#     4  10  21  41  67  93 129 175 225 260 328 401
#     4  12  24  41  67  91 132 179 216 269 332 394
#     4  11  22  40  64  98 134 167 219 272 332 391
#     4   9  18  35  61  89 123 165 209 262 329 383
#     4  10  21  39  68  98 128 172 217 272 329 393
#     4  11  24  44  67  96 132 175 226 269 330 403
#     4  11  23  39  67  95 130 168 221 278 331 387
#
# _framework density 22.603065999999998
#
# number of rings (size 3 to 8) (size 9 to 14) (size 15 to 20)
#    0.000    1.429    2.857    3.857    2.000    1.714 
#    0.000    4.286    0.000    0.000    0.000    0.000 
#    0.000    0.000    0.000    0.000    0.000    0.000 
#
# Total GULP energy -78096.679366 kJ/mol
# GULP energy per Si atom -5578.334240 kJ/mol
# Density = 2.255162 g / cm^3
# Si number density = 22.603066 Si / 1000 Ang^3
#
#
#
# Elastic Constant Matrix: (Units=GPa)
#
#
# Indices 1 2 3 4 5 6 
#
# 1 86.3994 19.6057 32.4785 -2.3295 10.8462 26.9877
# 2 19.6057 78.4645 44.5021 16.9229 13.0835 18.9865
# 3 32.4785 44.5021 134.8279 25.3293 16.7131 16.4481
# 4 -2.3295 16.9229 25.3293 38.3316 13.0548 2.5028
# 5 10.8462 13.0835 16.7131 13.0548 40.0620 7.9559
# 6 26.9877 18.9865 16.4481 2.5028 7.9559 35.1771
#
#
#
# Elastic Compliance Matrix: (Units=1/GPa)
#
#
# Indices 1 2 3 4 5 6 
#
# 1 0.016700 -0.000359 -0.003171 0.004829 -0.002487 -0.010917
# 2 -0.000359 0.017949 -0.004004 -0.004412 -0.001279 -0.006936
# 3 -0.003171 -0.004004 0.010529 -0.005201 -0.000565 0.000169
# 4 0.004829 -0.004412 -0.005201 0.034851 -0.009194 0.000708
# 5 -0.002487 -0.001279 -0.000565 -0.009194 0.029930 -0.003253
# 6 -0.010917 -0.006936 0.000169 0.000708 -0.003253 0.041153
#
#
# Mechanical properties :
#
#
# Convention : Reuss Voigt Hill
#
# Bulk Modulus (GPa) = 33.21410 54.76272 43.98841
# Shear Modulus (GPa) = 28.37403 36.25451 32.31427
#
# Velocity S-wave (km/s) = 3.54689 4.00930 3.78516
# Velocity P-wave (km/s) = 5.61251 6.76116 6.21343
#
# Compressibility (1/GPa) = 0.03010769
#
# Stress axis : x y z
#
# Youngs Moduli (GPa) = 59.87977 55.71474 94.97614
#
# Poissons Ratio (x) = 0.02002 0.30121
# Poissons Ratio (y) = 0.02152 0.38030
# Poissons Ratio (z) = 0.18991 0.22309
#
# Static dielectric constant tensor:
#      x y z
#    x 1.962410 0.016830 -0.009650 
#    y 0.016830 1.872390 0.002180 
#    z -0.009650 0.002180 2.004970 
# 
# From -- ./inp_files/237008.got.cif
#   From: 2010.05.17/outbox.cif.g08.bks.cpg/sg2_119_cif.got.tgz:237008.got - 2010.06.03 11:33:40.
