data_PCOD9009163
_publ_section_title
;
Structure prediction by ZEFSAII (Michael W. Deem and Ramdas Pophale) SiO2 
 PCOD9009163
Probable space group: P -1
;
_chemical_formula_sum "Si O2"
_cell_formula_units_Z 16
_cell_length_a 18.106150
_cell_length_b 5.217086
_cell_length_c 11.879673
_cell_angle_alpha 95.765165
_cell_angle_beta 33.282275
_cell_angle_gamma 97.139166
_cell_volume 611.020234
_symmetry_space_group_name_H-M "P -1"
_symmetry_group_IT_number 2
_symmetry_cell_setting 'triclinic'
loop_
_space_group_symop_operation_xyz
x,y,z
-x,-y,-z
loop_
_atom_site_type_symbol
_atom_site_label
_atom_site_fract_x
_atom_site_fract_y
_atom_site_fract_z
Si Si1 0.314798 0.260721 0.743022
Si Si2 0.779866 0.609513 0.642958
Si Si3 0.126086 0.466680 0.252743
Si Si4 0.495519 0.455877 0.320962
Si Si5 0.969146 0.083626 0.740895
Si Si6 0.439164 0.149938 0.185693
Si Si7 0.149342 0.731043 0.898237
Si Si8 0.245682 0.736492 0.537611
O O1 0.431345 0.298004 0.501725
O O2 0.383597 0.357758 0.776026
O O3 0.203071 0.457472 0.855437
O O4 0.260270 0.964414 0.799566
O O5 0.764464 0.556041 0.791017
O O6 0.634364 0.636068 0.778631
O O7 0.827617 0.401406 0.483148
O O8 0.886351 0.856947 0.500928
O O9 0.128625 0.717910 0.183788
O O10 0.000000 0.500000 0.500000
O O11 0.092848 0.203683 0.215096
O O12 0.536173 0.261732 0.164272
O O13 0.371066 0.601478 0.432293
O O14 0.976052 0.180735 0.865427
O O15 0.319896 0.992858 0.401193
O O16 0.500000 0.000000 0.000000
O O17 0.141443 0.746886 0.774105
#
# Coordination Sequence:
#
# PCOD9009163 Si02
#       8
#     2   2   2   2   2   2   2   2
#     4  10  21  39  67  93 131 176 212 271 334 382
#     4  10  24  42  67  94 132 181 214 271 340 384
#     4  10  22  43  69  96 133 173 222 272 325 384
#     4   9  21  39  62  92 126 175 219 269 332 385
#     4  11  24  43  69 104 132 173 222 275 326 398
#     4  11  24  43  64  95 130 175 228 273 323 404
#     4  11  23  42  65 102 136 168 222 273 324 397
#     4  10  23  42  65  89 138 172 219 269 332 394
#
# _framework density 26.185714000000001
#
# number of rings (size 3 to 8) (size 9 to 14) (size 15 to 20)
#    0.000    1.750    1.250    2.250    7.000    5.000 
#    4.500    0.625    0.000    0.000    0.000    0.000 
#    0.000    0.000    0.000    0.000    0.000    0.000 
#
# Total GULP energy -89500.053294 kJ/mol
# GULP energy per Si atom -5593.753331 kJ/mol
# Density = 2.612611 g / cm^3
# Si number density = 26.185714 Si / 1000 Ang^3
#
#
#
# Elastic Constant Matrix: (Units=GPa)
#
#
# Indices 1 2 3 4 5 6 
#
# 1 131.2846 45.7662 17.8972 10.7979 31.4924 10.1228
# 2 45.7662 115.8911 19.1093 -4.9367 13.7135 9.9586
# 3 17.8972 19.1093 96.9501 0.9693 33.7721 3.3918
# 4 10.7979 -4.9367 0.9693 43.9276 18.8111 9.5747
# 5 31.4924 13.7135 33.7721 18.8111 37.1319 5.6762
# 6 10.1228 9.9586 3.3918 9.5747 5.6762 40.8032
#
#
#
# Elastic Compliance Matrix: (Units=1/GPa)
#
#
# Indices 1 2 3 4 5 6 
#
# 1 0.011042 -0.003275 0.002562 0.001927 -0.011304 -0.001033
# 2 -0.003275 0.010584 -0.000874 0.003188 -0.001612 -0.002222
# 3 0.002562 -0.000874 0.017657 0.008526 -0.022103 -0.000816
# 4 0.001927 0.003188 0.008526 0.035728 -0.027672 -0.006499
# 5 -0.011304 -0.001612 -0.022103 -0.027672 0.070983 0.001654
# 6 -0.001033 -0.002222 -0.000816 -0.006499 0.001654 0.026669
#
#
# Mechanical properties :
#
#
# Convention : Reuss Voigt Hill
#
# Bulk Modulus (GPa) = 27.69474 56.63014 42.16244
# Shear Modulus (GPa) = 26.61377 41.79608 34.20493
#
# Velocity S-wave (km/s) = 3.19148 3.99951 3.61812
# Velocity P-wave (km/s) = 4.91731 6.55754 5.79575
#
# Compressibility (1/GPa) = 0.03610794
#
# Stress axis : x y z
#
# Youngs Moduli (GPa) = 90.56301 94.48624 56.63498
#
# Poissons Ratio (x) = 0.30940 -0.14507
# Poissons Ratio (y) = 0.29655 0.04951
# Poissons Ratio (z) = -0.23198 0.08261
#
# Static dielectric constant tensor:
#      x y z
#    x 2.281670 0.024190 0.137870 
#    y 0.024190 2.097380 0.104800 
#    z 0.137870 0.104800 2.352250 
# 
# From -- ./inp_files/459215.got.cif
#   From: 2010.05.17/outbox.cif.g08.bks.cpg/sg2_230_cif.got.tgz:459215.got - 2010.06.03 11:33:40.
