data_PCOD9009852
_publ_section_title
;
Structure prediction by ZEFSAII (Michael W. Deem and Ramdas Pophale) SiO2 
 PCOD9009852
Probable space group: P -1
;
_chemical_formula_sum "Si O2"
_cell_formula_units_Z 13
_cell_length_a 9.198578
_cell_length_b 4.964036
_cell_length_c 11.128171
_cell_angle_alpha 97.080322
_cell_angle_beta 67.791754
_cell_angle_gamma 117.787920
_cell_volume 415.317825
_symmetry_space_group_name_H-M "P -1"
_symmetry_group_IT_number 2
_symmetry_cell_setting 'triclinic'
loop_
_space_group_symop_operation_xyz
x,y,z
-x,-y,-z
loop_
_atom_site_type_symbol
_atom_site_label
_atom_site_fract_x
_atom_site_fract_y
_atom_site_fract_z
Si Si1 0.645238 0.854407 0.671230
Si Si2 0.584620 0.411848 0.088498
Si Si3 0.000000 0.000000 0.000000
Si Si4 0.146703 0.477924 0.374813
Si Si5 0.633617 0.610132 0.379671
Si Si6 0.244724 0.015946 0.062862
Si Si7 0.121808 0.705062 0.747925
O O1 0.815365 0.794809 0.613667
O O2 0.575681 0.688844 0.544554
O O3 0.653656 0.872704 0.831478
O O4 0.676596 0.199327 0.658253
O O5 0.763900 0.741759 0.025678
O O6 0.655201 0.165216 0.029790
O O7 0.500000 0.500000 0.000000
O O8 0.555377 0.442878 0.245903
O O9 0.922190 0.224858 0.103094
O O10 0.035972 0.866986 0.123509
O O11 0.000000 0.500000 0.500000
O O12 0.068553 0.430008 0.264899
O O13 0.773751 0.478738 0.341933
O O14 0.735180 0.958743 0.325498
#
# Coordination Sequence:
#
# PCOD9009852 Si02
#       7
#     2   2   1   2   2   2   2
#     4  12  23  41  69  94 129 172 229 282 342 409
#     4  10  21  40  60  88 118 170 219 267 314 389
#     4  12  26  44  66 104 144 186 222 280 358 426
#     4  12  25  44  67 100 135 177 228 292 351 407
#     4  12  25  47  73 103 136 184 240 297 347 407
#     4  10  22  38  61  86 127 166 218 262 317 392
#     4  12  27  45  71 104 147 183 229 289 357 423
#
# _framework density 31.301331999999999
#
# number of rings (size 3 to 8) (size 9 to 14) (size 15 to 20)
#    0.000    0.615    0.000    8.308    0.000    4.923 
#    0.000    0.000    0.000    0.000    0.000    0.000 
#    0.000    0.000    0.000    0.000    0.000    0.000 
#
# Total GULP energy -72644.791070 kJ/mol
# GULP energy per Si atom -5588.060852 kJ/mol
# Density = 3.123009 g / cm^3
# Si number density = 31.301332 Si / 1000 Ang^3
#
#
#
# Elastic Constant Matrix: (Units=GPa)
#
#
# Indices 1 2 3 4 5 6 
#
# 1 210.5144 29.3706 55.3258 25.4161 26.1058 5.4101
# 2 29.3706 136.2057 67.1790 16.5497 -23.3844 8.0463
# 3 55.3258 67.1790 235.1872 7.0778 -30.8683 22.2904
# 4 25.4161 16.5497 7.0778 70.9873 22.9535 -4.6299
# 5 26.1058 -23.3844 -30.8683 22.9535 95.9453 8.8184
# 6 5.4101 8.0463 22.2904 -4.6299 8.8184 51.0384
#
#
#
# Elastic Compliance Matrix: (Units=1/GPa)
#
#
# Indices 1 2 3 4 5 6 
#
# 1 0.005564 -0.000760 -0.001346 -0.001038 -0.001916 0.000355
# 2 -0.000760 0.009298 -0.001943 -0.002618 0.002586 -0.001221
# 3 -0.001346 -0.001943 0.005631 -0.000440 0.002030 -0.002401
# 4 -0.001038 -0.002618 -0.000440 0.016871 -0.004816 0.003077
# 5 -0.001916 0.002586 0.002030 -0.004816 0.013738 -0.003902
# 6 0.000355 -0.001221 -0.002401 0.003077 -0.003902 0.021750
#
#
# Mechanical properties :
#
#
# Convention : Reuss Voigt Hill
#
# Bulk Modulus (GPa) = 80.67576 98.40646 89.54111
# Shear Modulus (GPa) = 58.76751 72.26299 65.51525
#
# Velocity S-wave (km/s) = 4.33769 4.81003 4.57995
# Velocity P-wave (km/s) = 7.13563 7.89653 7.52570
#
# Compressibility (1/GPa) = 0.01239530
#
# Stress axis : x y z
#
# Youngs Moduli (GPa) = 179.73386 107.54533 177.59597
#
# Poissons Ratio (x) = 0.08172 0.23899
# Poissons Ratio (y) = 0.13657 0.34512
# Poissons Ratio (z) = 0.24186 0.20899
#
# Static dielectric constant tensor:
#      x y z
#    x 1.219000 -1.608450 0.002200 
#    y -1.608450 0.036790 -0.362270 
#    z 0.002200 -0.362270 2.695470 
# 
# From -- ./inp_files/408016.got.cif
#   From: 2010.05.17/outbox.cif.g08.bks.cpg/sg2_205_cif.got.tgz:408016.got - 2010.06.03 11:33:40.
