data_PCOD9009626
_publ_section_title
;
Structure prediction by ZEFSAII (Michael W. Deem and Ramdas Pophale) SiO2 
 PCOD9009626
Probable space group: P -1
;
_chemical_formula_sum "Si O2"
_cell_formula_units_Z 16
_cell_length_a 8.861247
_cell_length_b 12.525172
_cell_length_c 9.278153
_cell_angle_alpha 105.754818
_cell_angle_beta 46.861381
_cell_angle_gamma 102.128617
_cell_volume 722.756877
_symmetry_space_group_name_H-M "P -1"
_symmetry_group_IT_number 2
_symmetry_cell_setting 'triclinic'
loop_
_space_group_symop_operation_xyz
x,y,z
-x,-y,-z
loop_
_atom_site_type_symbol
_atom_site_label
_atom_site_fract_x
_atom_site_fract_y
_atom_site_fract_z
Si Si1 0.029044 0.112742 0.610788
Si Si2 0.175994 0.289303 0.087049
Si Si3 0.017059 0.702068 0.500892
Si Si4 0.087114 0.892403 0.981848
Si Si5 0.454657 0.648075 0.314146
Si Si6 0.030419 0.479492 0.752942
Si Si7 0.663772 0.427234 0.180334
Si Si8 0.509385 0.782862 0.624729
O O1 0.268446 0.157294 0.477174
O O2 0.918646 0.205181 0.622653
O O3 0.000000 0.000000 0.500000
O O4 0.946566 0.101029 0.822704
O O5 0.134066 0.250718 0.262542
O O6 0.044375 0.212512 0.034993
O O7 0.087519 0.412240 0.178441
O O8 0.408993 0.298976 0.884686
O O9 0.217519 0.659996 0.435931
O O10 0.918702 0.599705 0.439511
O O11 0.324990 0.869428 0.780551
O O12 0.000000 0.000000 0.000000
O O13 0.522208 0.521507 0.241827
O O14 0.506934 0.717102 0.450154
O O15 0.232132 0.518750 0.723849
O O16 0.865034 0.415118 0.942190
O O17 0.551324 0.311805 0.252321
#
# Coordination Sequence:
#
# PCOD9009626 Si02
#       8
#     2   2   2   2   2   2   2   2
#     4  12  30  50  74 107 143 184 247 309 362 421
#     4  11  23  43  68 105 146 190 239 290 353 426
#     4  12  25  43  69 109 151 187 237 301 356 413
#     4  12  26  49  79 105 136 189 247 301 361 431
#     4  11  24  41  71 107 148 196 237 280 357 442
#     4  10  21  39  71 104 156 189 239 294 350 426
#     4  10  21  40  70 109 146 200 239 281 358 442
#     4  12  24  46  77 104 142 193 245 293 365 435
#
# _framework density 22.137457999999999
#
# number of rings (size 3 to 8) (size 9 to 14) (size 15 to 20)
#    0.000    0.750    3.750    3.000    1.750    8.000 
#    0.000    0.000    0.000    0.000    0.000    0.000 
#    0.000    0.000    0.000    0.000    0.000    0.000 
#
# Total GULP energy -89635.807796 kJ/mol
# GULP energy per Si atom -5602.237987 kJ/mol
# Density = 2.208707 g / cm^3
# Si number density = 22.137458 Si / 1000 Ang^3
#
#
#
# Elastic Constant Matrix: (Units=GPa)
#
#
# Indices 1 2 3 4 5 6 
#
# 1 67.2544 24.0106 29.5336 -2.3671 -5.2254 5.2865
# 2 24.0106 81.6990 19.2340 8.9482 7.0525 -4.5692
# 3 29.5336 19.2340 121.1685 -6.3791 10.1157 1.4620
# 4 -2.3671 8.9482 -6.3791 33.6233 3.7273 5.3396
# 5 -5.2254 7.0525 10.1157 3.7273 49.7205 3.7976
# 6 5.2865 -4.5692 1.4620 5.3396 3.7976 34.4464
#
#
#
# Elastic Compliance Matrix: (Units=1/GPa)
#
#
# Indices 1 2 3 4 5 6 
#
# 1 0.019313 -0.005569 -0.003963 0.002356 0.003779 -0.004316
# 2 -0.005569 0.015125 -0.001152 -0.004995 -0.002424 0.003951
# 3 -0.003963 -0.001152 0.009714 0.002139 -0.002388 -0.000025
# 4 0.002356 -0.004995 0.002139 0.032764 -0.001475 -0.006031
# 5 0.003779 -0.002424 -0.002388 -0.001475 0.021676 -0.002961
# 6 -0.004316 0.003951 -0.000025 -0.006031 -0.002961 0.031480
#
#
# Mechanical properties :
#
#
# Convention : Reuss Voigt Hill
#
# Bulk Modulus (GPa) = 43.88771 46.18648 45.03710
# Shear Modulus (GPa) = 31.44005 36.71427 34.07716
#
# Velocity S-wave (km/s) = 3.77267 4.07685 3.92770
# Velocity P-wave (km/s) = 6.23262 6.56275 6.39981
#
# Compressibility (1/GPa) = 0.02278542
#
# Stress axis : x y z
#
# Youngs Moduli (GPa) = 51.77868 66.11538 102.94460
#
# Poissons Ratio (x) = 0.36817 0.40794
# Poissons Ratio (y) = 0.28834 0.11858
# Poissons Ratio (z) = 0.20518 0.07616
#
# Static dielectric constant tensor:
#      x y z
#    x 1.802300 -0.020540 0.014770 
#    y -0.020540 1.797420 -0.024780 
#    z 0.014770 -0.024780 1.833590 
# 
# From -- ./inp_files/188214.got.cif
#   From: 2010.05.17/outbox.cif.g08.bks.cpg/sg2_95_cif.got.tgz:188214.got - 2010.06.03 11:33:40.
