data_PCOD9009131
_publ_section_title
;
Structure prediction by ZEFSAII (Michael W. Deem and Ramdas Pophale) SiO2 
 PCOD9009131
Probable space group: P -1
;
_chemical_formula_sum "Si O2"
_cell_formula_units_Z 16
_cell_length_a 8.997238
_cell_length_b 11.535052
_cell_length_c 18.916102
_cell_angle_alpha 53.430298
_cell_angle_beta 82.073319
_cell_angle_gamma 37.956148
_cell_volume 718.295585
_symmetry_space_group_name_H-M "P -1"
_symmetry_group_IT_number 2
_symmetry_cell_setting 'triclinic'
loop_
_space_group_symop_operation_xyz
x,y,z
-x,-y,-z
loop_
_atom_site_type_symbol
_atom_site_label
_atom_site_fract_x
_atom_site_fract_y
_atom_site_fract_z
Si Si1 0.724043 0.037957 0.556191
Si Si2 0.202436 0.179206 0.098075
Si Si3 0.490292 0.280293 0.641121
Si Si4 0.418803 0.552775 0.665468
Si Si5 0.401210 0.438982 0.067350
Si Si6 0.870430 0.637026 0.538540
Si Si7 0.800473 0.833797 0.192231
Si Si8 0.211006 0.691011 0.130888
O O1 0.593903 0.201884 0.581723
O O2 0.655308 0.219957 0.435949
O O3 0.520439 0.063098 0.546660
O O4 0.113609 0.713455 0.650362
O O5 0.297323 0.027362 0.222738
O O6 0.555750 0.926635 0.140514
O O7 0.000000 0.500000 0.000000
O O8 0.978448 0.268705 0.032549
O O9 0.562519 0.355249 0.658125
O O10 0.097790 0.581772 0.561895
O O11 0.637602 0.377389 0.783051
O O12 0.451402 0.426227 0.151274
O O13 0.603503 0.132478 0.134519
O O14 0.500000 0.500000 0.000000
O O15 0.000000 0.500000 0.500000
O O16 0.996818 0.413438 0.668687
O O17 0.004367 0.730978 0.154697
O O18 0.000000 0.000000 0.000000
#
# Coordination Sequence:
#
# PCOD9009131 Si02
#       8
#     2   2   2   2   2   2   2   2
#     4  10  22  41  62  89 130 160 206 265 300 369
#     4   9  21  40  63  92 125 160 212 256 309 374
#     4  10  21  39  67  89 122 170 203 253 317 369
#     4  11  24  39  60  97 126 160 212 254 310 370
#     4  11  23  39  63  94 121 168 206 250 319 371
#     4   9  19  41  63  89 120 165 208 251 310 361
#     4  10  21  42  62  87 129 156 206 265 299 377
#     4  12  24  39  64  93 127 164 205 261 313 368
#
# _framework density 22.274951999999999
#
# number of rings (size 3 to 8) (size 9 to 14) (size 15 to 20)
#    0.000    1.750    2.500    1.125    1.750    1.000 
#    9.000   10.000    0.000    0.000    0.000    0.000 
#    0.000    0.000    0.000    0.000    0.000    0.000 
#
# Total GULP energy -89250.501657 kJ/mol
# GULP energy per Si atom -5578.156354 kJ/mol
# Density = 2.222425 g / cm^3
# Si number density = 22.274952 Si / 1000 Ang^3
#
#
#
# Elastic Constant Matrix: (Units=GPa)
#
#
# Indices 1 2 3 4 5 6 
#
# 1 98.7007 23.4836 24.8663 11.9081 17.0962 -3.7360
# 2 23.4836 63.6727 -0.0532 19.6216 -4.0560 -4.5149
# 3 24.8663 -0.0532 80.0988 16.1479 3.8566 -6.9251
# 4 11.9081 19.6216 16.1479 28.2286 0.4967 -0.5667
# 5 17.0962 -4.0560 3.8566 0.4967 37.0748 5.3809
# 6 -3.7360 -4.5149 -6.9251 -0.5667 5.3809 35.0562
#
#
#
# Elastic Compliance Matrix: (Units=1/GPa)
#
#
# Indices 1 2 3 4 5 6 
#
# 1 0.013543 -0.005494 -0.003901 0.000473 -0.006590 0.000984
# 2 -0.005494 0.023408 0.005134 -0.016918 0.004425 0.002491
# 3 -0.003901 0.005134 0.016204 -0.011134 0.000358 0.003212
# 4 0.000473 -0.016918 -0.011134 0.053308 -0.001147 -0.003290
# 5 -0.006590 0.004425 0.000358 -0.001147 0.031180 -0.004866
# 6 0.000984 0.002491 0.003212 -0.003290 -0.004866 0.030279
#
#
# Mechanical properties :
#
#
# Convention : Reuss Voigt Hill
#
# Bulk Modulus (GPa) = 22.40485 37.67394 30.03940
# Shear Modulus (GPa) = 26.13391 33.01695 29.57543
#
# Velocity S-wave (km/s) = 3.42898 3.85417 3.64777
# Velocity P-wave (km/s) = 5.07517 6.06268 5.59077
#
# Compressibility (1/GPa) = 0.04463319
#
# Stress axis : x y z
#
# Youngs Moduli (GPa) = 73.83776 42.72076 61.71257
#
# Poissons Ratio (x) = 0.23471 0.24075
# Poissons Ratio (y) = 0.40566 -0.31683
# Poissons Ratio (z) = 0.28805 -0.21933
#
# Static dielectric constant tensor:
#      x y z
#    x 1.876480 -0.003580 0.041320 
#    y -0.003580 1.836400 -0.051070 
#    z 0.041320 -0.051070 1.813740 
# 
# From -- ./inp_files/269696.got.cif
#   From: 2010.05.17/outbox.cif.g08.bks.cpg/sg2_135_cif.got.tgz:269696.got - 2010.06.03 11:33:40.
