data_PCOD9009774
_publ_section_title
;
Structure prediction by ZEFSAII (Michael W. Deem and Ramdas Pophale) SiO2 
 PCOD9009774
Probable space group: P -1
;
_chemical_formula_sum "Si O2"
_cell_formula_units_Z 14
_cell_length_a 5.149873
_cell_length_b 5.240501
_cell_length_c 26.074734
_cell_angle_alpha 101.803710
_cell_angle_beta 108.101701
_cell_angle_gamma 119.630253
_cell_volume 523.934878
_symmetry_space_group_name_H-M "P -1"
_symmetry_group_IT_number 2
_symmetry_cell_setting 'triclinic'
loop_
_space_group_symop_operation_xyz
x,y,z
-x,-y,-z
loop_
_atom_site_type_symbol
_atom_site_label
_atom_site_fract_x
_atom_site_fract_y
_atom_site_fract_z
Si Si1 0.728737 0.010023 0.889765
Si Si2 0.397033 0.157940 0.541535
Si Si3 0.807257 0.083606 0.779221
Si Si4 0.813458 0.221454 0.066943
Si Si5 0.757819 0.895057 0.264124
Si Si6 0.712267 0.361124 0.432228
Si Si7 0.808439 0.483079 0.327558
O O1 0.953844 0.404451 0.921970
O O2 0.697077 0.955642 0.824383
O O3 0.952689 0.900296 0.920501
O O4 0.376434 0.833067 0.892407
O O5 0.532153 0.532801 0.565150
O O6 0.500000 0.000000 0.500000
O O7 0.443783 0.020337 0.591203
O O8 0.000000 0.000000 0.500000
O O9 0.650351 0.276577 0.765738
O O10 0.180879 0.216615 0.790596
O O11 0.600577 0.784017 0.714360
O O12 0.500000 0.000000 0.000000
O O13 0.884797 0.782280 0.312664
O O14 0.907186 0.270713 0.297186
O O15 0.872416 0.511724 0.393016
O O16 0.000000 0.500000 0.500000
#
# Coordination Sequence:
#
# PCOD9009774 Si02
#       7
#     2   2   2   2   2   2   2
#     4  12  26  43  78 102 149 197 247 299 359 429
#     4  10  21  40  59  86 116 153 201 254 309 392
#     4  10  26  43  68  99 133 177 234 282 349 406
#     4  12  26  47  72 112 152 196 244 299 358 424
#     4  10  24  41  66  90 135 165 225 280 351 401
#     4  10  21  43  63  93 123 168 211 268 337 417
#     4  10  24  43  65  95 132 169 220 283 346 408
#
# _framework density 26.720873999999998
#
# number of rings (size 3 to 8) (size 9 to 14) (size 15 to 20)
#    0.857    0.571    0.000    4.286    6.000    0.000 
#   15.429    0.000    0.000    0.000    0.000    0.000 
#    0.000    0.000    0.000    0.000    0.000    0.000 
#
# Total GULP energy -78250.031489 kJ/mol
# GULP energy per Si atom -5589.287964 kJ/mol
# Density = 2.666006 g / cm^3
# Si number density = 26.720874 Si / 1000 Ang^3
#
#
#
# Elastic Constant Matrix: (Units=GPa)
#
#
# Indices 1 2 3 4 5 6 
#
# 1 122.9303 54.8071 5.6928 -13.4715 -20.4656 -41.1867
# 2 54.8071 190.1342 17.4181 -30.1169 5.9519 -45.0789
# 3 5.6928 17.4181 102.3273 -11.6623 -5.1720 -13.1467
# 4 -13.4715 -30.1169 -11.6623 42.5238 -0.4929 13.7656
# 5 -20.4656 5.9519 -5.1720 -0.4929 47.2482 -4.3513
# 6 -41.1867 -45.0789 -13.1467 13.7656 -4.3513 48.8938
#
#
#
# Elastic Compliance Matrix: (Units=1/GPa)
#
#
# Indices 1 2 3 4 5 6 
#
# 1 0.013740 -0.001695 0.001312 0.000034 0.007323 0.011006
# 2 -0.001695 0.007323 -0.000310 0.003180 -0.001268 0.004232
# 3 0.001312 -0.000310 0.010509 0.002049 0.002079 0.003253
# 4 0.000034 0.003180 0.002049 0.027737 -0.000270 -0.004322
# 5 0.007323 -0.001268 0.002079 -0.000270 0.025449 0.007899
# 6 0.011006 0.004232 0.003253 -0.004322 0.007899 0.036421
#
#
# Mechanical properties :
#
#
# Convention : Reuss Voigt Hill
#
# Bulk Modulus (GPa) = 33.12798 63.46976 48.29887
# Shear Modulus (GPa) = 37.69978 50.23142 43.96560
#
# Velocity S-wave (km/s) = 3.76024 4.34044 4.06071
# Velocity P-wave (km/s) = 5.59260 6.99454 6.33249
#
# Compressibility (1/GPa) = 0.03018596
#
# Stress axis : x y z
#
# Youngs Moduli (GPa) = 72.77980 136.54963 95.15717
#
# Poissons Ratio (x) = 0.23148 -0.12487
# Poissons Ratio (y) = 0.12338 0.02951
# Poissons Ratio (z) = -0.09550 0.04235
#
# Static dielectric constant tensor:
#      x y z
#    x 2.428280 0.268720 -0.006510 
#    y 0.268720 2.332710 0.045070 
#    z -0.006510 0.045070 2.124000 
# 
# From -- ./inp_files/603346.got.cif
#   From: 2010.05.17/outbox.cif.g08.bks.cpg/sg2_302_cif.got.tgz:603346.got - 2010.06.03 11:33:40.
