data_PCOD9009012
_publ_section_title
;
Structure prediction by ZEFSAII (Michael W. Deem and Ramdas Pophale) SiO2 
 PCOD9009012
Probable space group: P -1
;
_chemical_formula_sum "Si O2"
_cell_formula_units_Z 15
_cell_length_a 11.487140
_cell_length_b 15.361089
_cell_length_c 7.310005
_cell_angle_alpha 140.463359
_cell_angle_beta 52.045300
_cell_angle_gamma 126.646127
_cell_volume 627.847636
_symmetry_space_group_name_H-M "P -1"
_symmetry_group_IT_number 2
_symmetry_cell_setting 'triclinic'
loop_
_space_group_symop_operation_xyz
x,y,z
-x,-y,-z
loop_
_atom_site_type_symbol
_atom_site_label
_atom_site_fract_x
_atom_site_fract_y
_atom_site_fract_z
Si Si1 0.210717 0.082273 0.575778
Si Si2 0.231627 0.729330 0.415143
Si Si3 0.326789 0.216150 0.287227
Si Si4 0.482907 0.981843 0.765248
Si Si5 0.738224 0.616293 0.849228
Si Si6 0.000000 0.500000 0.500000
Si Si7 0.580838 0.481603 0.163957
Si Si8 0.004700 0.871760 0.653394
O O1 0.264134 0.133531 0.404023
O O2 0.353104 0.044224 0.481833
O O3 0.072732 0.946733 0.518684
O O4 0.181392 0.222079 0.922700
O O5 0.353926 0.849626 0.601992
O O6 0.123937 0.791293 0.486580
O O7 0.123043 0.635018 0.516325
O O8 0.317977 0.626260 0.057687
O O9 0.413644 0.376403 0.500124
O O10 0.168418 0.215431 0.340260
O O11 0.436225 0.119700 0.955266
O O12 0.500000 0.000000 0.000000
O O13 0.865707 0.535151 0.550336
O O14 0.591990 0.599879 0.838259
O O15 0.661397 0.548386 0.004278
O O16 0.000000 0.000000 0.000000
#
# Coordination Sequence:
#
# PCOD9009012 Si02
#       8
#     2   2   2   2   2   1   2   2
#     4  10  21  40  66  95 122 174 212 262 316 383
#     4  11  22  42  62  94 124 173 210 265 318 381
#     4  10  22  41  64  95 129 168 214 268 312 376
#     4  10  21  39  66  97 127 162 221 262 312 379
#     4   9  17  34  60  88 116 159 209 250 306 371
#     4  10  22  34  62  92 124 156 210 258 316 374
#     4   9  19  37  62  83 122 164 209 255 308 372
#     4  12  24  40  63  94 137 164 212 268 325 374
#
# _framework density 23.891147
#
# number of rings (size 3 to 8) (size 9 to 14) (size 15 to 20)
#    0.000    1.867    2.667    1.200    5.600    1.067 
#    7.200    0.000    0.000    4.000    0.000    0.000 
#    0.000    0.000    0.000    0.000    0.000    0.000 
#
# Total GULP energy -83563.519364 kJ/mol
# GULP energy per Si atom -5570.901291 kJ/mol
# Density = 2.383677 g / cm^3
# Si number density = 23.891147 Si / 1000 Ang^3
#
#
#
# Elastic Constant Matrix: (Units=GPa)
#
#
# Indices 1 2 3 4 5 6 
#
# 1 119.3168 1.5311 37.7520 5.8475 -47.1388 6.7968
# 2 1.5311 98.0570 5.7050 19.7376 -5.6002 2.3805
# 3 37.7520 5.7050 76.9869 17.9070 -34.5969 -4.2908
# 4 5.8475 19.7376 17.9070 22.4037 -7.7866 10.8532
# 5 -47.1388 -5.6002 -34.5969 -7.7866 46.6264 -2.9984
# 6 6.7968 2.3805 -4.2908 10.8532 -2.9984 43.7541
#
#
#
# Elastic Compliance Matrix: (Units=1/GPa)
#
#
# Indices 1 2 3 4 5 6 
#
# 1 0.014259 -0.000026 -0.001946 0.003687 0.013430 -0.002399
# 2 -0.000026 0.013166 0.003790 -0.015724 0.001979 0.003695
# 3 -0.001946 0.003790 0.026164 -0.023225 0.014629 0.009426
# 4 0.003687 -0.015724 -0.023225 0.086710 -0.002436 -0.023670
# 5 0.013430 0.001979 0.014629 -0.002436 0.045902 0.002991
# 6 -0.002399 0.003695 0.009426 -0.023670 0.002991 0.030027
#
#
# Mechanical properties :
#
#
# Convention : Reuss Voigt Hill
#
# Bulk Modulus (GPa) = 17.47515 42.70411 30.08963
# Shear Modulus (GPa) = 21.58252 39.18170 30.38211
#
# Velocity S-wave (km/s) = 3.00887 4.05410 3.56994
# Velocity P-wave (km/s) = 4.40471 6.31090 5.44192
#
# Compressibility (1/GPa) = 0.05722413
#
# Stress axis : x y z
#
# Youngs Moduli (GPa) = 70.13208 75.95047 38.22002
#
# Poissons Ratio (x) = 0.00199 0.07438
# Poissons Ratio (y) = 0.00184 -0.14484
# Poissons Ratio (z) = 0.13649 -0.28783
#
# Static dielectric constant tensor:
#      x y z
#    x 1.913310 -0.073830 0.006780 
#    y -0.073830 1.977180 -0.081150 
#    z 0.006780 -0.081150 1.917920 
# 
# From -- ./inp_files/280217.got.cif
#   From: 2010.05.17/outbox.cif.g08.bks.cpg/sg2_141_cif.got.tgz:280217.got - 2010.06.03 11:33:40.
