data_PCOD9009321
_publ_section_title
;
Structure prediction by ZEFSAII (Michael W. Deem and Ramdas Pophale) SiO2 
 PCOD9009321
Probable space group: P -1
;
_chemical_formula_sum "Si O2"
_cell_formula_units_Z 12
_cell_length_a 15.726413
_cell_length_b 18.065473
_cell_length_c 10.320817
_cell_angle_alpha 156.293419
_cell_angle_beta 36.344387
_cell_angle_gamma 156.242824
_cell_volume 465.238345
_symmetry_space_group_name_H-M "P -1"
_symmetry_group_IT_number 2
_symmetry_cell_setting 'triclinic'
loop_
_space_group_symop_operation_xyz
x,y,z
-x,-y,-z
loop_
_atom_site_type_symbol
_atom_site_label
_atom_site_fract_x
_atom_site_fract_y
_atom_site_fract_z
Si Si1 0.823406 0.864969 0.786356
Si Si2 0.826232 0.878549 0.410280
Si Si3 0.487059 0.277107 0.287048
Si Si4 0.811287 0.297744 0.802458
Si Si5 0.045365 0.452139 0.507599
Si Si6 0.544721 0.343757 0.758191
O O1 0.668377 0.590855 0.620197
O O2 0.671692 0.786487 0.727689
O O3 0.025863 0.944897 0.612158
O O4 0.924435 0.141301 0.164470
O O5 0.672726 0.897065 0.674532
O O6 0.693188 0.560976 0.042533
O O7 0.000000 0.000000 0.500000
O O8 0.624890 0.261341 0.015896
O O9 0.932520 0.449720 0.760526
O O10 0.669336 0.973435 0.453127
O O11 0.000000 0.500000 0.000000
O O12 0.000000 0.500000 0.500000
O O13 0.297968 0.637885 0.491330
O O14 0.500000 0.500000 0.000000
#
# Coordination Sequence:
#
# PCOD9009321 Si02
#       6
#     2   2   2   2   2   2
#     4   9  20  39  69 104 135 187 244 311 365 440
#     4   9  20  41  71 103 139 189 249 303 369 444
#     4  10  21  39  68 104 145 185 242 307 377 437
#     4  12  30  47  72 112 161 201 250 314 389 458
#     4  11  26  49  77 108 151 199 263 319 379 453
#     4  11  27  49  76 111 154 207 256 314 389 462
#
# _framework density 25.793229
#
# number of rings (size 3 to 8) (size 9 to 14) (size 15 to 20)
#    0.000    1.667    0.000    2.000    7.000   14.667 
#    0.000    0.000    0.000    0.000    0.000    0.000 
#    0.000    0.000    0.000    0.000    0.000    0.000 
#
# Total GULP energy -67050.825412 kJ/mol
# GULP energy per Si atom -5587.568784 kJ/mol
# Density = 2.573452 g / cm^3
# Si number density = 25.793229 Si / 1000 Ang^3
#
#
#
# Elastic Constant Matrix: (Units=GPa)
#
#
# Indices 1 2 3 4 5 6 
#
# 1 88.3189 68.6765 34.7212 -11.4879 3.5359 13.2095
# 2 68.6765 261.0548 85.2416 -31.8375 -1.6930 -6.8937
# 3 34.7212 85.2416 92.7814 -3.2669 4.8809 -9.7506
# 4 -11.4879 -31.8375 -3.2669 83.5955 10.5490 4.3124
# 5 3.5359 -1.6930 4.8809 10.5490 33.2485 2.0856
# 6 13.2095 -6.8937 -9.7506 4.3124 2.0856 25.3291
#
#
#
# Elastic Compliance Matrix: (Units=1/GPa)
#
#
# Indices 1 2 3 4 5 6 
#
# 1 0.017869 -0.003209 -0.004907 0.001821 -0.001150 -0.012296
# 2 -0.003209 0.006389 -0.004508 0.001656 0.000719 0.001336
# 3 -0.004907 -0.004508 0.017719 -0.001860 -0.002262 0.008656
# 4 0.001821 0.001656 -0.001860 0.013427 -0.003897 -0.003180
# 5 -0.001150 0.000719 -0.002262 -0.003897 0.031932 -0.002041
# 6 -0.012296 0.001336 0.008656 -0.003180 -0.002041 0.050298
#
#
# Mechanical properties :
#
#
# Convention : Reuss Voigt Hill
#
# Bulk Modulus (GPa) = 59.77312 91.04819 75.41065
# Shear Modulus (GPa) = 29.68143 45.33566 37.50855
#
# Velocity S-wave (km/s) = 3.39594 4.19699 3.81754
# Velocity P-wave (km/s) = 6.21296 7.67217 6.98080
#
# Compressibility (1/GPa) = 0.01672993
#
# Stress axis : x y z
#
# Youngs Moduli (GPa) = 55.96392 156.52905 56.43711
#
# Poissons Ratio (x) = 0.50225 0.27691
# Poissons Ratio (y) = 0.17957 0.25441
# Poissons Ratio (z) = 0.27459 0.70560
#
# Static dielectric constant tensor:
#      x y z
#    x 2.298830 0.096100 0.202320 
#    y 0.096100 2.065660 0.039510 
#    z 0.202320 0.039510 2.227840 
# 
# From -- ./inp_files/466976.got.cif
#   From: 2010.05.17/outbox.cif.g08.bks.cpg/sg2_234_cif.got.tgz:466976.got - 2010.06.03 11:33:40.
