data_PCOD9009351
_publ_section_title
;
Structure prediction by ZEFSAII (Michael W. Deem and Ramdas Pophale) SiO2 
 PCOD9009351
Probable space group: P -1
;
_chemical_formula_sum "Si O2"
_cell_formula_units_Z 16
_cell_length_a 11.347662
_cell_length_b 10.388778
_cell_length_c 8.419957
_cell_angle_alpha 75.925961
_cell_angle_beta 140.626690
_cell_angle_gamma 97.916213
_cell_volume 608.743175
_symmetry_space_group_name_H-M "P -1"
_symmetry_group_IT_number 2
_symmetry_cell_setting 'triclinic'
loop_
_space_group_symop_operation_xyz
x,y,z
-x,-y,-z
loop_
_atom_site_type_symbol
_atom_site_label
_atom_site_fract_x
_atom_site_fract_y
_atom_site_fract_z
Si Si1 0.962982 0.525447 0.773642
Si Si2 0.814261 0.092694 0.517108
Si Si3 0.476862 0.299158 0.085877
Si Si4 0.475764 0.469088 0.728965
Si Si5 0.244368 0.722256 0.059156
Si Si6 0.290697 0.961938 0.244085
Si Si7 0.698009 0.013338 0.116623
Si Si8 0.058002 0.344192 0.668142
O O1 0.743734 0.538752 0.511369
O O2 0.061060 0.392464 0.837279
O O3 0.000000 0.500000 0.000000
O O4 0.063281 0.661358 0.814213
O O5 0.605160 0.165771 0.283348
O O6 0.828618 0.015315 0.724023
O O7 0.833007 0.991225 0.417851
O O8 0.929325 0.222027 0.569821
O O9 0.488145 0.382032 0.234274
O O10 0.545480 0.388109 0.986180
O O11 0.258604 0.293060 0.825507
O O12 0.598817 0.400016 0.739342
O O13 0.250253 0.808853 0.200309
O O14 0.305601 0.829623 0.966766
O O15 0.500000 0.000000 0.500000
O O16 0.256256 0.028604 0.009649
O O17 0.500000 0.000000 0.000000
O O18 0.000000 0.500000 0.500000
#
# Coordination Sequence:
#
# PCOD9009351 Si02
#       8
#     2   2   2   2   2   2   2   2
#     4  12  24  37  57  89 132 169 199 247 305 372
#     4  12  21  40  65  92 129 167 202 257 317 362
#     4  11  21  34  60  90 125 170 203 242 303 372
#     4  11  21  36  58  87 130 167 203 246 299 375
#     4  10  22  39  60  93 123 162 209 253 309 371
#     4  10  22  40  67  92 116 161 216 266 316 364
#     4  10  21  39  68  93 115 160 219 261 313 371
#     4  12  22  37  59  90 129 170 206 238 300 383
#
# _framework density 26.283663000000001
#
# number of rings (size 3 to 8) (size 9 to 14) (size 15 to 20)
#    0.750    0.250    6.250    2.250    0.000    1.500 
#    0.000    0.000    0.000    9.000    0.000    0.000 
#    0.000    0.000    0.000    0.000    0.000    0.000 
#
# Total GULP energy -89132.218670 kJ/mol
# GULP energy per Si atom -5570.763667 kJ/mol
# Density = 2.622384 g / cm^3
# Si number density = 26.283663 Si / 1000 Ang^3
#
#
#
# Elastic Constant Matrix: (Units=GPa)
#
#
# Indices 1 2 3 4 5 6 
#
# 1 122.9815 12.1319 42.6928 8.6569 -14.8384 17.4560
# 2 12.1319 73.6989 31.1984 22.8569 6.5294 19.9993
# 3 42.6928 31.1984 113.8496 13.3363 -2.5643 5.8176
# 4 8.6569 22.8569 13.3363 55.1461 -0.0751 4.1992
# 5 -14.8384 6.5294 -2.5643 -0.0751 64.4970 6.7467
# 6 17.4560 19.9993 5.8176 4.1992 6.7467 53.1597
#
#
#
# Elastic Compliance Matrix: (Units=1/GPa)
#
#
# Indices 1 2 3 4 5 6 
#
# 1 0.010196 0.000887 -0.003738 -0.000792 0.002475 -0.003524
# 2 0.000887 0.019196 -0.004534 -0.006518 -0.001264 -0.006342
# 3 -0.003738 -0.004534 0.011385 -0.000420 -0.000130 0.001737
# 4 -0.000792 -0.006518 -0.000420 0.020982 0.000375 0.001053
# 5 0.002475 -0.001264 -0.000130 0.000375 0.016453 -0.002441
# 6 -0.003524 -0.006342 0.001737 0.001053 -0.002441 0.022391
#
#
# Mechanical properties :
#
#
# Convention : Reuss Voigt Hill
#
# Bulk Modulus (GPa) = 38.45016 53.61957 46.03486
# Shear Modulus (GPa) = 40.30915 49.52766 44.91841
#
# Velocity S-wave (km/s) = 3.92039 4.34562 4.13847
# Velocity P-wave (km/s) = 5.92902 6.75454 6.35520
#
# Compressibility (1/GPa) = 0.02600770
#
# Stress axis : x y z
#
# Youngs Moduli (GPa) = 98.07748 52.09302 87.83450
#
# Poissons Ratio (x) = -0.04619 0.32830
# Poissons Ratio (y) = -0.08696 0.39823
# Poissons Ratio (z) = 0.36659 0.23618
#
# Static dielectric constant tensor:
#      x y z
#    x 2.502360 0.082020 -0.090700 
#    y 0.082020 2.060000 0.013190 
#    z -0.090700 0.013190 2.228940 
# 
# From -- ./inp_files/258350.got.cif
#   From: 2010.05.17/outbox.cif.g08.bks.cpg/sg2_130_cif.got.tgz:258350.got - 2010.06.03 11:33:40.
