data_PCOD9009515
_publ_section_title
;
Structure prediction by ZEFSAII (Michael W. Deem and Ramdas Pophale) SiO2 
 PCOD9009515
Probable space group: P -1
;
_chemical_formula_sum "Si O2"
_cell_formula_units_Z 14
_cell_length_a 20.545589
_cell_length_b 5.434124
_cell_length_c 8.219869
_cell_angle_alpha 97.250761
_cell_angle_beta 43.558464
_cell_angle_gamma 93.428478
_cell_volume 626.669507
_symmetry_space_group_name_H-M "P -1"
_symmetry_group_IT_number 2
_symmetry_cell_setting 'triclinic'
loop_
_space_group_symop_operation_xyz
x,y,z
-x,-y,-z
loop_
_atom_site_type_symbol
_atom_site_label
_atom_site_fract_x
_atom_site_fract_y
_atom_site_fract_z
Si Si1 0.259343 0.876605 0.886879
Si Si2 0.434987 0.299576 0.023757
Si Si3 0.285944 0.417309 0.029564
Si Si4 0.627195 0.034135 0.641538
Si Si5 0.922294 0.828601 0.202689
Si Si6 0.789512 0.248367 0.543405
Si Si7 0.105787 0.601921 0.963443
O O1 0.159140 0.761713 0.010570
O O2 0.318352 0.932077 0.621544
O O3 0.305342 0.638033 0.883033
O O4 0.255090 0.147413 0.002370
O O5 0.377374 0.360786 0.971715
O O6 0.366931 0.220170 0.287717
O O7 0.500000 0.500000 0.000000
O O8 0.515709 0.085181 0.819022
O O9 0.209469 0.557281 0.298101
O O10 0.681560 0.210510 0.683250
O O11 0.879832 0.694908 0.108954
O O12 0.842430 0.982402 0.458780
O O13 0.992797 0.653555 0.169566
O O14 0.000000 0.000000 0.000000
O O15 0.844296 0.330755 0.291783
#
# Coordination Sequence:
#
# PCOD9009515 Si02
#       7
#     2   2   2   2   2   2   2
#     4  11  28  44  68 102 147 179 221 284 357 407
#     4  11  24  44  71  97 133 179 243 286 325 408
#     4  12  27  44  65 104 144 182 222 284 355 405
#     4  10  24  44  71  98 131 183 237 283 334 404
#     4   9  19  37  71 100 126 168 244 278 322 392
#     4  10  21  39  69  94 129 182 232 276 329 410
#     4   9  21  41  69  98 130 178 232 281 327 408
#
# _framework density 22.340326000000001
#
# number of rings (size 3 to 8) (size 9 to 14) (size 15 to 20)
#    0.000    1.714    1.429    0.857   14.000    1.143 
#    0.000    1.429    0.000    0.000    0.000    0.000 
#    0.000    0.000    0.000    0.000    0.000    0.000 
#
# Total GULP energy -77964.262552 kJ/mol
# GULP energy per Si atom -5568.875897 kJ/mol
# Density = 2.228948 g / cm^3
# Si number density = 22.340326 Si / 1000 Ang^3
#
#
#
# Elastic Constant Matrix: (Units=GPa)
#
#
# Indices 1 2 3 4 5 6 
#
# 1 128.6432 76.0888 50.8710 6.4448 -2.7390 11.9211
# 2 76.0888 161.1924 37.1772 4.5974 10.1894 26.4080
# 3 50.8710 37.1772 63.0186 4.5745 -8.6507 1.9673
# 4 6.4448 4.5974 4.5745 41.4433 -4.0666 5.0789
# 5 -2.7390 10.1894 -8.6507 -4.0666 31.6994 2.6415
# 6 11.9211 26.4080 1.9673 5.0789 2.6415 42.1558
#
#
#
# Elastic Compliance Matrix: (Units=1/GPa)
#
#
# Indices 1 2 3 4 5 6 
#
# 1 0.013865 -0.004495 -0.008432 -0.000615 0.000318 -0.000657
# 2 -0.004495 0.009928 -0.002626 0.000067 -0.003905 -0.004589
# 3 -0.008432 -0.002626 0.025118 -0.000829 0.006652 0.002540
# 4 -0.000615 0.000067 -0.000829 0.024991 0.003158 -0.003038
# 5 0.000318 -0.003905 0.006652 0.003158 0.035094 -0.000533
# 6 -0.000657 -0.004589 0.002540 -0.003038 -0.000533 0.027063
#
#
# Mechanical properties :
#
#
# Convention : Reuss Voigt Hill
#
# Bulk Modulus (GPa) = 56.16301 75.68091 65.92196
# Shear Modulus (GPa) = 28.88509 35.64085 32.26297
#
# Velocity S-wave (km/s) = 3.59967 3.99853 3.80433
# Velocity P-wave (km/s) = 6.51699 7.43421 6.99066
#
# Compressibility (1/GPa) = 0.01780531
#
# Stress axis : x y z
#
# Youngs Moduli (GPa) = 72.12535 100.72556 39.81208
#
# Poissons Ratio (x) = 0.45275 0.33568
# Poissons Ratio (y) = 0.32419 0.10455
# Poissons Ratio (z) = 0.60814 0.26452
#
# Static dielectric constant tensor:
#      x y z
#    x 1.887500 -0.095330 -0.009500 
#    y -0.095330 2.197330 0.062900 
#    z -0.009500 0.062900 1.817120 
# 
# From -- ./inp_files/339831.got.cif
#   From: 2010.05.17/outbox.cif.g08.bks.cpg/sg2_170_cif.got.tgz:339831.got - 2010.06.03 11:33:40.
