data_PCOD9009443
_publ_section_title
;
Structure prediction by ZEFSAII (Michael W. Deem and Ramdas Pophale) SiO2 
 PCOD9009443
Probable space group: P -1
;
_chemical_formula_sum "Si O2"
_cell_formula_units_Z 14
_cell_length_a 8.892745
_cell_length_b 17.316687
_cell_length_c 9.514897
_cell_angle_alpha 122.799230
_cell_angle_beta 78.693082
_cell_angle_gamma 55.110282
_cell_volume 686.376058
_symmetry_space_group_name_H-M "P -1"
_symmetry_group_IT_number 2
_symmetry_cell_setting 'triclinic'
loop_
_space_group_symop_operation_xyz
x,y,z
-x,-y,-z
loop_
_atom_site_type_symbol
_atom_site_label
_atom_site_fract_x
_atom_site_fract_y
_atom_site_fract_z
Si Si1 0.576494 0.583078 0.470791
Si Si2 0.975624 0.536247 0.376332
Si Si3 0.401045 0.630495 0.242263
Si Si4 0.290694 0.342216 0.866630
Si Si5 0.043149 0.764947 0.844765
Si Si6 0.547264 0.035622 0.387412
Si Si7 0.121977 0.200580 0.394025
O O1 0.691127 0.628701 0.480010
O O2 0.534143 0.561459 0.303695
O O3 0.288121 0.716098 0.730083
O O4 0.798480 0.409442 0.333693
O O5 0.980717 0.642444 0.447192
O O6 0.000000 0.500000 0.500000
O O7 0.202823 0.375863 0.079195
O O8 0.508204 0.671307 0.196870
O O9 0.088203 0.764167 0.456934
O O10 0.500000 0.500000 0.000000
O O11 0.433498 0.189317 0.609282
O O12 0.000000 0.500000 0.000000
O O13 0.869677 0.840712 0.807866
O O14 0.853398 0.882735 0.125722
O O15 0.376204 0.081932 0.332467
O O16 0.500000 0.000000 0.500000
#
# Coordination Sequence:
#
# PCOD9009443 Si02
#       7
#     2   2   2   2   2   2   2
#     4  10  21  39  68  99 128 177 226 270 336 404
#     4  12  22  39  69 103 131 175 230 275 327 411
#     4  11  21  38  70 100 133 173 229 282 329 395
#     4  12  23  43  70  99 133 179 225 275 342 400
#     4  10  23  41  65  96 137 175 219 273 341 399
#     4  12  26  44  68  99 141 178 224 284 339 402
#     4  11  23  42  65 100 134 181 222 276 339 402
#
# _framework density 20.396982000000001
#
# number of rings (size 3 to 8) (size 9 to 14) (size 15 to 20)
#    0.000    0.857    5.714    1.286    2.000    0.000 
#    0.000    8.571    0.000    0.000    0.000    0.000 
#    0.000    0.000    0.000    0.000    0.000    0.000 
#
# Total GULP energy -78147.639789 kJ/mol
# GULP energy per Si atom -5581.974271 kJ/mol
# Density = 2.035056 g / cm^3
# Si number density = 20.396982 Si / 1000 Ang^3
#
#
#
# Elastic Constant Matrix: (Units=GPa)
#
#
# Indices 1 2 3 4 5 6 
#
# 1 143.3672 17.8199 65.6976 -1.6211 -22.3562 11.0440
# 2 17.8199 66.7500 46.8793 -13.5617 -16.5081 -5.6859
# 3 65.6976 46.8793 168.8287 -30.6931 -17.9419 0.6270
# 4 -1.6211 -13.5617 -30.6931 27.7891 9.3174 -0.8237
# 5 -22.3562 -16.5081 -17.9419 9.3174 23.4559 -5.9670
# 6 11.0440 -5.6859 0.6270 -0.8237 -5.9670 24.1128
#
#
#
# Elastic Compliance Matrix: (Units=1/GPa)
#
#
# Indices 1 2 3 4 5 6 
#
# 1 0.010610 0.001212 -0.004769 -0.007363 0.009654 -0.002313
# 2 0.001212 0.022940 -0.005109 0.000741 0.015338 0.008808
# 3 -0.004769 -0.005109 0.010646 0.010364 -0.004105 0.000041
# 4 -0.007363 0.000741 0.010364 0.054077 -0.020005 0.000174
# 5 0.009654 0.015338 -0.004105 -0.020005 0.071591 0.016335
# 6 -0.002313 0.008808 0.000041 0.000174 0.016335 0.048655
#
#
# Mechanical properties :
#
#
# Convention : Reuss Voigt Hill
#
# Bulk Modulus (GPa) = 37.22714 71.08216 54.15465
# Shear Modulus (GPa) = 20.42417 31.64149 26.03283
#
# Velocity S-wave (km/s) = 3.16782 3.94291 3.57642
# Velocity P-wave (km/s) = 5.62770 7.46014 6.60775
#
# Compressibility (1/GPa) = 0.02686212
#
# Stress axis : x y z
#
# Youngs Moduli (GPa) = 94.24797 43.59116 93.93567
#
# Poissons Ratio (x) = -0.05281 0.44801
# Poissons Ratio (y) = -0.11419 0.47995
# Poissons Ratio (z) = 0.44950 0.22272
#
# Static dielectric constant tensor:
#      x y z
#    x 1.765610 0.010150 -0.025120 
#    y 0.010150 1.772880 -0.027770 
#    z -0.025120 -0.027770 1.689420 
# 
# From -- ./inp_files/185295.got.cif
#   From: 2010.05.17/outbox.cif.g08.bks.cpg/sg2_93_cif.got.tgz:185295.got - 2010.06.03 11:33:40.
