data_PCOD9009455
_publ_section_title
;
Structure prediction by ZEFSAII (Michael W. Deem and Ramdas Pophale) SiO2 
 PCOD9009455
Probable space group: P -1
;
_chemical_formula_sum "Si O2"
_cell_formula_units_Z 14
_cell_length_a 7.107390
_cell_length_b 8.581366
_cell_length_c 9.967499
_cell_angle_alpha 111.453580
_cell_angle_beta 90.497279
_cell_angle_gamma 76.308538
_cell_volume 547.687078
_symmetry_space_group_name_H-M "P -1"
_symmetry_group_IT_number 2
_symmetry_cell_setting 'triclinic'
loop_
_space_group_symop_operation_xyz
x,y,z
-x,-y,-z
loop_
_atom_site_type_symbol
_atom_site_label
_atom_site_fract_x
_atom_site_fract_y
_atom_site_fract_z
Si Si1 0.099127 0.766449 0.738203
Si Si2 0.289433 0.426413 0.703057
Si Si3 0.411887 0.136709 0.428096
Si Si4 0.497868 0.299244 0.926551
Si Si5 0.872553 0.069320 0.722309
Si Si6 0.671680 0.736605 0.805900
Si Si7 0.125982 0.635068 0.394576
O O1 0.261950 0.632643 0.783978
O O2 0.139599 0.672783 0.563156
O O3 0.888601 0.769074 0.804593
O O4 0.068914 0.969291 0.767275
O O5 0.414769 0.320158 0.550052
O O6 0.361792 0.312740 0.798734
O O7 0.075016 0.412051 0.657599
O O8 0.462299 0.151909 0.276683
O O9 0.500000 0.000000 0.500000
O O10 0.206705 0.085956 0.392122
O O11 0.708133 0.177114 0.854444
O O12 0.500000 0.500000 0.000000
O O13 0.408368 0.236324 0.037404
O O14 0.878252 0.199948 0.644559
O O15 0.710280 0.533036 0.704517
#
# Coordination Sequence:
#
# PCOD9009455 Si02
#       7
#     2   2   2   2   2   2   2
#     4  10  21  39  69 101 126 169 221 275 331 377
#     4  11  22  42  70  94 129 173 223 262 333 396
#     4  11  21  41  68 103 126 169 227 272 325 388
#     4  12  26  46  63  97 136 182 217 266 328 396
#     4  11  23  39  69  98 140 161 219 279 326 379
#     4  10  21  41  69  87 137 176 211 268 331 387
#     4  11  19  40  70  99 130 168 219 280 328 379
#
# _framework density 25.562044
#
# number of rings (size 3 to 8) (size 9 to 14) (size 15 to 20)
#    0.000    1.143    7.143    1.286    0.000    4.571 
#    2.571    2.857    0.000    0.000    0.000    0.000 
#    0.000    0.000    0.000    0.000    0.000    0.000 
#
# Total GULP energy -78200.164735 kJ/mol
# GULP energy per Si atom -5585.726053 kJ/mol
# Density = 2.550386 g / cm^3
# Si number density = 25.562044 Si / 1000 Ang^3
#
#
#
# Elastic Constant Matrix: (Units=GPa)
#
#
# Indices 1 2 3 4 5 6 
#
# 1 41.4311 17.8251 21.5821 -0.8162 -19.3643 -9.7704
# 2 17.8251 173.3451 37.3014 -22.4141 -5.6478 -16.8241
# 3 21.5821 37.3014 134.6284 -30.7127 -32.6866 -8.8764
# 4 -0.8162 -22.4141 -30.7127 54.7155 8.0033 -6.8618
# 5 -19.3643 -5.6478 -32.6866 8.0033 21.6615 -4.8855
# 6 -9.7704 -16.8241 -8.8764 -6.8618 -4.8855 48.4595
#
#
#
# Elastic Compliance Matrix: (Units=1/GPa)
#
#
# Indices 1 2 3 4 5 6 
#
# 1 0.058756 -0.004425 0.009516 -0.003677 0.071313 0.018722
# 2 -0.004425 0.006884 -0.001971 0.002625 -0.005899 0.000914
# 3 0.009516 -0.001971 0.015743 0.004507 0.031881 0.007970
# 4 -0.003677 0.002625 0.004507 0.022804 -0.003351 0.003887
# 5 0.071313 -0.005899 0.031881 -0.003351 0.165475 0.034378
# 6 0.018722 0.000914 0.007970 0.003887 0.034378 0.030204
#
#
# Mechanical properties :
#
#
# Convention : Reuss Voigt Hill
#
# Bulk Modulus (GPa) = 11.41243 55.86908 33.64075
# Shear Modulus (GPa) = 15.48790 43.14702 29.31746
#
# Velocity S-wave (km/s) = 2.46416 4.11290 3.39029
# Velocity P-wave (km/s) = 3.54548 6.66771 5.33989
#
# Compressibility (1/GPa) = 0.08762378
#
# Stress axis : x y z
#
# Youngs Moduli (GPa) = 17.01954 145.26657 63.52229
#
# Poissons Ratio (x) = 0.64275 -0.60450
# Poissons Ratio (y) = 0.07531 0.12521
# Poissons Ratio (z) = -0.16196 0.28633
#
# Static dielectric constant tensor:
#      x y z
#    x 2.125670 -0.019950 0.048590 
#    y -0.019950 2.105330 0.000100 
#    z 0.048590 0.000100 2.023370 
# 
# From -- ./inp_files/158905.got.cif
#   From: 2010.05.17/outbox.cif.g08.bks.cpg/sg2_80_cif.got.tgz:158905.got - 2010.06.03 11:33:40.
