data_PCOD9009371
_publ_section_title
;
Structure prediction by ZEFSAII (Michael W. Deem and Ramdas Pophale) SiO2 
 PCOD9009371
Probable space group: P -1
;
_chemical_formula_sum "Si O2"
_cell_formula_units_Z 16
_cell_length_a 10.991072
_cell_length_b 10.822804
_cell_length_c 11.176433
_cell_angle_alpha 77.689278
_cell_angle_beta 48.835720
_cell_angle_gamma 113.604725
_cell_volume 662.816934
_symmetry_space_group_name_H-M "P -1"
_symmetry_group_IT_number 2
_symmetry_cell_setting 'triclinic'
loop_
_space_group_symop_operation_xyz
x,y,z
-x,-y,-z
loop_
_atom_site_type_symbol
_atom_site_label
_atom_site_fract_x
_atom_site_fract_y
_atom_site_fract_z
Si Si1 0.912010 0.903621 0.228458
Si Si2 0.731258 0.324931 0.464666
Si Si3 0.508441 0.148435 0.417056
Si Si4 0.964803 0.103224 0.586042
Si Si5 0.820834 0.387142 0.751825
Si Si6 0.489695 0.944853 0.821897
Si Si7 0.639838 0.689368 0.235273
Si Si8 0.438636 0.527809 0.159106
O O1 0.731003 0.914589 0.376976
O O2 0.750519 0.715806 0.288770
O O3 0.010699 0.916274 0.288102
O O4 0.153849 0.089437 0.971409
O O5 0.708620 0.319970 0.337663
O O6 0.614431 0.388058 0.571750
O O7 0.002421 0.454861 0.295417
O O8 0.563027 0.122054 0.680200
O O9 0.551330 0.168152 0.244483
O O10 0.500000 0.000000 0.500000
O O11 0.177356 0.324225 0.390021
O O12 0.725906 0.032353 0.714655
O O13 0.000000 0.000000 0.500000
O O14 0.594175 0.341837 0.872014
O O15 0.000000 0.500000 0.500000
O O16 0.720970 0.201004 0.915745
O O17 0.604151 0.592378 0.154116
O O18 0.500000 0.500000 0.000000
#
# Coordination Sequence:
#
# PCOD9009371 Si02
#       8
#     2   2   2   2   2   2   2   2
#     4  10  21  39  68  94 133 177 222 273 341 410
#     4  10  22  43  67  97 135 179 225 280 343 408
#     4   9  20  39  68  98 129 174 224 276 339 410
#     4  12  23  40  66  99 135 177 229 279 341 408
#     4  12  25  43  65  99 137 174 228 284 339 410
#     4  11  23  41  69 100 135 179 228 279 341 403
#     4  10  22  43  65  95 136 176 223 282 339 407
#     4  12  26  42  66 100 136 178 231 288 337 404
#
# _framework density 24.139396999999999
#
# number of rings (size 3 to 8) (size 9 to 14) (size 15 to 20)
#    0.000    1.250    3.750    2.250    0.000    2.500 
#    0.000    0.000   13.750    0.000    0.000    0.000 
#    0.000    0.000    0.000    0.000    0.000    0.000 
#
# Total GULP energy -89252.240748 kJ/mol
# GULP energy per Si atom -5578.265047 kJ/mol
# Density = 2.408445 g / cm^3
# Si number density = 24.139397 Si / 1000 Ang^3
#
#
#
# Elastic Constant Matrix: (Units=GPa)
#
#
# Indices 1 2 3 4 5 6 
#
# 1 133.2147 49.5962 30.4489 10.9372 3.3977 41.9851
# 2 49.5962 105.5206 21.3559 9.2521 4.5630 38.7879
# 3 30.4489 21.3559 78.8570 -8.3440 12.0975 4.3543
# 4 10.9372 9.2521 -8.3440 35.6033 -0.3044 5.1437
# 5 3.3977 4.5630 12.0975 -0.3044 30.0202 -5.2015
# 6 41.9851 38.7879 4.3543 5.1437 -5.2015 54.0181
#
#
#
# Elastic Compliance Matrix: (Units=1/GPa)
#
#
# Indices 1 2 3 4 5 6 
#
# 1 0.011555 -0.001707 -0.003788 -0.002954 -0.000807 -0.007247
# 2 -0.001707 0.014372 -0.002643 -0.002584 -0.002472 -0.008772
# 3 -0.003788 -0.002643 0.016058 0.005200 -0.005145 0.002557
# 4 -0.002954 -0.002584 0.005200 0.030774 -0.000933 0.000712
# 5 -0.000807 -0.002472 -0.005145 -0.000933 0.036962 0.006466
# 6 -0.007247 -0.008772 0.002557 0.000712 0.006466 0.030792
#
#
# Mechanical properties :
#
#
# Convention : Reuss Voigt Hill
#
# Bulk Modulus (GPa) = 38.89597 57.82159 48.35878
# Shear Modulus (GPa) = 30.23734 38.34106 34.28920
#
# Velocity S-wave (km/s) = 3.54307 3.98970 3.77300
# Velocity P-wave (km/s) = 5.73462 6.72523 6.24958
#
# Compressibility (1/GPa) = 0.02570961
#
# Stress axis : x y z
#
# Youngs Moduli (GPa) = 86.54318 69.58026 62.27455
#
# Poissons Ratio (x) = 0.11875 0.23590
# Poissons Ratio (y) = 0.14770 0.16458
# Poissons Ratio (z) = 0.32783 0.18389
#
# Static dielectric constant tensor:
#      x y z
#    x 2.035090 -0.023010 0.077330 
#    y -0.023010 2.062320 -0.099950 
#    z 0.077330 -0.099950 1.807920 
# 
# From -- ./inp_files/428091.got.cif
#   From: 2010.05.17/outbox.cif.g08.bks.cpg/sg2_215_cif.got.tgz:428091.got - 2010.06.03 11:33:40.
