data_PCOD9009285
_publ_section_title
;
Structure prediction by ZEFSAII (Michael W. Deem and Ramdas Pophale) SiO2 
 PCOD9009285
Probable space group: P -1
;
_chemical_formula_sum "Si O2"
_cell_formula_units_Z 16
_cell_length_a 5.511768
_cell_length_b 22.548817
_cell_length_c 5.212934
_cell_angle_alpha 99.509220
_cell_angle_beta 84.557400
_cell_angle_gamma 109.117643
_cell_volume 603.162635
_symmetry_space_group_name_H-M "P -1"
_symmetry_group_IT_number 2
_symmetry_cell_setting 'triclinic'
loop_
_space_group_symop_operation_xyz
x,y,z
-x,-y,-z
loop_
_atom_site_type_symbol
_atom_site_label
_atom_site_fract_x
_atom_site_fract_y
_atom_site_fract_z
Si Si1 0.302771 0.362891 0.824392
Si Si2 0.983448 0.813934 0.842997
Si Si3 0.672370 0.961252 0.323178
Si Si4 0.148174 0.760702 0.310023
Si Si5 0.242097 0.602809 0.581681
Si Si6 0.808059 0.517757 0.226298
Si Si7 0.494118 0.715440 0.911843
Si Si8 0.812346 0.927787 0.785450
O O1 0.055613 0.310350 0.693487
O O2 0.556335 0.368165 0.639725
O O3 0.304052 0.434827 0.881263
O O4 0.346254 0.331026 0.059061
O O5 0.160909 0.796849 0.600222
O O6 0.694089 0.768911 0.768310
O O7 0.960289 0.882777 0.856014
O O8 0.053696 0.796412 0.108931
O O9 0.686251 0.911226 0.504766
O O10 0.500000 0.000000 0.500000
O O11 0.603731 0.932417 0.023977
O O12 0.959237 0.007474 0.260286
O O13 0.408329 0.750898 0.177328
O O14 0.336393 0.549089 0.676270
O O15 0.241209 0.663778 0.787856
O O16 0.970143 0.563017 0.466113
O O17 0.000000 0.500000 0.000000
#
# Coordination Sequence:
#
# PCOD9009285 Si02
#       8
#     2   2   2   2   2   2   2   2
#     4  11  23  42  63  90 126 165 215 274 341 402
#     4  11  25  44  67 100 135 181 225 283 329 396
#     4  10  21  39  67  99 140 185 222 278 329 382
#     4  11  25  42  68  94 133 175 226 273 340 396
#     4  11  23  41  64  89 125 164 212 274 341 408
#     4  11  25  41  63  93 122 163 215 270 342 414
#     4  11  26  43  67  92 131 171 222 276 340 406
#     4  10  22  40  64 100 140 176 233 273 327 392
#
# _framework density 26.526845000000002
#
# number of rings (size 3 to 8) (size 9 to 14) (size 15 to 20)
#    0.000    1.250    1.250    3.750    3.500    6.000 
#    0.000    0.000    0.000    0.000    0.000    0.000 
#    0.000    0.000    0.000    0.000    0.000    0.000 
#
# Total GULP energy -89524.129370 kJ/mol
# GULP energy per Si atom -5595.258086 kJ/mol
# Density = 2.646647 g / cm^3
# Si number density = 26.526845 Si / 1000 Ang^3
#
#
#
# Elastic Constant Matrix: (Units=GPa)
#
#
# Indices 1 2 3 4 5 6 
#
# 1 59.5739 7.4649 18.8903 -4.8860 -10.9551 -13.3040
# 2 7.4649 101.8378 31.7242 -22.1416 0.9283 -17.1257
# 3 18.8903 31.7242 134.3961 -8.0395 -14.4209 -12.9221
# 4 -4.8860 -22.1416 -8.0395 39.6900 -16.5635 0.5232
# 5 -10.9551 0.9283 -14.4209 -16.5635 43.8905 -0.8976
# 6 -13.3040 -17.1257 -12.9221 0.5232 -0.8976 42.5285
#
#
#
# Elastic Compliance Matrix: (Units=1/GPa)
#
#
# Indices 1 2 3 4 5 6 
#
# 1 0.020249 0.001215 -0.001444 0.005636 0.006813 0.006460
# 2 0.001215 0.012871 -0.002003 0.007881 0.002447 0.004909
# 3 -0.001444 -0.002003 0.008712 0.001810 0.003257 0.001435
# 4 0.005636 0.007881 0.001810 0.037261 0.016006 0.005366
# 5 0.006813 0.002447 0.003257 0.016006 0.031637 0.004577
# 6 0.006460 0.004909 0.001435 0.005366 0.004577 0.027978
#
#
# Mechanical properties :
#
#
# Convention : Reuss Voigt Hill
#
# Bulk Modulus (GPa) = 26.75991 45.77408 36.26700
# Shear Modulus (GPa) = 32.12784 41.07035 36.59909
#
# Velocity S-wave (km/s) = 3.48393 3.93906 3.71846
# Velocity P-wave (km/s) = 5.12771 6.16291 5.66899
#
# Compressibility (1/GPa) = 0.03736933
#
# Stress axis : x y z
#
# Youngs Moduli (GPa) = 49.38491 77.69307 114.78206
#
# Poissons Ratio (x) = -0.09440 0.16570
# Poissons Ratio (y) = -0.06001 0.22990
# Poissons Ratio (z) = 0.07129 0.15562
#
# Static dielectric constant tensor:
#      x y z
#    x 2.144790 0.003510 0.132110 
#    y 0.003510 2.075340 0.016240 
#    z 0.132110 0.016240 2.174720 
# 
# From -- ./inp_files/11031.got.cif
#   From: 2010.05.17/outbox.cif.g08.bks.cpg/sg2_6_cif.got.tgz:11031.got - 2010.06.03 11:33:40.
