data_PCOD9009184
_publ_section_title
;
Structure prediction by ZEFSAII (Michael W. Deem and Ramdas Pophale) SiO2 
 PCOD9009184
Probable space group: P -1
;
_chemical_formula_sum "Si O2"
_cell_formula_units_Z 16
_cell_length_a 10.790681
_cell_length_b 19.554938
_cell_length_c 15.726863
_cell_angle_alpha 150.602745
_cell_angle_beta 155.423865
_cell_angle_gamma 31.965472
_cell_volume 651.442455
_symmetry_space_group_name_H-M "P -1"
_symmetry_group_IT_number 2
_symmetry_cell_setting 'triclinic'
loop_
_space_group_symop_operation_xyz
x,y,z
-x,-y,-z
loop_
_atom_site_type_symbol
_atom_site_label
_atom_site_fract_x
_atom_site_fract_y
_atom_site_fract_z
Si Si1 0.554632 0.895034 0.792845
Si Si2 0.176581 0.915946 0.160374
Si Si3 0.114082 0.756074 0.641857
Si Si4 0.341983 0.222251 0.087891
Si Si5 0.551731 0.654215 0.221134
Si Si6 0.126045 0.713002 0.282946
Si Si7 0.533333 0.745904 0.058819
Si Si8 0.631709 0.530561 0.308027
O O1 0.265048 0.849736 0.525318
O O2 0.442003 0.058033 0.934776
O O3 0.689809 0.793459 0.848645
O O4 0.840813 0.888809 0.901955
O O5 0.328010 0.797373 0.196755
O O6 0.400435 0.885311 0.185616
O O7 0.101010 0.079291 0.323548
O O8 0.895060 0.653635 0.405767
O O9 0.363038 0.717587 0.680744
O O10 0.312157 0.757696 0.852239
O O11 0.062743 0.298876 0.934214
O O12 0.527783 0.657118 0.311114
O O13 0.500000 0.500000 0.000000
O O14 0.444648 0.584317 0.336363
O O15 0.880804 0.717436 0.210031
O O16 0.472410 0.613941 0.932410
O O17 0.000000 0.500000 0.500000
#
# Coordination Sequence:
#
# PCOD9009184 Si02
#       8
#     2   2   2   2   2   2   2   2
#     4  10  21  39  67  94 135 180 218 281 334 401
#     4  11  23  43  68 101 133 173 233 269 344 402
#     4  10  23  42  68  98 135 179 219 287 332 400
#     4   9  21  42  62  98 137 172 227 275 339 404
#     4  12  25  41  68  98 135 178 224 284 337 395
#     4  11  24  40  66  97 131 179 222 276 344 400
#     4  11  23  44  66  98 134 175 223 279 337 406
#     4  12  24  45  67  90 134 177 226 273 332 410
#
# _framework density 24.560880999999998
#
# number of rings (size 3 to 8) (size 9 to 14) (size 15 to 20)
#    0.000    1.250    2.500    3.000    1.750    0.000 
#    4.500    0.000    0.000    6.000    0.000    0.000 
#    0.000    0.000    0.000    0.000    0.000    0.000 
#
# Total GULP energy -89469.138672 kJ/mol
# GULP energy per Si atom -5591.821167 kJ/mol
# Density = 2.450498 g / cm^3
# Si number density = 24.560881 Si / 1000 Ang^3
#
#
#
# Elastic Constant Matrix: (Units=GPa)
#
#
# Indices 1 2 3 4 5 6 
#
# 1 99.8459 30.8116 48.9139 -18.4034 38.5034 -11.3316
# 2 30.8116 71.8731 28.1493 -14.1273 10.1443 8.5241
# 3 48.9139 28.1493 154.0088 -3.8384 45.4878 -10.8477
# 4 -18.4034 -14.1273 -3.8384 28.7624 -0.9304 7.3027
# 5 38.5034 10.1443 45.4878 -0.9304 49.4713 -12.0485
# 6 -11.3316 8.5241 -10.8477 7.3027 -12.0485 42.9428
#
#
#
# Elastic Compliance Matrix: (Units=1/GPa)
#
#
# Indices 1 2 3 4 5 6 
#
# 1 0.018125 -0.003847 -0.001297 0.009063 -0.011870 0.000347
# 2 -0.003847 0.018995 -0.002490 0.008273 -0.000126 -0.006857
# 3 -0.001297 -0.002490 0.009454 -0.001216 -0.007005 0.000781
# 4 0.009063 0.008273 -0.001216 0.046731 -0.009210 -0.010089
# 5 -0.011870 -0.000126 -0.007005 -0.009210 0.037503 0.007212
# 6 0.000347 -0.006857 0.000781 -0.010089 0.007212 0.028676
#
#
# Mechanical properties :
#
#
# Convention : Reuss Voigt Hill
#
# Bulk Modulus (GPa) = 31.94154 60.16417 46.05285
# Shear Modulus (GPa) = 26.99988 38.75883 32.87935
#
# Velocity S-wave (km/s) = 3.31917 3.97680 3.66278
# Velocity P-wave (km/s) = 5.26521 6.75542 6.05633
#
# Compressibility (1/GPa) = 0.03130720
#
# Stress axis : x y z
#
# Youngs Moduli (GPa) = 55.17127 52.64653 105.77611
#
# Poissons Ratio (x) = 0.20251 0.13722
# Poissons Ratio (y) = 0.21222 0.26333
# Poissons Ratio (z) = 0.07157 0.13107
#
# Static dielectric constant tensor:
#      x y z
#    x 2.007360 0.006480 -0.017400 
#    y 0.006480 2.005080 -0.018190 
#    z -0.017400 -0.018190 1.999090 
# 
# From -- ./inp_files/180482.got.cif
#   From: 2010.05.17/outbox.cif.g08.bks.cpg/sg2_91_cif.got.tgz:180482.got - 2010.06.03 11:33:40.
