data_PCOD9009897
_publ_section_title
;
Structure prediction by ZEFSAII (Michael W. Deem and Ramdas Pophale) SiO2 
 PCOD9009897
Probable space group: P -1
;
_chemical_formula_sum "Si O2"
_cell_formula_units_Z 14
_cell_length_a 13.869885
_cell_length_b 7.410514
_cell_length_c 12.898889
_cell_angle_alpha 46.751457
_cell_angle_beta 57.708372
_cell_angle_gamma 46.055341
_cell_volume 690.928437
_symmetry_space_group_name_H-M "P -1"
_symmetry_group_IT_number 2
_symmetry_cell_setting 'triclinic'
loop_
_space_group_symop_operation_xyz
x,y,z
-x,-y,-z
loop_
_atom_site_type_symbol
_atom_site_label
_atom_site_fract_x
_atom_site_fract_y
_atom_site_fract_z
Si Si1 0.099159 0.658594 0.583902
Si Si2 0.734677 0.811423 0.174534
Si Si3 0.208016 0.794656 0.882161
Si Si4 0.484013 0.632425 0.842087
Si Si5 0.998505 0.327316 0.670459
Si Si6 0.775505 0.291355 0.709834
Si Si7 0.860410 0.655122 0.953118
O O1 0.186174 0.507611 0.694665
O O2 0.199858 0.580973 0.459398
O O3 0.007254 0.522074 0.677201
O O4 0.000000 0.000000 0.500000
O O5 0.744150 0.779462 0.059651
O O6 0.806219 0.989392 0.100226
O O7 0.588797 0.019988 0.228312
O O8 0.370045 0.612671 0.851886
O O9 0.152809 0.582574 0.010348
O O10 0.128083 0.006616 0.747487
O O11 0.623497 0.475548 0.764163
O O12 0.500000 0.500000 0.000000
O O13 0.870068 0.304462 0.738455
O O14 0.000000 0.500000 0.500000
O O15 0.831670 0.947578 0.798237
O O16 0.000000 0.500000 0.000000
#
# Coordination Sequence:
#
# PCOD9009897 Si02
#       7
#     2   2   2   2   2   2   2
#     4  10  21  40  60  92 124 155 205 263 309 364
#     4   9  22  41  59  85 130 161 199 261 308 361
#     4   9  21  39  60  87 127 167 195 260 320 350
#     4  10  21  44  59  90 130 165 207 255 307 379
#     4   9  19  38  59  88 120 160 202 255 308 365
#     4  11  21  38  64  89 121 166 206 247 318 365
#     4  12  21  36  65  94 120 160 216 259 304 375
#
# _framework density 20.262589999999999
#
# number of rings (size 3 to 8) (size 9 to 14) (size 15 to 20)
#    0.857    1.143    2.857    0.857    2.000    1.714 
#   10.286    0.000    0.000    1.714    0.000    0.000 
#    0.000    0.000    0.000    0.000    0.000    0.000 
#
# Total GULP energy -77954.758942 kJ/mol
# GULP energy per Si atom -5568.197067 kJ/mol
# Density = 2.021647 g / cm^3
# Si number density = 20.262590 Si / 1000 Ang^3
#
#
#
# Elastic Constant Matrix: (Units=GPa)
#
#
# Indices 1 2 3 4 5 6 
#
# 1 76.0048 29.2520 27.5305 -4.2550 -15.4811 -23.5708
# 2 29.2520 89.4289 28.5074 -3.6168 -15.4835 -15.3761
# 3 27.5305 28.5074 89.2509 -7.4459 -5.8053 -5.2490
# 4 -4.2550 -3.6168 -7.4459 39.4033 1.2739 -3.2051
# 5 -15.4811 -15.4835 -5.8053 1.2739 27.1620 -2.1922
# 6 -23.5708 -15.3761 -5.2490 -3.2051 -2.1922 34.6434
#
#
#
# Elastic Compliance Matrix: (Units=1/GPa)
#
#
# Indices 1 2 3 4 5 6 
#
# 1 0.022669 -0.001028 -0.004767 0.002290 0.012438 0.015244
# 2 -0.001028 0.015051 -0.003568 0.000836 0.007676 0.006003
# 3 -0.004767 -0.003568 0.013646 0.001582 -0.002130 -0.002748
# 4 0.002290 0.000836 0.001582 0.026342 0.001263 0.004686
# 5 0.012438 0.007676 -0.002130 0.001263 0.048958 0.014762
# 6 0.015244 0.006003 -0.002748 0.004686 0.014762 0.042853
#
#
# Mechanical properties :
#
#
# Convention : Reuss Voigt Hill
#
# Bulk Modulus (GPa) = 30.63858 47.25160 38.94509
# Shear Modulus (GPa) = 25.10989 31.53473 28.32231
#
# Velocity S-wave (km/s) = 3.52408 3.94928 3.74272
# Velocity P-wave (km/s) = 5.63138 6.64575 6.15948
#
# Compressibility (1/GPa) = 0.03263859
#
# Stress axis : x y z
#
# Youngs Moduli (GPa) = 44.11384 66.44167 73.27960
#
# Poissons Ratio (x) = 0.06831 0.34935
# Poissons Ratio (y) = 0.04535 0.26147
# Poissons Ratio (z) = 0.21031 0.23707
#
# Static dielectric constant tensor:
#      x y z
#    x 1.642760 0.110850 0.050450 
#    y 0.110850 1.681310 -0.037460 
#    z 0.050450 -0.037460 1.721260 
# 
# From -- ./inp_files/402042.got.cif
#   From: 2010.05.17/outbox.cif.g08.bks.cpg/sg2_202_cif.got.tgz:402042.got - 2010.06.03 11:33:40.
