data_PCOD9009777
_publ_section_title
;
Structure prediction by ZEFSAII (Michael W. Deem and Ramdas Pophale) SiO2 
 PCOD9009777
Probable space group: P -1
;
_chemical_formula_sum "Si O2"
_cell_formula_units_Z 16
_cell_length_a 17.107792
_cell_length_b 5.213455
_cell_length_c 12.289708
_cell_angle_alpha 73.557847
_cell_angle_beta 40.101059
_cell_angle_gamma 90.927125
_cell_volume 627.316047
_symmetry_space_group_name_H-M "P -1"
_symmetry_group_IT_number 2
_symmetry_cell_setting 'triclinic'
loop_
_space_group_symop_operation_xyz
x,y,z
-x,-y,-z
loop_
_atom_site_type_symbol
_atom_site_label
_atom_site_fract_x
_atom_site_fract_y
_atom_site_fract_z
Si Si1 0.746437 0.089976 0.989730
Si Si2 0.121461 0.895402 0.502095
Si Si3 0.571848 0.860159 0.397733
Si Si4 0.820989 0.492811 0.658172
Si Si5 0.435354 0.525600 0.180226
Si Si6 0.387820 0.933743 0.323342
Si Si7 0.120203 0.363868 0.072639
Si Si8 0.699286 0.465796 0.332356
O O1 0.754024 0.261610 0.850150
O O2 0.840751 0.340306 0.937783
O O3 0.793408 0.822853 0.959111
O O4 0.612830 0.970874 0.216523
O O5 0.083271 0.619723 0.497154
O O6 0.269829 0.952822 0.372749
O O7 0.027533 0.827401 0.714537
O O8 0.120505 0.176928 0.407479
O O9 0.500000 0.500000 0.500000
O O10 0.694680 0.783473 0.322417
O O11 0.406154 0.827256 0.593848
O O12 0.710520 0.504250 0.690558
O O13 0.481287 0.821430 0.163862
O O14 0.447160 0.260609 0.266748
O O15 0.500000 0.500000 0.000000
O O16 0.319831 0.694047 0.514199
O O17 0.168905 0.454037 0.887524
#
# Coordination Sequence:
#
# PCOD9009777 Si02
#       8
#     2   2   2   2   2   2   2   2
#     4  11  23  37  61  91 115 158 197 238 303 354
#     4  10  22  42  59  85 122 154 197 253 283 343
#     4  10  21  40  59  86 126 152 190 251 291 350
#     4  10  22  39  59  87 122 152 199 243 293 349
#     4  10  22  40  58  89 119 156 198 242 284 352
#     4  10  23  39  62  87 118 157 196 239 297 343
#     4  11  23  39  61  87 119 155 202 243 292 348
#     4  10  23  39  60  90 119 156 197 241 296 354
#
# _framework density 25.505485
#
# number of rings (size 3 to 8) (size 9 to 14) (size 15 to 20)
#    0.000    1.750    1.250    1.875    3.500    3.500 
#    0.000    0.000    0.000    6.750    0.000    0.000 
#    0.000    0.000    0.000    0.000    0.000    0.000 
#
# Total GULP energy -89255.952345 kJ/mol
# GULP energy per Si atom -5578.497022 kJ/mol
# Density = 2.544743 g / cm^3
# Si number density = 25.505485 Si / 1000 Ang^3
#
#
#
# Elastic Constant Matrix: (Units=GPa)
#
#
# Indices 1 2 3 4 5 6 
#
# 1 31.5592 32.4248 -0.9247 2.8432 11.5431 -9.0643
# 2 32.4248 169.3349 77.7438 17.1492 9.0464 -21.5875
# 3 -0.9247 77.7438 176.1377 6.7311 17.8042 -17.0306
# 4 2.8432 17.1492 6.7311 45.6955 -2.5495 7.3771
# 5 11.5431 9.0464 17.8042 -2.5495 38.1280 -9.1730
# 6 -9.0643 -21.5875 -17.0306 7.3771 -9.1730 34.0495
#
#
#
# Elastic Compliance Matrix: (Units=1/GPa)
#
#
# Indices 1 2 3 4 5 6 
#
# 1 0.051107 -0.011418 0.007511 -0.001883 -0.014824 0.006537
# 2 -0.011418 0.010770 -0.004782 -0.002909 0.003665 0.003015
# 3 0.007511 -0.004782 0.008519 -0.000525 -0.004650 0.002090
# 4 -0.001883 -0.002909 -0.000525 0.024463 0.001324 -0.007552
# 5 -0.014824 0.003665 -0.004650 0.001324 0.033241 0.004720
# 6 0.006537 0.003015 0.002090 -0.007552 0.004720 0.036974
#
#
# Mechanical properties :
#
#
# Convention : Reuss Voigt Hill
#
# Bulk Modulus (GPa) = 18.86144 66.16885 42.51515
# Shear Modulus (GPa) = 24.98422 41.42714 33.20568
#
# Velocity S-wave (km/s) = 3.13319 4.03456 3.61210
# Velocity P-wave (km/s) = 4.52773 6.90673 5.83966
#
# Compressibility (1/GPa) = 0.05301821
#
# Stress axis : x y z
#
# Youngs Moduli (GPa) = 19.56678 92.84758 117.37898
#
# Poissons Ratio (x) = 1.06016 -0.88158
# Poissons Ratio (y) = 0.22342 0.56125
# Poissons Ratio (z) = -0.14696 0.44395
#
# Static dielectric constant tensor:
#      x y z
#    x 1.994310 0.151950 0.033460 
#    y 0.151950 2.020190 -0.061800 
#    z 0.033460 -0.061800 1.907960 
# 
# From -- ./inp_files/542023.got.cif
#   From: 2010.05.17/outbox.cif.g08.bks.cpg/sg2_272_cif.got.tgz:542023.got - 2010.06.03 11:33:40.
