data_PCOD9009257
_publ_section_title
;
Structure prediction by ZEFSAII (Michael W. Deem and Ramdas Pophale) SiO2 
 PCOD9009257
Probable space group: P -1
;
_chemical_formula_sum "Si O2"
_cell_formula_units_Z 16
_cell_length_a 21.523933
_cell_length_b 13.338208
_cell_length_c 9.192723
_cell_angle_alpha 34.458360
_cell_angle_beta 62.726266
_cell_angle_gamma 37.889928
_cell_volume 763.534745
_symmetry_space_group_name_H-M "P -1"
_symmetry_group_IT_number 2
_symmetry_cell_setting 'triclinic'
loop_
_space_group_symop_operation_xyz
x,y,z
-x,-y,-z
loop_
_atom_site_type_symbol
_atom_site_label
_atom_site_fract_x
_atom_site_fract_y
_atom_site_fract_z
Si Si1 0.268316 0.103924 0.408653
Si Si2 0.627353 0.216479 0.617176
Si Si3 0.537141 0.026491 0.570557
Si Si4 0.854938 0.780582 0.315124
Si Si5 0.683413 0.456550 0.650170
Si Si6 0.206642 0.388817 0.651650
Si Si7 0.113841 0.669319 0.704105
Si Si8 0.658536 0.539711 0.261439
O O1 0.205437 0.116620 0.583765
O O2 0.362847 0.840471 0.497994
O O3 0.344948 0.095454 0.420957
O O4 0.158967 0.412651 0.060624
O O5 0.500000 0.500000 0.500000
O O6 0.691204 0.274517 0.495596
O O7 0.695782 0.919110 0.985662
O O8 0.418812 0.383046 0.316901
O O9 0.500000 0.000000 0.500000
O O10 0.569258 0.815524 0.912830
O O11 0.826141 0.670382 0.375739
O O12 0.000000 0.500000 0.500000
O O13 0.787858 0.094581 0.950020
O O14 0.740012 0.529660 0.544441
O O15 0.611217 0.622549 0.376979
O O16 0.100283 0.644948 0.578361
O O17 0.224878 0.577591 0.705372
O O18 0.000000 0.000000 0.500000
#
# Coordination Sequence:
#
# PCOD9009257 Si02
#       8
#     2   2   2   2   2   2   2   2
#     4  10  25  41  64 102 136 171 229 276 338 404
#     4  11  21  40  70 101 134 172 221 282 333 405
#     4  11  23  42  66  99 136 170 218 284 342 406
#     4  12  28  46  65 100 141 181 228 279 335 403
#     4  11  23  44  70  93 136 180 222 273 341 397
#     4  10  23  44  66 100 129 179 232 271 337 404
#     4   9  21  42  70  92 129 175 228 287 327 386
#     4  10  21  39  67  98 128 173 226 263 339 402
#
# _framework density 20.955169000000001
#
# number of rings (size 3 to 8) (size 9 to 14) (size 15 to 20)
#    0.000    1.500    1.250    3.375    5.250    2.000 
#    2.250    2.500    0.000    0.000    0.000    0.000 
#    0.000    0.000    0.000    0.000    0.000    0.000 
#
# Total GULP energy -89309.311936 kJ/mol
# GULP energy per Si atom -5581.831996 kJ/mol
# Density = 2.090747 g / cm^3
# Si number density = 20.955169 Si / 1000 Ang^3
#
#
#
# Elastic Constant Matrix: (Units=GPa)
#
#
# Indices 1 2 3 4 5 6 
#
# 1 93.1848 25.2032 21.1831 10.0255 -5.5030 24.2701
# 2 25.2032 133.4404 37.3295 -6.7481 15.4694 14.3076
# 3 21.1831 37.3295 69.9466 -7.2403 -5.4284 -2.5485
# 4 10.0255 -6.7481 -7.2403 33.2802 1.8429 -4.4885
# 5 -5.5030 15.4694 -5.4284 1.8429 30.6516 2.9693
# 6 24.2701 14.3076 -2.5485 -4.4885 2.9693 25.1245
#
#
#
# Elastic Compliance Matrix: (Units=1/GPa)
#
#
# Indices 1 2 3 4 5 6 
#
# 1 0.019759 -0.000505 -0.007236 -0.010905 0.005318 -0.022110
# 2 -0.000505 0.010602 -0.006108 0.000586 -0.006040 -0.005351
# 3 -0.007236 -0.006108 0.021277 0.007174 0.003817 0.013457
# 4 -0.010905 0.000586 0.007174 0.037754 -0.005023 0.018267
# 5 0.005318 -0.006040 0.003817 -0.005023 0.038258 -0.006730
# 6 -0.022110 -0.005351 0.013457 0.018267 -0.006730 0.069631
#
#
# Mechanical properties :
#
#
# Convention : Reuss Voigt Hill
#
# Bulk Modulus (GPa) = 41.77261 51.55592 46.66426
# Shear Modulus (GPa) = 21.46310 32.00167 26.73239
#
# Velocity S-wave (km/s) = 3.20385 3.91212 3.57556
# Velocity P-wave (km/s) = 5.80204 6.71287 6.27401
#
# Compressibility (1/GPa) = 0.02393913
#
# Stress axis : x y z
#
# Youngs Moduli (GPa) = 50.61020 94.32599 46.99926
#
# Poissons Ratio (x) = 0.04763 0.34009
# Poissons Ratio (y) = 0.02556 0.28707
# Poissons Ratio (z) = 0.36622 0.57614
#
# Static dielectric constant tensor:
#      x y z
#    x 1.754520 0.016120 -0.020380 
#    y 0.016120 1.831420 0.012490 
#    z -0.020380 0.012490 1.764990 
# 
# From -- ./inp_files/304567.got.cif
#   From: 2010.05.17/outbox.cif.g08.bks.cpg/sg2_153_cif.got.tgz:304567.got - 2010.06.03 11:33:40.
