data_PCOD9009178
_publ_section_title
;
Structure prediction by ZEFSAII (Michael W. Deem and Ramdas Pophale) SiO2 
 PCOD9009178
Probable space group: P -1
;
_chemical_formula_sum "Si O2"
_cell_formula_units_Z 14
_cell_length_a 22.539086
_cell_length_b 28.256175
_cell_length_c 8.531757
_cell_angle_alpha 39.237537
_cell_angle_beta 141.297787
_cell_angle_gamma 169.158956
_cell_volume 637.516383
_symmetry_space_group_name_H-M "P -1"
_symmetry_group_IT_number 2
_symmetry_cell_setting 'triclinic'
loop_
_space_group_symop_operation_xyz
x,y,z
-x,-y,-z
loop_
_atom_site_type_symbol
_atom_site_label
_atom_site_fract_x
_atom_site_fract_y
_atom_site_fract_z
Si Si1 0.759628 0.149045 0.245887
Si Si2 0.252090 0.104290 0.122287
Si Si3 0.193571 0.211475 0.270875
Si Si4 0.859830 0.261617 0.503816
Si Si5 0.725989 0.342309 0.424402
Si Si6 0.775277 0.608205 0.954838
Si Si7 0.124094 0.303594 0.433301
O O1 0.885808 0.285734 0.308076
O O2 0.999503 0.292172 0.251697
O O3 0.567817 0.934943 0.469704
O O4 0.500000 0.000000 0.000000
O O5 0.538653 0.279245 0.162496
O O6 0.421789 0.305749 0.023764
O O7 0.131745 0.953487 0.388576
O O8 0.956310 0.898465 0.928159
O O9 0.156878 0.265015 0.137640
O O10 0.565971 0.474691 0.388057
O O11 0.000000 0.000000 0.500000
O O12 0.094692 0.499914 0.450995
O O13 0.500000 0.000000 0.500000
O O14 0.985970 0.276393 0.787674
O O15 0.000000 0.500000 0.500000
O O16 0.805072 0.646949 0.731504
#
# Coordination Sequence:
#
# PCOD9009178 Si02
#       7
#     2   2   2   2   2   2   2
#     4  11  24  43  64 100 137 168 225 279 332 400
#     4  10  24  44  66  98 134 178 225 277 338 391
#     4  12  25  45  69  98 135 181 225 275 343 404
#     4  11  22  41  70  97 132 181 218 270 342 395
#     4  10  21  39  67  94 131 175 220 270 330 396
#     4  11  24  46  69  95 137 176 227 277 338 405
#     4  11  24  45  67  99 135 175 228 284 332 398
#
# _framework density 21.96022
#
# number of rings (size 3 to 8) (size 9 to 14) (size 15 to 20)
#    0.000    1.143    2.857    3.429    2.000    1.143 
#   10.286    0.000    0.000    0.000    0.000    0.000 
#    0.000    0.000    0.000    0.000    0.000    0.000 
#
# Total GULP energy -78157.942675 kJ/mol
# GULP energy per Si atom -5582.710191 kJ/mol
# Density = 2.191024 g / cm^3
# Si number density = 21.960220 Si / 1000 Ang^3
#
#
#
# Elastic Constant Matrix: (Units=GPa)
#
#
# Indices 1 2 3 4 5 6 
#
# 1 100.1106 38.3621 29.5318 5.8181 12.9575 -26.9403
# 2 38.3621 100.2122 22.7322 6.1487 -1.2877 -14.0497
# 3 29.5318 22.7322 86.3841 11.7032 -1.1851 -8.5671
# 4 5.8181 6.1487 11.7032 49.8184 -0.1083 1.2460
# 5 12.9575 -1.2877 -1.1851 -0.1083 32.0044 3.3035
# 6 -26.9403 -14.0497 -8.5671 1.2460 3.3035 39.5994
#
#
#
# Elastic Compliance Matrix: (Units=1/GPa)
#
#
# Indices 1 2 3 4 5 6 
#
# 1 0.016229 -0.004135 -0.003516 -0.000813 -0.007850 0.009493
# 2 -0.004135 0.012123 -0.001559 -0.000668 0.001998 0.001005
# 3 -0.003516 -0.001559 0.013554 -0.002575 0.001863 -0.000087
# 4 -0.000813 -0.000668 -0.002575 0.020907 0.000489 -0.002046
# 5 -0.007850 0.001998 0.001863 0.000489 0.035317 -0.007190
# 6 0.009493 0.001005 -0.000087 -0.002046 -0.007190 0.032713
#
#
# Mechanical properties :
#
#
# Convention : Reuss Voigt Hill
#
# Bulk Modulus (GPa) = 42.57832 51.99545 47.28688
# Shear Modulus (GPa) = 31.82854 37.35650 34.59252
#
# Velocity S-wave (km/s) = 3.81119 4.12891 3.97323
# Velocity P-wave (km/s) = 6.22879 6.81609 6.52905
#
# Compressibility (1/GPa) = 0.02348613
#
# Stress axis : x y z
#
# Youngs Moduli (GPa) = 61.61975 82.48839 73.77794
#
# Poissons Ratio (x) = 0.34108 0.25939
# Poissons Ratio (y) = 0.25479 0.11502
# Poissons Ratio (z) = 0.21665 0.12860
#
# Static dielectric constant tensor:
#      x y z
#    x 1.865590 0.060140 0.040350 
#    y 0.060140 1.813420 0.004990 
#    z 0.040350 0.004990 1.783770 
# 
# From -- ./inp_files/211853.got.cif
#   From: 2010.05.17/outbox.cif.g08.bks.cpg/sg2_106_cif.got.tgz:211853.got - 2010.06.03 11:33:40.
