data_PCOD9009058
_publ_section_title
;
Structure prediction by ZEFSAII (Michael W. Deem and Ramdas Pophale) SiO2 
 PCOD9009058
Probable space group: P -1
;
_chemical_formula_sum "Si O2"
_cell_formula_units_Z 16
_cell_length_a 28.908819
_cell_length_b 5.306129
_cell_length_c 5.277603
_cell_angle_alpha 84.425381
_cell_angle_beta 50.956550
_cell_angle_gamma 86.611434
_cell_volume 625.777766
_symmetry_space_group_name_H-M "P -1"
_symmetry_group_IT_number 2
_symmetry_cell_setting 'triclinic'
loop_
_space_group_symop_operation_xyz
x,y,z
-x,-y,-z
loop_
_atom_site_type_symbol
_atom_site_label
_atom_site_fract_x
_atom_site_fract_y
_atom_site_fract_z
Si Si1 0.590775 0.357383 0.775456
Si Si2 0.035794 0.676409 0.051861
Si Si3 0.923952 0.752790 0.670378
Si Si4 0.804629 0.531281 0.001021
Si Si5 0.248077 0.255391 0.313138
Si Si6 0.374422 0.140567 0.072858
Si Si7 0.532834 0.673937 0.569896
Si Si8 0.147552 0.890449 0.755170
O O1 0.612325 0.592448 0.856181
O O2 0.585691 0.500037 0.514797
O O3 0.628370 0.104921 0.712377
O O4 0.520898 0.270387 0.059334
O O5 0.056590 0.507589 0.236229
O O6 0.982199 0.857308 0.317024
O O7 0.101309 0.764510 0.728451
O O8 0.000000 0.500000 0.000000
O O9 0.866214 0.681044 0.713809
O O10 0.898346 0.923329 0.964785
O O11 0.770908 0.662130 0.344033
O O12 0.825019 0.275564 0.094652
O O13 0.765375 0.540208 0.881236
O O14 0.315238 0.166980 0.112177
O O15 0.203592 0.025767 0.425791
O O16 0.432079 0.095793 0.698946
O O17 0.500000 0.500000 0.500000
#
# Coordination Sequence:
#
# PCOD9009058 Si02
#       8
#     2   2   2   2   2   2   2   2
#     4  10  23  43  68 104 144 184 238 295 361 425
#     4  10  21  39  66  99 135 165 228 288 353 432
#     4   9  21  41  61  98 128 174 222 281 352 430
#     4  10  25  47  69  97 138 177 237 297 348 425
#     4  11  27  47  68 103 137 186 242 291 357 429
#     4  11  25  42  70 101 140 188 241 296 359 427
#     4   9  21  42  69 105 144 187 233 295 360 427
#     4  10  23  45  70  95 135 185 226 288 365 424
#
# _framework density 25.568180999999999
#
# number of rings (size 3 to 8) (size 9 to 14) (size 15 to 20)
#    0.000    2.000    0.000    0.750    8.750    9.000 
#    9.000    0.000    0.000    0.000    0.000    0.000 
#    0.000    0.000    0.000    0.000    0.000    0.000 
#
# Total GULP energy -89344.995538 kJ/mol
# GULP energy per Si atom -5584.062221 kJ/mol
# Density = 2.550999 g / cm^3
# Si number density = 25.568181 Si / 1000 Ang^3
#
#
#
# Elastic Constant Matrix: (Units=GPa)
#
#
# Indices 1 2 3 4 5 6 
#
# 1 165.3363 33.8552 34.0257 -5.1103 -6.0220 -27.9947
# 2 33.8552 72.8574 9.8592 -7.6095 -3.6534 -16.5048
# 3 34.0257 9.8592 53.2532 -6.3266 -7.2743 -1.1068
# 4 -5.1103 -7.6095 -6.3266 30.0021 -3.3320 8.8372
# 5 -6.0220 -3.6534 -7.2743 -3.3320 31.5913 2.0182
# 6 -27.9947 -16.5048 -1.1068 8.8372 2.0182 44.3235
#
#
#
# Elastic Compliance Matrix: (Units=1/GPa)
#
#
# Indices 1 2 3 4 5 6 
#
# 1 0.008261 -0.002312 -0.004988 -0.001610 -0.000303 0.004567
# 2 -0.002312 0.016152 -0.000973 0.002458 0.001208 0.003984
# 3 -0.004988 -0.000973 0.023444 0.005692 0.005210 -0.004299
# 4 -0.001610 0.002458 0.005692 0.037807 0.005771 -0.007760
# 5 -0.000303 0.001208 0.005210 0.005771 0.033691 -0.002296
# 6 0.004567 0.003984 -0.004299 -0.007760 -0.002296 0.028474
#
#
# Mechanical properties :
#
#
# Convention : Reuss Voigt Hill
#
# Bulk Modulus (GPa) = 31.93885 49.65856 40.79870
# Shear Modulus (GPa) = 28.60230 35.43051 32.01641
#
# Velocity S-wave (km/s) = 3.34828 3.72657 3.54248
# Velocity P-wave (km/s) = 5.24087 6.16284 5.72046
#
# Compressibility (1/GPa) = 0.03130983
#
# Stress axis : x y z
#
# Youngs Moduli (GPa) = 121.05569 61.91355 42.65532
#
# Poissons Ratio (x) = 0.14317 0.21275
# Poissons Ratio (y) = 0.27993 0.04150
# Poissons Ratio (z) = 0.60379 0.06024
#
# Static dielectric constant tensor:
#      x y z
#    x 2.006170 0.025970 0.017530 
#    y 0.025970 2.172350 -0.010030 
#    z 0.017530 -0.010030 2.121440 
# 
# From -- ./inp_files/121748.got.cif
#   From: 2010.05.17/outbox.cif.g08.bks.cpg/sg2_61_cif.got.tgz:121748.got - 2010.06.03 11:33:40.
