data_PCOD9009657
_publ_section_title
;
Structure prediction by ZEFSAII (Michael W. Deem and Ramdas Pophale) SiO2 
 PCOD9009657
Probable space group: P -1
;
_chemical_formula_sum "Si O2"
_cell_formula_units_Z 16
_cell_length_a 16.661838
_cell_length_b 11.552751
_cell_length_c 5.458658
_cell_angle_alpha 57.752772
_cell_angle_beta 59.875184
_cell_angle_gamma 54.629900
_cell_volume 695.682698
_symmetry_space_group_name_H-M "P -1"
_symmetry_group_IT_number 2
_symmetry_cell_setting 'triclinic'
loop_
_space_group_symop_operation_xyz
x,y,z
-x,-y,-z
loop_
_atom_site_type_symbol
_atom_site_label
_atom_site_fract_x
_atom_site_fract_y
_atom_site_fract_z
Si Si1 0.561857 0.932460 0.230521
Si Si2 0.411626 0.395909 0.337620
Si Si3 0.928904 0.542590 0.308482
Si Si4 0.891623 0.078290 0.462953
Si Si5 0.237163 0.869181 0.791596
Si Si6 0.794182 0.368833 0.536893
Si Si7 0.593383 0.411179 0.278218
Si Si8 0.225462 0.099177 0.899963
O O1 0.588415 0.758223 0.414344
O O2 0.672355 0.934182 0.068085
O O3 0.500000 0.000000 0.500000
O O4 0.500000 0.000000 0.000000
O O5 0.319104 0.515938 0.506482
O O6 0.529676 0.367122 0.215805
O O7 0.377419 0.465312 0.040013
O O8 0.857088 0.450848 0.482224
O O9 0.850625 0.723385 0.221032
O O10 0.000000 0.500000 0.500000
O O11 0.000000 0.500000 0.000000
O O12 0.875768 0.053220 0.234304
O O13 0.858218 0.257269 0.350560
O O14 0.000000 0.000000 0.500000
O O15 0.830949 0.991654 0.781362
O O16 0.318569 0.752492 0.606412
O O17 0.263409 0.001360 0.702006
O O18 0.230289 0.748385 0.127319
O O19 0.500000 0.500000 0.500000
#
# Coordination Sequence:
#
# PCOD9009657 Si02
#       8
#     2   2   2   2   2   2   2   2
#     4  12  29  48  74 108 153 207 249 306 385 462
#     4  10  22  44  64 101 140 186 242 306 366 440
#     4  12  29  49  79 108 150 199 252 312 385 452
#     4  11  25  43  74 106 146 193 253 314 384 448
#     4  10  24  43  73 104 148 194 249 312 380 442
#     4  10  23  46  68 105 142 188 249 306 376 448
#     4  10  21  39  72 102 138 191 249 305 369 444
#     4  11  27  49  73 111 154 197 256 321 379 467
#
# _framework density 22.998991
#
# number of rings (size 3 to 8) (size 9 to 14) (size 15 to 20)
#    0.000    1.250    1.250    2.250   12.250    3.000 
#    0.000    0.000    0.000    0.000    0.000    0.000 
#    0.000    0.000    0.000    0.000    0.000    0.000 
#
# Total GULP energy -89129.229481 kJ/mol
# GULP energy per Si atom -5570.576843 kJ/mol
# Density = 2.294664 g / cm^3
# Si number density = 22.998991 Si / 1000 Ang^3
#
#
#
# Elastic Constant Matrix: (Units=GPa)
#
#
# Indices 1 2 3 4 5 6 
#
# 1 168.2075 53.7472 44.3252 -25.1978 1.6532 -16.6698
# 2 53.7472 148.4305 53.1451 -26.2797 8.5262 -2.3312
# 3 44.3252 53.1451 77.6737 -12.3723 0.5572 -0.9326
# 4 -25.1978 -26.2797 -12.3723 34.6988 3.1479 -4.8655
# 5 1.6532 8.5262 0.5572 3.1479 43.7619 -3.1396
# 6 -16.6698 -2.3312 -0.9326 -4.8655 -3.1396 35.1856
#
#
#
# Elastic Compliance Matrix: (Units=1/GPa)
#
#
# Indices 1 2 3 4 5 6 
#
# 1 0.008248 -0.000889 -0.003284 0.004775 -0.000124 0.004411
# 2 -0.000889 0.010127 -0.005548 0.005337 -0.002207 0.000644
# 3 -0.003284 -0.005548 0.018478 -0.000274 0.000890 -0.001392
# 4 0.004775 0.005337 -0.000274 0.037590 -0.003382 0.007505
# 5 -0.000124 -0.002207 0.000890 -0.003382 0.023622 0.001459
# 6 0.004411 0.000644 -0.001392 0.007505 0.001459 0.031684
#
#
# Mechanical properties :
#
#
# Convention : Reuss Voigt Hill
#
# Bulk Modulus (GPa) = 57.43659 77.41629 67.42644
# Shear Modulus (GPa) = 32.25875 38.93554 35.59715
#
# Velocity S-wave (km/s) = 3.74921 4.11898 3.93844
# Velocity P-wave (km/s) = 6.61588 7.50701 7.07549
#
# Compressibility (1/GPa) = 0.01741050
#
# Stress axis : x y z
#
# Youngs Moduli (GPa) = 121.23820 98.74258 54.11862
#
# Poissons Ratio (x) = 0.08778 0.17774
# Poissons Ratio (y) = 0.10778 0.30027
# Poissons Ratio (z) = 0.39817 0.54785
#
# Static dielectric constant tensor:
#      x y z
#    x 1.850850 0.065150 0.298460 
#    y 0.065150 1.939270 0.109440 
#    z 0.298460 0.109440 1.739610 
# 
# From -- ./inp_files/109468.got.cif
#   From: 2010.05.17/outbox.cif.g08.bks.cpg/sg2_55_cif.got.tgz:109468.got - 2010.06.03 11:33:40.
