data_PCOD9009913
_publ_section_title
;
Structure prediction by ZEFSAII (Michael W. Deem and Ramdas Pophale) SiO2 
 PCOD9009913
Probable space group: P -1
;
_chemical_formula_sum "Si O2"
_cell_formula_units_Z 16
_cell_length_a 10.661904
_cell_length_b 14.503445
_cell_length_c 13.886028
_cell_angle_alpha 37.645810
_cell_angle_beta 148.386790
_cell_angle_gamma 144.499468
_cell_volume 618.454325
_symmetry_space_group_name_H-M "P -1"
_symmetry_group_IT_number 2
_symmetry_cell_setting 'triclinic'
loop_
_space_group_symop_operation_xyz
x,y,z
-x,-y,-z
loop_
_atom_site_type_symbol
_atom_site_label
_atom_site_fract_x
_atom_site_fract_y
_atom_site_fract_z
Si Si1 0.850221 0.586887 0.394812
Si Si2 0.459876 0.349273 0.027582
Si Si3 0.088068 0.757981 0.764466
Si Si4 0.367364 0.865050 0.445534
Si Si5 0.390970 0.106028 0.907095
Si Si6 0.057218 0.493125 0.278103
Si Si7 0.866309 0.961721 0.578675
Si Si8 0.928223 0.161289 0.926704
O O1 0.103879 0.760294 0.422481
O O2 0.778390 0.513532 0.514922
O O3 0.000000 0.500000 0.500000
O O4 0.632231 0.606368 0.170702
O O5 0.219005 0.195336 0.048264
O O6 0.500000 0.500000 0.000000
O O7 0.747993 0.358585 0.202350
O O8 0.902229 0.585313 0.729985
O O9 0.926460 0.823451 0.675869
O O10 0.336239 0.750162 0.990610
O O11 0.214763 0.923091 0.640178
O O12 0.634906 0.852407 0.592792
O O13 0.235116 0.859466 0.260431
O O14 0.500000 0.000000 0.500000
O O15 0.221568 0.999691 0.974260
O O16 0.150080 0.104700 0.686402
O O17 0.500000 0.000000 0.000000
O O18 0.062240 0.677612 0.138937
#
# Coordination Sequence:
#
# PCOD9009913 Si02
#       8
#     2   2   2   2   2   2   2   2
#     4  11  20  35  59  91 127 162 199 252 312 367
#     4   9  19  35  57  88 128 166 195 248 318 365
#     4  10  22  42  66  87 119 170 212 262 305 369
#     4  11  22  37  62  91 121 161 206 250 309 380
#     4  10  22  41  65  86 121 169 209 259 305 363
#     4  11  22  39  63  92 131 162 206 256 315 373
#     4  10  22  42  65  86 124 164 214 256 316 357
#     4  10  21  40  60  95 131 158 205 261 309 372
#
# _framework density 25.870947999999999
#
# number of rings (size 3 to 8) (size 9 to 14) (size 15 to 20)
#    0.000    1.750    5.000    0.750    1.750    3.000 
#    0.000    4.375    0.000    0.000    0.000    0.000 
#    0.000    0.000    0.000    0.000    0.000    0.000 
#
# Total GULP energy -89214.293510 kJ/mol
# GULP energy per Si atom -5575.893344 kJ/mol
# Density = 2.581206 g / cm^3
# Si number density = 25.870948 Si / 1000 Ang^3
#
#
#
# Elastic Constant Matrix: (Units=GPa)
#
#
# Indices 1 2 3 4 5 6 
#
# 1 71.2358 22.2822 23.6024 -18.2609 19.6530 -23.8611
# 2 22.2822 87.1691 21.7156 18.9876 -1.1928 -43.8788
# 3 23.6024 21.7156 92.4548 25.0518 -6.2853 -8.9122
# 4 -18.2609 18.9876 25.0518 28.8081 -6.1168 1.2304
# 5 19.6530 -1.1928 -6.2853 -6.1168 31.8293 -0.4965
# 6 -23.8611 -43.8788 -8.9122 1.2304 -0.4965 47.9559
#
#
#
# Elastic Compliance Matrix: (Units=1/GPa)
#
#
# Indices 1 2 3 4 5 6 
#
# 1 0.059435 -0.024698 -0.031960 0.075548 -0.029435 -0.001208
# 2 -0.024698 0.041031 0.015086 -0.055031 0.009652 0.029569
# 3 -0.031960 0.015086 0.031878 -0.054723 0.016162 0.005397
# 4 0.075548 -0.055031 -0.054723 0.161491 -0.028908 -0.027375
# 5 -0.029435 0.009652 0.016162 -0.028908 0.047566 -0.001577
# 6 -0.001208 0.029569 0.005397 -0.027375 -0.001577 0.048995
#
#
# Mechanical properties :
#
#
# Convention : Reuss Voigt Hill
#
# Bulk Modulus (GPa) = 20.32542 42.89558 31.61050
# Shear Modulus (GPa) = 10.20533 33.93597 22.07065
#
# Velocity S-wave (km/s) = 1.98828 3.62573 2.92397
# Velocity P-wave (km/s) = 3.62554 5.84332 4.86256
#
# Compressibility (1/GPa) = 0.04919948
#
# Stress axis : x y z
#
# Youngs Moduli (GPa) = 16.82514 24.37207 31.36913
#
# Poissons Ratio (x) = 0.60194 1.00256
# Poissons Ratio (y) = 0.41555 -0.47323
# Poissons Ratio (z) = 0.53773 -0.36767
#
# Static dielectric constant tensor:
#      x y z
#    x 2.148780 -0.082940 0.000050 
#    y -0.082940 2.086130 -0.031070 
#    z 0.000050 -0.031070 2.076080 
# 
# From -- ./inp_files/521507.got.cif
#   From: 2010.05.17/outbox.cif.g08.bks.cpg/sg2_261_cif.got.tgz:521507.got - 2010.06.03 11:33:40.
