data_PCOD9009134
_publ_section_title
;
Structure prediction by ZEFSAII (Michael W. Deem and Ramdas Pophale) SiO2 
 PCOD9009134
Probable space group: P -1
;
_chemical_formula_sum "Si O2"
_cell_formula_units_Z 16
_cell_length_a 11.951566
_cell_length_b 9.335524
_cell_length_c 5.587525
_cell_angle_alpha 83.643552
_cell_angle_beta 86.407260
_cell_angle_gamma 98.696992
_cell_volume 610.462682
_symmetry_space_group_name_H-M "P -1"
_symmetry_group_IT_number 2
_symmetry_cell_setting 'triclinic'
loop_
_space_group_symop_operation_xyz
x,y,z
-x,-y,-z
loop_
_atom_site_type_symbol
_atom_site_label
_atom_site_fract_x
_atom_site_fract_y
_atom_site_fract_z
Si Si1 0.650277 0.727582 0.638289
Si Si2 0.450160 0.839994 0.430734
Si Si3 0.165263 0.293734 0.758874
Si Si4 0.305822 0.988904 0.107860
Si Si5 0.236375 0.767900 0.792141
Si Si6 0.087528 0.054110 0.186797
Si Si7 0.775231 0.505534 0.896270
Si Si8 0.004260 0.300251 0.407591
O O1 0.547178 0.740985 0.470544
O O2 0.762574 0.762038 0.451126
O O3 0.643691 0.849578 0.824261
O O4 0.673282 0.573420 0.772436
O O5 0.399413 0.888321 0.180205
O O6 0.342736 0.763866 0.608965
O O7 0.500000 0.000000 0.500000
O O8 0.159853 0.187095 0.002333
O O9 0.225157 0.443612 0.835898
O O10 0.040814 0.314446 0.677339
O O11 0.261334 0.935233 0.859475
O O12 0.182732 0.959379 0.266633
O O13 0.234388 0.666037 0.046823
O O14 0.119130 0.706349 0.683780
O O15 0.028165 0.137282 0.377099
O O16 0.000000 0.000000 0.000000
O O17 0.896808 0.580374 0.751403
#
# Coordination Sequence:
#
# PCOD9009134 Si02
#       8
#     2   2   2   2   2   2   2   2
#     4  10  22  46  67  89 123 168 219 262 309 378
#     4  10  27  42  63  97 127 165 216 265 316 371
#     4  10  21  39  67  89 127 173 207 258 314 373
#     4  11  23  41  64  94 129 159 217 262 316 369
#     4  12  26  41  65  97 133 167 203 268 322 368
#     4  11  21  35  61  98 124 167 209 257 315 384
#     4  10  23  43  66  96 127 168 213 253 319 385
#     4  10  22  39  64  95 129 165 210 255 313 385
#
# _framework density 26.209627999999999
#
# number of rings (size 3 to 8) (size 9 to 14) (size 15 to 20)
#    0.000    1.500    5.000    0.375    5.250    6.500 
#    0.000    1.250    0.000    0.000    0.000    0.000 
#    0.000    0.000    0.000    0.000    0.000    0.000 
#
# Total GULP energy -89240.553623 kJ/mol
# GULP energy per Si atom -5577.534601 kJ/mol
# Density = 2.614997 g / cm^3
# Si number density = 26.209628 Si / 1000 Ang^3
#
#
#
# Elastic Constant Matrix: (Units=GPa)
#
#
# Indices 1 2 3 4 5 6 
#
# 1 162.6477 19.8500 20.8314 -18.3606 38.5655 -14.9284
# 2 19.8500 77.3155 20.4765 -19.2048 3.9310 -5.1444
# 3 20.8314 20.4765 50.7908 -13.6089 24.3860 -3.9690
# 4 -18.3606 -19.2048 -13.6089 42.6661 3.4241 6.4855
# 5 38.5655 3.9310 24.3860 3.4241 49.5551 -8.5139
# 6 -14.9284 -5.1444 -3.9690 6.4855 -8.5139 35.7652
#
#
#
# Elastic Compliance Matrix: (Units=1/GPa)
#
#
# Indices 1 2 3 4 5 6 
#
# 1 0.008372 -0.001157 0.001756 0.004080 -0.007394 0.001023
# 2 -0.001157 0.015802 -0.005745 0.004460 0.002320 0.000896
# 3 0.001756 -0.005745 0.032565 0.010418 -0.018116 -0.002681
# 4 0.004080 0.004460 0.010418 0.032251 -0.011769 -0.005149
# 5 -0.007394 0.002320 -0.018116 -0.011769 0.036520 0.006065
# 6 0.001023 0.000896 -0.002681 -0.005149 0.006065 0.030596
#
#
# Mechanical properties :
#
#
# Convention : Reuss Voigt Hill
#
# Bulk Modulus (GPa) = 21.52997 45.89665 33.71331
# Shear Modulus (GPa) = 27.49060 40.90369 34.19714
#
# Velocity S-wave (km/s) = 3.24215 3.95477 3.61606
# Velocity P-wave (km/s) = 4.71675 6.19702 5.50685
#
# Compressibility (1/GPa) = 0.04644687
#
# Stress axis : x y z
#
# Youngs Moduli (GPa) = 119.44222 63.28265 30.70828
#
# Poissons Ratio (x) = 0.07322 -0.05392
# Poissons Ratio (y) = 0.13820 0.17641
# Poissons Ratio (z) = -0.20972 0.36355
#
# Static dielectric constant tensor:
#      x y z
#    x 2.107180 -0.042090 0.005580 
#    y -0.042090 2.193990 -0.030930 
#    z 0.005580 -0.030930 2.097880 
# 
# From -- ./inp_files/66460.got.cif
#   From: 2010.05.17/outbox.cif.g08.bks.cpg/sg2_34_cif.got.tgz:66460.got - 2010.06.03 11:33:40.
