data_PCOD9009205
_publ_section_title
;
Structure prediction by ZEFSAII (Michael W. Deem and Ramdas Pophale) SiO2 
 PCOD9009205
Probable space group: P -1
;
_chemical_formula_sum "Si O2"
_cell_formula_units_Z 16
_cell_length_a 12.358643
_cell_length_b 8.570528
_cell_length_c 11.112142
_cell_angle_alpha 44.696058
_cell_angle_beta 68.280856
_cell_angle_gamma 52.356276
_cell_volume 651.146101
_symmetry_space_group_name_H-M "P -1"
_symmetry_group_IT_number 2
_symmetry_cell_setting 'triclinic'
loop_
_space_group_symop_operation_xyz
x,y,z
-x,-y,-z
loop_
_atom_site_type_symbol
_atom_site_label
_atom_site_fract_x
_atom_site_fract_y
_atom_site_fract_z
Si Si1 0.930561 0.232728 0.738106
Si Si2 0.199091 0.766260 0.828083
Si Si3 0.536961 0.954712 0.649013
Si Si4 0.448320 0.292898 0.891382
Si Si5 0.792707 0.000553 0.561768
Si Si6 0.658994 0.359990 0.920671
Si Si7 0.063647 0.509540 0.659173
Si Si8 0.672618 0.546620 0.386760
O O1 0.786998 0.309227 0.813248
O O2 0.912986 0.387737 0.535706
O O3 0.007381 0.326575 0.745455
O O4 0.038218 0.923172 0.840469
O O5 0.297903 0.459764 0.924017
O O6 0.205814 0.904432 0.628109
O O7 0.274765 0.794221 0.897849
O O8 0.564340 0.669296 0.820220
O O9 0.500000 0.000000 0.500000
O O10 0.678660 0.927983 0.643109
O O11 0.418674 0.221216 0.612490
O O12 0.563779 0.296118 0.918473
O O13 0.426299 0.424462 0.697940
O O14 0.500000 0.000000 0.000000
O O15 0.752684 0.233462 0.544760
O O16 0.944628 0.750855 0.651485
O O17 0.207134 0.400707 0.727272
#
# Coordination Sequence:
#
# PCOD9009205 Si02
#       8
#     2   2   2   2   2   2   2   2
#     4  10  22  40  67 100 126 167 224 278 317 380
#     4  10  23  42  69  95 129 175 222 266 323 391
#     4  12  24  39  66 100 131 170 221 272 320 385
#     4  11  26  45  63  95 136 176 215 267 340 395
#     4  10  22  43  62  99 135 170 218 267 335 388
#     4  12  24  43  68  99 130 172 227 273 318 386
#     4  10  21  39  67  95 134 171 216 270 330 383
#     4  11  24  39  66  95 133 173 213 270 330 388
#
# _framework density 24.572057999999998
#
# number of rings (size 3 to 8) (size 9 to 14) (size 15 to 20)
#    0.000    1.250    1.250    4.500    7.000    1.000 
#    0.000    0.625    0.000    0.000    0.000    0.000 
#    0.000    0.000    0.000    0.000    0.000    0.000 
#
# Total GULP energy -89492.533459 kJ/mol
# GULP energy per Si atom -5593.283341 kJ/mol
# Density = 2.451613 g / cm^3
# Si number density = 24.572058 Si / 1000 Ang^3
#
#
#
# Elastic Constant Matrix: (Units=GPa)
#
#
# Indices 1 2 3 4 5 6 
#
# 1 131.5878 68.7221 14.6482 9.6858 -3.8700 0.6874
# 2 68.7221 225.6845 29.6174 -6.1381 -4.8470 -15.1816
# 3 14.6482 29.6174 37.7399 -3.3257 9.4838 -0.4823
# 4 9.6858 -6.1381 -3.3257 21.4286 2.7146 -0.9655
# 5 -3.8700 -4.8470 9.4838 2.7146 32.4168 0.9868
# 6 0.6874 -15.1816 -0.4823 -0.9655 0.9868 49.7153
#
#
#
# Elastic Compliance Matrix: (Units=1/GPa)
#
#
# Indices 1 2 3 4 5 6 
#
# 1 0.009904 -0.002866 -0.002662 -0.006027 0.002074 -0.001196
# 2 -0.002866 0.006011 -0.003725 0.002347 0.001393 0.001857
# 3 -0.002662 -0.003725 0.033901 0.006817 -0.011351 -0.000414
# 4 -0.006027 0.002347 0.006817 0.052071 -0.006785 0.002012
# 5 0.002074 0.001393 -0.011351 -0.006785 0.035210 -0.000544
# 6 -0.001196 0.001857 -0.000414 0.002012 -0.000544 0.020744
#
#
# Mechanical properties :
#
#
# Convention : Reuss Voigt Hill
#
# Bulk Modulus (GPa) = 31.93842 68.99861 50.46852
# Shear Modulus (GPa) = 26.76894 39.51377 33.14136
#
# Velocity S-wave (km/s) = 3.30420 4.01443 3.67651
# Velocity P-wave (km/s) = 5.25195 7.04476 6.21336
#
# Compressibility (1/GPa) = 0.03131025
#
# Stress axis : x y z
#
# Youngs Moduli (GPa) = 100.97347 166.35646 29.49741
#
# Poissons Ratio (x) = 0.47681 0.07853
# Poissons Ratio (y) = 0.28941 0.10987
# Poissons Ratio (z) = 0.26881 0.61961
#
# Static dielectric constant tensor:
#      x y z
#    x 1.944160 -0.003900 0.043810 
#    y -0.003900 1.984010 -0.027140 
#    z 0.043810 -0.027140 2.120210 
# 
# From -- ./inp_files/418888.got.cif
#   From: 2010.05.17/outbox.cif.g08.bks.cpg/sg2_210_cif.got.tgz:418888.got - 2010.06.03 11:33:40.
