data_PCOD9009992
_publ_section_title
;
Structure prediction by ZEFSAII (Michael W. Deem and Ramdas Pophale) SiO2 
 PCOD9009992
Probable space group: P -1
;
_chemical_formula_sum "Si O2"
_cell_formula_units_Z 14
_cell_length_a 9.189595
_cell_length_b 8.693911
_cell_length_c 11.576320
_cell_angle_alpha 110.278723
_cell_angle_beta 116.260434
_cell_angle_gamma 42.450507
_cell_volume 559.509467
_symmetry_space_group_name_H-M "P -1"
_symmetry_group_IT_number 2
_symmetry_cell_setting 'triclinic'
loop_
_space_group_symop_operation_xyz
x,y,z
-x,-y,-z
loop_
_atom_site_type_symbol
_atom_site_label
_atom_site_fract_x
_atom_site_fract_y
_atom_site_fract_z
Si Si1 0.462447 0.552229 0.794558
Si Si2 0.840025 0.263090 0.040924
Si Si3 0.673821 0.488229 0.484823
Si Si4 0.379393 0.113704 0.331881
Si Si5 0.445043 0.917508 0.841235
Si Si6 0.121970 0.237819 0.482082
Si Si7 0.170094 0.375380 0.922377
O O1 0.287249 0.688498 0.873178
O O2 0.426311 0.432281 0.660245
O O3 0.432524 0.736619 0.755203
O O4 0.692640 0.375399 0.900239
O O5 0.888800 0.423637 0.118234
O O6 0.000000 0.000000 0.000000
O O7 0.500000 0.500000 0.500000
O O8 0.678995 0.658527 0.595437
O O9 0.935922 0.258030 0.487550
O O10 0.395885 0.093970 0.194432
O O11 0.208250 0.128696 0.354606
O O12 0.640438 0.909234 0.407803
O O13 0.201017 0.176280 0.824263
O O14 0.577064 0.798645 0.978619
O O15 0.000000 0.500000 0.500000
O O16 0.000000 0.500000 0.000000
#
# Coordination Sequence:
#
# PCOD9009992 Si02
#       7
#     2   2   2   2   2   2   2
#     4  10  22  41  62  91 130 163 214 271 322 388
#     4  10  22  41  63  89 125 169 211 267 328 382
#     4  11  22  40  63  96 130 166 214 262 326 389
#     4  10  21  41  64  90 129 167 216 264 321 390
#     4  10  21  40  61  89 124 165 212 273 320 382
#     4   9  22  40  59  89 126 169 210 260 318 385
#     4  10  22  38  62  91 121 163 218 264 326 388
#
# _framework density 25.021917999999999
#
# number of rings (size 3 to 8) (size 9 to 14) (size 15 to 20)
#    0.000    2.000    1.429    0.857    0.000    9.714 
#    2.571    0.000    0.000    0.000    0.000    0.000 
#    0.000    0.000    0.000    0.000    0.000    0.000 
#
# Total GULP energy -78033.662182 kJ/mol
# GULP energy per Si atom -5573.833013 kJ/mol
# Density = 2.496497 g / cm^3
# Si number density = 25.021918 Si / 1000 Ang^3
#
#
#
# Elastic Constant Matrix: (Units=GPa)
#
#
# Indices 1 2 3 4 5 6 
#
# 1 121.8297 58.5495 8.6544 6.8170 -35.1570 -23.9419
# 2 58.5495 177.5605 29.5255 14.3049 -28.4541 -5.2326
# 3 8.6544 29.5255 91.6614 5.2921 -20.7474 -4.0962
# 4 6.8170 14.3049 5.2921 33.0847 -7.1672 -0.0421
# 5 -35.1570 -28.4541 -20.7474 -7.1672 34.9609 4.0526
# 6 -23.9419 -5.2326 -4.0962 -0.0421 4.0526 28.7646
#
#
#
# Elastic Compliance Matrix: (Units=1/GPa)
#
#
# Indices 1 2 3 4 5 6 
#
# 1 0.015621 -0.003185 0.003135 0.000671 0.013848 0.010919
# 2 -0.003185 0.007313 -0.001668 -0.001900 0.001576 -0.001783
# 3 0.003135 -0.001668 0.013413 -0.000027 0.009414 0.002889
# 4 0.000671 -0.001900 -0.000027 0.032162 0.005771 -0.000557
# 5 0.013848 0.001576 0.009414 0.005771 0.049870 0.006136
# 6 0.010919 -0.001783 0.002889 -0.000557 0.006136 0.043075
#
#
# Mechanical properties :
#
#
# Convention : Reuss Voigt Hill
#
# Bulk Modulus (GPa) = 30.38690 64.94561 47.66625
# Shear Modulus (GPa) = 28.43178 38.98352 33.70765
#
# Velocity S-wave (km/s) = 3.37452 3.95140 3.67430
# Velocity P-wave (km/s) = 5.23008 6.84324 6.09030
#
# Compressibility (1/GPa) = 0.03290892
#
# Stress axis : x y z
#
# Youngs Moduli (GPa) = 64.01776 136.75064 74.55689
#
# Poissons Ratio (x) = 0.43558 -0.23372
# Poissons Ratio (y) = 0.20391 0.12437
# Poissons Ratio (z) = -0.20069 0.22811
#
# Static dielectric constant tensor:
#      x y z
#    x 2.166090 0.075660 0.134090 
#    y 0.075660 2.015070 0.031680 
#    z 0.134090 0.031680 2.109450 
# 
# From -- ./inp_files/288888.got.cif
#   From: 2010.05.17/outbox.cif.g08.bks.cpg/sg2_145_cif.got.tgz:288888.got - 2010.06.03 11:33:40.
