data_PCOD9009339
_publ_section_title
;
Structure prediction by ZEFSAII (Michael W. Deem and Ramdas Pophale) SiO2 
 PCOD9009339
Probable space group: P -1
;
_chemical_formula_sum "Si O2"
_cell_formula_units_Z 16
_cell_length_a 7.745144
_cell_length_b 20.583521
_cell_length_c 8.623660
_cell_angle_alpha 61.614439
_cell_angle_beta 78.467922
_cell_angle_gamma 127.714505
_cell_volume 678.458982
_symmetry_space_group_name_H-M "P -1"
_symmetry_group_IT_number 2
_symmetry_cell_setting 'triclinic'
loop_
_space_group_symop_operation_xyz
x,y,z
-x,-y,-z
loop_
_atom_site_type_symbol
_atom_site_label
_atom_site_fract_x
_atom_site_fract_y
_atom_site_fract_z
Si Si1 0.536744 0.879748 0.780041
Si Si2 0.664162 0.421472 0.811716
Si Si3 0.072048 0.628764 0.999049
Si Si4 0.214676 0.691791 0.548854
Si Si5 0.544114 0.928471 0.072648
Si Si6 0.501741 0.420530 0.513731
Si Si7 0.087921 0.141250 0.246043
Si Si8 0.160583 0.169941 0.836208
O O1 0.214451 0.753616 0.897725
O O2 0.722928 0.867354 0.727428
O O3 0.487890 0.873704 0.977342
O O4 0.753914 0.019602 0.519923
O O5 0.647836 0.422670 0.627505
O O6 0.889437 0.562475 0.672474
O O7 0.814262 0.399028 0.880294
O O8 0.305203 0.286491 0.077634
O O9 0.177736 0.656289 0.773751
O O10 0.708775 0.499838 0.234597
O O11 0.325333 0.813208 0.365982
O O12 0.503863 0.746771 0.361280
O O13 0.500000 0.000000 0.000000
O O14 0.903714 0.044310 0.919535
O O15 0.500000 0.500000 0.500000
O O16 0.195087 0.270533 0.697009
O O17 0.067587 0.126926 0.080244
#
# Coordination Sequence:
#
# PCOD9009339 Si02
#       8
#     2   2   2   2   2   2   2   2
#     4  10  21  39  68  90 133 167 221 269 331 384
#     4  10  22  41  70  97 133 167 226 269 332 387
#     4  11  23  41  71 101 128 175 228 277 326 393
#     4  12  24  43  69  99 133 173 227 285 327 388
#     4  12  28  44  63  96 136 182 216 279 341 398
#     4  11  25  43  67  99 139 179 212 272 339 405
#     4   9  20  38  66 101 119 173 217 274 317 391
#     4  11  24  42  67  93 133 173 227 271 330 392
#
# _framework density 23.582858000000002
#
# number of rings (size 3 to 8) (size 9 to 14) (size 15 to 20)
#    0.000    1.250    2.500    2.625   10.500    0.000 
#    4.500    1.875    0.000    0.000    0.000    0.000 
#    0.000    0.000    0.000    0.000    0.000    0.000 
#
# Total GULP energy -89394.124414 kJ/mol
# GULP energy per Si atom -5587.132776 kJ/mol
# Density = 2.352918 g / cm^3
# Si number density = 23.582858 Si / 1000 Ang^3
#
#
#
# Elastic Constant Matrix: (Units=GPa)
#
#
# Indices 1 2 3 4 5 6 
#
# 1 45.7965 3.9265 17.7329 -3.5666 13.5310 -5.9288
# 2 3.9265 89.0404 29.6047 -20.2311 1.5320 17.2804
# 3 17.7329 29.6047 166.5654 -10.2375 14.0634 6.2884
# 4 -3.5666 -20.2311 -10.2375 50.7552 -2.3111 2.8324
# 5 13.5310 1.5320 14.0634 -2.3111 12.6424 -9.7251
# 6 -5.9288 17.2804 6.2884 2.8324 -9.7251 21.8416
#
#
#
# Elastic Compliance Matrix: (Units=1/GPa)
#
#
# Indices 1 2 3 4 5 6 
#
# 1 0.033873 0.002433 0.000724 0.002118 -0.048284 -0.014712
# 2 0.002433 0.018013 -0.000243 0.007663 -0.021721 -0.024186
# 3 0.000724 -0.000243 0.007775 0.001298 -0.016288 -0.009271
# 4 0.002118 0.007663 0.001298 0.023438 -0.010954 -0.013778
# 5 -0.048284 -0.021721 -0.016288 -0.010954 0.239338 0.116755
# 6 -0.014712 -0.024186 -0.009271 -0.013778 0.116755 0.117368
#
#
# Mechanical properties :
#
#
# Convention : Reuss Voigt Hill
#
# Bulk Modulus (GPa) = 15.26980 44.88117 30.07548
# Shear Modulus (GPa) = 10.96958 33.72371 22.34665
#
# Velocity S-wave (km/s) = 2.15907 3.78565 3.08162
# Velocity P-wave (km/s) = 3.56433 6.17906 5.04407
#
# Compressibility (1/GPa) = 0.06548876
#
# Stress axis : x y z
#
# Youngs Moduli (GPa) = 29.52191 55.51581 128.62216
#
# Poissons Ratio (x) = -0.13506 -0.09308
# Poissons Ratio (y) = -0.07182 0.03119
# Poissons Ratio (z) = -0.02136 0.01346
#
# Static dielectric constant tensor:
#      x y z
#    x 1.990800 0.007110 0.012140 
#    y 0.007110 1.874790 -0.080660 
#    z 0.012140 -0.080660 1.894440 
# 
# From -- ./inp_files/223434.got.cif
#   From: 2010.05.17/outbox.cif.g08.bks.cpg/sg2_112_cif.got.tgz:223434.got - 2010.06.03 11:33:40.
