data_PCOD9009023
_publ_section_title
;
Structure prediction by ZEFSAII (Michael W. Deem and Ramdas Pophale) SiO2 
 PCOD9009023
Probable space group: P -1
;
_chemical_formula_sum "Si O2"
_cell_formula_units_Z 16
_cell_length_a 11.794306
_cell_length_b 11.336345
_cell_length_c 19.268543
_cell_angle_alpha 42.330505
_cell_angle_beta 150.243618
_cell_angle_gamma 146.601175
_cell_volume 702.856477
_symmetry_space_group_name_H-M "P -1"
_symmetry_group_IT_number 2
_symmetry_cell_setting 'triclinic'
loop_
_space_group_symop_operation_xyz
x,y,z
-x,-y,-z
loop_
_atom_site_type_symbol
_atom_site_label
_atom_site_fract_x
_atom_site_fract_y
_atom_site_fract_z
Si Si1 0.328347 0.056784 0.929523
Si Si2 0.047642 0.206791 0.036153
Si Si3 0.360137 0.351324 0.399271
Si Si4 0.524092 0.871824 0.675610
Si Si5 0.676962 0.808065 0.401258
Si Si6 0.149731 0.940896 0.371992
Si Si7 0.852992 0.385982 0.155438
Si Si8 0.472257 0.082352 0.184441
O O1 0.561302 0.236194 0.025579
O O2 0.090723 0.847427 0.937690
O O3 0.168182 0.137098 0.767717
O O4 0.500000 0.000000 0.000000
O O5 0.358814 0.270367 0.184577
O O6 0.044158 0.379520 0.914289
O O7 0.824904 0.983460 0.974165
O O8 0.595649 0.603898 0.400785
O O9 0.433133 0.291678 0.537186
O O10 0.306198 0.175680 0.390873
O O11 0.077006 0.339311 0.270175
O O12 0.735940 0.029807 0.658700
O O13 0.543877 0.959186 0.724755
O O14 0.229010 0.802864 0.517212
O O15 0.537832 0.925101 0.250680
O O16 0.000000 0.000000 0.500000
O O17 0.745727 0.316933 0.207456
#
# Coordination Sequence:
#
# PCOD9009023 Si02
#       8
#     2   2   2   2   2   2   2   2
#     4  10  21  39  66  97 132 169 210 272 329 385
#     4  10  23  41  63  96 127 173 220 267 322 379
#     4  11  21  38  66  98 127 165 211 266 335 388
#     4  10  22  42  65  89 133 180 218 261 319 387
#     4  11  22  37  63 101 131 159 208 274 334 380
#     4  10  21  42  68  94 129 177 218 263 326 389
#     4  11  22  38  64 101 129 165 219 271 329 378
#     4  11  21  39  66  94 129 171 216 268 325 387
#
# _framework density 22.764250000000001
#
# number of rings (size 3 to 8) (size 9 to 14) (size 15 to 20)
#    0.000    1.500    5.000    0.375    0.000    1.000 
#    0.000    0.625    2.750    0.000    0.000    0.000 
#    0.000    0.000    0.000    0.000    0.000    0.000 
#
# Total GULP energy -89169.534028 kJ/mol
# GULP energy per Si atom -5573.095877 kJ/mol
# Density = 2.271244 g / cm^3
# Si number density = 22.764250 Si / 1000 Ang^3
#
#
#
# Elastic Constant Matrix: (Units=GPa)
#
#
# Indices 1 2 3 4 5 6 
#
# 1 82.3834 15.2208 24.8444 -1.3876 5.4000 5.4608
# 2 15.2208 78.0133 10.0057 3.7689 8.6713 11.7090
# 3 24.8444 10.0057 154.2902 -4.5215 14.5175 12.6500
# 4 -1.3876 3.7689 -4.5215 29.9769 0.0539 -6.4104
# 5 5.4000 8.6713 14.5175 0.0539 36.5778 2.2007
# 6 5.4608 11.7090 12.6500 -6.4104 2.2007 8.7467
#
#
#
# Elastic Compliance Matrix: (Units=1/GPa)
#
#
# Indices 1 2 3 4 5 6 
#
# 1 0.013239 -0.001778 -0.001680 -0.000141 -0.000662 -0.003392
# 2 -0.001778 0.018502 0.001717 -0.008989 -0.002866 -0.032008
# 3 -0.001680 0.001717 0.007927 -0.001990 -0.002487 -0.013547
# 4 -0.000141 -0.008989 -0.001990 0.044338 0.000019 0.047490
# 5 -0.000662 -0.002866 -0.002487 0.000019 0.029070 0.000547
# 6 -0.003392 -0.032008 -0.013547 0.047490 0.000547 0.213555
#
#
# Mechanical properties :
#
#
# Convention : Reuss Voigt Hill
#
# Bulk Modulus (GPa) = 27.63515 46.09208 36.86362
# Shear Modulus (GPa) = 14.61235 32.70135 23.65685
#
# Velocity S-wave (km/s) = 2.53632 3.79426 3.22718
# Velocity P-wave (km/s) = 4.55448 6.28385 5.48772
#
# Compressibility (1/GPa) = 0.03618580
#
# Stress axis : x y z
#
# Youngs Moduli (GPa) = 75.53180 54.04818 126.15288
#
# Poissons Ratio (x) = 0.09610 0.21197
# Poissons Ratio (y) = 0.13430 -0.21661
# Poissons Ratio (z) = 0.12692 -0.09280
#
# Static dielectric constant tensor:
#      x y z
#    x 1.903670 0.025780 -0.010210 
#    y 0.025780 1.956980 0.006050 
#    z -0.010210 0.006050 1.913200 
# 
# From -- ./inp_files/427299.got.cif
#   From: 2010.05.17/outbox.cif.g08.bks.cpg/sg2_214_cif.got.tgz:427299.got - 2010.06.03 11:33:40.
