data_PCOD9009667
_publ_section_title
;
Structure prediction by ZEFSAII (Michael W. Deem and Ramdas Pophale) SiO2 
 PCOD9009667
Probable space group: P -1
;
_chemical_formula_sum "Si O2"
_cell_formula_units_Z 16
_cell_length_a 10.822414
_cell_length_b 10.853097
_cell_length_c 11.190171
_cell_angle_alpha 51.379029
_cell_angle_beta 96.028651
_cell_angle_gamma 57.986469
_cell_volume 655.677389
_symmetry_space_group_name_H-M "P -1"
_symmetry_group_IT_number 2
_symmetry_cell_setting 'triclinic'
loop_
_space_group_symop_operation_xyz
x,y,z
-x,-y,-z
loop_
_atom_site_type_symbol
_atom_site_label
_atom_site_fract_x
_atom_site_fract_y
_atom_site_fract_z
Si Si1 0.571954 0.172348 0.938204
Si Si2 0.697798 0.685727 0.989146
Si Si3 0.208936 0.505345 0.311807
Si Si4 0.824674 0.905091 0.882958
Si Si5 0.027999 0.283365 0.616923
Si Si6 0.434848 0.619886 0.553203
Si Si7 0.971643 0.844542 0.572101
Si Si8 0.617899 0.988688 0.425976
O O1 0.459044 0.448752 0.747607
O O2 0.674976 0.053991 0.891141
O O3 0.412169 0.210380 0.955699
O O4 0.757982 0.977210 0.161836
O O5 0.778923 0.776947 0.905818
O O6 0.535871 0.794267 0.813359
O O7 0.875957 0.396057 0.186361
O O8 0.122455 0.640639 0.348617
O O9 0.406749 0.405613 0.373533
O O10 0.250124 0.278077 0.457503
O O11 0.041125 0.702333 0.079217
O O12 0.766460 0.097959 0.668471
O O13 0.000000 0.500000 0.500000
O O14 0.990162 0.251814 0.501767
O O15 0.500000 0.500000 0.500000
O O16 0.756721 0.988878 0.486549
O O17 0.000000 0.000000 0.500000
O O18 0.500000 0.000000 0.500000
#
# Coordination Sequence:
#
# PCOD9009667 Si02
#       8
#     2   2   2   2   2   2   2   2
#     4  10  22  39  68 111 150 183 234 310 374 425
#     4  12  23  46  76  99 140 197 255 294 367 455
#     4  11  22  45  74 105 144 190 251 303 366 442
#     4  10  21  39  72 107 142 186 244 301 366 442
#     4  11  21  44  80 107 145 192 248 305 362 450
#     4  10  23  39  61 108 156 185 231 304 385 433
#     4  12  28  50  73 116 152 191 248 316 382 434
#     4  12  27  51  75 105 147 200 255 307 367 458
#
# _framework density 24.402246999999999
#
# number of rings (size 3 to 8) (size 9 to 14) (size 15 to 20)
#    0.000    1.000    5.000    1.125    3.500    6.500 
#    2.250    0.000    0.000    0.000    0.000    0.000 
#    0.000    0.000    0.000    0.000    0.000    0.000 
#
# Total GULP energy -89571.273278 kJ/mol
# GULP energy per Si atom -5598.204580 kJ/mol
# Density = 2.434671 g / cm^3
# Si number density = 24.402247 Si / 1000 Ang^3
#
#
#
# Elastic Constant Matrix: (Units=GPa)
#
#
# Indices 1 2 3 4 5 6 
#
# 1 131.5431 36.3174 69.8716 -4.1909 10.6563 18.3490
# 2 36.3174 77.9287 37.3360 6.7259 11.4001 9.4249
# 3 69.8716 37.3360 232.6764 -19.9624 3.4215 22.7338
# 4 -4.1909 6.7259 -19.9624 25.5067 -2.4703 -5.4397
# 5 10.6563 11.4001 3.4215 -2.4703 32.7260 -8.5889
# 6 18.3490 9.4249 22.7338 -5.4397 -8.5889 42.4474
#
#
#
# Elastic Compliance Matrix: (Units=1/GPa)
#
#
# Indices 1 2 3 4 5 6 
#
# 1 0.010292 -0.002831 -0.002306 -0.000348 -0.003000 -0.003237
# 2 -0.002831 0.017303 -0.002157 -0.008161 -0.006499 -0.003824
# 3 -0.002306 -0.002157 0.005801 0.004654 0.001030 -0.000826
# 4 -0.000348 -0.008161 0.004654 0.047227 0.007903 0.007121
# 5 -0.003000 -0.006499 0.001030 0.007903 0.037097 0.010707
# 6 -0.003237 -0.003824 -0.000826 0.007121 0.010707 0.029329
#
#
# Mechanical properties :
#
#
# Convention : Reuss Voigt Hill
#
# Bulk Modulus (GPa) = 53.17065 81.02202 67.09633
# Shear Modulus (GPa) = 29.77859 40.04423 34.91141
#
# Velocity S-wave (km/s) = 3.49710 4.05533 3.78651
# Velocity P-wave (km/s) = 6.17599 7.42983 6.83173
#
# Compressibility (1/GPa) = 0.01880737
#
# Stress axis : x y z
#
# Youngs Moduli (GPa) = 97.16308 57.79370 172.37656
#
# Poissons Ratio (x) = 0.16364 0.39746
# Poissons Ratio (y) = 0.27511 0.37186
# Poissons Ratio (z) = 0.22403 0.12468
#
# Static dielectric constant tensor:
#      x y z
#    x 1.918900 -0.062350 -0.010100 
#    y -0.062350 2.069340 -0.002780 
#    z -0.010100 -0.002780 1.905680 
# 
# From -- ./inp_files/427607.got.cif
#   From: 2010.05.17/outbox.cif.g08.bks.cpg/sg2_214_cif.got.tgz:427607.got - 2010.06.03 11:33:40.
