data_PCOD9009873
_publ_section_title
;
Structure prediction by ZEFSAII (Michael W. Deem and Ramdas Pophale) SiO2 
 PCOD9009873
Probable space group: P -1
;
_chemical_formula_sum "Si O2"
_cell_formula_units_Z 15
_cell_length_a 8.616669
_cell_length_b 11.901150
_cell_length_c 14.312778
_cell_angle_alpha 151.252170
_cell_angle_beta 91.992297
_cell_angle_gamma 95.492312
_cell_volume 680.748645
_symmetry_space_group_name_H-M "P -1"
_symmetry_group_IT_number 2
_symmetry_cell_setting 'triclinic'
loop_
_space_group_symop_operation_xyz
x,y,z
-x,-y,-z
loop_
_atom_site_type_symbol
_atom_site_label
_atom_site_fract_x
_atom_site_fract_y
_atom_site_fract_z
Si Si1 0.739648 0.975503 0.474237
Si Si2 0.929789 0.725213 0.685442
Si Si3 0.214224 0.205971 0.068411
Si Si4 0.400264 0.243102 0.350893
Si Si5 0.223209 0.523249 0.931964
Si Si6 0.500000 0.000000 0.000000
Si Si7 0.893310 0.512963 0.886457
Si Si8 0.513574 0.030355 0.682015
O O1 0.875541 0.226179 0.665157
O O2 0.654307 0.969207 0.367121
O O3 0.773226 0.716986 0.297468
O O4 0.622608 0.002356 0.575517
O O5 0.849273 0.702225 0.769980
O O6 0.782686 0.743974 0.629029
O O7 0.000000 0.500000 0.500000
O O8 0.077309 0.963127 0.861046
O O9 0.213157 0.396796 0.125859
O O10 0.378860 0.132736 0.035784
O O11 0.500000 0.500000 0.500000
O O12 0.484244 0.180032 0.399080
O O13 0.410819 0.048408 0.130481
O O14 0.083708 0.636861 0.971567
O O15 0.165889 0.451129 0.984674
O O16 0.394159 0.717351 0.083791
#
# Coordination Sequence:
#
# PCOD9009873 Si02
#       8
#     2   2   2   2   2   1   2   2
#     4  10  22  39  61  91 124 163 201 256 312 370
#     4  10  22  40  60  86 123 162 207 252 313 367
#     4  10  22  40  61  89 125 162 206 260 309 376
#     4  11  24  40  63  93 124 162 214 259 306 379
#     4  10  21  40  60  90 122 161 205 252 311 374
#     4  10  24  40  60  92 122 162 212 252 312 364
#     4  10  22  37  62  91 122 155 208 255 310 373
#     4  10  23  39  60  90 124 160 207 250 311 371
#
# _framework density 22.034565000000001
#
# number of rings (size 3 to 8) (size 9 to 14) (size 15 to 20)
#    0.000    1.867    0.000    2.400    5.600    3.200 
#    0.000    0.000    0.000    0.000    0.000    0.000 
#    0.000    0.000    0.000    0.000    0.000    0.000 
#
# Total GULP energy -83555.915030 kJ/mol
# GULP energy per Si atom -5570.394335 kJ/mol
# Density = 2.198441 g / cm^3
# Si number density = 22.034565 Si / 1000 Ang^3
#
#
#
# Elastic Constant Matrix: (Units=GPa)
#
#
# Indices 1 2 3 4 5 6 
#
# 1 54.0245 -0.7898 26.5725 3.1448 -17.6292 -16.8155
# 2 -0.7898 83.6807 -10.3229 8.4708 -1.9014 -21.5062
# 3 26.5725 -10.3229 87.2869 10.7636 -16.1984 3.5203
# 4 3.1448 8.4708 10.7636 17.6619 -7.1297 3.4256
# 5 -17.6292 -1.9014 -16.1984 -7.1297 29.7922 9.1313
# 6 -16.8155 -21.5062 3.5203 3.4256 9.1313 24.4197
#
#
#
# Elastic Compliance Matrix: (Units=1/GPa)
#
#
# Indices 1 2 3 4 5 6 
#
# 1 0.035395 0.008897 -0.009120 -0.009910 0.003932 0.033443
# 2 0.008897 0.022204 -0.000261 -0.021663 -0.008425 0.031908
# 3 -0.009120 -0.000261 0.016137 -0.003785 0.005648 -0.010418
# 4 -0.009910 -0.021663 -0.003785 0.091568 0.027466 -0.048473
# 5 0.003932 -0.008425 0.005648 0.027466 0.054070 -0.029598
# 6 0.033443 0.031908 -0.010418 -0.048473 -0.029598 0.111449
#
#
# Mechanical properties :
#
#
# Convention : Reuss Voigt Hill
#
# Bulk Modulus (GPa) = 13.74268 28.43464 21.08866
# Shear Modulus (GPa) = 14.04299 28.34358 21.19328
#
# Velocity S-wave (km/s) = 2.52725 3.59043 3.10469
# Velocity P-wave (km/s) = 3.84271 5.48824 4.73747
#
# Compressibility (1/GPa) = 0.07276602
#
# Stress axis : x y z
#
# Youngs Moduli (GPa) = 28.25224 45.03739 61.96968
#
# Poissons Ratio (x) = -0.40068 0.56518
# Poissons Ratio (y) = -0.25135 0.01620
# Poissons Ratio (z) = 0.25767 0.01177
#
# Static dielectric constant tensor:
#      x y z
#    x 1.810150 -0.017560 0.037170 
#    y -0.017560 1.803060 -0.001570 
#    z 0.037170 -0.001570 1.817200 
# 
# From -- ./inp_files/498637.got.cif
#   From: 2010.05.17/outbox.cif.g08.bks.cpg/sg2_250_cif.got.tgz:498637.got - 2010.06.03 11:33:40.
