data_PCOD9009544
_publ_section_title
;
Structure prediction by ZEFSAII (Michael W. Deem and Ramdas Pophale) SiO2 
 PCOD9009544
Probable space group: P -1
;
_chemical_formula_sum "Si O2"
_cell_formula_units_Z 16
_cell_length_a 8.628343
_cell_length_b 7.856454
_cell_length_c 19.036242
_cell_angle_alpha 51.426247
_cell_angle_beta 113.553903
_cell_angle_gamma 73.020561
_cell_volume 606.260612
_symmetry_space_group_name_H-M "P -1"
_symmetry_group_IT_number 2
_symmetry_cell_setting 'triclinic'
loop_
_space_group_symop_operation_xyz
x,y,z
-x,-y,-z
loop_
_atom_site_type_symbol
_atom_site_label
_atom_site_fract_x
_atom_site_fract_y
_atom_site_fract_z
Si Si1 0.683996 0.765209 0.230625
Si Si2 0.625247 0.578067 0.571936
Si Si3 0.302430 0.815319 0.187048
Si Si4 0.934075 0.534405 0.863699
Si Si5 0.670968 0.539820 0.002347
Si Si6 0.121439 0.272954 0.344177
Si Si7 0.498809 0.315926 0.224824
Si Si8 0.004367 0.724585 0.402173
O O1 0.544632 0.739778 0.265867
O O2 0.836377 0.813222 0.281818
O O3 0.869288 0.451503 0.295272
O O4 0.456996 0.131245 0.063029
O O5 0.732201 0.308141 0.720680
O O6 0.725871 0.719386 0.577182
O O7 0.741368 0.435055 0.551051
O O8 0.318326 0.902414 0.446507
O O9 0.392791 0.582806 0.195906
O O10 0.084865 0.192559 0.019808
O O11 0.978905 0.488547 0.800649
O O12 0.623761 0.797021 0.743859
O O13 0.034706 0.670225 0.875373
O O14 0.634082 0.557342 0.908013
O O15 0.500000 0.500000 0.000000
O O16 0.802385 0.051989 0.330733
O O17 0.000000 0.500000 0.500000
#
# Coordination Sequence:
#
# PCOD9009544 Si02
#       8
#     2   2   2   2   2   2   2   2
#     4   9  23  41  63  97 138 180 228 291 345 410
#     4  10  22  42  67 103 136 182 229 288 342 413
#     4  11  24  41  70 101 139 179 236 285 346 412
#     4  11  23  41  68 101 140 182 232 284 344 415
#     4  10  24  41  63  97 142 180 228 288 352 409
#     4  10  21  39  69  98 132 178 239 280 333 408
#     4  11  23  40  64 102 130 185 225 286 348 410
#     4  10  22  44  68  91 140 186 233 285 351 403
#
# _framework density 26.391290999999999
#
# number of rings (size 3 to 8) (size 9 to 14) (size 15 to 20)
#    0.000    1.750    1.250    1.500    7.000    3.500 
#    0.000    0.625    0.000    0.000    0.000    0.000 
#    0.000    0.000    0.000    0.000    0.000    0.000 
#
# Total GULP energy -89075.511043 kJ/mol
# GULP energy per Si atom -5567.219440 kJ/mol
# Density = 2.633122 g / cm^3
# Si number density = 26.391291 Si / 1000 Ang^3
#
#
#
# Elastic Constant Matrix: (Units=GPa)
#
#
# Indices 1 2 3 4 5 6 
#
# 1 107.8909 67.2287 33.6838 -35.7099 2.3300 -0.9809
# 2 67.2287 130.4374 50.2454 -43.8905 -7.3575 -20.6741
# 3 33.6838 50.2454 104.6806 -22.9337 -9.2283 -23.4818
# 4 -35.7099 -43.8905 -22.9337 30.1857 -19.1078 -5.1788
# 5 2.3300 -7.3575 -9.2283 -19.1078 6.0194 -7.2729
# 6 -0.9809 -20.6741 -23.4818 -5.1788 -7.2729 42.0681
#
#
#
# Elastic Compliance Matrix: (Units=1/GPa)
#
#
# Indices 1 2 3 4 5 6 
#
# 1 0.015564 -0.006139 -0.001887 0.005590 -0.002936 -0.003526
# 2 -0.006139 0.010101 -0.005623 -0.005683 -0.013589 -0.001366
# 3 -0.001887 -0.005623 0.011162 -0.006268 -0.007237 0.001400
# 4 0.005590 -0.005683 -0.006268 -0.002073 -0.041783 -0.013640
# 5 -0.002936 -0.013589 -0.007237 -0.041783 -0.015574 -0.018622
# 6 -0.003526 -0.001366 0.001400 -0.013640 -0.018622 0.018900
#
#
# Mechanical properties :
#
#
# Convention : Reuss Voigt Hill
#
# Bulk Modulus (GPa) = 104.92339 71.70273 88.31306
# Shear Modulus (GPa) = 72.93649 28.44470 50.69060
#
# Velocity S-wave (km/s) = 5.26275 3.28656 4.38737
# Velocity P-wave (km/s) = 8.76196 6.45213 7.69422
#
# Compressibility (1/GPa) = 0.00953076
#
# Stress axis : x y z
#
# Youngs Moduli (GPa) = 64.24883 99.00080 89.59350
#
# Poissons Ratio (x) = 0.60773 0.16905
# Poissons Ratio (y) = 0.39440 0.50375
# Poissons Ratio (z) = 0.12123 0.55664
#
# Static dielectric constant tensor:
#      x y z
#    x 2.247710 -0.103370 -0.012590 
#    y -0.103370 2.097290 0.001930 
#    z -0.012590 0.001930 2.338310 
# 
# From -- ./inp_files/587839.got.cif
#   From: 2010.05.17/outbox.cif.g08.bks.cpg/sg2_294_cif.got.tgz:587839.got - 2010.06.03 11:33:40.
