data_PCOD9009795
_publ_section_title
;
Structure prediction by ZEFSAII (Michael W. Deem and Ramdas Pophale) SiO2 
 PCOD9009795
Probable space group: P -1
;
_chemical_formula_sum "Si O2"
_cell_formula_units_Z 14
_cell_length_a 5.139242
_cell_length_b 19.650881
_cell_length_c 5.202777
_cell_angle_alpha 98.325751
_cell_angle_beta 90.866931
_cell_angle_gamma 93.900380
_cell_volume 518.523863
_symmetry_space_group_name_H-M "P -1"
_symmetry_group_IT_number 2
_symmetry_cell_setting 'triclinic'
loop_
_space_group_symop_operation_xyz
x,y,z
-x,-y,-z
loop_
_atom_site_type_symbol
_atom_site_label
_atom_site_fract_x
_atom_site_fract_y
_atom_site_fract_z
Si Si1 0.216786 0.205198 0.013190
Si Si2 0.081892 0.917139 0.764487
Si Si3 0.760641 0.549565 0.024545
Si Si4 0.719204 0.040353 0.702089
Si Si5 0.578114 0.313504 0.275462
Si Si6 0.974050 0.581876 0.544183
Si Si7 0.710563 0.243913 0.748773
O O1 0.296147 0.271470 0.229435
O O2 0.467820 0.195067 0.831632
O O3 0.116735 0.140374 0.146561
O O4 0.986775 0.223891 0.836372
O O5 0.181276 0.901614 0.472159
O O6 0.308493 0.930888 0.992460
O O7 0.933188 0.985723 0.740452
O O8 0.789547 0.593050 0.790151
O O9 0.500000 0.500000 0.000000
O O10 0.000000 0.500000 0.000000
O O11 0.814736 0.597933 0.296642
O O12 0.500000 0.000000 0.500000
O O13 0.663885 0.309880 0.973144
O O14 0.737056 0.383006 0.411255
O O15 0.698583 0.261087 0.458796
O O16 0.000000 0.500000 0.500000
#
# Coordination Sequence:
#
# PCOD9009795 Si02
#       7
#     2   2   2   2   2   2   2
#     4  10  26  44  69  97 132 179 222 272 327 386
#     4  10  23  38  64  92 130 167 220 260 323 385
#     4  10  21  40  59  91 122 159 206 249 315 386
#     4  10  22  40  61  97 129 168 211 269 321 380
#     4  10  24  45  66  99 133 169 224 274 329 394
#     4  10  21  43  66  97 126 171 208 268 331 395
#     4  10  25  42  67  95 132 171 226 270 329 384
#
# _framework density 26.999721000000001
#
# number of rings (size 3 to 8) (size 9 to 14) (size 15 to 20)
#    0.857    1.143    0.000    1.714    6.000    1.143 
#   15.429    0.000    0.000    0.000    0.000    0.000 
#    0.000    0.000    0.000    0.000    0.000    0.000 
#
# Total GULP energy -78162.134639 kJ/mol
# GULP energy per Si atom -5583.009617 kJ/mol
# Density = 2.693827 g / cm^3
# Si number density = 26.999721 Si / 1000 Ang^3
#
#
#
# Elastic Constant Matrix: (Units=GPa)
#
#
# Indices 1 2 3 4 5 6 
#
# 1 130.2745 34.2898 34.4640 3.0222 25.8200 41.1251
# 2 34.2898 110.0254 38.6972 -6.8120 10.8715 41.0128
# 3 34.4640 38.6972 209.5572 -9.2297 21.9609 31.8903
# 4 3.0222 -6.8120 -9.2297 41.1475 10.0554 4.1564
# 5 25.8200 10.8715 21.9609 10.0554 42.2090 10.5349
# 6 41.1251 41.0128 31.8903 4.1564 10.5349 36.9059
#
#
#
# Elastic Compliance Matrix: (Units=1/GPa)
#
#
# Indices 1 2 3 4 5 6 
#
# 1 0.013179 0.002705 0.000604 0.002666 -0.005477 -0.016950
# 2 0.002705 0.016907 0.000223 0.005341 -0.001893 -0.022056
# 3 0.000604 0.000223 0.005863 0.002525 -0.002706 -0.005499
# 4 0.002666 0.005341 0.002525 0.028768 -0.008180 -0.011992
# 5 -0.005477 -0.001893 -0.002706 -0.008180 0.030174 0.002853
# 6 -0.016950 -0.022056 -0.005499 -0.011992 0.002853 0.075782
#
#
# Mechanical properties :
#
#
# Convention : Reuss Voigt Hill
#
# Bulk Modulus (GPa) = 23.24904 73.86212 48.55558
# Shear Modulus (GPa) = 28.09838 46.87955 37.48896
#
# Velocity S-wave (km/s) = 3.22947 4.17141 3.73029
# Velocity P-wave (km/s) = 4.74716 7.11456 6.04783
#
# Compressibility (1/GPa) = 0.04301253
#
# Stress axis : x y z
#
# Youngs Moduli (GPa) = 75.87906 59.14863 170.55861
#
# Poissons Ratio (x) = -0.15999 -0.10301
# Poissons Ratio (y) = -0.20524 -0.03807
# Poissons Ratio (z) = -0.04583 -0.01320
#
# Static dielectric constant tensor:
#      x y z
#    x 2.181300 -0.025330 -0.058500 
#    y -0.025330 2.120570 0.063210 
#    z -0.058500 0.063210 2.321700 
# 
# From -- ./inp_files/9744.got.cif
#   From: 2010.05.17/outbox.cif.g08.bks.cpg/sg2_5_cif.got.tgz:9744.got - 2010.06.03 11:33:40.
