data_PCOD9009086
_publ_section_title
;
Structure prediction by ZEFSAII (Michael W. Deem and Ramdas Pophale) SiO2 
 PCOD9009086
Probable space group: P -1
;
_chemical_formula_sum "Si O2"
_cell_formula_units_Z 16
_cell_length_a 23.356069
_cell_length_b 5.063951
_cell_length_c 5.257210
_cell_angle_alpha 88.948020
_cell_angle_beta 113.762661
_cell_angle_gamma 89.294582
_cell_volume 568.849355
_symmetry_space_group_name_H-M "P -1"
_symmetry_group_IT_number 2
_symmetry_cell_setting 'triclinic'
loop_
_space_group_symop_operation_xyz
x,y,z
-x,-y,-z
loop_
_atom_site_type_symbol
_atom_site_label
_atom_site_fract_x
_atom_site_fract_y
_atom_site_fract_z
Si Si1 0.242998 0.288330 0.615888
Si Si2 0.964823 0.691732 0.740735
Si Si3 0.286349 0.494397 0.197734
Si Si4 0.537253 0.293813 0.889864
Si Si5 0.906234 0.373193 0.250679
Si Si6 0.649719 0.104981 0.057099
Si Si7 0.420458 0.242139 0.400423
Si Si8 0.129178 0.092145 0.118728
O O1 0.255732 0.512089 0.420702
O O2 0.305410 0.108550 0.739773
O O3 0.188765 0.115763 0.403578
O O4 0.238224 0.384831 0.897612
O O5 0.909265 0.519432 0.522541
O O6 0.931179 0.943688 0.804798
O O7 0.021648 0.737730 0.648073
O O8 0.000000 0.500000 0.000000
O O9 0.347124 0.297641 0.329398
O O10 0.311703 0.748114 0.092352
O O11 0.472382 0.141632 0.691725
O O12 0.559321 0.484354 0.691337
O O13 0.500000 0.500000 0.000000
O O14 0.607414 0.278940 0.166348
O O15 0.887444 0.622578 0.035905
O O16 0.866468 0.128551 0.087401
O O17 0.585851 0.983155 0.826624
#
# Coordination Sequence:
#
# PCOD9009086 Si02
#       8
#     2   2   2   2   2   2   2   2
#     4  11  27  49  69 107 142 198 252 308 371 449
#     4   9  21  43  72 108 148 192 245 312 386 454
#     4  10  25  47  71  99 143 184 249 306 367 444
#     4  10  21  39  67 101 136 170 234 300 367 451
#     4  10  23  43  71 107 150 194 246 314 385 455
#     4  10  23  46  73  97 140 191 236 299 380 444
#     4   9  21  41  61 100 132 177 229 292 366 447
#     4  11  25  44  71 107 148 199 259 312 380 459
#
# _framework density 28.126953
#
# number of rings (size 3 to 8) (size 9 to 14) (size 15 to 20)
#    0.000    2.000    0.000    0.750    8.750    9.000 
#    9.000    0.000    0.000    0.000    0.000    0.000 
#    0.000    0.000    0.000    0.000    0.000    0.000 
#
# Total GULP energy -89363.419257 kJ/mol
# GULP energy per Si atom -5585.213704 kJ/mol
# Density = 2.806293 g / cm^3
# Si number density = 28.126953 Si / 1000 Ang^3
#
#
#
# Elastic Constant Matrix: (Units=GPa)
#
#
# Indices 1 2 3 4 5 6 
#
# 1 68.4177 8.9741 43.9058 -2.6553 3.0345 8.6610
# 2 8.9741 101.8871 36.5852 -7.6522 17.0824 7.9996
# 3 43.9058 36.5852 156.0506 15.2271 29.5931 -9.2629
# 4 -2.6553 -7.6522 15.2271 40.2438 15.8055 3.6776
# 5 3.0345 17.0824 29.5931 15.8055 55.2632 4.0917
# 6 8.6610 7.9996 -9.2629 3.6776 4.0917 25.0039
#
#
#
# Elastic Compliance Matrix: (Units=1/GPa)
#
#
# Indices 1 2 3 4 5 6 
#
# 1 0.021110 0.002016 -0.007988 0.005143 0.001912 -0.011985
# 2 0.002016 0.012477 -0.003855 0.005761 -0.003072 -0.006463
# 3 -0.007988 -0.003855 0.011313 -0.004952 -0.003717 0.009528
# 4 0.005143 0.005761 -0.004952 0.032083 -0.007930 -0.008880
# 5 0.001912 -0.003072 -0.003717 -0.007930 0.023475 -0.003731
# 6 -0.011985 -0.006463 0.009528 -0.008880 -0.003731 0.051659
#
#
# Mechanical properties :
#
#
# Convention : Reuss Voigt Hill
#
# Bulk Modulus (GPa) = 39.61250 56.14285 47.87767
# Shear Modulus (GPa) = 27.74904 39.89485 33.82195
#
# Velocity S-wave (km/s) = 3.14437 3.77023 3.47143
# Velocity P-wave (km/s) = 5.22463 6.24153 5.75558
#
# Compressibility (1/GPa) = 0.02524456
#
# Stress axis : x y z
#
# Youngs Moduli (GPa) = 47.37161 80.14833 88.39348
#
# Poissons Ratio (x) = -0.16155 0.70606
# Poissons Ratio (y) = -0.09548 0.34080
# Poissons Ratio (z) = 0.37839 0.30901
#
# Static dielectric constant tensor:
#      x y z
#    x 2.436900 -0.128010 -0.115810 
#    y -0.128010 2.376560 0.179820 
#    z -0.115810 0.179820 2.286580 
# 
# From -- ./inp_files/125830.got.cif
#   From: 2010.05.17/outbox.cif.g08.bks.cpg/sg2_63_cif.got.tgz:125830.got - 2010.06.03 11:33:40.
