data_PCOD9009776
_publ_section_title
;
Structure prediction by ZEFSAII (Michael W. Deem and Ramdas Pophale) SiO2 
 PCOD9009776
Probable space group: P -1
;
_chemical_formula_sum "Si O2"
_cell_formula_units_Z 16
_cell_length_a 11.117728
_cell_length_b 7.003860
_cell_length_c 17.364712
_cell_angle_alpha 116.549285
_cell_angle_beta 127.401769
_cell_angle_gamma 36.918880
_cell_volume 643.095241
_symmetry_space_group_name_H-M "P -1"
_symmetry_group_IT_number 2
_symmetry_cell_setting 'triclinic'
loop_
_space_group_symop_operation_xyz
x,y,z
-x,-y,-z
loop_
_atom_site_type_symbol
_atom_site_label
_atom_site_fract_x
_atom_site_fract_y
_atom_site_fract_z
Si Si1 0.403313 0.027198 0.681245
Si Si2 0.023263 0.778038 0.910337
Si Si3 0.705722 0.770237 0.978497
Si Si4 0.418896 0.557611 0.184291
Si Si5 0.548123 0.669244 0.115211
Si Si6 0.319359 0.637750 0.386183
Si Si7 0.521113 0.740682 0.383869
Si Si8 0.939748 0.279496 0.569907
O O1 0.426130 0.167362 0.784546
O O2 0.473525 0.064754 0.635253
O O3 0.145069 0.221030 0.622026
O O4 0.690301 0.135635 0.627250
O O5 0.235016 0.575008 0.898811
O O6 0.076193 0.512789 0.935125
O O7 0.792621 0.053086 0.823449
O O8 0.000000 0.000000 0.000000
O O9 0.661036 0.603890 0.879296
O O10 0.671241 0.023746 0.963230
O O11 0.500000 0.000000 0.000000
O O12 0.518837 0.495870 0.126769
O O13 0.580611 0.484538 0.299876
O O14 0.500000 0.500000 0.500000
O O15 0.431994 0.347003 0.321687
O O16 0.111832 0.739783 0.366153
O O17 0.711209 0.590419 0.494408
O O18 0.000000 0.000000 0.500000
#
# Coordination Sequence:
#
# PCOD9009776 Si02
#       8
#     2   2   2   2   2   2   2   2
#     4  11  22  40  62  90 128 164 218 260 313 380
#     4   9  20  39  61  91 123 157 204 252 307 386
#     4   9  19  36  61  89 119 160 199 249 309 379
#     4  10  21  40  61  87 129 158 207 259 316 377
#     4  10  22  39  63  91 125 165 204 262 315 369
#     4  10  21  40  59  86 123 163 209 267 312 368
#     4  10  22  40  62  89 123 171 207 262 320 363
#     4  11  22  41  62  88 124 166 215 260 310 373
#
# _framework density 24.879677000000001
#
# number of rings (size 3 to 8) (size 9 to 14) (size 15 to 20)
#    0.000    2.000    2.500    1.125    0.000    9.000 
#    6.750    3.750    0.000    0.000    0.000    0.000 
#    0.000    0.000    0.000    0.000    0.000    0.000 
#
# Total GULP energy -89302.487027 kJ/mol
# GULP energy per Si atom -5581.405439 kJ/mol
# Density = 2.482305 g / cm^3
# Si number density = 24.879677 Si / 1000 Ang^3
#
#
#
# Elastic Constant Matrix: (Units=GPa)
#
#
# Indices 1 2 3 4 5 6 
#
# 1 143.5952 35.5817 37.0914 -7.8241 -31.4700 0.7724
# 2 35.5817 94.4357 27.0764 12.2308 -3.2257 -16.3804
# 3 37.0914 27.0764 79.2137 13.6556 -15.5185 0.9114
# 4 -7.8241 12.2308 13.6556 35.2048 6.5414 -3.7811
# 5 -31.4700 -3.2257 -15.5185 6.5414 41.1892 4.8243
# 6 0.7724 -16.3804 0.9114 -3.7811 4.8243 46.0167
#
#
#
# Elastic Compliance Matrix: (Units=1/GPa)
#
#
# Indices 1 2 3 4 5 6 
#
# 1 0.010082 -0.003484 -0.002895 0.003271 0.006021 -0.001715
# 2 -0.003484 0.014050 -0.003215 -0.003327 -0.002848 0.005149
# 3 -0.002895 -0.003215 0.017544 -0.007673 0.005678 -0.002669
# 4 0.003271 -0.003327 -0.007673 0.034726 -0.006453 0.002443
# 5 0.006021 -0.002848 0.005678 -0.006453 0.032424 -0.005157
# 6 -0.001715 0.005149 -0.002669 0.002443 -0.005157 0.024387
#
#
# Mechanical properties :
#
#
# Convention : Reuss Voigt Hill
#
# Bulk Modulus (GPa) = 44.46523 57.41594 50.94059
# Shear Modulus (GPa) = 31.27023 38.98183 35.12603
#
# Velocity S-wave (km/s) = 3.54907 3.96259 3.76152
# Velocity P-wave (km/s) = 5.89113 6.63805 6.27571
#
# Compressibility (1/GPa) = 0.02248948
#
# Stress axis : x y z
#
# Youngs Moduli (GPa) = 99.18614 71.17224 56.99913
#
# Poissons Ratio (x) = 0.24798 0.16498
# Poissons Ratio (y) = 0.34559 0.18324
# Poissons Ratio (z) = 0.28710 0.22881
#
# Static dielectric constant tensor:
#      x y z
#    x 1.996500 0.035240 -0.059670 
#    y 0.035240 1.986040 -0.069430 
#    z -0.059670 -0.069430 2.046170 
# 
# From -- ./inp_files/572388.got.cif
#   From: 2010.05.17/outbox.cif.g08.bks.cpg/sg2_287_cif.got.tgz:572388.got - 2010.06.03 11:33:40.
