data_PCOD9009970
_publ_section_title
;
Structure prediction by ZEFSAII (Michael W. Deem and Ramdas Pophale) SiO2 
 PCOD9009970
Probable space group: P -1
;
_chemical_formula_sum "Si O2"
_cell_formula_units_Z 14
_cell_length_a 8.965733
_cell_length_b 15.255280
_cell_length_c 15.012077
_cell_angle_alpha 152.554747
_cell_angle_beta 117.229811
_cell_angle_gamma 80.606240
_cell_volume 677.833881
_symmetry_space_group_name_H-M "P -1"
_symmetry_group_IT_number 2
_symmetry_cell_setting 'triclinic'
loop_
_space_group_symop_operation_xyz
x,y,z
-x,-y,-z
loop_
_atom_site_type_symbol
_atom_site_label
_atom_site_fract_x
_atom_site_fract_y
_atom_site_fract_z
Si Si1 0.460872 0.670600 0.933986
Si Si2 0.404929 0.256783 0.621913
Si Si3 0.184422 0.661792 0.131116
Si Si4 0.022035 0.239299 0.199621
Si Si5 0.776651 0.894455 0.386566
Si Si6 0.359916 0.782878 0.835447
Si Si7 0.845931 0.255873 0.992655
O O1 0.413226 0.416047 0.689100
O O2 0.509653 0.804955 0.975606
O O3 0.624410 0.785164 0.162569
O O4 0.262683 0.652911 0.898619
O O5 0.628441 0.357286 0.817198
O O6 0.272118 0.248333 0.662629
O O7 0.316616 0.009427 0.327731
O O8 0.086030 0.602987 0.953338
O O9 0.256845 0.918443 0.412926
O O10 0.000000 0.500000 0.000000
O O11 0.228047 0.504042 0.518629
O O12 0.823176 0.203959 0.163158
O O13 0.998613 0.253459 0.099388
O O14 0.000000 0.000000 0.000000
O O15 0.000000 0.000000 0.500000
O O16 0.500000 0.000000 0.000000
#
# Coordination Sequence:
#
# PCOD9009970 Si02
#       7
#     2   2   2   2   2   2   2
#     4  11  21  39  65  85 122 169 200 252 330 367
#     4  11  21  40  61  87 128 161 207 256 309 391
#     4  11  22  37  57  90 127 159 207 252 304 386
#     4  10  22  45  70  93 126 168 219 270 328 382
#     4  11  22  37  58  93 122 162 207 251 309 382
#     4  10  24  45  65  97 129 163 219 278 321 386
#     4  10  21  40  61  88 123 165 201 256 319 372
#
# _framework density 20.654026999999999
#
# number of rings (size 3 to 8) (size 9 to 14) (size 15 to 20)
#    0.000    1.429    2.857    3.000    2.000    1.714 
#   12.857    0.000    0.000    0.000    0.000    0.000 
#    0.000    0.000    0.000    0.000    0.000    0.000 
#
# Total GULP energy -77959.867808 kJ/mol
# GULP energy per Si atom -5568.561986 kJ/mol
# Density = 2.060702 g / cm^3
# Si number density = 20.654027 Si / 1000 Ang^3
#
#
#
# Elastic Constant Matrix: (Units=GPa)
#
#
# Indices 1 2 3 4 5 6 
#
# 1 64.7839 34.7578 2.7597 12.9484 -0.6461 0.7145
# 2 34.7578 173.4624 23.8582 12.0583 -1.6466 9.6282
# 3 2.7597 23.8582 44.6364 7.2272 -7.6865 -4.2667
# 4 12.9484 12.0583 7.2272 30.2844 -0.5041 -0.1481
# 5 -0.6461 -1.6466 -7.6865 -0.5041 27.1963 10.4376
# 6 0.7145 9.6282 -4.2667 -0.1481 10.4376 35.8045
#
#
#
# Elastic Compliance Matrix: (Units=1/GPa)
#
#
# Indices 1 2 3 4 5 6 
#
# 1 0.018664 -0.003563 0.002025 -0.007034 0.000409 0.000679
# 2 -0.003563 0.007155 -0.003724 -0.000445 0.000191 -0.002354
# 3 0.002025 -0.003724 0.026479 -0.005586 0.006342 0.002245
# 4 -0.007034 -0.000445 -0.005586 0.037520 -0.001105 0.000072
# 5 0.000409 0.000191 0.006342 -0.001105 0.043122 -0.011879
# 6 0.000679 -0.002354 0.002245 0.000072 -0.011879 0.032280
#
#
# Mechanical properties :
#
#
# Convention : Reuss Voigt Hill
#
# Bulk Modulus (GPa) = 23.93852 45.07045 34.50449
# Shear Modulus (GPa) = 26.36178 33.42415 29.89296
#
# Velocity S-wave (km/s) = 3.57648 4.02716 3.80849
# Velocity P-wave (km/s) = 5.35447 6.59492 6.00680
#
# Compressibility (1/GPa) = 0.04177367
#
# Stress axis : x y z
#
# Youngs Moduli (GPa) = 53.57936 139.77215 37.76510
#
# Poissons Ratio (x) = 0.49802 -0.07647
# Poissons Ratio (y) = 0.19091 0.14063
# Poissons Ratio (z) = -0.10849 0.52049
#
# Static dielectric constant tensor:
#      x y z
#    x 1.714510 -0.096770 -0.074610 
#    y -0.096770 3.388430 1.043630 
#    z -0.074610 1.043630 2.434020 
# 
# From -- ./inp_files/186357.got.cif
#   From: 2010.05.17/outbox.cif.g08.bks.cpg/sg2_94_cif.got.tgz:186357.got - 2010.06.03 11:33:40.
