data_PCOD9009141
_publ_section_title
;
Structure prediction by ZEFSAII (Michael W. Deem and Ramdas Pophale) SiO2 
 PCOD9009141
Probable space group: P -1
;
_chemical_formula_sum "Si O2"
_cell_formula_units_Z 12
_cell_length_a 12.068701
_cell_length_b 14.189500
_cell_length_c 11.956364
_cell_angle_alpha 58.872808
_cell_angle_beta 69.580426
_cell_angle_gamma 20.059528
_cell_volume 532.056185
_symmetry_space_group_name_H-M "P -1"
_symmetry_group_IT_number 2
_symmetry_cell_setting 'triclinic'
loop_
_space_group_symop_operation_xyz
x,y,z
-x,-y,-z
loop_
_atom_site_type_symbol
_atom_site_label
_atom_site_fract_x
_atom_site_fract_y
_atom_site_fract_z
Si Si1 0.840157 0.121809 0.602264
Si Si2 0.107167 0.959273 0.837326
Si Si3 0.076521 0.759389 0.068378
Si Si4 0.110007 0.286675 0.956959
Si Si5 0.178012 0.270903 0.355588
Si Si6 0.666436 0.018492 0.718037
O O1 0.500000 0.500000 0.500000
O O2 0.739252 0.082871 0.673289
O O3 0.000000 0.000000 0.500000
O O4 0.083923 0.955517 0.717250
O O5 0.543470 0.586322 0.921963
O O6 0.926921 0.007813 0.923702
O O7 0.924855 0.219954 0.809757
O O8 0.861116 0.842754 0.056332
O O9 0.826570 0.621998 0.796153
O O10 0.500000 0.000000 0.000000
O O11 0.076079 0.271697 0.104411
O O12 0.765014 0.628475 0.329892
O O13 0.500000 0.000000 0.500000
O O14 0.235115 0.111183 0.359901
#
# Coordination Sequence:
#
# PCOD9009141 Si02
#       6
#     2   2   2   2   2   2
#     4  12  25  42  66  97 133 179 226 273 345 405
#     4  10  22  40  61  96 126 170 215 270 335 384
#     4  10  21  39  67  91 129 166 216 276 325 393
#     4  10  23  44  70 102 133 182 226 279 337 409
#     4  11  25  43  69 101 135 177 228 276 351 400
#     4  11  24  46  67  96 138 179 226 287 331 415
#
# _framework density 22.554009000000001
#
# number of rings (size 3 to 8) (size 9 to 14) (size 15 to 20)
#    0.000    1.333    1.667    3.000    0.000    9.333 
#    0.000    0.000    0.000    0.000    0.000    0.000 
#    0.000    0.000    0.000    0.000    0.000    0.000 
#
# Total GULP energy -66973.563114 kJ/mol
# GULP energy per Si atom -5581.130260 kJ/mol
# Density = 2.250268 g / cm^3
# Si number density = 22.554009 Si / 1000 Ang^3
#
#
#
# Elastic Constant Matrix: (Units=GPa)
#
#
# Indices 1 2 3 4 5 6 
#
# 1 160.1386 29.1299 32.9806 0.1022 19.0664 7.6473
# 2 29.1299 85.1768 17.6588 1.1782 7.1601 14.8955
# 3 32.9806 17.6588 104.2377 -4.2601 16.4412 -6.7455
# 4 0.1022 1.1782 -4.2601 29.1731 4.2361 5.3595
# 5 19.0664 7.1601 16.4412 4.2361 36.4387 9.2008
# 6 7.6473 14.8955 -6.7455 5.3595 9.2008 37.3150
#
#
#
# Elastic Compliance Matrix: (Units=1/GPa)
#
#
# Indices 1 2 3 4 5 6 
#
# 1 0.007241 -0.001859 -0.001575 0.000279 -0.002640 -0.000416
# 2 -0.001859 0.013774 -0.002222 0.000072 0.000700 -0.005702
# 3 -0.001575 -0.002222 0.011661 0.001766 -0.005310 0.004373
# 4 0.000279 0.000072 0.001766 0.035849 -0.004141 -0.003895
# 5 -0.002640 0.000700 -0.005310 -0.004141 0.033688 -0.008410
# 6 -0.000416 -0.005702 0.004373 -0.003895 -0.008410 0.032584
#
#
# Mechanical properties :
#
#
# Convention : Reuss Voigt Hill
#
# Bulk Modulus (GPa) = 46.80712 56.56574 51.68643
# Shear Modulus (GPa) = 32.63058 38.57095 35.60076
#
# Velocity S-wave (km/s) = 3.80778 4.13989 3.97730
# Velocity P-wave (km/s) = 6.33487 6.92721 6.63765
#
# Compressibility (1/GPa) = 0.02136427
#
# Stress axis : x y z
#
# Youngs Moduli (GPa) = 138.09823 72.60073 85.75620
#
# Poissons Ratio (x) = 0.13497 0.13508
# Poissons Ratio (y) = 0.25674 0.19052
# Poissons Ratio (z) = 0.21753 0.16130
#
# Static dielectric constant tensor:
#      x y z
#    x 1.799490 -0.006050 -0.060410 
#    y -0.006050 1.871910 0.036110 
#    z -0.060410 0.036110 1.796410 
# 
# From -- ./inp_files/38267.got.cif
#   From: 2010.05.17/outbox.cif.g08.bks.cpg/sg2_20_cif.got.tgz:38267.got - 2010.06.03 11:33:40.
