data_PCOD9009227
_publ_section_title
;
Structure prediction by ZEFSAII (Michael W. Deem and Ramdas Pophale) SiO2 
 PCOD9009227
Probable space group: P -1
;
_chemical_formula_sum "Si O2"
_cell_formula_units_Z 14
_cell_length_a 10.754662
_cell_length_b 14.161255
_cell_length_c 9.359624
_cell_angle_alpha 29.034553
_cell_angle_beta 88.446719
_cell_angle_gamma 77.337901
_cell_volume 632.942817
_symmetry_space_group_name_H-M "P -1"
_symmetry_group_IT_number 2
_symmetry_cell_setting 'triclinic'
loop_
_space_group_symop_operation_xyz
x,y,z
-x,-y,-z
loop_
_atom_site_type_symbol
_atom_site_label
_atom_site_fract_x
_atom_site_fract_y
_atom_site_fract_z
Si Si1 0.033659 0.163761 0.686470
Si Si2 0.808634 0.517847 0.056063
Si Si3 0.169833 0.454401 0.306150
Si Si4 0.636411 0.996103 0.429220
Si Si5 0.005503 0.922653 0.763413
Si Si6 0.693458 0.195218 0.423284
Si Si7 0.454137 0.127806 0.687062
O O1 0.134133 0.260405 0.617019
O O2 0.903475 0.372915 0.367421
O O3 0.081554 0.036191 0.705774
O O4 0.000000 0.000000 0.000000
O O5 0.694967 0.422575 0.160292
O O6 0.875207 0.495178 0.926326
O O7 0.750058 0.763355 0.770004
O O8 0.332405 0.354445 0.427192
O O9 0.086953 0.671006 0.104242
O O10 0.607550 0.990089 0.269310
O O11 0.500000 0.000000 0.500000
O O12 0.671615 0.166260 0.293071
O O13 0.846804 0.023284 0.681630
O O14 0.000000 0.000000 0.500000
O O15 0.579498 0.155527 0.568933
O O16 0.500000 0.000000 0.000000
#
# Coordination Sequence:
#
# PCOD9009227 Si02
#       7
#     2   2   2   2   2   2   2
#     4  11  25  41  64 100 136 166 211 272 333 383
#     4  10  21  39  67  97 125 169 214 267 321 384
#     4  11  23  41  71  93 131 174 219 261 330 384
#     4   9  20  38  64  92 118 169 219 258 306 384
#     4  11  23  42  70 102 125 169 221 273 315 392
#     4  10  21  41  68  92 130 162 221 260 319 385
#     4  10  24  41  63  92 136 174 207 270 330 379
#
# _framework density 22.1189
#
# number of rings (size 3 to 8) (size 9 to 14) (size 15 to 20)
#    0.000    1.714    2.857    1.286    8.000    5.714 
#    5.143    0.000    0.000    7.714    0.000    0.000 
#    0.000    0.000    0.000    0.000    0.000    0.000 
#
# Total GULP energy -78186.002136 kJ/mol
# GULP energy per Si atom -5584.714438 kJ/mol
# Density = 2.206856 g / cm^3
# Si number density = 22.118900 Si / 1000 Ang^3
#
#
#
# Elastic Constant Matrix: (Units=GPa)
#
#
# Indices 1 2 3 4 5 6 
#
# 1 102.9350 19.5734 36.7420 -9.8403 -9.3561 -8.7327
# 2 19.5734 63.8458 31.4893 -14.9171 -3.2123 1.5977
# 3 36.7420 31.4893 116.8589 6.4348 -1.3107 -13.4188
# 4 -9.8403 -14.9171 6.4348 37.1832 2.2610 4.3730
# 5 -9.3561 -3.2123 -1.3107 2.2610 36.7740 -5.5815
# 6 -8.7327 1.5977 -13.4188 4.3730 -5.5815 33.2783
#
#
#
# Elastic Compliance Matrix: (Units=1/GPa)
#
#
# Indices 1 2 3 4 5 6 
#
# 1 0.011819 -0.001264 -0.003270 0.002778 0.002908 0.001966
# 2 -0.001264 0.021872 -0.006686 0.010244 -0.000105 -0.005442
# 3 -0.003270 -0.006686 0.012347 -0.006322 0.000219 0.005309
# 4 0.002778 0.010244 -0.006322 0.033769 -0.001769 -0.007046
# 5 0.002908 -0.000105 0.000219 -0.001769 0.028942 0.005943
# 6 0.001966 -0.005442 0.005309 -0.007046 0.005943 0.034890
#
#
# Mechanical properties :
#
#
# Convention : Reuss Voigt Hill
#
# Bulk Modulus (GPa) = 42.37743 51.02766 46.70255
# Shear Modulus (GPa) = 28.74417 34.50276 31.62346
#
# Velocity S-wave (km/s) = 3.60881 3.95381 3.78524
# Velocity P-wave (km/s) = 6.04692 6.63048 6.34541
#
# Compressibility (1/GPa) = 0.02359747
#
# Stress axis : x y z
#
# Youngs Moduli (GPa) = 84.60796 45.71967 80.98836
#
# Poissons Ratio (x) = 0.05781 0.26483
# Poissons Ratio (y) = 0.10698 0.54152
# Poissons Ratio (z) = 0.27667 0.30570
#
# Static dielectric constant tensor:
#      x y z
#    x 1.978580 -0.027930 -0.013760 
#    y -0.027930 1.869840 0.017360 
#    z -0.013760 0.017360 1.796050 
# 
# From -- ./inp_files/271347.got.cif
#   From: 2010.05.17/outbox.cif.g08.bks.cpg/sg2_136_cif.got.tgz:271347.got - 2010.06.03 11:33:40.
