data_PCOD9009360
_publ_section_title
;
Structure prediction by ZEFSAII (Michael W. Deem and Ramdas Pophale) SiO2 
 PCOD9009360
Probable space group: P -1
;
_chemical_formula_sum "Si O2"
_cell_formula_units_Z 16
_cell_length_a 19.170590
_cell_length_b 9.415393
_cell_length_c 6.228310
_cell_angle_alpha 126.670712
_cell_angle_beta 85.081325
_cell_angle_gamma 124.133908
_cell_volume 691.711259
_symmetry_space_group_name_H-M "P -1"
_symmetry_group_IT_number 2
_symmetry_cell_setting 'triclinic'
loop_
_space_group_symop_operation_xyz
x,y,z
-x,-y,-z
loop_
_atom_site_type_symbol
_atom_site_label
_atom_site_fract_x
_atom_site_fract_y
_atom_site_fract_z
Si Si1 0.140304 0.103179 0.134806
Si Si2 0.040561 0.690478 0.478808
Si Si3 0.082673 0.261563 0.652394
Si Si4 0.509860 0.589631 0.841243
Si Si5 0.246530 0.383791 0.985983
Si Si6 0.571572 0.172573 0.819762
Si Si7 0.624501 0.908197 0.787299
Si Si8 0.798463 0.039971 0.635264
O O1 0.117162 0.240426 0.397768
O O2 0.148647 0.961393 0.178883
O O3 0.230263 0.295377 0.152495
O O4 0.072421 0.919666 0.805811
O O5 0.000000 0.500000 0.500000
O O6 0.961427 0.619756 0.271021
O O7 0.129817 0.776371 0.397133
O O8 0.161518 0.361170 0.895646
O O9 0.000000 0.000000 0.500000
O O10 0.613110 0.813531 0.947202
O O11 0.454381 0.345273 0.515915
O O12 0.500000 0.500000 0.000000
O O13 0.458514 0.694487 0.940089
O O14 0.248419 0.207856 0.685235
O O15 0.336216 0.638070 0.159779
O O16 0.500000 0.000000 0.500000
O O17 0.593182 0.056223 0.882457
O O18 0.719801 0.031990 0.753440
#
# Coordination Sequence:
#
# PCOD9009360 Si02
#       8
#     2   2   2   2   2   2   2   2
#     4  10  21  39  68  93 132 182 220 273 343 398
#     4  11  24  39  65  98 138 173 224 280 336 408
#     4  11  20  42  66  93 127 180 225 270 332 406
#     4  11  24  45  71  99 134 181 231 284 346 419
#     4  10  23  40  68  98 136 173 234 285 329 420
#     4  12  25  46  71 104 139 180 234 284 345 413
#     4  11  25  43  72  98 140 182 224 293 348 400
#     4  10  22  42  63  98 135 180 225 278 347 408
#
# _framework density 23.131038
#
# number of rings (size 3 to 8) (size 9 to 14) (size 15 to 20)
#    0.000    1.250    6.250    0.750    1.750    2.500 
#    4.500    0.000    0.000    0.000    0.000    0.000 
#    0.000    0.000    0.000    0.000    0.000    0.000 
#
# Total GULP energy -89342.159637 kJ/mol
# GULP energy per Si atom -5583.884977 kJ/mol
# Density = 2.307839 g / cm^3
# Si number density = 23.131038 Si / 1000 Ang^3
#
#
#
# Elastic Constant Matrix: (Units=GPa)
#
#
# Indices 1 2 3 4 5 6 
#
# 1 100.1199 60.6394 -4.3864 3.1016 -14.8508 1.4676
# 2 60.6394 199.3440 17.2946 -12.0955 -0.8315 10.2603
# 3 -4.3864 17.2946 39.1273 6.5443 -1.4680 3.8454
# 4 3.1016 -12.0955 6.5443 34.7793 2.2171 -3.4651
# 5 -14.8508 -0.8315 -1.4680 2.2171 28.4276 9.3054
# 6 1.4676 10.2603 3.8454 -3.4651 9.3054 35.6122
#
#
#
# Elastic Compliance Matrix: (Units=1/GPa)
#
#
# Indices 1 2 3 4 5 6 
#
# 1 0.014866 -0.005116 0.005352 -0.004951 0.009124 -0.002582
# 2 -0.005116 0.007205 -0.004511 0.003975 -0.002931 -0.000225
# 3 0.005352 -0.004511 0.030300 -0.008628 0.006445 -0.004717
# 4 -0.004951 0.003975 -0.008628 0.033164 -0.007169 0.005091
# 5 0.009124 -0.002931 0.006445 -0.007169 0.044892 -0.012655
# 6 -0.002582 -0.000225 -0.004717 0.005091 -0.012655 0.032563
#
#
# Mechanical properties :
#
#
# Convention : Reuss Voigt Hill
#
# Bulk Modulus (GPa) = 22.82012 53.96515 38.39264
# Shear Modulus (GPa) = 26.86068 37.43339 32.14704
#
# Velocity S-wave (km/s) = 3.41139 4.02720 3.73202
# Velocity P-wave (km/s) = 5.04022 6.70860 5.93334
#
# Compressibility (1/GPa) = 0.04382098
#
# Stress axis : x y z
#
# Youngs Moduli (GPa) = 67.26949 138.80144 33.00345
#
# Poissons Ratio (x) = 0.71008 -0.17663
# Poissons Ratio (y) = 0.34414 0.14887
# Poissons Ratio (z) = -0.36002 0.62609
#
# Static dielectric constant tensor:
#      x y z
#    x 2.219960 2.446990 -2.047580 
#    y 2.446990 21.847110 -16.933360 
#    z -2.047580 -16.933360 16.211570 
# 
# From -- ./inp_files/47114.got.cif
#   From: 2010.05.17/outbox.cif.g08.bks.cpg/sg2_24_cif.got.tgz:47114.got - 2010.06.03 11:33:40.
