data_PCOD9009217
_publ_section_title
;
Structure prediction by ZEFSAII (Michael W. Deem and Ramdas Pophale) SiO2 
 PCOD9009217
Probable space group: P -1
;
_chemical_formula_sum "Si O2"
_cell_formula_units_Z 16
_cell_length_a 13.515267
_cell_length_b 11.267470
_cell_length_c 14.669693
_cell_angle_alpha 112.375322
_cell_angle_beta 138.673305
_cell_angle_gamma 35.768039
_cell_volume 694.682635
_symmetry_space_group_name_H-M "P -1"
_symmetry_group_IT_number 2
_symmetry_cell_setting 'triclinic'
loop_
_space_group_symop_operation_xyz
x,y,z
-x,-y,-z
loop_
_atom_site_type_symbol
_atom_site_label
_atom_site_fract_x
_atom_site_fract_y
_atom_site_fract_z
Si Si1 0.122362 0.500871 0.704384
Si Si2 0.358184 0.528165 0.994239
Si Si3 0.437779 0.397410 0.731707
Si Si4 0.141340 0.989675 0.717454
Si Si5 0.797945 0.679278 0.825203
Si Si6 0.811320 0.003516 0.453916
Si Si7 0.831203 0.742614 0.188836
Si Si8 0.480709 0.925581 0.372712
O O1 0.369638 0.365217 0.766328
O O2 0.183719 0.321933 0.745424
O O3 0.811913 0.709711 0.502729
O O4 0.097773 0.636589 0.801459
O O5 0.349490 0.641036 0.102109
O O6 0.583861 0.251102 0.101237
O O7 0.500000 0.500000 0.000000
O O8 0.538222 0.216090 0.674949
O O9 0.119148 0.696891 0.576479
O O10 0.042180 0.208173 0.715466
O O11 0.891315 0.069860 0.587420
O O12 0.248352 0.900071 0.660674
O O13 0.475752 0.858157 0.672134
O O14 0.967121 0.487771 0.804222
O O15 0.741024 0.861828 0.796846
O O16 0.000000 0.500000 0.000000
O O17 0.500000 0.000000 0.000000
O O18 0.500000 0.000000 0.500000
#
# Coordination Sequence:
#
# PCOD9009217 Si02
#       8
#     2   2   2   2   2   2   2   2
#     4  11  21  40  70  99 132 175 230 283 333 415
#     4   9  20  38  66 101 129 171 228 276 333 407
#     4  10  22  41  71  97 132 180 227 277 344 413
#     4  10  21  39  67  96 131 174 220 274 329 415
#     4  12  28  42  64  97 141 177 227 289 338 406
#     4  10  22  42  66  97 130 175 225 270 341 403
#     4  12  24  40  69  99 134 177 227 273 345 400
#     4  12  25  42  64 100 137 174 230 286 339 402
#
# _framework density 23.032101000000001
#
# number of rings (size 3 to 8) (size 9 to 14) (size 15 to 20)
#    0.000    1.250    3.750    1.875    3.500    0.500 
#    0.000    0.625    2.750    0.000    0.000    0.000 
#    0.000    0.000    0.000    0.000    0.000    0.000 
#
# Total GULP energy -89268.909146 kJ/mol
# GULP energy per Si atom -5579.306822 kJ/mol
# Density = 2.297968 g / cm^3
# Si number density = 23.032101 Si / 1000 Ang^3
#
#
#
# Elastic Constant Matrix: (Units=GPa)
#
#
# Indices 1 2 3 4 5 6 
#
# 1 78.9875 21.6023 15.4565 -9.5851 -17.3035 25.0409
# 2 21.6023 114.5937 37.2598 9.0732 2.6374 32.6309
# 3 15.4565 37.2598 106.4044 1.7125 -3.1856 23.1638
# 4 -9.5851 9.0732 1.7125 33.6324 13.8445 -0.0918
# 5 -17.3035 2.6374 -3.1856 13.8445 41.2827 -2.7194
# 6 25.0409 32.6309 23.1638 -0.0918 -2.7194 41.8567
#
#
#
# Elastic Compliance Matrix: (Units=1/GPa)
#
#
# Indices 1 2 3 4 5 6 
#
# 1 0.017509 -0.001002 -0.000042 0.002834 0.005837 -0.009285
# 2 -0.001002 0.012126 -0.002427 -0.003109 -0.000838 -0.007572
# 3 -0.000042 -0.002427 0.011204 -0.000275 0.000815 -0.004230
# 4 0.002834 -0.003109 -0.000275 0.035762 -0.010610 0.000269
# 5 0.005837 -0.000838 0.000815 -0.010610 0.030256 -0.001348
# 6 -0.009285 -0.007572 -0.004230 0.000269 -0.001348 0.037603
#
#
# Mechanical properties :
#
#
# Convention : Reuss Voigt Hill
#
# Bulk Modulus (GPa) = 29.50169 49.84699 39.67434
# Shear Modulus (GPa) = 30.73125 38.39882 34.56503
#
# Velocity S-wave (km/s) = 3.65674 4.08755 3.87813
# Velocity P-wave (km/s) = 5.53767 6.63075 6.10871
#
# Compressibility (1/GPa) = 0.03389636
#
# Stress axis : x y z
#
# Youngs Moduli (GPa) = 57.11464 82.46615 89.25367
#
# Poissons Ratio (x) = 0.08261 0.00376
# Poissons Ratio (y) = 0.05721 0.21665
# Poissons Ratio (z) = 0.00241 0.20018
#
# Static dielectric constant tensor:
#      x y z
#    x 1.854270 0.028230 0.018060 
#    y 0.028230 1.963780 0.078110 
#    z 0.018060 0.078110 1.923180 
# 
# From -- ./inp_files/532611.got.cif
#   From: 2010.05.17/outbox.cif.g08.bks.cpg/sg2_267_cif.got.tgz:532611.got - 2010.06.03 11:33:40.
