data_PCOD9009481
_publ_section_title
;
Structure prediction by ZEFSAII (Michael W. Deem and Ramdas Pophale) SiO2 
 PCOD9009481
Probable space group: P -1
;
_chemical_formula_sum "Si O2"
_cell_formula_units_Z 14
_cell_length_a 15.700447
_cell_length_b 11.755413
_cell_length_c 7.597250
_cell_angle_alpha 71.385232
_cell_angle_beta 50.900776
_cell_angle_gamma 37.445528
_cell_volume 610.711397
_symmetry_space_group_name_H-M "P -1"
_symmetry_group_IT_number 2
_symmetry_cell_setting 'triclinic'
loop_
_space_group_symop_operation_xyz
x,y,z
-x,-y,-z
loop_
_atom_site_type_symbol
_atom_site_label
_atom_site_fract_x
_atom_site_fract_y
_atom_site_fract_z
Si Si1 0.329361 0.629536 0.025396
Si Si2 0.859850 0.954246 0.893089
Si Si3 0.138307 0.304750 0.033106
Si Si4 0.601886 0.789468 0.031893
Si Si5 0.830271 0.223607 0.198861
Si Si6 0.085090 0.622414 0.389413
Si Si7 0.757378 0.053642 0.570297
O O1 0.204807 0.635853 0.276933
O O2 0.254588 0.831028 0.998126
O O3 0.500000 0.500000 0.000000
O O4 0.303305 0.609997 0.862885
O O5 0.786127 0.885404 0.055530
O O6 0.063176 0.781863 0.802680
O O7 0.837758 0.994710 0.692238
O O8 0.021623 0.357478 0.328845
O O9 0.298704 0.255073 0.899580
O O10 0.000000 0.500000 0.000000
O O11 0.437627 0.839343 0.229513
O O12 0.768082 0.593954 0.789313
O O13 0.500000 0.000000 0.000000
O O14 0.735625 0.203970 0.446600
O O15 0.000000 0.000000 0.000000
O O16 0.917710 0.827440 0.387660
#
# Coordination Sequence:
#
# PCOD9009481 Si02
#       7
#     2   2   2   2   2   2   2
#     4  11  24  41  69 108 141 176 236 298 356 424
#     4  10  21  42  68 100 140 182 230 282 363 410
#     4  11  27  45  71 103 143 193 237 294 346 432
#     4  12  25  45  69 103 135 191 247 278 349 427
#     4  10  21  39  69 104 133 188 228 283 364 423
#     4  11  24  45  73  99 141 189 231 299 364 408
#     4  11  22  43  76 101 142 188 233 301 353 416
#
# _framework density 22.924084000000001
#
# number of rings (size 3 to 8) (size 9 to 14) (size 15 to 20)
#    0.000    1.143    5.714    1.714    4.000    1.143 
#    0.000    3.571    0.000    0.000    0.000    0.000 
#    0.000    0.000    0.000    0.000    0.000    0.000 
#
# Total GULP energy -78008.923669 kJ/mol
# GULP energy per Si atom -5572.065976 kJ/mol
# Density = 2.287191 g / cm^3
# Si number density = 22.924084 Si / 1000 Ang^3
#
#
#
# Elastic Constant Matrix: (Units=GPa)
#
#
# Indices 1 2 3 4 5 6 
#
# 1 147.6808 33.6249 35.8801 1.3657 -20.7692 -44.4189
# 2 33.6249 100.2567 -1.4870 16.8265 6.8797 -27.1683
# 3 35.8801 -1.4870 43.0613 0.7560 -21.5162 -19.7362
# 4 1.3657 16.8265 0.7560 39.6380 -3.4492 8.5900
# 5 -20.7692 6.8797 -21.5162 -3.4492 21.1236 7.8595
# 6 -44.4189 -27.1683 -19.7362 8.5900 7.8595 55.2535
#
#
#
# Elastic Compliance Matrix: (Units=1/GPa)
#
#
# Indices 1 2 3 4 5 6 
#
# 1 0.010601 -0.002680 -0.003880 0.000245 0.005526 0.004995
# 2 -0.002680 0.015788 0.001633 -0.009619 -0.011133 0.009271
# 3 -0.003880 0.001633 0.055480 0.000288 0.048271 0.010590
# 4 0.000245 -0.009619 0.000288 0.032935 0.013302 -0.011442
# 5 0.005526 -0.011133 0.048271 0.013302 0.108205 -0.001249
# 6 0.004995 0.009271 0.010590 -0.011442 -0.001249 0.032412
#
#
# Mechanical properties :
#
#
# Convention : Reuss Voigt Hill
#
# Bulk Modulus (GPa) = 13.88566 47.44832 30.66699
# Shear Modulus (GPa) = 17.28428 38.06840 27.67634
#
# Velocity S-wave (km/s) = 2.74885 4.07950 3.47840
# Velocity P-wave (km/s) = 4.01812 6.55231 5.43498
#
# Compressibility (1/GPa) = 0.07201672
#
# Stress axis : x y z
#
# Youngs Moduli (GPa) = 94.32717 63.33865 18.02445
#
# Poissons Ratio (x) = 0.16973 0.06993
# Poissons Ratio (y) = 0.25278 -0.02944
# Poissons Ratio (z) = 0.36598 -0.10345
#
# Static dielectric constant tensor:
#      x y z
#    x 1.943350 0.065110 0.114830 
#    y 0.065110 1.901470 0.020730 
#    z 0.114830 0.020730 1.911620 
# 
# From -- ./inp_files/306900.got.cif
#   From: 2010.05.17/outbox.cif.g08.bks.cpg/sg2_154_cif.got.tgz:306900.got - 2010.06.03 11:33:40.
