data_PCOD9009799
_publ_section_title
;
Structure prediction by ZEFSAII (Michael W. Deem and Ramdas Pophale) SiO2 
 PCOD9009799
Probable space group: P -1
;
_chemical_formula_sum "Si O2"
_cell_formula_units_Z 16
_cell_length_a 11.830288
_cell_length_b 14.699337
_cell_length_c 8.982599
_cell_angle_alpha 51.074858
_cell_angle_beta 126.564175
_cell_angle_gamma 135.227883
_cell_volume 823.313521
_symmetry_space_group_name_H-M "P -1"
_symmetry_group_IT_number 2
_symmetry_cell_setting 'triclinic'
loop_
_space_group_symop_operation_xyz
x,y,z
-x,-y,-z
loop_
_atom_site_type_symbol
_atom_site_label
_atom_site_fract_x
_atom_site_fract_y
_atom_site_fract_z
Si Si1 0.011074 0.039327 0.797796
Si Si2 0.068692 0.216422 0.203474
Si Si3 0.351018 0.082927 0.334327
Si Si4 0.385715 0.595893 0.398110
Si Si5 0.736817 0.205838 0.977857
Si Si6 0.414366 0.373002 0.175158
Si Si7 0.476201 0.016828 0.209656
Si Si8 0.263302 0.287434 0.574043
O O1 0.170609 0.190081 0.739649
O O2 0.007099 0.922551 0.811377
O O3 0.837240 0.029442 0.646481
O O4 0.000000 0.000000 0.000000
O O5 0.234354 0.338904 0.125354
O O6 0.147257 0.200456 0.433131
O O7 0.926712 0.247363 0.094678
O O8 0.376446 0.232031 0.215148
O O9 0.391892 0.061676 0.220809
O O10 0.466518 0.068132 0.558819
O O11 0.287830 0.672843 0.224079
O O12 0.466508 0.602782 0.615451
O O13 0.278724 0.434298 0.438515
O O14 0.549620 0.675299 0.339739
O O15 0.649431 0.083053 0.913008
O O16 0.633225 0.141619 0.115790
O O17 0.500000 0.500000 0.000000
#
# Coordination Sequence:
#
# PCOD9009799 Si02
#       8
#     2   2   2   2   2   2   2   2
#     4  11  23  36  64  92 124 156 209 260 303 353
#     4  10  23  40  62  94 119 159 207 254 310 355
#     4  10  21  40  59  93 120 163 205 247 313 362
#     4  10  23  40  64  90 121 168 210 243 306 375
#     4  11  22  39  63  91 123 158 205 253 305 360
#     4  10  22  42  65  87 127 164 205 252 308 371
#     4  10  22  36  63  88 128 159 198 255 309 364
#     4  10  23  41  61  88 126 162 208 251 301 369
#
# _framework density 19.433665000000001
#
# number of rings (size 3 to 8) (size 9 to 14) (size 15 to 20)
#    0.000    1.750    1.250    1.875    8.750    2.500 
#    0.000    3.125    0.000    0.000    0.000    0.000 
#    0.000    0.000    0.000    0.000    0.000    0.000 
#
# Total GULP energy -89356.550225 kJ/mol
# GULP energy per Si atom -5584.784389 kJ/mol
# Density = 1.938943 g / cm^3
# Si number density = 19.433665 Si / 1000 Ang^3
#
#
#
# Elastic Constant Matrix: (Units=GPa)
#
#
# Indices 1 2 3 4 5 6 
#
# 1 105.0819 29.9328 43.3315 -19.1323 -0.9474 12.6687
# 2 29.9328 64.7353 30.3752 -10.1033 -6.8940 6.7730
# 3 43.3315 30.3752 61.5925 -15.5258 -6.6149 13.6440
# 4 -19.1323 -10.1033 -15.5258 23.6605 5.0656 -11.8935
# 5 -0.9474 -6.8940 -6.6149 5.0656 34.2180 0.0983
# 6 12.6687 6.7730 13.6440 -11.8935 0.0983 29.2669
#
#
#
# Elastic Compliance Matrix: (Units=1/GPa)
#
#
# Indices 1 2 3 4 5 6 
#
# 1 0.014484 -0.002364 -0.007801 0.006386 -0.002530 0.000518
# 2 -0.002364 0.020745 -0.008082 0.001425 0.002339 0.000561
# 3 -0.007801 -0.008082 0.028716 0.005485 0.002912 -0.005921
# 4 0.006386 0.001425 0.005485 0.063472 -0.007930 0.020170
# 5 -0.002530 0.002339 0.002912 -0.007930 0.031374 -0.004132
# 6 0.000518 0.000561 -0.005921 0.020170 -0.004132 0.044785
#
#
# Mechanical properties :
#
#
# Convention : Reuss Voigt Hill
#
# Bulk Modulus (GPa) = 36.42575 48.74318 42.58447
# Shear Modulus (GPa) = 20.06256 25.94710 23.00483
#
# Velocity S-wave (km/s) = 3.21652 3.65795 3.44432
# Velocity P-wave (km/s) = 5.70780 6.55569 6.14639
#
# Compressibility (1/GPa) = 0.02745311
#
# Stress axis : x y z
#
# Youngs Moduli (GPa) = 69.04254 48.20323 34.82359
#
# Poissons Ratio (x) = 0.11395 0.27164
# Poissons Ratio (y) = 0.16321 0.28143
# Poissons Ratio (z) = 0.53857 0.38956
#
# Static dielectric constant tensor:
#      x y z
#    x 1.707030 0.010370 0.003450 
#    y 0.010370 1.678520 0.034690 
#    z 0.003450 0.034690 1.705550 
# 
# From -- ./inp_files/185985.got.cif
#   From: 2010.05.17/outbox.cif.g08.bks.cpg/sg2_93_cif.got.tgz:185985.got - 2010.06.03 11:33:40.
