data_PCOD9009093
_publ_section_title
;
Structure prediction by ZEFSAII (Michael W. Deem and Ramdas Pophale) SiO2 
 PCOD9009093
Probable space group: P -1
;
_chemical_formula_sum "Si O2"
_cell_formula_units_Z 14
_cell_length_a 15.319662
_cell_length_b 8.904085
_cell_length_c 12.040705
_cell_angle_alpha 43.674303
_cell_angle_beta 132.536034
_cell_angle_gamma 149.981417
_cell_volume 561.494807
_symmetry_space_group_name_H-M "P -1"
_symmetry_group_IT_number 2
_symmetry_cell_setting 'triclinic'
loop_
_space_group_symop_operation_xyz
x,y,z
-x,-y,-z
loop_
_atom_site_type_symbol
_atom_site_label
_atom_site_fract_x
_atom_site_fract_y
_atom_site_fract_z
Si Si1 0.178545 0.305431 0.047079
Si Si2 0.538391 0.877354 0.005316
Si Si3 0.739429 0.982889 0.570239
Si Si4 0.391407 0.510689 0.643248
Si Si5 0.054172 0.356554 0.468554
Si Si6 0.011353 0.561640 0.105946
Si Si7 0.395913 0.151027 0.142066
O O1 0.232403 0.193969 0.237980
O O2 0.336718 0.553109 0.967272
O O3 0.146266 0.489131 0.980639
O O4 0.000000 0.000000 0.000000
O O5 0.617799 0.042680 0.865849
O O6 0.617037 0.759774 0.187170
O O7 0.500000 0.000000 0.000000
O O8 0.835288 0.314894 0.538787
O O9 0.862114 0.095593 0.506650
O O10 0.523582 0.717465 0.538516
O O11 0.197217 0.354764 0.572999
O O12 0.509797 0.779836 0.700137
O O13 0.010385 0.372555 0.297444
O O14 0.192092 0.928669 0.097951
O O15 0.000000 0.500000 0.000000
O O16 0.500000 0.500000 0.000000
#
# Coordination Sequence:
#
# PCOD9009093 Si02
#       7
#     2   2   2   2   2   2   2
#     4  11  21  41  68  97 133 177 240 284 334 416
#     4  10  22  39  66 101 140 185 226 283 356 416
#     4  10  22  39  69 107 135 179 238 302 344 405
#     4  10  21  41  71 103 138 178 246 290 345 421
#     4  11  23  41  70 106 141 184 231 299 359 405
#     4  12  25  43  67 101 142 181 229 287 354 427
#     4  10  21  39  67 102 129 182 233 287 340 405
#
# _framework density 24.933444000000001
#
# number of rings (size 3 to 8) (size 9 to 14) (size 15 to 20)
#    0.000    1.429    2.857    3.000    6.000    0.000 
#    0.000    0.714    3.143    2.571    0.000    0.000 
#    0.000    0.000    0.000    0.000    0.000    0.000 
#
# Total GULP energy -78043.172229 kJ/mol
# GULP energy per Si atom -5574.512302 kJ/mol
# Density = 2.487669 g / cm^3
# Si number density = 24.933444 Si / 1000 Ang^3
#
#
#
# Elastic Constant Matrix: (Units=GPa)
#
#
# Indices 1 2 3 4 5 6 
#
# 1 235.6698 36.1988 67.2080 7.9475 16.2380 7.7317
# 2 36.1988 58.2709 12.7395 14.8701 2.8225 12.0550
# 3 67.2080 12.7395 63.6996 5.9371 13.4350 -4.2652
# 4 7.9475 14.8701 5.9371 19.3427 -1.4703 -2.2555
# 5 16.2380 2.8225 13.4350 -1.4703 49.2410 -7.5210
# 6 7.7317 12.0550 -4.2652 -2.2555 -7.5210 43.7100
#
#
#
# Elastic Compliance Matrix: (Units=1/GPa)
#
#
# Indices 1 2 3 4 5 6 
#
# 1 0.006514 -0.002730 -0.006437 0.001252 -0.000354 -0.001024
# 2 -0.002730 0.025758 -0.000505 -0.019638 -0.002258 -0.008072
# 3 -0.006437 -0.000505 0.024048 -0.004348 -0.004128 0.002690
# 4 0.001252 -0.019638 -0.004348 0.069106 0.005377 0.009262
# 5 -0.000354 -0.002258 -0.004128 0.005377 0.022519 0.004435
# 6 -0.001024 -0.008072 0.002690 0.009262 0.004435 0.026789
#
#
# Mechanical properties :
#
#
# Convention : Reuss Voigt Hill
#
# Bulk Modulus (GPa) = 27.04516 65.54812 46.29664
# Shear Modulus (GPa) = 24.22434 38.55834 31.39134
#
# Velocity S-wave (km/s) = 3.12037 3.93676 3.55210
# Velocity P-wave (km/s) = 4.88393 6.85641 5.95244
#
# Compressibility (1/GPa) = 0.03697520
#
# Stress axis : x y z
#
# Youngs Moduli (GPa) = 153.51237 38.82239 41.58367
#
# Poissons Ratio (x) = 0.10597 0.26769
# Poissons Ratio (y) = 0.41904 0.02102
# Poissons Ratio (z) = 0.98823 0.01962
#
# Static dielectric constant tensor:
#      x y z
#    x 2.112600 -0.010460 0.010640 
#    y -0.010460 2.194620 -0.019170 
#    z 0.010640 -0.019170 1.913040 
# 
# From -- ./inp_files/446826.got.cif
#   From: 2010.05.17/outbox.cif.g08.bks.cpg/sg2_224_cif.got.tgz:446826.got - 2010.06.03 11:33:40.
