data_PCOD9009629
_publ_section_title
;
Structure prediction by ZEFSAII (Michael W. Deem and Ramdas Pophale) SiO2 
 PCOD9009629
Probable space group: P -1
;
_chemical_formula_sum "Si O2"
_cell_formula_units_Z 16
_cell_length_a 19.788663
_cell_length_b 11.468938
_cell_length_c 5.064861
_cell_angle_alpha 109.096862
_cell_angle_beta 60.566069
_cell_angle_gamma 144.311568
_cell_volume 578.143350
_symmetry_space_group_name_H-M "P -1"
_symmetry_group_IT_number 2
_symmetry_cell_setting 'triclinic'
loop_
_space_group_symop_operation_xyz
x,y,z
-x,-y,-z
loop_
_atom_site_type_symbol
_atom_site_label
_atom_site_fract_x
_atom_site_fract_y
_atom_site_fract_z
Si Si1 0.751377 0.920490 0.149652
Si Si2 0.970683 0.377033 0.211790
Si Si3 0.652391 0.423135 0.320600
Si Si4 0.322018 0.784517 0.228203
Si Si5 0.881944 0.836249 0.908454
Si Si6 0.579998 0.699012 0.818442
Si Si7 0.514076 0.859700 0.161819
Si Si8 0.859671 0.584097 0.391983
O O1 0.646140 0.753241 0.452425
O O2 0.843876 0.920058 0.920738
O O3 0.689633 0.871578 0.947452
O O4 0.833263 0.138121 0.268191
O O5 0.000000 0.500000 0.500000
O O6 0.064010 0.375040 0.972936
O O7 0.000000 0.500000 0.000000
O O8 0.510364 0.230170 0.569786
O O9 0.731432 0.493288 0.488479
O O10 0.672952 0.328136 0.044789
O O11 0.749402 0.641090 0.169831
O O12 0.434367 0.886163 0.291970
O O13 0.191700 0.602187 0.494643
O O14 0.354366 0.934731 0.079033
O O15 0.083434 0.237293 0.398877
O O16 0.000000 0.000000 0.000000
O O17 0.500000 0.500000 0.000000
O O18 0.488041 0.699524 0.930173
#
# Coordination Sequence:
#
# PCOD9009629 Si02
#       8
#     2   2   2   2   2   2   2   2
#     4  12  30  51  77 119 155 217 271 321 409 483
#     4  12  30  52  79 112 161 204 263 328 405 492
#     4  10  21  39  71 105 145 189 259 322 386 458
#     4   9  21  40  71 110 143 196 262 327 383 468
#     4  11  26  45  80 109 155 195 268 334 398 472
#     4  12  29  49  77 110 166 214 265 325 404 487
#     4  10  22  41  68 104 150 199 261 319 390 461
#     4  10  25  45  77 112 147 200 253 332 407 465
#
# _framework density 27.674797000000002
#
# number of rings (size 3 to 8) (size 9 to 14) (size 15 to 20)
#    0.000    1.250    0.000    3.000   17.500    2.000 
#    0.000    0.000    0.000    0.000    0.000    0.000 
#    0.000    0.000    0.000    0.000    0.000    0.000 
#
# Total GULP energy -89214.569761 kJ/mol
# GULP energy per Si atom -5575.910610 kJ/mol
# Density = 2.761181 g / cm^3
# Si number density = 27.674797 Si / 1000 Ang^3
#
#
#
# Elastic Constant Matrix: (Units=GPa)
#
#
# Indices 1 2 3 4 5 6 
#
# 1 105.9513 31.5167 36.7304 5.9200 -8.8308 -10.8502
# 2 31.5167 155.0919 38.0834 0.6053 6.9742 -17.5668
# 3 36.7304 38.0834 180.0608 -12.4856 2.2186 -7.0079
# 4 5.9200 0.6053 -12.4856 45.0222 2.1483 14.7731
# 5 -8.8308 6.9742 2.2186 2.1483 48.1616 4.0524
# 6 -10.8502 -17.5668 -7.0079 14.7731 4.0524 46.9358
#
#
#
# Elastic Compliance Matrix: (Units=1/GPa)
#
#
# Indices 1 2 3 4 5 6 
#
# 1 0.011242 -0.001589 -0.002096 -0.002942 0.002316 0.002417
# 2 -0.001589 0.007441 -0.001198 -0.001036 -0.001494 0.002694
# 3 -0.002096 -0.001198 0.006375 0.002302 -0.000552 -0.000658
# 4 -0.002942 -0.001036 0.002302 0.026213 -0.000916 -0.008896
# 5 0.002316 -0.001494 -0.000552 -0.000916 0.021612 -0.001684
# 6 0.002417 0.002694 -0.000658 -0.008896 -0.001684 0.025720
#
#
# Mechanical properties :
#
#
# Convention : Reuss Voigt Hill
#
# Bulk Modulus (GPa) = 65.38795 72.64055 69.01425
# Shear Modulus (GPa) = 44.06529 50.34216 47.20372
#
# Velocity S-wave (km/s) = 3.99463 4.26967 4.13444
# Velocity P-wave (km/s) = 6.70483 7.11419 6.91254
#
# Compressibility (1/GPa) = 0.01529334
#
# Stress axis : x y z
#
# Youngs Moduli (GPa) = 88.94906 134.38528 156.85181
#
# Poissons Ratio (x) = 0.21352 0.32872
# Poissons Ratio (y) = 0.14133 0.18796
# Poissons Ratio (z) = 0.18641 0.16104
#
# Static dielectric constant tensor:
#      x y z
#    x 9.315840 10.608820 -0.503570 
#    y 10.608820 18.314540 -0.961820 
#    z -0.503570 -0.961820 2.316420 
# 
# From -- ./inp_files/123733.got.cif
#   From: 2010.05.17/outbox.cif.g08.bks.cpg/sg2_62_cif.got.tgz:123733.got - 2010.06.03 11:33:40.
