data_PCOD9009943
_publ_section_title
;
Structure prediction by ZEFSAII (Michael W. Deem and Ramdas Pophale) SiO2 
 PCOD9009943
Probable space group: P -1
;
_chemical_formula_sum "Si O2"
_cell_formula_units_Z 14
_cell_length_a 9.192357
_cell_length_b 7.616153
_cell_length_c 18.284546
_cell_angle_alpha 126.322508
_cell_angle_beta 34.779185
_cell_angle_gamma 132.658088
_cell_volume 535.037004
_symmetry_space_group_name_H-M "P -1"
_symmetry_group_IT_number 2
_symmetry_cell_setting 'triclinic'
loop_
_space_group_symop_operation_xyz
x,y,z
-x,-y,-z
loop_
_atom_site_type_symbol
_atom_site_label
_atom_site_fract_x
_atom_site_fract_y
_atom_site_fract_z
Si Si1 0.839171 0.946402 0.878087
Si Si2 0.704524 0.338670 0.519329
Si Si3 0.593645 0.559028 0.059226
Si Si4 0.169839 0.695732 0.917940
Si Si5 0.456228 0.092075 0.713931
Si Si6 0.908554 0.944337 0.341400
Si Si7 0.296095 0.183019 0.363403
O O1 0.589936 0.701776 0.894908
O O2 0.944335 0.112325 0.803285
O O3 0.130624 0.948357 0.789171
O O4 0.736252 0.058695 0.015079
O O5 0.600510 0.258228 0.625639
O O6 0.903867 0.203960 0.389161
O O7 0.176400 0.380886 0.475489
O O8 0.419042 0.225154 0.562114
O O9 0.528784 0.748097 0.181478
O O10 0.500000 0.500000 0.000000
O O11 0.928278 0.661236 0.950991
O O12 0.431764 0.682872 0.767219
O O13 0.000000 0.500000 0.000000
O O14 0.598923 0.918265 0.636602
O O15 0.079831 0.972607 0.350919
#
# Coordination Sequence:
#
# PCOD9009943 Si02
#       7
#     2   2   2   2   2   2   2
#     4  10  21  40  61  85 125 166 195 243 307 353
#     4  10  23  45  62  86 125 157 200 255 300 353
#     4  11  22  37  57  85 125 163 196 242 298 359
#     4  11  23  37  58  92 126 156 199 248 295 358
#     4  10  23  40  61  92 123 156 202 250 298 357
#     4  10  22  41  65  87 117 162 204 247 301 358
#     4  12  23  38  64  92 119 159 203 248 302 355
#
# _framework density 26.166415000000001
#
# number of rings (size 3 to 8) (size 9 to 14) (size 15 to 20)
#    0.000    1.429    0.000    6.429    0.000    9.714 
#    0.000    6.429    0.000    0.000    0.000    0.000 
#    0.000    0.000    0.000    0.000    0.000    0.000 
#
# Total GULP energy -78449.835910 kJ/mol
# GULP energy per Si atom -5603.559708 kJ/mol
# Density = 2.610686 g / cm^3
# Si number density = 26.166415 Si / 1000 Ang^3
#
#
#
# Elastic Constant Matrix: (Units=GPa)
#
#
# Indices 1 2 3 4 5 6 
#
# 1 137.9922 24.3188 28.9820 7.2564 -5.5668 10.3178
# 2 24.3188 79.9423 18.6667 0.0756 -5.6018 10.2806
# 3 28.9820 18.6667 94.5572 -2.3731 2.5058 7.5488
# 4 7.2564 0.0756 -2.3731 33.6599 3.8295 -0.1275
# 5 -5.5668 -5.6018 2.5058 3.8295 42.9163 -5.5916
# 6 10.3178 10.2806 7.5488 -0.1275 -5.5916 46.7785
#
#
#
# Elastic Compliance Matrix: (Units=1/GPa)
#
#
# Indices 1 2 3 4 5 6 
#
# 1 0.008241 -0.001804 -0.002172 -0.002045 0.001018 -0.000955
# 2 -0.001804 0.013915 -0.002058 0.000043 0.001417 -0.002159
# 3 -0.002172 -0.002058 0.011817 0.001475 -0.001522 -0.001153
# 4 -0.002045 0.000043 0.001475 0.030605 -0.003087 -0.000082
# 5 0.001018 0.001417 -0.001522 -0.003087 0.024323 0.002608
# 6 -0.000955 -0.002159 -0.001153 -0.000082 0.002608 0.022560
#
#
# Mechanical properties :
#
#
# Convention : Reuss Voigt Hill
#
# Bulk Modulus (GPa) = 45.65105 50.71407 48.18256
# Shear Modulus (GPa) = 38.21759 40.70591 39.46175
#
# Velocity S-wave (km/s) = 3.82587 3.94846 3.88765
# Velocity P-wave (km/s) = 6.08282 6.34118 6.21334
#
# Compressibility (1/GPa) = 0.02190530
#
# Stress axis : x y z
#
# Youngs Moduli (GPa) = 121.34731 71.86377 84.62335
#
# Poissons Ratio (x) = 0.12962 0.18379
# Poissons Ratio (y) = 0.21887 0.17418
# Poissons Ratio (z) = 0.26355 0.14792
#
# Static dielectric constant tensor:
#      x y z
#    x 2.062280 -0.070820 0.001810 
#    y -0.070820 2.153230 0.032430 
#    z 0.001810 0.032430 2.021130 
# 
# From -- ./inp_files/455281.got.cif
#   From: 2010.05.17/outbox.cif.g08.bks.cpg/sg2_228_cif.got.tgz:455281.got - 2010.06.03 11:33:40.
