data_PCOD9009331
_publ_section_title
;
Structure prediction by ZEFSAII (Michael W. Deem and Ramdas Pophale) SiO2 
 PCOD9009331
Probable space group: P -1
;
_chemical_formula_sum "Si O2"
_cell_formula_units_Z 16
_cell_length_a 11.952282
_cell_length_b 18.875896
_cell_length_c 9.363013
_cell_angle_alpha 45.505314
_cell_angle_beta 124.396073
_cell_angle_gamma 150.543001
_cell_volume 734.786198
_symmetry_space_group_name_H-M "P -1"
_symmetry_group_IT_number 2
_symmetry_cell_setting 'triclinic'
loop_
_space_group_symop_operation_xyz
x,y,z
-x,-y,-z
loop_
_atom_site_type_symbol
_atom_site_label
_atom_site_fract_x
_atom_site_fract_y
_atom_site_fract_z
Si Si1 0.736126 0.873417 0.447389
Si Si2 0.364958 0.329925 0.568883
Si Si3 0.753978 0.903069 0.972888
Si Si4 0.286640 0.960999 0.030751
Si Si5 0.179478 0.748327 0.039673
Si Si6 0.953413 0.226777 0.375192
Si Si7 0.022290 0.561214 0.769364
Si Si8 0.534471 0.847770 0.620991
O O1 0.603624 0.703187 0.516443
O O2 0.751976 0.973653 0.204581
O O3 0.593156 0.831942 0.535338
O O4 0.000000 0.000000 0.500000
O O5 0.500000 0.500000 0.500000
O O6 0.383717 0.248789 0.804583
O O7 0.107535 0.221462 0.518077
O O8 0.772788 0.023973 0.883362
O O9 0.631119 0.833069 0.833462
O O10 0.000000 0.000000 0.000000
O O11 0.553676 0.089120 0.041977
O O12 0.153770 0.787885 0.116512
O O13 0.121132 0.597953 0.206773
O O14 0.037054 0.722056 0.850760
O O15 0.038359 0.360880 0.356123
O O16 0.690808 0.038816 0.472240
O O17 0.274468 0.711371 0.670625
O O18 0.000000 0.500000 0.000000
#
# Coordination Sequence:
#
# PCOD9009331 Si02
#       8
#     2   2   2   2   2   2   2   2
#     4  11  21  44  70  95 128 175 218 265 321 405
#     4  11  25  41  69  97 133 172 214 272 332 385
#     4  11  22  40  62  96 126 163 214 264 322 391
#     4  10  21  39  68  88 129 167 214 264 331 382
#     4  10  21  41  64  92 122 174 215 266 325 383
#     4  11  21  41  66  94 129 173 221 258 336 394
#     4  10  24  38  63  92 129 166 215 275 320 379
#     4  12  22  42  67  95 127 173 222 268 325 397
#
# _framework density 21.775041000000002
#
# number of rings (size 3 to 8) (size 9 to 14) (size 15 to 20)
#    0.000    1.250    3.750    2.625    7.000    0.000 
#    2.250    1.250    0.000    0.000    0.000    0.000 
#    0.000    0.000    0.000    0.000    0.000    0.000 
#
# Total GULP energy -89319.283435 kJ/mol
# GULP energy per Si atom -5582.455215 kJ/mol
# Density = 2.172548 g / cm^3
# Si number density = 21.775041 Si / 1000 Ang^3
#
#
#
# Elastic Constant Matrix: (Units=GPa)
#
#
# Indices 1 2 3 4 5 6 
#
# 1 95.0929 24.9884 4.7550 -14.7364 -6.3449 -34.0194
# 2 24.9884 85.1861 6.6268 -13.9921 0.3133 -38.9728
# 3 4.7550 6.6268 49.4216 4.1391 2.6621 -10.2541
# 4 -14.7364 -13.9921 4.1391 29.6712 1.3674 15.9540
# 5 -6.3449 0.3133 2.6621 1.3674 31.5775 -1.9321
# 6 -34.0194 -38.9728 -10.2541 15.9540 -1.9321 53.7697
#
#
#
# Elastic Compliance Matrix: (Units=1/GPa)
#
#
# Indices 1 2 3 4 5 6 
#
# 1 0.014075 0.000081 -0.000001 0.002377 0.003237 0.008375
# 2 0.000081 0.017645 0.000022 0.001686 0.000523 0.012363
# 3 -0.000001 0.000022 0.022074 -0.006260 -0.001221 0.006039
# 4 0.002377 0.001686 -0.006260 0.042630 -0.001541 -0.011172
# 5 0.003237 0.000523 -0.001221 -0.001541 0.032717 0.003827
# 6 0.008375 0.012363 0.006039 -0.011172 0.003827 0.037462
#
#
# Mechanical properties :
#
#
# Convention : Reuss Voigt Hill
#
# Bulk Modulus (GPa) = 18.51884 33.60455 26.06170
# Shear Modulus (GPa) = 27.11541 35.89236 31.50388
#
# Velocity S-wave (km/s) = 3.53264 4.06436 3.80779
# Velocity P-wave (km/s) = 5.01622 6.12303 5.59705
#
# Compressibility (1/GPa) = 0.05399905
#
# Stress axis : x y z
#
# Youngs Moduli (GPa) = 71.04702 56.67437 45.30189
#
# Poissons Ratio (x) = -0.00461 0.00004
# Poissons Ratio (y) = -0.00578 -0.00100
# Poissons Ratio (z) = 0.00006 -0.00124
#
# Static dielectric constant tensor:
#      x y z
#    x 1.748970 -0.047440 0.027360 
#    y -0.047440 1.811730 0.010860 
#    z 0.027360 0.010860 1.795630 
# 
# From -- ./inp_files/279110.got.cif
#   From: 2010.05.17/outbox.cif.g08.bks.cpg/sg2_140_cif.got.tgz:279110.got - 2010.06.03 11:33:40.
