data_PCOD9009172
_publ_section_title
;
Structure prediction by ZEFSAII (Michael W. Deem and Ramdas Pophale) SiO2 
 PCOD9009172
Probable space group: P -1
;
_chemical_formula_sum "Si O2"
_cell_formula_units_Z 16
_cell_length_a 10.906348
_cell_length_b 12.322912
_cell_length_c 8.959153
_cell_angle_alpha 129.337720
_cell_angle_beta 125.112801
_cell_angle_gamma 70.252130
_cell_volume 761.120745
_symmetry_space_group_name_H-M "P -1"
_symmetry_group_IT_number 2
_symmetry_cell_setting 'triclinic'
loop_
_space_group_symop_operation_xyz
x,y,z
-x,-y,-z
loop_
_atom_site_type_symbol
_atom_site_label
_atom_site_fract_x
_atom_site_fract_y
_atom_site_fract_z
Si Si1 0.858271 0.791628 0.905545
Si Si2 0.260020 0.741015 0.735962
Si Si3 0.189517 0.793778 0.062829
Si Si4 0.838696 0.024162 0.337256
Si Si5 0.677119 0.901646 0.617504
Si Si6 0.630177 0.552097 0.527026
Si Si7 0.512003 0.352702 0.794677
Si Si8 0.476489 0.047882 0.853197
O O1 0.807209 0.825635 0.731380
O O2 0.746472 0.667824 0.776418
O O3 0.032335 0.762194 0.004493
O O4 0.831223 0.928695 0.101413
O O5 0.170821 0.771836 0.851887
O O6 0.275805 0.578273 0.574667
O O7 0.195086 0.821992 0.618003
O O8 0.427932 0.804930 0.948637
O O9 0.318559 0.693959 0.119048
O O10 0.249585 0.954349 0.269282
O O11 0.702443 0.968777 0.299227
O O12 0.000000 0.000000 0.500000
O O13 0.590982 0.786563 0.352356
O O14 0.557203 0.952740 0.703393
O O15 0.500000 0.500000 0.500000
O O16 0.546828 0.619379 0.387761
O O17 0.500000 0.500000 0.000000
O O18 0.500000 0.000000 0.000000
#
# Coordination Sequence:
#
# PCOD9009172 Si02
#       8
#     2   2   2   2   2   2   2   2
#     4  11  23  41  63  96 127 172 210 267 331 386
#     4  10  21  41  65  89 125 175 211 261 324 391
#     4  11  22  42  64  95 133 160 220 271 324 380
#     4  11  23  38  61  96 128 161 215 275 322 373
#     4  10  21  39  67  94 127 173 214 267 323 387
#     4  11  25  44  70  89 130 178 220 257 330 395
#     4  11  24  43  64 102 129 172 223 266 312 387
#     4   9  17  36  64  88 124 162 220 256 317 376
#
# _framework density 21.021632
#
# number of rings (size 3 to 8) (size 9 to 14) (size 15 to 20)
#    0.000    1.500    5.000    1.500    7.000    0.500 
#    0.000    3.750    0.000    0.000    0.000    0.000 
#    0.000    0.000    0.000    0.000    0.000    0.000 
#
# Total GULP energy -89379.299253 kJ/mol
# GULP energy per Si atom -5586.206203 kJ/mol
# Density = 2.097379 g / cm^3
# Si number density = 21.021632 Si / 1000 Ang^3
#
#
#
# Elastic Constant Matrix: (Units=GPa)
#
#
# Indices 1 2 3 4 5 6 
#
# 1 94.2277 17.9338 18.8451 -5.6334 34.7959 -5.1991
# 2 17.9338 91.2550 23.3870 0.5468 22.7195 -17.0249
# 3 18.8451 23.3870 72.9320 -0.6076 17.3312 -10.3161
# 4 -5.6334 0.5468 -0.6076 33.6288 -4.5695 2.2881
# 5 34.7959 22.7195 17.3312 -4.5695 31.0346 -9.3517
# 6 -5.1991 -17.0249 -10.3161 2.2881 -9.3517 30.3627
#
#
#
# Elastic Compliance Matrix: (Units=1/GPa)
#
#
# Indices 1 2 3 4 5 6 
#
# 1 0.018609 0.001496 -0.000336 0.000217 -0.022671 -0.003088
# 2 0.001496 0.014583 -0.002015 -0.001713 -0.010038 0.004786
# 3 -0.000336 -0.002015 0.016363 -0.000798 -0.006689 0.002372
# 4 0.000217 -0.001713 -0.000798 0.030647 0.005416 -0.001836
# 5 -0.022671 -0.010038 -0.006689 0.005416 0.072585 0.010165
# 6 -0.003088 0.004786 0.002372 -0.001836 0.010165 0.039165
#
#
# Mechanical properties :
#
#
# Convention : Reuss Voigt Hill
#
# Bulk Modulus (GPa) = 20.90061 42.08294 31.49178
# Shear Modulus (GPa) = 23.85386 32.22182 28.03784
#
# Velocity S-wave (km/s) = 3.37223 3.91934 3.65603
# Velocity P-wave (km/s) = 5.01264 6.36741 5.73021
#
# Compressibility (1/GPa) = 0.04784549
#
# Stress axis : x y z
#
# Youngs Moduli (GPa) = 53.73624 68.57358 61.11474
#
# Poissons Ratio (x) = -0.10257 0.02052
# Poissons Ratio (y) = -0.08038 0.12313
# Poissons Ratio (z) = 0.01804 0.13816
#
# Static dielectric constant tensor:
#      x y z
#    x 1.788750 -0.010100 -0.001910 
#    y -0.010100 1.870760 -0.020290 
#    z -0.001910 -0.020290 1.789970 
# 
# From -- ./inp_files/263647.got.cif
#   From: 2010.05.17/outbox.cif.g08.bks.cpg/sg2_132_cif.got.tgz:263647.got - 2010.06.03 11:33:40.
