data_PCOD9009959
_publ_section_title
;
Structure prediction by ZEFSAII (Michael W. Deem and Ramdas Pophale) SiO2 
 PCOD9009959
Probable space group: P -1
;
_chemical_formula_sum "Si O2"
_cell_formula_units_Z 16
_cell_length_a 8.099674
_cell_length_b 24.534042
_cell_length_c 12.390570
_cell_angle_alpha 159.775027
_cell_angle_beta 65.308821
_cell_angle_gamma 115.999240
_cell_volume 764.904722
_symmetry_space_group_name_H-M "P -1"
_symmetry_group_IT_number 2
_symmetry_cell_setting 'triclinic'
loop_
_space_group_symop_operation_xyz
x,y,z
-x,-y,-z
loop_
_atom_site_type_symbol
_atom_site_label
_atom_site_fract_x
_atom_site_fract_y
_atom_site_fract_z
Si Si1 0.056401 0.242273 0.997445
Si Si2 0.183058 0.124839 0.157167
Si Si3 0.271303 0.573676 0.636741
Si Si4 0.108498 0.067855 0.442164
Si Si5 0.662004 0.566434 0.417496
Si Si6 0.505547 0.063318 0.237912
Si Si7 0.279948 0.610375 0.146709
Si Si8 0.916351 0.694971 0.290457
O O1 0.865200 0.303142 0.129404
O O2 0.188081 0.398699 0.289399
O O3 0.129239 0.153679 0.711242
O O4 0.020237 0.101351 0.832570
O O5 0.192781 0.272818 0.346311
O O6 0.210737 0.213775 0.429509
O O7 0.349325 0.028958 0.910972
O O8 0.000000 0.000000 0.000000
O O9 0.471331 0.614729 0.603824
O O10 0.280667 0.546816 0.713501
O O11 0.304469 0.032834 0.284551
O O12 0.037847 0.196316 0.622527
O O13 0.642435 0.472531 0.133819
O O14 0.581802 0.249726 0.578399
O O15 0.500000 0.000000 0.000000
O O16 0.099418 0.675452 0.270115
O O17 0.198904 0.479405 0.014377
#
# Coordination Sequence:
#
# PCOD9009959 Si02
#       8
#     2   2   2   2   2   2   2   2
#     4  10  23  41  63  88 125 164 206 263 310 376
#     4  11  22  40  61  91 127 166 206 257 309 375
#     4  10  21  42  63  94 116 163 215 258 316 358
#     4  11  23  41  60  91 127 164 209 255 320 370
#     4  10  22  39  66  90 124 160 211 263 306 370
#     4  12  24  39  60  94 130 165 202 254 313 373
#     4  10  22  40  61  90 126 164 209 255 304 379
#     4  10  21  40  61  87 122 170 209 247 311 371
#
# _framework density 20.917639000000001
#
# number of rings (size 3 to 8) (size 9 to 14) (size 15 to 20)
#    0.000    1.500    2.500    2.250    1.750    0.500 
#    6.750    0.000    0.000    8.250    0.000    0.000 
#    0.000    0.000    0.000    0.000    0.000    0.000 
#
# Total GULP energy -89309.432050 kJ/mol
# GULP energy per Si atom -5581.839503 kJ/mol
# Density = 2.087003 g / cm^3
# Si number density = 20.917639 Si / 1000 Ang^3
#
#
#
# Elastic Constant Matrix: (Units=GPa)
#
#
# Indices 1 2 3 4 5 6 
#
# 1 31.7586 27.4994 7.6688 -0.0620 -6.5835 3.0893
# 2 27.4994 123.9634 50.6396 23.3592 0.3954 3.1993
# 3 7.6688 50.6396 88.5023 -0.2721 8.7695 2.3542
# 4 -0.0620 23.3592 -0.2721 34.1648 3.4975 -6.4790
# 5 -6.5835 0.3954 8.7695 3.4975 33.1556 -4.0825
# 6 3.0893 3.1993 2.3542 -6.4790 -4.0825 21.6912
#
#
#
# Elastic Compliance Matrix: (Units=1/GPa)
#
#
# Indices 1 2 3 4 5 6 
#
# 1 0.042735 -0.011825 0.002413 0.007247 0.007088 -0.001105
# 2 -0.011825 0.016477 -0.008405 -0.012040 0.000539 -0.003329
# 3 0.002413 -0.008405 0.016349 0.006368 -0.004392 0.000197
# 4 0.007247 -0.012040 0.006368 0.040038 -0.002914 0.011463
# 5 0.007088 0.000539 -0.004392 -0.002914 0.033628 0.004847
# 6 -0.001105 -0.003329 0.000197 0.011463 0.004847 0.051065
#
#
# Mechanical properties :
#
#
# Convention : Reuss Voigt Hill
#
# Bulk Modulus (GPa) = 25.04659 46.20444 35.62551
# Shear Modulus (GPa) = 20.06137 28.36342 24.21240
#
# Velocity S-wave (km/s) = 3.10024 3.68633 3.40591
# Velocity P-wave (km/s) = 4.98148 6.34471 5.70397
#
# Compressibility (1/GPa) = 0.03992560
#
# Stress axis : x y z
#
# Youngs Moduli (GPa) = 23.39976 60.69218 61.16675
#
# Poissons Ratio (x) = 0.71771 -0.14757
# Poissons Ratio (y) = 0.27671 0.51410
# Poissons Ratio (z) = -0.05645 0.51011
#
# Static dielectric constant tensor:
#      x y z
#    x 1.770580 -0.020310 -0.014460 
#    y -0.020310 1.776580 0.023010 
#    z -0.014460 0.023010 1.763610 
# 
# From -- ./inp_files/353790.got.cif
#   From: 2010.05.17/outbox.cif.g08.bks.cpg/sg2_177_cif.got.tgz:353790.got - 2010.06.03 11:33:40.
