data_PCOD9009500
_publ_section_title
;
Structure prediction by ZEFSAII (Michael W. Deem and Ramdas Pophale) SiO2 
 PCOD9009500
Probable space group: P -1
;
_chemical_formula_sum "Si O2"
_cell_formula_units_Z 14
_cell_length_a 9.862124
_cell_length_b 14.266528
_cell_length_c 5.639252
_cell_angle_alpha 75.371700
_cell_angle_beta 57.484147
_cell_angle_gamma 87.664225
_cell_volume 642.965970
_symmetry_space_group_name_H-M "P -1"
_symmetry_group_IT_number 2
_symmetry_cell_setting 'triclinic'
loop_
_space_group_symop_operation_xyz
x,y,z
-x,-y,-z
loop_
_atom_site_type_symbol
_atom_site_label
_atom_site_fract_x
_atom_site_fract_y
_atom_site_fract_z
Si Si1 0.127629 0.455174 0.079359
Si Si2 0.430160 0.957582 0.842891
Si Si3 0.051056 0.952555 0.231414
Si Si4 0.328054 0.325023 0.673723
Si Si5 0.605196 0.414228 0.014504
Si Si6 0.890630 0.731781 0.477943
Si Si7 0.461269 0.242896 0.006498
O O1 0.059675 0.360463 0.362451
O O2 0.277391 0.414318 0.823814
O O3 0.217043 0.540098 0.107860
O O4 0.000000 0.500000 0.000000
O O5 0.465056 0.846330 0.895500
O O6 0.500000 0.000000 0.500000
O O7 0.242561 0.966049 0.028195
O O8 0.500000 0.000000 0.000000
O O9 0.989057 0.836443 0.361141
O O10 0.000000 0.000000 0.500000
O O11 0.000000 0.000000 0.000000
O O12 0.493088 0.361133 0.358300
O O13 0.152004 0.294614 0.737417
O O14 0.388576 0.234731 0.816917
O O15 0.590007 0.337970 0.861209
O O16 0.500000 0.500000 0.000000
O O17 0.704383 0.740897 0.716869
#
# Coordination Sequence:
#
# PCOD9009500 Si02
#       7
#     2   2   2   2   2   2   2
#     4  11  24  39  62  97 142 180 233 289 351 424
#     4  12  28  50  76 112 144 187 250 307 364 436
#     4  12  28  50  78 107 149 192 237 307 384 444
#     4  10  21  39  69  91 135 182 231 286 353 420
#     4  11  20  41  63  96 131 186 234 277 350 423
#     4  10  23  43  66 100 136 183 235 289 371 428
#     4  10  23  40  71  99 136 181 244 295 350 432
#
# _framework density 21.774093000000001
#
# number of rings (size 3 to 8) (size 9 to 14) (size 15 to 20)
#    0.000    1.143    4.286    3.000   10.000    2.857 
#    0.000    0.000    0.000    0.000    0.000    0.000 
#    0.000    0.000    0.000    0.000    0.000    0.000 
#
# Total GULP energy -78013.569449 kJ/mol
# GULP energy per Si atom -5572.397818 kJ/mol
# Density = 2.172453 g / cm^3
# Si number density = 21.774093 Si / 1000 Ang^3
#
#
#
# Elastic Constant Matrix: (Units=GPa)
#
#
# Indices 1 2 3 4 5 6 
#
# 1 199.6555 78.5752 63.3567 -24.4437 14.1780 -6.5007
# 2 78.5752 108.4632 55.6313 -23.1888 12.1492 8.7374
# 3 63.3567 55.6313 82.1281 -15.5606 7.3625 -2.4845
# 4 -24.4437 -23.1888 -15.5606 33.9716 -5.4889 -2.2497
# 5 14.1780 12.1492 7.3625 -5.4889 37.8135 -6.8562
# 6 -6.5007 8.7374 -2.4845 -2.2497 -6.8562 50.8533
#
#
#
# Elastic Compliance Matrix: (Units=1/GPa)
#
#
# Indices 1 2 3 4 5 6 
#
# 1 0.007735 -0.003765 -0.003012 0.001617 -0.000601 0.001479
# 2 -0.003765 0.017802 -0.008079 0.005028 -0.002745 -0.004082
# 3 -0.003012 -0.008079 0.020349 0.001848 0.000418 0.002135
# 4 0.001617 0.005028 0.001848 0.035424 0.002810 0.001379
# 5 -0.000601 -0.002745 0.000418 0.002810 0.028679 0.004406
# 6 0.001479 -0.004082 0.002135 0.001379 0.004406 0.021314
#
#
# Mechanical properties :
#
#
# Convention : Reuss Voigt Hill
#
# Bulk Modulus (GPa) = 61.82374 87.26369 74.54372
# Shear Modulus (GPa) = 30.04690 37.37326 33.71008
#
# Velocity S-wave (km/s) = 3.71878 4.14745 3.93895
# Velocity P-wave (km/s) = 6.84792 7.94349 7.41596
#
# Compressibility (1/GPa) = 0.01617502
#
# Stress axis : x y z
#
# Youngs Moduli (GPa) = 129.28589 56.17238 49.14153
#
# Poissons Ratio (x) = 0.21148 0.14800
# Poissons Ratio (y) = 0.48673 0.39703
# Poissons Ratio (z) = 0.38938 0.45383
#
# Static dielectric constant tensor:
#      x y z
#    x 1.758440 0.112670 -0.179310 
#    y 0.112670 1.871430 0.078920 
#    z -0.179310 0.078920 1.154650 
# 
# From -- ./inp_files/37134.got.cif
#   From: 2010.05.17/outbox.cif.g08.bks.cpg/sg2_19_cif.got.tgz:37134.got - 2010.06.03 11:33:40.
