data_PCOD9009880
_publ_section_title
;
Structure prediction by ZEFSAII (Michael W. Deem and Ramdas Pophale) SiO2 
 PCOD9009880
Probable space group: P -1
;
_chemical_formula_sum "Si O2"
_cell_formula_units_Z 13
_cell_length_a 8.487011
_cell_length_b 6.665715
_cell_length_c 17.956133
_cell_angle_alpha 54.649317
_cell_angle_beta 76.193884
_cell_angle_gamma 116.720054
_cell_volume 539.403990
_symmetry_space_group_name_H-M "P -1"
_symmetry_group_IT_number 2
_symmetry_cell_setting 'triclinic'
loop_
_space_group_symop_operation_xyz
x,y,z
-x,-y,-z
loop_
_atom_site_type_symbol
_atom_site_label
_atom_site_fract_x
_atom_site_fract_y
_atom_site_fract_z
Si Si1 0.340133 0.011360 0.560330
Si Si2 0.298984 0.450089 0.170857
Si Si3 0.972298 0.909622 0.858634
Si Si4 0.834086 0.135639 0.937937
Si Si5 0.000000 0.500000 0.000000
Si Si6 0.146093 0.373526 0.361116
Si Si7 0.438453 0.205289 0.676356
O O1 0.357623 0.005346 0.649301
O O2 0.452134 0.404779 0.441393
O O3 0.500000 0.000000 0.500000
O O4 0.065528 0.690619 0.631339
O O5 0.267688 0.371839 0.278104
O O6 0.112530 0.107373 0.209920
O O7 0.226281 0.656198 0.126576
O O8 0.571763 0.712561 0.060306
O O9 0.802652 0.499028 0.995092
O O10 0.993516 0.157141 0.858144
O O11 0.209502 0.994260 0.803485
O O12 0.943655 0.275073 0.977496
O O13 0.354235 0.703969 0.321615
O O14 0.000000 0.000000 0.500000
#
# Coordination Sequence:
#
# PCOD9009880 Si02
#       7
#     2   2   2   2   1   2   2
#     4  10  22  40  63  88 122 165 209 259 319 370
#     4  10  21  40  60  90 131 162 216 267 314 382
#     4  11  21  38  64  90 126 170 209 261 326 377
#     4  10  22  38  63  92 123 174 208 263 324 379
#     4  10  22  36  56  88 128 154 216 254 304 386
#     4  10  21  40  62  90 128 165 206 264 315 370
#     4  10  22  39  62  90 125 160 208 264 309 376
#
# _framework density 24.100673
#
# number of rings (size 3 to 8) (size 9 to 14) (size 15 to 20)
#    0.000    1.846    1.538    1.846    2.154    0.615 
#    0.000    4.615    0.000    0.000    0.000    0.000 
#    0.000    0.000    0.000    0.000    0.000    0.000 
#
# Total GULP energy -72446.133289 kJ/mol
# GULP energy per Si atom -5572.779484 kJ/mol
# Density = 2.404582 g / cm^3
# Si number density = 24.100673 Si / 1000 Ang^3
#
#
#
# Elastic Constant Matrix: (Units=GPa)
#
#
# Indices 1 2 3 4 5 6 
#
# 1 98.7512 84.0806 27.2947 13.0693 -28.1788 21.4451
# 2 84.0806 169.6559 34.3945 34.2659 -16.3629 13.8800
# 3 27.2947 34.3945 63.6609 17.6249 -10.5294 2.8355
# 4 13.0693 34.2659 17.6249 39.7363 1.5799 0.3246
# 5 -28.1788 -16.3629 -10.5294 1.5799 42.3609 -3.8544
# 6 21.4451 13.8800 2.8355 0.3246 -3.8544 46.3974
#
#
#
# Elastic Compliance Matrix: (Units=1/GPa)
#
#
# Indices 1 2 3 4 5 6 
#
# 1 0.023668 -0.009857 -0.003294 0.001819 0.010419 -0.006937
# 2 -0.009857 0.012053 -0.000744 -0.006759 -0.001753 0.000897
# 3 -0.003294 -0.000744 0.019960 -0.007247 0.002827 0.000811
# 4 0.001819 -0.006759 -0.007247 0.033776 -0.004369 0.001025
# 5 0.010419 -0.001753 0.002827 -0.004369 0.030554 -0.001895
# 6 -0.006937 0.000897 0.000811 0.001025 -0.001895 0.024276
#
#
# Mechanical properties :
#
#
# Convention : Reuss Voigt Hill
#
# Bulk Modulus (GPa) = 35.85255 69.28972 52.57113
# Shear Modulus (GPa) = 27.56710 38.11879 32.84295
#
# Velocity S-wave (km/s) = 3.38573 3.98131 3.69554
# Velocity P-wave (km/s) = 5.49478 7.06732 6.33007
#
# Compressibility (1/GPa) = 0.02789202
#
# Stress axis : x y z
#
# Youngs Moduli (GPa) = 42.25052 82.96653 50.09915
#
# Poissons Ratio (x) = 0.81781 0.16500
# Poissons Ratio (y) = 0.41647 0.03728
# Poissons Ratio (z) = 0.13915 0.06174
#
# Static dielectric constant tensor:
#      x y z
#    x 1.827370 -0.007420 -0.380140 
#    y -0.007420 1.737010 -0.270750 
#    z -0.380140 -0.270750 0.486000 
# 
# From -- ./inp_files/31095.got.cif
#   From: 2010.05.17/outbox.cif.g08.bks.cpg/sg2_16_cif.got.tgz:31095.got - 2010.06.03 11:33:40.
