data_PCOD9009700
_publ_section_title
;
Structure prediction by ZEFSAII (Michael W. Deem and Ramdas Pophale) SiO2 
 PCOD9009700
Probable space group: P -1
;
_chemical_formula_sum "Si O2"
_cell_formula_units_Z 16
_cell_length_a 9.268011
_cell_length_b 7.993736
_cell_length_c 8.992147
_cell_angle_alpha 91.920236
_cell_angle_beta 101.659027
_cell_angle_gamma 67.060446
_cell_volume 600.092627
_symmetry_space_group_name_H-M "P -1"
_symmetry_group_IT_number 2
_symmetry_cell_setting 'triclinic'
loop_
_space_group_symop_operation_xyz
x,y,z
-x,-y,-z
loop_
_atom_site_type_symbol
_atom_site_label
_atom_site_fract_x
_atom_site_fract_y
_atom_site_fract_z
Si Si1 0.668470 0.838054 0.186636
Si Si2 0.668104 0.500434 0.986349
Si Si3 0.980178 0.594648 0.329074
Si Si4 0.613044 0.300861 0.460064
Si Si5 0.699799 0.985377 0.891721
Si Si6 0.142249 0.727510 0.742119
Si Si7 0.302698 0.336196 0.305789
Si Si8 0.898547 0.126936 0.746409
O O1 0.484073 0.909385 0.195986
O O2 0.807615 0.760678 0.337067
O O3 0.693400 0.663226 0.083650
O O4 0.686818 0.973591 0.068107
O O5 0.669510 0.538067 0.814582
O O6 0.500000 0.500000 0.000000
O O7 0.805248 0.327067 0.080322
O O8 0.170626 0.470518 0.393490
O O9 0.021059 0.724833 0.218703
O O10 0.932372 0.419133 0.322180
O O11 0.500000 0.500000 0.500000
O O12 0.701929 0.307652 0.326226
O O13 0.477381 0.220947 0.404229
O O14 0.754463 0.197967 0.599231
O O15 0.817019 0.077616 0.868548
O O16 0.758396 0.795580 0.806164
O O17 0.026294 0.935637 0.706880
#
# Coordination Sequence:
#
# PCOD9009700 Si02
#       8
#     2   2   2   2   2   2   2   2
#     4   9  23  40  67 106 143 178 227 291 349 421
#     4  10  21  39  77  99 137 182 224 291 355 412
#     4  11  25  43  69 106 138 180 230 289 352 405
#     4  12  27  48  72 101 138 190 241 278 341 427
#     4  10  23  44  68 102 143 181 232 284 351 416
#     4  11  26  49  70 106 141 176 234 297 348 408
#     4  11  23  46  70 104 137 181 235 284 354 412
#     4  12  27  45  71 100 141 191 233 285 343 414
#
# _framework density 26.662548000000001
#
# number of rings (size 3 to 8) (size 9 to 14) (size 15 to 20)
#    0.000    1.250    3.750    0.375    8.750    4.000 
#    0.000    0.000    0.000    0.000    0.000    0.000 
#    0.000    0.000    0.000    0.000    0.000    0.000 
#
# Total GULP energy -89244.851211 kJ/mol
# GULP energy per Si atom -5577.803201 kJ/mol
# Density = 2.660186 g / cm^3
# Si number density = 26.662548 Si / 1000 Ang^3
#
#
#
# Elastic Constant Matrix: (Units=GPa)
#
#
# Indices 1 2 3 4 5 6 
#
# 1 153.8534 53.1582 28.1801 -14.4464 -4.8870 -16.4000
# 2 53.1582 133.8749 39.3173 -8.8411 -6.8010 -9.4909
# 3 28.1801 39.3173 74.0458 -6.5257 -3.3234 -9.4665
# 4 -14.4464 -8.8411 -6.5257 35.3984 -6.5569 8.7392
# 5 -4.8870 -6.8010 -3.3234 -6.5569 28.2760 -14.5728
# 6 -16.4000 -9.4909 -9.4665 8.7392 -14.5728 62.3561
#
#
#
# Elastic Compliance Matrix: (Units=1/GPa)
#
#
# Indices 1 2 3 4 5 6 
#
# 1 0.008046 -0.002444 -0.001239 0.002412 0.002097 0.001708
# 2 -0.002444 0.009831 -0.004046 0.000938 0.001978 0.000570
# 3 -0.001239 -0.004046 0.016583 0.001465 0.002055 0.001851
# 4 0.002412 0.000938 0.001465 0.031504 0.007230 -0.001726
# 5 0.002097 0.001978 0.002055 0.007230 0.043431 0.010301
# 6 0.001708 0.000570 0.001851 -0.001726 0.010301 0.019503
#
#
# Mechanical properties :
#
#
# Convention : Reuss Voigt Hill
#
# Bulk Modulus (GPa) = 52.62618 67.00946 59.81782
# Shear Modulus (GPa) = 33.18051 41.28065 37.23058
#
# Velocity S-wave (km/s) = 3.53152 3.93907 3.74085
# Velocity P-wave (km/s) = 6.03403 6.77313 6.41424
#
# Compressibility (1/GPa) = 0.01900195
#
# Stress axis : x y z
#
# Youngs Moduli (GPa) = 124.28098 101.71735 60.30259
#
# Poissons Ratio (x) = 0.24861 0.07474
# Poissons Ratio (y) = 0.30376 0.24397
# Poissons Ratio (z) = 0.15404 0.41152
#
# Static dielectric constant tensor:
#      x y z
#    x 2.059080 -0.001720 0.114200 
#    y -0.001720 1.998660 0.100120 
#    z 0.114200 0.100120 2.236530 
# 
# From -- ./inp_files/382020.got.cif
#   From: 2010.05.17/outbox.cif.g08.bks.cpg/sg2_192_cif.got.tgz:382020.got - 2010.06.03 11:33:40.
