data_PCOD9009996
_publ_section_title
;
Structure prediction by ZEFSAII (Michael W. Deem and Ramdas Pophale) SiO2 
 PCOD9009996
Probable space group: P -1
;
_chemical_formula_sum "Si O2"
_cell_formula_units_Z 16
_cell_length_a 14.162504
_cell_length_b 8.451115
_cell_length_c 11.615962
_cell_angle_alpha 42.035268
_cell_angle_beta 62.662629
_cell_angle_gamma 87.787613
_cell_volume 712.047553
_symmetry_space_group_name_H-M "P -1"
_symmetry_group_IT_number 2
_symmetry_cell_setting 'triclinic'
loop_
_space_group_symop_operation_xyz
x,y,z
-x,-y,-z
loop_
_atom_site_type_symbol
_atom_site_label
_atom_site_fract_x
_atom_site_fract_y
_atom_site_fract_z
Si Si1 0.589779 0.923917 0.426483
Si Si2 0.603541 0.062392 0.736902
Si Si3 0.976258 0.494580 0.152839
Si Si4 0.233966 0.492056 0.349528
Si Si5 0.829817 0.679386 0.275150
Si Si6 0.495643 0.305899 0.802985
Si Si7 0.789513 0.191172 0.997950
Si Si8 0.736672 0.935157 0.555648
O O1 0.510581 0.599787 0.613633
O O2 0.500000 0.000000 0.500000
O O3 0.664267 0.116795 0.175011
O O4 0.699173 0.974560 0.426713
O O5 0.714197 0.372724 0.485487
O O6 0.496028 0.130927 0.788771
O O7 0.619012 0.891840 0.718248
O O8 0.604009 0.891532 0.941345
O O9 0.932078 0.698181 0.119548
O O10 0.859551 0.191001 0.399317
O O11 0.096568 0.579051 0.115259
O O12 0.000000 0.500000 0.000000
O O13 0.147530 0.335107 0.592406
O O14 0.372518 0.612019 0.255714
O O15 0.232403 0.302710 0.348969
O O16 0.205853 0.706294 0.189127
O O17 0.795966 0.912563 0.147658
#
# Coordination Sequence:
#
# PCOD9009996 Si02
#       8
#     2   2   2   2   2   2   2   2
#     4  11  23  38  60  93 129 162 211 258 304 379
#     4   9  18  35  62  83 115 172 203 247 314 365
#     4  11  22  42  71  91 126 167 206 261 318 366
#     4  10  22  39  63  91 129 162 210 255 311 374
#     4  10  21  45  64  90 128 162 211 262 308 374
#     4   9  19  40  59  82 130 170 204 253 315 364
#     4  12  23  41  65  95 123 170 214 251 315 376
#     4  10  21  40  61  89 127 161 208 260 313 363
#
# _framework density 22.470410000000001
#
# number of rings (size 3 to 8) (size 9 to 14) (size 15 to 20)
#    0.000    1.750    5.000    0.375    3.500    2.000 
#    0.000   12.500    0.000    0.000    0.000    0.000 
#    0.000    0.000    0.000    0.000    0.000    0.000 
#
# Total GULP energy -89150.378487 kJ/mol
# GULP energy per Si atom -5571.898655 kJ/mol
# Density = 2.241927 g / cm^3
# Si number density = 22.470410 Si / 1000 Ang^3
#
#
#
# Elastic Constant Matrix: (Units=GPa)
#
#
# Indices 1 2 3 4 5 6 
#
# 1 72.3109 22.0721 35.4153 2.5177 4.9697 11.4188
# 2 22.0721 137.5008 38.8477 19.4606 6.1258 -12.7809
# 3 35.4153 38.8477 89.6449 5.0001 19.7598 -8.1625
# 4 2.5177 19.4606 5.0001 39.0858 5.1774 -3.4324
# 5 4.9697 6.1258 19.7598 5.1774 29.9507 -2.4193
# 6 11.4188 -12.7809 -8.1625 -3.4324 -2.4193 30.6665
#
#
#
# Elastic Compliance Matrix: (Units=1/GPa)
#
#
# Indices 1 2 3 4 5 6 
#
# 1 0.020058 -0.001808 -0.008473 -0.000468 0.001874 -0.010382
# 2 -0.001808 0.009246 -0.003071 -0.003983 0.001396 0.003374
# 3 -0.008473 -0.003071 0.018501 0.001569 -0.009943 0.006191
# 4 -0.000468 -0.003983 0.001569 0.028193 -0.004879 0.001702
# 5 0.001874 0.001396 -0.009943 -0.004879 0.040184 -0.000138
# 6 -0.010382 0.003374 0.006191 0.001702 -0.000138 0.039708
#
#
# Mechanical properties :
#
#
# Convention : Reuss Voigt Hill
#
# Bulk Modulus (GPa) = 47.39078 54.68078 51.03578
# Shear Modulus (GPa) = 26.36778 33.48204 29.92491
#
# Velocity S-wave (km/s) = 3.42927 3.86430 3.65327
# Velocity P-wave (km/s) = 6.06762 6.65566 6.36843
#
# Compressibility (1/GPa) = 0.02110115
#
# Stress axis : x y z
#
# Youngs Moduli (GPa) = 49.85624 108.16045 54.05165
#
# Poissons Ratio (x) = 0.19558 0.45796
# Poissons Ratio (y) = 0.09015 0.16597
# Poissons Ratio (z) = 0.42241 0.33211
#
# Static dielectric constant tensor:
#      x y z
#    x 1.877070 0.021070 -0.036070 
#    y 0.021070 1.922580 0.016100 
#    z -0.036070 0.016100 1.905960 
# 
# From -- ./inp_files/445456.got.cif
#   From: 2010.05.17/outbox.cif.g08.bks.cpg/sg2_223_cif.got.tgz:445456.got - 2010.06.03 11:33:40.
