data_PCOD9009202
_publ_section_title
;
Structure prediction by ZEFSAII (Michael W. Deem and Ramdas Pophale) SiO2 
 PCOD9009202
Probable space group: P -1
;
_chemical_formula_sum "Si O2"
_cell_formula_units_Z 16
_cell_length_a 8.368735
_cell_length_b 14.013388
_cell_length_c 13.702117
_cell_angle_alpha 51.333777
_cell_angle_beta 34.255703
_cell_angle_gamma 53.219561
_cell_volume 693.731192
_symmetry_space_group_name_H-M "P -1"
_symmetry_group_IT_number 2
_symmetry_cell_setting 'triclinic'
loop_
_space_group_symop_operation_xyz
x,y,z
-x,-y,-z
loop_
_atom_site_type_symbol
_atom_site_label
_atom_site_fract_x
_atom_site_fract_y
_atom_site_fract_z
Si Si1 0.342879 0.487357 0.483116
Si Si2 0.525590 0.086522 0.715958
Si Si3 0.938476 0.168207 0.047085
Si Si4 0.381495 0.063005 0.419861
Si Si5 0.721105 0.862271 0.911022
Si Si6 0.237374 0.772250 0.338901
Si Si7 0.161999 0.546682 0.127822
Si Si8 0.064450 0.604657 0.825832
O O1 0.500000 0.500000 0.500000
O O2 0.270101 0.627859 0.391001
O O3 0.590542 0.404901 0.346463
O O4 0.045382 0.440212 0.681200
O O5 0.623374 0.205599 0.639713
O O6 0.650744 0.041524 0.577022
O O7 0.643516 0.974277 0.803196
O O8 0.177753 0.116998 0.877520
O O9 0.630755 0.131780 0.208254
O O10 0.080725 0.113790 0.112406
O O11 0.900345 0.317605 0.976936
O O12 0.089260 0.157923 0.529925
O O13 0.500000 0.000000 0.500000
O O14 0.892648 0.739416 0.851880
O O15 0.429821 0.830797 0.126392
O O16 0.052847 0.441848 0.185903
O O17 0.500000 0.500000 0.000000
O O18 0.000000 0.500000 0.000000
#
# Coordination Sequence:
#
# PCOD9009202 Si02
#       8
#     2   2   2   2   2   2   2   2
#     4  10  21  39  67  95 131 167 221 265 316 387
#     4  11  24  42  69  94 122 180 219 259 333 393
#     4  11  23  45  65  94 138 172 211 277 326 384
#     4  12  26  44  62  98 135 163 215 273 332 390
#     4  11  22  41  70  94 132 171 222 265 321 398
#     4  11  22  42  66  97 131 168 220 271 317 386
#     4  11  24  43  64  97 136 173 221 267 325 389
#     4  11  20  42  66  96 129 176 217 271 326 377
#
# _framework density 23.063689
#
# number of rings (size 3 to 8) (size 9 to 14) (size 15 to 20)
#    0.000    1.000    2.500    6.750    5.250    0.000 
#    4.500    0.625    0.000    0.000    0.000    0.000 
#    0.000    0.000    0.000    0.000    0.000    0.000 
#
# Total GULP energy -89584.864089 kJ/mol
# GULP energy per Si atom -5599.054006 kJ/mol
# Density = 2.301119 g / cm^3
# Si number density = 23.063689 Si / 1000 Ang^3
#
#
#
# Elastic Constant Matrix: (Units=GPa)
#
#
# Indices 1 2 3 4 5 6 
#
# 1 38.7345 16.2337 27.2284 11.5493 0.1010 -9.2117
# 2 16.2337 143.9689 46.1319 34.0947 -3.7862 -1.8151
# 3 27.2284 46.1319 130.2863 38.3378 -28.3418 -16.6707
# 4 11.5493 34.0947 38.3378 52.7230 -8.3018 -4.6552
# 5 0.1010 -3.7862 -28.3418 -8.3018 40.1884 6.2010
# 6 -9.2117 -1.8151 -16.6707 -4.6552 6.2010 29.5222
#
#
#
# Elastic Compliance Matrix: (Units=1/GPa)
#
#
# Indices 1 2 3 4 5 6 
#
# 1 0.033241 -0.001301 -0.006192 -0.002234 -0.006231 0.007752
# 2 -0.001301 0.008680 -0.002025 -0.004177 -0.001252 -0.001412
# 3 -0.006192 -0.002025 0.013380 -0.005594 0.007641 0.003012
# 4 -0.002234 -0.004177 -0.005594 0.026389 0.001148 -0.000193
# 5 -0.006231 -0.001252 0.007641 0.001148 0.031030 -0.004043
# 6 0.007752 -0.001412 0.003012 -0.000193 -0.004043 0.038724
#
#
# Mechanical properties :
#
#
# Convention : Reuss Voigt Hill
#
# Bulk Modulus (GPa) = 27.57587 54.68642 41.13114
# Shear Modulus (GPa) = 27.38664 39.37977 33.38320
#
# Velocity S-wave (km/s) = 3.44966 4.13660 3.80865
# Velocity P-wave (km/s) = 5.27723 6.82479 6.10028
#
# Compressibility (1/GPa) = 0.03626359
#
# Stress axis : x y z
#
# Youngs Moduli (GPa) = 30.08343 115.20484 74.73630
#
# Poissons Ratio (x) = 0.14988 0.46280
# Poissons Ratio (y) = 0.03914 0.15138
# Poissons Ratio (z) = 0.18629 0.23334
#
# Static dielectric constant tensor:
#      x y z
#    x 1.869870 0.016490 0.014810 
#    y 0.016490 1.841670 0.003460 
#    z 0.014810 0.003460 1.930260 
# 
# From -- ./inp_files/226779.got.cif
#   From: 2010.05.17/outbox.cif.g08.bks.cpg/sg2_114_cif.got.tgz:226779.got - 2010.06.03 11:33:40.
