data_PCOD9009565
_publ_section_title
;
Structure prediction by ZEFSAII (Michael W. Deem and Ramdas Pophale) SiO2 
 PCOD9009565
Probable space group: P -1
;
_chemical_formula_sum "Si O2"
_cell_formula_units_Z 16
_cell_length_a 8.717433
_cell_length_b 12.357555
_cell_length_c 8.608035
_cell_angle_alpha 108.439696
_cell_angle_beta 58.046315
_cell_angle_gamma 100.807327
_cell_volume 746.171335
_symmetry_space_group_name_H-M "P -1"
_symmetry_group_IT_number 2
_symmetry_cell_setting 'triclinic'
loop_
_space_group_symop_operation_xyz
x,y,z
-x,-y,-z
loop_
_atom_site_type_symbol
_atom_site_label
_atom_site_fract_x
_atom_site_fract_y
_atom_site_fract_z
Si Si1 0.426406 0.289311 0.425555
Si Si2 0.900268 0.723128 0.173440
Si Si3 0.078897 0.125885 0.048665
Si Si4 0.637627 0.513609 0.687794
Si Si5 0.214424 0.712320 0.565155
Si Si6 0.753164 0.271084 0.808955
Si Si7 0.430867 0.125477 0.065284
Si Si8 0.728113 0.543357 0.983787
O O1 0.245846 0.295388 0.623735
O O2 0.435630 0.403624 0.366943
O O3 0.597774 0.270162 0.434554
O O4 0.411845 0.186669 0.267207
O O5 0.086949 0.758246 0.171456
O O6 0.847807 0.821447 0.127579
O O7 0.884756 0.608599 0.024013
O O8 0.240811 0.119393 0.078874
O O9 0.932724 0.215154 0.232350
O O10 0.000000 0.000000 0.000000
O O11 0.788005 0.427090 0.506544
O O12 0.712814 0.581886 0.829697
O O13 0.464076 0.441726 0.818085
O O14 0.212337 0.748462 0.401233
O O15 0.743792 0.407507 0.901726
O O16 0.574644 0.201973 0.924738
O O17 0.500000 0.000000 0.000000
#
# Coordination Sequence:
#
# PCOD9009565 Si02
#       8
#     2   2   2   2   2   2   2   2
#     4  12  23  41  71 105 141 182 231 278 347 408
#     4  12  25  41  69 106 138 186 229 282 340 412
#     4  12  28  50  71 100 137 177 236 291 344 409
#     4  10  21  39  70 102 145 184 225 279 343 412
#     4  11  24  43  70 101 137 184 226 286 339 410
#     4  11  24  44  68 102 144 181 233 283 340 408
#     4  12  26  48  74  98 133 185 229 289 349 408
#     4  10  21  40  68 102 146 184 227 276 345 406
#
# _framework density 21.442796999999999
#
# number of rings (size 3 to 8) (size 9 to 14) (size 15 to 20)
#    0.000    0.750    2.500    5.250    1.750    2.000 
#    0.000    8.125    0.000    0.000    0.000    0.000 
#    0.000    0.000    0.000    0.000    0.000    0.000 
#
# Total GULP energy -89481.103630 kJ/mol
# GULP energy per Si atom -5592.568977 kJ/mol
# Density = 2.139399 g / cm^3
# Si number density = 21.442797 Si / 1000 Ang^3
#
#
#
# Elastic Constant Matrix: (Units=GPa)
#
#
# Indices 1 2 3 4 5 6 
#
# 1 136.5385 29.4145 34.1072 23.1879 16.6200 15.8935
# 2 29.4145 95.7654 27.9353 14.3198 12.8280 9.6422
# 3 34.1072 27.9353 81.2707 15.2999 16.5809 12.8641
# 4 23.1879 14.3198 15.2999 25.5262 -3.2089 -3.7317
# 5 16.6200 12.8280 16.5809 -3.2089 36.9846 3.8560
# 6 15.8935 9.6422 12.8641 -3.7317 3.8560 34.1102
#
#
#
# Elastic Compliance Matrix: (Units=1/GPa)
#
#
# Indices 1 2 3 4 5 6 
#
# 1 0.010463 -0.000363 -0.000551 -0.010314 -0.004685 -0.005163
# 2 -0.000363 0.012901 -0.001728 -0.006809 -0.003800 -0.003141
# 3 -0.000551 -0.001728 0.017703 -0.010990 -0.007386 -0.006298
# 4 -0.010314 -0.006809 -0.010990 0.063272 0.015743 0.016018
# 5 -0.004685 -0.003800 -0.007386 0.015743 0.034739 0.003838
# 6 -0.005163 -0.003141 -0.006298 0.016018 0.003838 0.036304
#
#
# Mechanical properties :
#
#
# Convention : Reuss Voigt Hill
#
# Bulk Modulus (GPa) = 27.94680 55.16539 41.55609
# Shear Modulus (GPa) = 25.96137 34.13205 30.04671
#
# Velocity S-wave (km/s) = 3.48332 3.99403 3.74739
# Velocity P-wave (km/s) = 5.40736 6.85947 6.17624
#
# Compressibility (1/GPa) = 0.03578227
#
# Stress axis : x y z
#
# Youngs Moduli (GPa) = 95.57673 77.51229 56.48872
#
# Poissons Ratio (x) = 0.02815 0.03114
# Poissons Ratio (y) = 0.03471 0.09760
# Poissons Ratio (z) = 0.05269 0.13392
#
# Static dielectric constant tensor:
#      x y z
#    x 1.792390 -0.000280 -0.000100 
#    y -0.000280 1.774230 0.012370 
#    z -0.000100 0.012370 1.794790 
# 
# From -- ./inp_files/188232.got.cif
#   From: 2010.05.17/outbox.cif.g08.bks.cpg/sg2_95_cif.got.tgz:188232.got - 2010.06.03 11:33:40.
