data_PCOD9009594
_publ_section_title
;
Structure prediction by ZEFSAII (Michael W. Deem and Ramdas Pophale) SiO2 
 PCOD9009594
Probable space group: P -1
;
_chemical_formula_sum "Si O2"
_cell_formula_units_Z 14
_cell_length_a 14.731476
_cell_length_b 8.174737
_cell_length_c 11.930924
_cell_angle_alpha 117.189218
_cell_angle_beta 151.063875
_cell_angle_gamma 58.417921
_cell_volume 592.205100
_symmetry_space_group_name_H-M "P -1"
_symmetry_group_IT_number 2
_symmetry_cell_setting 'triclinic'
loop_
_space_group_symop_operation_xyz
x,y,z
-x,-y,-z
loop_
_atom_site_type_symbol
_atom_site_label
_atom_site_fract_x
_atom_site_fract_y
_atom_site_fract_z
Si Si1 0.584817 0.558772 0.250846
Si Si2 0.025045 0.790731 0.915170
Si Si3 0.224909 0.770134 0.777941
Si Si4 0.625660 0.777910 0.573139
Si Si5 0.147460 0.200204 0.493453
Si Si6 0.653165 0.573016 0.762108
Si Si7 0.452430 0.070978 0.097576
O O1 0.690380 0.332360 0.280962
O O2 0.542184 0.643057 0.357390
O O3 0.740183 0.643899 0.373192
O O4 0.377030 0.629440 0.985016
O O5 0.825022 0.750782 0.716546
O O6 0.015943 0.803089 0.776209
O O7 0.186895 0.621669 0.094102
O O8 0.000000 0.000000 0.000000
O O9 0.995562 0.780097 0.547203
O O10 0.285680 0.967407 0.918701
O O11 0.687083 0.717166 0.747327
O O12 0.500000 0.000000 0.500000
O O13 0.336461 0.015024 0.640238
O O14 0.500000 0.500000 0.500000
O O15 0.612188 0.706873 0.869615
O O16 0.500000 0.000000 0.000000
#
# Coordination Sequence:
#
# PCOD9009594 Si02
#       7
#     2   2   2   2   2   2   2
#     4   9  21  38  64 104 134 181 232 292 338 434
#     4  11  25  44  71 101 137 189 239 298 356 428
#     4  10  21  39  70  95 140 186 232 281 364 414
#     4  11  23  43  69 101 145 180 237 291 361 424
#     4  10  22  43  68 101 134 184 238 288 359 426
#     4  12  27  46  70 104 144 188 237 299 360 424
#     4  11  27  47  67 104 145 180 238 300 356 428
#
# _framework density 23.640460000000001
#
# number of rings (size 3 to 8) (size 9 to 14) (size 15 to 20)
#    0.000    1.429    0.000    5.143    8.000    5.143 
#    2.571    0.000    0.000    0.000    0.000    0.000 
#    0.000    0.000    0.000    0.000    0.000    0.000 
#
# Total GULP energy -78013.648524 kJ/mol
# GULP energy per Si atom -5572.403466 kJ/mol
# Density = 2.358665 g / cm^3
# Si number density = 23.640460 Si / 1000 Ang^3
#
#
#
# Elastic Constant Matrix: (Units=GPa)
#
#
# Indices 1 2 3 4 5 6 
#
# 1 73.4904 18.7727 12.9752 1.4318 6.5529 -13.9122
# 2 18.7727 177.5901 53.8326 -6.5756 -8.1510 -18.2201
# 3 12.9752 53.8326 94.2578 -10.6066 1.4044 -7.0522
# 4 1.4318 -6.5756 -10.6066 42.5282 -2.2449 -5.0330
# 5 6.5529 -8.1510 1.4044 -2.2449 51.5962 2.3273
# 6 -13.9122 -18.2201 -7.0522 -5.0330 2.3273 29.8110
#
#
#
# Elastic Compliance Matrix: (Units=1/GPa)
#
#
# Indices 1 2 3 4 5 6 
#
# 1 0.015476 -0.000700 -0.001229 -0.000274 -0.002354 0.006641
# 2 -0.000700 0.007253 -0.003748 0.000658 0.001219 0.003236
# 3 -0.001229 -0.003748 0.013311 0.002841 -0.000712 0.000819
# 4 -0.000274 0.000658 0.002841 0.024984 0.000919 0.005092
# 5 -0.002354 0.001219 -0.000712 0.000919 0.020019 -0.001929
# 6 0.006641 0.003236 0.000819 0.005092 -0.001929 0.039826
#
#
# Mechanical properties :
#
#
# Convention : Reuss Voigt Hill
#
# Bulk Modulus (GPa) = 40.51188 57.38882 48.95035
# Shear Modulus (GPa) = 35.59919 42.10427 38.85173
#
# Velocity S-wave (km/s) = 3.88475 4.22480 4.05834
# Velocity P-wave (km/s) = 6.10701 6.93736 6.53539
#
# Compressibility (1/GPa) = 0.02468412
#
# Stress axis : x y z
#
# Youngs Moduli (GPa) = 64.61815 137.86549 75.12714
#
# Poissons Ratio (x) = 0.09652 0.09236
# Poissons Ratio (y) = 0.04524 0.28160
# Poissons Ratio (z) = 0.07944 0.51676
#
# Static dielectric constant tensor:
#      x y z
#    x 1.844540 0.069420 0.273000 
#    y 0.069420 1.938540 -0.027470 
#    z 0.273000 -0.027470 1.428940 
# 
# From -- ./inp_files/448109.got.cif
#   From: 2010.05.17/outbox.cif.g08.bks.cpg/sg2_225_cif.got.tgz:448109.got - 2010.06.03 11:33:40.
