data_PCOD9009675
_publ_section_title
;
Structure prediction by ZEFSAII (Michael W. Deem and Ramdas Pophale) SiO2 
 PCOD9009675
Probable space group: P -1
;
_chemical_formula_sum "Si O2"
_cell_formula_units_Z 12
_cell_length_a 8.866680
_cell_length_b 12.693340
_cell_length_c 5.647669
_cell_angle_alpha 68.161853
_cell_angle_beta 113.796121
_cell_angle_gamma 126.585676
_cell_volume 459.460639
_symmetry_space_group_name_H-M "P -1"
_symmetry_group_IT_number 2
_symmetry_cell_setting 'triclinic'
loop_
_space_group_symop_operation_xyz
x,y,z
-x,-y,-z
loop_
_atom_site_type_symbol
_atom_site_label
_atom_site_fract_x
_atom_site_fract_y
_atom_site_fract_z
Si Si1 0.896979 0.314308 0.625312
Si Si2 0.497892 0.862575 0.654789
Si Si3 0.990051 0.879866 0.948421
Si Si4 0.362939 0.060292 0.822985
Si Si5 0.247264 0.532527 0.361531
Si Si6 0.367370 0.396046 0.202782
O O1 0.719349 0.264499 0.372413
O O2 0.908325 0.185626 0.789871
O O3 0.826619 0.364317 0.763873
O O4 0.099976 0.426567 0.551744
O O5 0.585570 0.863372 0.453930
O O6 0.500000 0.000000 0.500000
O O7 0.596920 0.863803 0.963182
O O8 0.784804 0.751191 0.862808
O O9 0.135944 0.948528 0.763393
O O10 0.000000 0.000000 0.000000
O O11 0.500000 0.000000 0.000000
O O12 0.240498 0.450331 0.197125
O O13 0.470776 0.597447 0.525064
O O14 0.500000 0.500000 0.000000
#
# Coordination Sequence:
#
# PCOD9009675 Si02
#       6
#     2   2   2   2   2   2
#     4  11  23  47  73 109 143 195 261 306 379 458
#     4  10  21  39  73 102 146 184 247 313 378 449
#     4  12  27  45  73 113 150 195 248 321 389 453
#     4  10  22  43  66 107 141 197 242 306 382 458
#     4  10  26  47  76 105 141 202 253 310 372 467
#     4  11  25  50  73 107 151 194 245 312 388 458
#
# _framework density 26.117581000000001
#
# number of rings (size 3 to 8) (size 9 to 14) (size 15 to 20)
#    0.000    1.333    5.000    0.000    7.000    2.000 
#    0.000    1.667    0.000    0.000    0.000    0.000 
#    0.000    0.000    0.000    0.000    0.000    0.000 
#
# Total GULP energy -67094.105997 kJ/mol
# GULP energy per Si atom -5591.175500 kJ/mol
# Density = 2.605814 g / cm^3
# Si number density = 26.117581 Si / 1000 Ang^3
#
#
#
# Elastic Constant Matrix: (Units=GPa)
#
#
# Indices 1 2 3 4 5 6 
#
# 1 180.4029 95.1162 45.0327 15.2228 -11.8220 -8.0030
# 2 95.1162 179.2846 39.3858 25.7268 0.4395 -13.6389
# 3 45.0327 39.3858 117.0246 20.1536 -14.6957 -1.7805
# 4 15.2228 25.7268 20.1536 28.9030 0.6015 15.8662
# 5 -11.8220 0.4395 -14.6957 0.6015 39.7281 10.2809
# 6 -8.0030 -13.6389 -1.7805 15.8662 10.2809 73.5124
#
#
#
# Elastic Compliance Matrix: (Units=1/GPa)
#
#
# Indices 1 2 3 4 5 6 
#
# 1 0.008170 -0.004092 -0.001632 0.000608 0.001944 -0.000312
# 2 -0.004092 0.009147 -0.000469 -0.007332 -0.002191 0.003129
# 3 -0.001632 -0.000469 0.010986 -0.007025 0.003421 0.001039
# 4 0.000608 -0.007332 -0.007025 0.052770 0.000198 -0.012881
# 5 0.001944 -0.002191 0.003421 0.000198 0.028093 -0.004084
# 6 -0.000312 0.003129 0.001039 -0.012881 -0.004084 0.017526
#
#
# Mechanical properties :
#
#
# Convention : Reuss Voigt Hill
#
# Bulk Modulus (GPa) = 62.82144 92.86461 77.84302
# Shear Modulus (GPa) = 34.62969 48.24052 41.43511
#
# Velocity S-wave (km/s) = 3.64526 4.30240 3.98739
# Velocity P-wave (km/s) = 6.46705 7.76623 7.14623
#
# Compressibility (1/GPa) = 0.01591813
#
# Stress axis : x y z
#
# Youngs Moduli (GPa) = 122.39632 109.32455 91.02186
#
# Poissons Ratio (x) = 0.44733 0.14856
# Poissons Ratio (y) = 0.50082 0.04267
# Poissons Ratio (z) = 0.19977 0.05125
#
# Static dielectric constant tensor:
#      x y z
#    x 2.215980 0.005920 -0.016410 
#    y 0.005920 2.199200 0.046900 
#    z -0.016410 0.046900 2.069860 
# 
# From -- ./inp_files/27343.got.cif
#   From: 2010.05.17/outbox.cif.g08.bks.cpg/sg2_14_cif.got.tgz:27343.got - 2010.06.03 11:33:40.
