data_PCOD9009740
_publ_section_title
;
Structure prediction by ZEFSAII (Michael W. Deem and Ramdas Pophale) SiO2 
 PCOD9009740
Probable space group: P -1
;
_chemical_formula_sum "Si O2"
_cell_formula_units_Z 14
_cell_length_a 8.844147
_cell_length_b 21.298127
_cell_length_c 18.101225
_cell_angle_alpha 161.321989
_cell_angle_beta 130.956980
_cell_angle_gamma 57.705741
_cell_volume 769.815707
_symmetry_space_group_name_H-M "P -1"
_symmetry_group_IT_number 2
_symmetry_cell_setting 'triclinic'
loop_
_space_group_symop_operation_xyz
x,y,z
-x,-y,-z
loop_
_atom_site_type_symbol
_atom_site_label
_atom_site_fract_x
_atom_site_fract_y
_atom_site_fract_z
Si Si1 0.952886 0.254693 0.204213
Si Si2 0.713380 0.965137 0.939295
Si Si3 0.806461 0.981749 0.471692
Si Si4 0.797896 0.766027 0.377580
Si Si5 0.778851 0.196421 0.375462
Si Si6 0.139208 0.616236 0.963487
Si Si7 0.665288 0.098383 0.793645
O O1 0.000000 0.500000 0.500000
O O2 0.170687 0.204410 0.213959
O O3 0.813167 0.161350 0.982713
O O4 0.821255 0.130957 0.094591
O O5 0.457833 0.863882 0.735616
O O6 0.760700 0.083340 0.164891
O O7 0.769937 0.804562 0.325810
O O8 0.581348 0.938554 0.310677
O O9 0.000000 0.000000 0.500000
O O10 0.859041 0.197901 0.775081
O O11 0.054072 0.866085 0.590012
O O12 0.742897 0.527974 0.121635
O O13 0.684204 0.892744 0.531143
O O14 0.901480 0.446769 0.684511
O O15 0.247906 0.720427 0.038568
#
# Coordination Sequence:
#
# PCOD9009740 Si02
#       7
#     2   2   2   2   2   2   2
#     4  11  23  38  60  88 122 158 189 234 297 343
#     4  10  21  40  58  90 120 151 198 239 285 342
#     4  11  25  38  58  90 121 147 193 244 294 348
#     4   9  20  41  63  81 114 156 190 239 290 338
#     4   9  19  40  65  83 115 154 195 243 280 341
#     4   9  20  40  62  85 113 152 201 227 292 352
#     4  11  22  39  60  86 118 154 195 242 284 346
#
# _framework density 18.186171999999999
#
# number of rings (size 3 to 8) (size 9 to 14) (size 15 to 20)
#    0.857    1.143    1.429    2.571    2.000    4.000 
#    2.571    2.143    0.000    0.000    0.000    0.000 
#    0.000    0.000    0.000    0.000    0.000    0.000 
#
# Total GULP energy -78085.919586 kJ/mol
# GULP energy per Si atom -5577.565685 kJ/mol
# Density = 1.814478 g / cm^3
# Si number density = 18.186172 Si / 1000 Ang^3
#
#
#
# Elastic Constant Matrix: (Units=GPa)
#
#
# Indices 1 2 3 4 5 6 
#
# 1 121.3284 46.7967 19.8957 1.7089 10.6807 -20.7343
# 2 46.7967 91.6212 11.6658 12.2699 -2.2380 -15.2639
# 3 19.8957 11.6658 51.5788 15.8688 5.3448 -13.2204
# 4 1.7089 12.2699 15.8688 36.4067 -7.6722 4.5434
# 5 10.6807 -2.2380 5.3448 -7.6722 18.8615 -12.7462
# 6 -20.7343 -15.2639 -13.2204 4.5434 -12.7462 24.0353
#
#
#
# Elastic Compliance Matrix: (Units=1/GPa)
#
#
# Indices 1 2 3 4 5 6 
#
# 1 0.011538 -0.005365 -0.002428 0.001103 -0.004135 0.002810
# 2 -0.005365 0.016931 0.002712 -0.005981 0.012088 0.015157
# 3 -0.002428 0.002712 0.029488 -0.016111 -0.000694 0.018525
# 4 0.001103 -0.005981 -0.016111 0.040349 0.010251 -0.013900
# 5 -0.004135 0.012088 -0.000694 0.010251 0.097207 0.053341
# 6 0.002810 0.015157 0.018525 -0.013900 0.053341 0.094760
#
#
# Mechanical properties :
#
#
# Convention : Reuss Voigt Hill
#
# Bulk Modulus (GPa) = 20.92202 46.80497 33.86350
# Shear Modulus (GPa) = 15.80459 28.27206 22.03832
#
# Velocity S-wave (km/s) = 2.95115 3.94711 3.48489
# Velocity P-wave (km/s) = 4.81059 6.82388 5.90369
#
# Compressibility (1/GPa) = 0.04779652
#
# Stress axis : x y z
#
# Youngs Moduli (GPa) = 86.67000 59.06491 33.91224
#
# Poissons Ratio (x) = 0.31686 0.08233
# Poissons Ratio (y) = 0.46495 -0.09199
# Poissons Ratio (z) = 0.21042 -0.16021
#
# Static dielectric constant tensor:
#      x y z
#    x 1.593630 -0.020600 0.013720 
#    y -0.020600 1.625450 -0.007240 
#    z 0.013720 -0.007240 1.615960 
# 
# From -- ./inp_files/562824.got.cif
#   From: 2010.05.17/outbox.cif.g08.bks.cpg/sg2_282_cif.got.tgz:562824.got - 2010.06.03 11:33:40.
