data_PCOD9009846
_publ_section_title
;
Structure prediction by ZEFSAII (Michael W. Deem and Ramdas Pophale) SiO2 
 PCOD9009846
Probable space group: P -1
;
_chemical_formula_sum "Si O2"
_cell_formula_units_Z 14
_cell_length_a 12.031633
_cell_length_b 13.135488
_cell_length_c 10.988853
_cell_angle_alpha 101.193815
_cell_angle_beta 137.737216
_cell_angle_gamma 115.438011
_cell_volume 567.270940
_symmetry_space_group_name_H-M "P -1"
_symmetry_group_IT_number 2
_symmetry_cell_setting 'triclinic'
loop_
_space_group_symop_operation_xyz
x,y,z
-x,-y,-z
loop_
_atom_site_type_symbol
_atom_site_label
_atom_site_fract_x
_atom_site_fract_y
_atom_site_fract_z
Si Si1 0.183620 0.943459 0.396540
Si Si2 0.795579 0.928457 0.175110
Si Si3 0.357349 0.188869 0.403983
Si Si4 0.222574 0.565826 0.799623
Si Si5 0.183334 0.859125 0.631456
Si Si6 0.758221 0.425772 0.543618
Si Si7 0.509719 0.514895 0.365164
O O1 0.315782 0.959249 0.627080
O O2 0.029355 0.966505 0.326238
O O3 0.382480 0.094908 0.476525
O O4 0.864148 0.704236 0.036602
O O5 0.954191 0.120243 0.396087
O O6 0.584811 0.773811 0.085063
O O7 0.520002 0.788860 0.811180
O O8 0.645652 0.352748 0.574161
O O9 0.370084 0.302610 0.519047
O O10 0.000000 0.000000 0.000000
O O11 0.000000 0.500000 0.500000
O O12 0.094858 0.379830 0.663003
O O13 0.113062 0.569482 0.831285
O O14 0.500000 0.000000 0.000000
O O15 0.718703 0.526067 0.497039
O O16 0.500000 0.500000 0.500000
#
# Coordination Sequence:
#
# PCOD9009846 Si02
#       7
#     2   2   2   2   2   2   2
#     4  11  24  39  64 103 128 163 225 258 315 393
#     4  10  21  41  63  95 125 167 219 264 317 375
#     4  11  19  38  64  96 133 165 209 268 320 384
#     4  10  21  40  60  87 127 167 218 256 317 380
#     4  12  24  42  65  92 133 176 213 266 320 372
#     4   9  18  36  62  94 129 166 209 256 325 383
#     4   9  18  36  61  93 128 168 207 259 322 370
#
# _framework density 24.679565
#
# number of rings (size 3 to 8) (size 9 to 14) (size 15 to 20)
#    0.000    1.714    7.143    0.429    0.000    5.143 
#    2.571    0.714    0.000    4.286    0.000    0.000 
#    0.000    0.000    0.000    0.000    0.000    0.000 
#
# Total GULP energy -78281.793596 kJ/mol
# GULP energy per Si atom -5591.556685 kJ/mol
# Density = 2.462339 g / cm^3
# Si number density = 24.679565 Si / 1000 Ang^3
#
#
#
# Elastic Constant Matrix: (Units=GPa)
#
#
# Indices 1 2 3 4 5 6 
#
# 1 102.7664 32.2074 14.6291 17.9687 -3.0864 -2.9083
# 2 32.2074 138.1992 30.4414 21.1253 -20.4926 2.3892
# 3 14.6291 30.4414 52.2028 -7.2149 -26.0673 2.5233
# 4 17.9687 21.1253 -7.2149 44.3660 3.2999 -16.2890
# 5 -3.0864 -20.4926 -26.0673 3.2999 45.8755 9.1810
# 6 -2.9083 2.3892 2.5233 -16.2890 9.1810 45.1793
#
#
#
# Elastic Compliance Matrix: (Units=1/GPa)
#
#
# Indices 1 2 3 4 5 6 
#
# 1 0.011453 -0.001350 -0.003860 -0.004615 -0.001632 -0.000308
# 2 -0.001350 0.010064 -0.004844 -0.006423 0.002760 -0.003225
# 3 -0.003860 -0.004844 0.032018 0.007003 0.015758 -0.002458
# 4 -0.004615 -0.006423 0.007003 0.033532 -0.004130 0.012580
# 5 -0.001632 0.002760 0.015758 -0.004130 0.034082 -0.009546
# 6 -0.000308 -0.003225 -0.002458 0.012580 -0.009546 0.028898
#
#
# Mechanical properties :
#
#
# Convention : Reuss Voigt Hill
#
# Bulk Modulus (GPa) = 29.91712 49.74712 39.83212
# Shear Modulus (GPa) = 27.57887 41.47686 34.52786
#
# Velocity S-wave (km/s) = 3.34650 4.10398 3.74444
# Velocity P-wave (km/s) = 5.20390 6.53130 5.90502
#
# Compressibility (1/GPa) = 0.03342567
#
# Stress axis : x y z
#
# Youngs Moduli (GPa) = 87.31625 99.36066 31.23246
#
# Poissons Ratio (x) = 0.13414 0.12057
# Poissons Ratio (y) = 0.11788 0.15130
# Poissons Ratio (z) = 0.33707 0.48134
#
# Static dielectric constant tensor:
#      x y z
#    x 2.015770 0.013060 -0.003150 
#    y 0.013060 2.022270 -0.033850 
#    z -0.003150 -0.033850 2.019410 
# 
# From -- ./inp_files/428474.got.cif
#   From: 2010.05.17/outbox.cif.g08.bks.cpg/sg2_215_cif.got.tgz:428474.got - 2010.06.03 11:33:40.
