data_PCOD9009885
_publ_section_title
;
Structure prediction by ZEFSAII (Michael W. Deem and Ramdas Pophale) SiO2 
 PCOD9009885
Probable space group: P -1
;
_chemical_formula_sum "Si O2"
_cell_formula_units_Z 16
_cell_length_a 10.156925
_cell_length_b 12.949225
_cell_length_c 18.258129
_cell_angle_alpha 125.474224
_cell_angle_beta 30.202537
_cell_angle_gamma 138.841426
_cell_volume 776.908264
_symmetry_space_group_name_H-M "P -1"
_symmetry_group_IT_number 2
_symmetry_cell_setting 'triclinic'
loop_
_space_group_symop_operation_xyz
x,y,z
-x,-y,-z
loop_
_atom_site_type_symbol
_atom_site_label
_atom_site_fract_x
_atom_site_fract_y
_atom_site_fract_z
Si Si1 0.772133 0.050815 0.950255
Si Si2 0.227501 0.523799 0.622968
Si Si3 0.180981 0.594326 0.376622
Si Si4 0.617252 0.899097 0.566649
Si Si5 0.296728 0.435205 0.852167
Si Si6 0.653238 0.970513 0.345044
Si Si7 0.818023 0.447812 0.180598
Si Si8 0.656098 0.938051 0.731399
O O1 0.035203 0.242913 0.896623
O O2 0.981762 0.984849 0.809807
O O3 0.556282 0.010586 0.110820
O O4 0.500000 0.000000 0.000000
O O5 0.500000 0.500000 0.500000
O O6 0.422178 0.710580 0.589127
O O7 0.063674 0.486537 0.767045
O O8 0.015576 0.433974 0.615120
O O9 0.401580 0.533870 0.235182
O O10 0.406744 0.782092 0.365452
O O11 0.000000 0.500000 0.500000
O O12 0.695187 0.971559 0.640251
O O13 0.379528 0.932023 0.659865
O O14 0.966069 0.975859 0.388615
O O15 0.353727 0.497129 0.766254
O O16 0.134750 0.499635 0.002653
O O17 0.500000 0.000000 0.500000
O O18 0.558988 0.253776 0.231345
#
# Coordination Sequence:
#
# PCOD9009885 Si02
#       8
#     2   2   2   2   2   2   2   2
#     4  10  21  40  60  91 122 163 207 260 312 375
#     4  11  24  40  63  93 128 166 210 254 318 376
#     4  11  24  39  63  90 128 164 207 263 316 369
#     4  10  22  40  62  94 122 161 210 255 309 377
#     4   9  20  40  62  90 122 164 210 255 313 373
#     4  11  24  41  63  92 124 163 213 265 312 375
#     4   9  19  39  64  89 122 163 211 257 309 379
#     4   9  20  37  66  86 124 163 206 254 313 371
#
# _framework density 20.594452
#
# number of rings (size 3 to 8) (size 9 to 14) (size 15 to 20)
#    0.000    2.000    0.000    2.250    7.000    4.000 
#    9.000    0.000    0.000    0.000    0.000    0.000 
#    0.000    0.000    0.000    0.000    0.000    0.000 
#
# Total GULP energy -89167.622496 kJ/mol
# GULP energy per Si atom -5572.976406 kJ/mol
# Density = 2.054758 g / cm^3
# Si number density = 20.594452 Si / 1000 Ang^3
#
#
#
# Elastic Constant Matrix: (Units=GPa)
#
#
# Indices 1 2 3 4 5 6 
#
# 1 155.2893 30.3462 80.3839 12.7472 -14.7746 -3.9192
# 2 30.3462 30.7177 30.9921 15.0295 -5.7731 -9.6381
# 3 80.3839 30.9921 143.6483 21.9683 -10.2034 -2.3501
# 4 12.7472 15.0295 21.9683 26.0338 -6.7036 -3.6110
# 5 -14.7746 -5.7731 -10.2034 -6.7036 39.8954 6.0034
# 6 -3.9192 -9.6381 -2.3501 -3.6110 6.0034 34.6220
#
#
#
# Elastic Compliance Matrix: (Units=1/GPa)
#
#
# Indices 1 2 3 4 5 6 
#
# 1 0.010031 -0.006940 -0.004477 0.003304 0.002294 -0.001154
# 2 -0.006940 0.061479 -0.005263 -0.026154 -0.001445 0.013495
# 3 -0.004477 -0.005263 0.011262 -0.004517 -0.000047 -0.001670
# 4 0.003304 -0.026154 -0.004517 0.056978 0.006211 -0.002348
# 5 0.002294 -0.001445 -0.000047 0.006211 0.027377 -0.004245
# 6 -0.001154 0.013495 -0.001670 -0.002348 -0.004245 0.032887
#
#
# Mechanical properties :
#
#
# Convention : Reuss Voigt Hill
#
# Bulk Modulus (GPa) = 20.23759 68.12220 44.17989
# Shear Modulus (GPa) = 20.01237 32.63910 26.32573
#
# Velocity S-wave (km/s) = 3.12065 3.98534 3.57920
# Velocity P-wave (km/s) = 4.77835 7.37068 6.21126
#
# Compressibility (1/GPa) = 0.04941299
#
# Stress axis : x y z
#
# Youngs Moduli (GPa) = 99.68709 16.26572 88.79058
#
# Poissons Ratio (x) = 0.11288 0.39754
# Poissons Ratio (y) = 0.69182 0.46728
# Poissons Ratio (z) = 0.44633 0.08560
#
# Static dielectric constant tensor:
#      x y z
#    x 1.805430 0.011900 0.014850 
#    y 0.011900 1.680980 0.033790 
#    z 0.014850 0.033790 1.824220 
# 
# From -- ./inp_files/559866.got.cif
#   From: 2010.05.17/outbox.cif.g08.bks.cpg/sg2_280_cif.got.tgz:559866.got - 2010.06.03 11:33:40.
