data_PCOD9009390
_publ_section_title
;
Structure prediction by ZEFSAII (Michael W. Deem and Ramdas Pophale) SiO2 
 PCOD9009390
Probable space group: P -1
;
_chemical_formula_sum "Si O2"
_cell_formula_units_Z 16
_cell_length_a 12.771689
_cell_length_b 7.335451
_cell_length_c 10.284927
_cell_angle_alpha 103.529388
_cell_angle_beta 74.020102
_cell_angle_gamma 50.332206
_cell_volume 593.806491
_symmetry_space_group_name_H-M "P -1"
_symmetry_group_IT_number 2
_symmetry_cell_setting 'triclinic'
loop_
_space_group_symop_operation_xyz
x,y,z
-x,-y,-z
loop_
_atom_site_type_symbol
_atom_site_label
_atom_site_fract_x
_atom_site_fract_y
_atom_site_fract_z
Si Si1 0.958316 0.841021 0.029835
Si Si2 0.384356 0.436241 0.014660
Si Si3 0.855696 0.805941 0.531366
Si Si4 0.668539 0.847273 0.788532
Si Si5 0.579746 0.680109 0.577956
Si Si6 0.063130 0.716801 0.260864
Si Si7 0.407248 0.668091 0.832018
Si Si8 0.737039 0.695624 0.318660
O O1 0.105862 0.533368 0.864010
O O2 0.965827 0.817196 0.178328
O O3 0.000000 0.000000 0.000000
O O4 0.776116 0.019041 0.076493
O O5 0.376997 0.504541 0.877686
O O6 0.473464 0.120112 0.921869
O O7 0.200201 0.694766 0.176819
O O8 0.502106 0.364183 0.076953
O O9 0.717755 0.976704 0.718301
O O10 0.784179 0.780192 0.431242
O O11 0.000000 0.500000 0.500000
O O12 0.935987 0.884482 0.452026
O O13 0.679948 0.658531 0.653090
O O14 0.811030 0.617680 0.804491
O O15 0.516859 0.570888 0.651070
O O16 0.688069 0.565204 0.391017
O O17 0.418676 0.012318 0.652287
#
# Coordination Sequence:
#
# PCOD9009390 Si02
#       8
#     2   2   2   2   2   2   2   2
#     4  12  26  42  62  94 135 170 213 269 319 382
#     4  11  23  40  62  95 130 168 213 264 316 394
#     4   9  21  38  63  96 124 155 212 271 319 375
#     4  10  21  39  68  96 123 164 218 265 319 380
#     4  10  21  42  69  96 128 169 215 270 318 387
#     4  11  21  40  65  92 125 166 213 264 317 379
#     4  11  25  41  60  95 134 168 213 262 328 381
#     4  10  23  41  66  96 130 169 220 266 319 382
#
# _framework density 26.944804999999999
#
# number of rings (size 3 to 8) (size 9 to 14) (size 15 to 20)
#    0.000    1.500    2.500    1.875    5.250    1.000 
#    2.250    0.625    0.000    5.250    0.000    0.000 
#    0.000    0.000    0.000    0.000    0.000    0.000 
#
# Total GULP energy -89357.622541 kJ/mol
# GULP energy per Si atom -5584.851409 kJ/mol
# Density = 2.688348 g / cm^3
# Si number density = 26.944805 Si / 1000 Ang^3
#
#
#
# Elastic Constant Matrix: (Units=GPa)
#
#
# Indices 1 2 3 4 5 6 
#
# 1 76.4426 32.3941 10.0619 -13.0209 -14.4760 -21.0320
# 2 32.3941 130.3497 47.3112 -34.5576 -7.6571 -30.8117
# 3 10.0619 47.3112 83.6533 -22.1387 -34.5989 6.3804
# 4 -13.0209 -34.5576 -22.1387 53.8891 2.3317 -15.2778
# 5 -14.4760 -7.6571 -34.5989 2.3317 47.0087 -10.2275
# 6 -21.0320 -30.8117 6.3804 -15.2778 -10.2275 50.8881
#
#
#
# Elastic Compliance Matrix: (Units=1/GPa)
#
#
# Indices 1 2 3 4 5 6 
#
# 1 0.019869 -0.000212 0.003892 0.009368 0.011240 0.012667
# 2 -0.000212 0.017252 -0.007846 0.012022 -0.000390 0.014872
# 3 0.003892 -0.007846 0.024533 0.004880 0.017464 -0.001243
# 4 0.009368 0.012022 0.004880 0.036818 0.011823 0.023969
# 5 0.011240 -0.000390 0.017464 0.011823 0.039939 0.013796
# 6 0.012667 0.014872 -0.001243 0.023969 0.013796 0.044016
#
#
# Mechanical properties :
#
#
# Convention : Reuss Voigt Hill
#
# Bulk Modulus (GPa) = 18.75417 52.22000 35.48708
# Shear Modulus (GPa) = 23.97718 43.73573 33.85645
#
# Velocity S-wave (km/s) = 2.98629 4.03322 3.54858
# Velocity P-wave (km/s) = 4.34349 6.41183 5.47620
#
# Compressibility (1/GPa) = 0.05332147
#
# Stress axis : x y z
#
# Youngs Moduli (GPa) = 50.33052 57.96489 40.76205
#
# Poissons Ratio (x) = 0.01231 -0.15865
# Poissons Ratio (y) = 0.01069 0.31980
# Poissons Ratio (z) = -0.19589 0.45477
#
# Static dielectric constant tensor:
#      x y z
#    x 2.352500 0.125400 -0.114710 
#    y 0.125400 2.045210 -0.050270 
#    z -0.114710 -0.050270 2.156380 
# 
# From -- ./inp_files/447495.got.cif
#   From: 2010.05.17/outbox.cif.g08.bks.cpg/sg2_224_cif.got.tgz:447495.got - 2010.06.03 11:33:40.
