data_PCOD9009033
_publ_section_title
;
Structure prediction by ZEFSAII (Michael W. Deem and Ramdas Pophale) SiO2 
 PCOD9009033
Probable space group: P -1
;
_chemical_formula_sum "Si O2"
_cell_formula_units_Z 16
_cell_length_a 8.598038
_cell_length_b 22.674439
_cell_length_c 14.424922
_cell_angle_alpha 157.659119
_cell_angle_beta 47.739742
_cell_angle_gamma 128.784055
_cell_volume 791.047452
_symmetry_space_group_name_H-M "P -1"
_symmetry_group_IT_number 2
_symmetry_cell_setting 'triclinic'
loop_
_space_group_symop_operation_xyz
x,y,z
-x,-y,-z
loop_
_atom_site_type_symbol
_atom_site_label
_atom_site_fract_x
_atom_site_fract_y
_atom_site_fract_z
Si Si1 0.936136 0.293225 0.135225
Si Si2 0.270322 0.559695 0.388184
Si Si3 0.526406 0.667302 0.278542
Si Si4 0.505521 0.728268 0.819530
Si Si5 0.165998 0.972924 0.587486
Si Si6 0.490804 0.980359 0.635948
Si Si7 0.988437 0.643428 0.142707
Si Si8 0.612959 0.489128 0.293529
O O1 0.855117 0.349070 0.349567
O O2 0.734423 0.291753 0.147695
O O3 0.122065 0.413738 0.206700
O O4 0.018120 0.119873 0.855633
O O5 0.348635 0.667398 0.429784
O O6 0.484247 0.501619 0.267930
O O7 0.503077 0.808144 0.421575
O O8 0.759758 0.668315 0.228791
O O9 0.500000 0.500000 0.000000
O O10 0.636519 0.656130 0.577125
O O11 0.532957 0.615152 0.731884
O O12 0.543959 0.899826 0.091797
O O13 0.314022 0.993404 0.647206
O O14 0.054752 0.806546 0.398179
O O15 0.299626 0.975121 0.441404
O O16 0.168666 0.596156 0.929237
O O17 0.000000 0.500000 0.000000
#
# Coordination Sequence:
#
# PCOD9009033 Si02
#       8
#     2   2   2   2   2   2   2   2
#     4  10  22  40  69  93 122 169 209 255 311 371
#     4  10  22  43  62  93 131 164 208 254 313 374
#     4  12  26  41  63  95 129 164 207 262 313 368
#     4  10  21  39  66  98 121 160 212 261 302 365
#     4  11  24  42  65  91 125 168 209 256 312 374
#     4  11  24  42  65  92 128 163 209 263 310 365
#     4  12  24  42  65  93 127 167 208 249 317 377
#     4  10  21  40  64  93 125 164 204 255 309 366
#
# _framework density 20.226345999999999
#
# number of rings (size 3 to 8) (size 9 to 14) (size 15 to 20)
#    0.000    1.250    2.500    3.000    5.250    2.000 
#    2.250    2.500    0.000    0.000    0.000    0.000 
#    0.000    0.000    0.000    0.000    0.000    0.000 
#
# Total GULP energy -89399.450465 kJ/mol
# GULP energy per Si atom -5587.465654 kJ/mol
# Density = 2.018031 g / cm^3
# Si number density = 20.226346 Si / 1000 Ang^3
#
#
#
# Elastic Constant Matrix: (Units=GPa)
#
#
# Indices 1 2 3 4 5 6 
#
# 1 43.6153 17.3480 31.4838 1.3570 -3.5490 -3.3275
# 2 17.3480 60.6368 14.3248 11.1715 -0.7226 1.0555
# 3 31.4838 14.3248 130.5920 18.6493 3.3151 13.5111
# 4 1.3570 11.1715 18.6493 31.9419 -0.5266 -9.4423
# 5 -3.5490 -0.7226 3.3151 -0.5266 35.9139 5.0696
# 6 -3.3275 1.0555 13.5111 -9.4423 5.0696 27.9638
#
#
#
# Elastic Compliance Matrix: (Units=1/GPa)
#
#
# Indices 1 2 3 4 5 6 
#
# 1 0.035483 -0.010096 -0.010650 0.012251 0.002572 0.013420
# 2 -0.010096 0.020817 0.002263 -0.010090 -0.000020 -0.006483
# 3 -0.010650 0.002263 0.012724 -0.011060 -0.000778 -0.011094
# 4 0.012251 -0.010090 -0.011060 0.047676 -0.000573 0.023385
# 5 0.002572 -0.000020 -0.000778 -0.000573 0.028830 -0.004738
# 6 0.013420 -0.006483 -0.011094 0.023385 -0.004738 0.051717
#
#
# Mechanical properties :
#
#
# Convention : Reuss Voigt Hill
#
# Bulk Modulus (GPa) = 31.19405 40.12859 35.66132
# Shear Modulus (GPa) = 20.41657 30.60975 25.51316
#
# Velocity S-wave (km/s) = 3.18056 3.89441 3.55545
# Velocity P-wave (km/s) = 5.37995 6.33283 5.87574
#
# Compressibility (1/GPa) = 0.03205739
#
# Stress axis : x y z
#
# Youngs Moduli (GPa) = 28.18245 48.03778 78.59292
#
# Poissons Ratio (x) = 0.48497 0.83703
# Poissons Ratio (y) = 0.28452 -0.17783
# Poissons Ratio (z) = 0.30015 -0.10869
#
# Static dielectric constant tensor:
#      x y z
#    x 1.716560 0.001830 0.018820 
#    y 0.001830 1.756320 -0.038840 
#    z 0.018820 -0.038840 1.728910 
# 
# From -- ./inp_files/508749.got.cif
#   From: 2010.05.17/outbox.cif.g08.bks.cpg/sg2_255_cif.got.tgz:508749.got - 2010.06.03 11:33:40.
