data_PCOD9009143
_publ_section_title
;
Structure prediction by ZEFSAII (Michael W. Deem and Ramdas Pophale) SiO2 
 PCOD9009143
Probable space group: P -1
;
_chemical_formula_sum "Si O2"
_cell_formula_units_Z 16
_cell_length_a 9.131528
_cell_length_b 5.499728
_cell_length_c 20.272955
_cell_angle_alpha 61.885678
_cell_angle_beta 134.243204
_cell_angle_gamma 116.168247
_cell_volume 633.082616
_symmetry_space_group_name_H-M "P -1"
_symmetry_group_IT_number 2
_symmetry_cell_setting 'triclinic'
loop_
_space_group_symop_operation_xyz
x,y,z
-x,-y,-z
loop_
_atom_site_type_symbol
_atom_site_label
_atom_site_fract_x
_atom_site_fract_y
_atom_site_fract_z
Si Si1 0.541030 0.801845 0.131264
Si Si2 0.316303 0.247634 0.960202
Si Si3 0.338870 0.789005 0.526172
Si Si4 0.769737 0.817575 0.469596
Si Si5 0.803937 0.622679 0.894120
Si Si6 0.119819 0.468996 0.326198
Si Si7 0.064286 0.136222 0.687894
Si Si8 0.850618 0.286354 0.823684
O O1 0.670726 0.868809 0.095775
O O2 0.407444 0.498190 0.119445
O O3 0.688016 0.814093 0.239412
O O4 0.369558 0.000299 0.054469
O O5 0.102309 0.351731 0.891176
O O6 0.500000 0.500000 0.000000
O O7 0.326733 0.453051 0.569411
O O8 0.098614 0.790600 0.426865
O O9 0.500000 0.000000 0.500000
O O10 0.361959 0.942625 0.584308
O O11 0.773975 0.653699 0.562558
O O12 0.000000 0.000000 0.500000
O O13 0.780439 0.483249 0.831972
O O14 0.824161 0.952772 0.863524
O O15 0.000000 0.500000 0.000000
O O16 0.243416 0.641236 0.284972
O O17 0.987187 0.675852 0.291755
O O18 0.997772 0.196800 0.286002
#
# Coordination Sequence:
#
# PCOD9009143 Si02
#       8
#     2   2   2   2   2   2   2   2
#     4  11  24  39  62  93 127 173 224 279 322 393
#     4  11  23  37  66  92 119 178 230 265 333 388
#     4  10  21  40  72 100 136 175 218 267 336 412
#     4  10  21  40  74 104 135 172 217 276 334 405
#     4  12  26  42  61  93 132 169 230 284 332 374
#     4  10  21  40  68  91 133 169 220 260 337 391
#     4  10  21  39  67  91 131 168 217 269 323 383
#     4  12  24  42  65  88 133 179 218 279 329 390
#
# _framework density 25.273161000000002
#
# number of rings (size 3 to 8) (size 9 to 14) (size 15 to 20)
#    0.000    1.250    2.500    3.375    3.500    0.000 
#    0.000    0.000   66.000    0.000    0.000    0.000 
#    0.000    0.000    0.000    0.000    0.000    0.000 
#
# Total GULP energy -89225.790227 kJ/mol
# GULP energy per Si atom -5576.611889 kJ/mol
# Density = 2.521564 g / cm^3
# Si number density = 25.273161 Si / 1000 Ang^3
#
#
#
# Elastic Constant Matrix: (Units=GPa)
#
#
# Indices 1 2 3 4 5 6 
#
# 1 101.5481 37.0989 10.1728 20.0525 -14.7066 -23.4861
# 2 37.0989 191.1249 14.6360 16.4608 -5.6101 -27.3573
# 3 10.1728 14.6360 94.3131 0.6788 13.4298 10.4766
# 4 20.0525 16.4608 0.6788 68.6555 -30.5825 -3.5864
# 5 -14.7066 -5.6101 13.4298 -30.5825 60.4040 15.9440
# 6 -23.4861 -27.3573 10.4766 -3.5864 15.9440 55.7242
#
#
#
# Elastic Compliance Matrix: (Units=1/GPa)
#
#
# Indices 1 2 3 4 5 6 
#
# 1 0.012154 -0.001351 -0.001670 -0.002673 0.000689 0.004404
# 2 -0.001351 0.006050 -0.000955 -0.001329 -0.000958 0.002769
# 3 -0.001670 -0.000955 0.011623 -0.000774 -0.002782 -0.002612
# 4 -0.002673 -0.001329 -0.000774 0.020171 0.010492 -0.003337
# 5 0.000689 -0.000958 -0.002782 0.010492 0.024117 -0.005882
# 6 0.004404 0.002769 -0.002612 -0.003337 -0.005882 0.023121
#
#
# Mechanical properties :
#
#
# Convention : Reuss Voigt Hill
#
# Bulk Modulus (GPa) = 45.70864 56.75573 51.23219
# Shear Modulus (GPa) = 44.45265 58.62864 51.54065
#
# Velocity S-wave (km/s) = 4.19846 4.82165 4.52081
# Velocity P-wave (km/s) = 6.45197 7.31461 6.89679
#
# Compressibility (1/GPa) = 0.02187770
#
# Stress axis : x y z
#
# Youngs Moduli (GPa) = 82.27453 165.28473 86.03605
#
# Poissons Ratio (x) = 0.22323 0.14364
# Poissons Ratio (y) = 0.11112 0.08215
# Poissons Ratio (z) = 0.13736 0.15781
#
# Static dielectric constant tensor:
#      x y z
#    x 2.135910 -0.039590 -0.070300 
#    y -0.039590 2.064540 0.013690 
#    z -0.070300 0.013690 2.086170 
# 
# From -- ./inp_files/585576.got.cif
#   From: 2010.05.17/outbox.cif.g08.bks.cpg/sg2_293_cif.got.tgz:585576.got - 2010.06.03 11:33:40.
