data_PCOD9009813
_publ_section_title
;
Structure prediction by ZEFSAII (Michael W. Deem and Ramdas Pophale) SiO2 
 PCOD9009813
Probable space group: P -1
;
_chemical_formula_sum "Si O2"
_cell_formula_units_Z 16
_cell_length_a 8.948464
_cell_length_b 24.572997
_cell_length_c 17.587638
_cell_angle_alpha 160.628979
_cell_angle_beta 36.026822
_cell_angle_gamma 142.070579
_cell_volume 747.829791
_symmetry_space_group_name_H-M "P -1"
_symmetry_group_IT_number 2
_symmetry_cell_setting 'triclinic'
loop_
_space_group_symop_operation_xyz
x,y,z
-x,-y,-z
loop_
_atom_site_type_symbol
_atom_site_label
_atom_site_fract_x
_atom_site_fract_y
_atom_site_fract_z
Si Si1 0.283759 0.451953 0.090187
Si Si2 0.409600 0.491193 0.810327
Si Si3 0.827784 0.644084 0.749110
Si Si4 0.067293 0.759999 0.358587
Si Si5 0.028457 0.307142 0.516495
Si Si6 0.858130 0.153199 0.240296
Si Si7 0.074701 0.146276 0.859966
Si Si8 0.515003 0.918150 0.969368
O O1 0.389215 0.525519 0.226366
O O2 0.013396 0.506501 0.243950
O O3 0.500000 0.500000 0.000000
O O4 0.229290 0.259290 0.881739
O O5 0.547116 0.541708 0.740315
O O6 0.207773 0.327729 0.673160
O O7 0.267011 0.648708 0.095644
O O8 0.000000 0.500000 0.500000
O O9 0.935272 0.729312 0.740087
O O10 0.858634 0.776605 0.981066
O O11 0.063167 0.727636 0.407116
O O12 0.117048 0.955648 0.584200
O O13 0.819656 0.222055 0.430076
O O14 0.288881 0.220699 0.289286
O O15 0.621375 0.074512 0.184103
O O16 0.000000 0.000000 0.000000
O O17 0.771867 0.154097 0.986216
O O18 0.500000 0.000000 0.000000
#
# Coordination Sequence:
#
# PCOD9009813 Si02
#       8
#     2   2   2   2   2   2   2   2
#     4  11  24  46  64  95 137 177 219 280 349 398
#     4  10  25  45  73  95 139 180 230 283 339 411
#     4  11  23  40  66 101 132 181 226 266 345 410
#     4  11  23  47  72 101 129 184 236 276 334 410
#     4  11  23  40  68  94 140 179 214 277 352 399
#     4  10  21  40  59  99 134 166 214 276 338 388
#     4  11  24  41  72 102 130 182 235 274 336 414
#     4  11  21  39  67 101 135 170 227 286 329 404
#
# _framework density 21.395243000000001
#
# number of rings (size 3 to 8) (size 9 to 14) (size 15 to 20)
#    0.000    1.250    3.750    2.250    5.250    2.500 
#    9.000    0.625    0.000    0.000    0.000    0.000 
#    0.000    0.000    0.000    0.000    0.000    0.000 
#
# Total GULP energy -89213.399213 kJ/mol
# GULP energy per Si atom -5575.837451 kJ/mol
# Density = 2.134655 g / cm^3
# Si number density = 21.395243 Si / 1000 Ang^3
#
#
#
# Elastic Constant Matrix: (Units=GPa)
#
#
# Indices 1 2 3 4 5 6 
#
# 1 89.5590 19.5414 19.7479 5.4565 -17.7546 -13.3576
# 2 19.5414 83.6979 8.8618 2.1817 -10.2342 -16.2118
# 3 19.7479 8.8618 106.8432 13.3004 -24.7235 -15.2378
# 4 5.4565 2.1817 13.3004 36.5474 -9.8636 -9.9907
# 5 -17.7546 -10.2342 -24.7235 -9.8636 35.1029 -5.9961
# 6 -13.3576 -16.2118 -15.2378 -9.9907 -5.9961 25.2483
#
#
#
# Elastic Compliance Matrix: (Units=1/GPa)
#
#
# Indices 1 2 3 4 5 6 
#
# 1 0.014953 0.000368 0.001437 0.004225 0.012190 0.013581
# 2 0.000368 0.016214 0.003075 0.005814 0.011709 0.017542
# 3 0.001437 0.003075 0.014319 0.002940 0.015297 0.016173
# 4 0.004225 0.005814 0.002940 0.038889 0.021660 0.028275
# 5 0.012190 0.011709 0.015297 0.021660 0.062906 0.046709
# 6 0.013581 0.017542 0.016173 0.028275 0.046709 0.090097
#
#
# Mechanical properties :
#
#
# Convention : Reuss Voigt Hill
#
# Bulk Modulus (GPa) = 18.10078 41.82248 29.96163
# Shear Modulus (GPa) = 20.32233 34.84300 27.58267
#
# Velocity S-wave (km/s) = 3.08531 4.03989 3.59443
# Velocity P-wave (km/s) = 4.60117 6.43047 5.59114
#
# Compressibility (1/GPa) = 0.05524625
#
# Stress axis : x y z
#
# Youngs Moduli (GPa) = 66.87418 61.67368 69.83662
#
# Poissons Ratio (x) = -0.02267 -0.10038
# Poissons Ratio (y) = -0.02458 -0.21473
# Poissons Ratio (z) = -0.09612 -0.18963
#
# Static dielectric constant tensor:
#      x y z
#    x 1.792810 0.068520 0.063030 
#    y 0.068520 1.727770 -0.094760 
#    z 0.063030 -0.094760 1.656320 
# 
# From -- ./inp_files/563259.got.cif
#   From: 2010.05.17/outbox.cif.g08.bks.cpg/sg2_282_cif.got.tgz:563259.got - 2010.06.03 11:33:40.
