data_PCOD9009939
_publ_section_title
;
Structure prediction by ZEFSAII (Michael W. Deem and Ramdas Pophale) SiO2 
 PCOD9009939
Probable space group: P -1
;
_chemical_formula_sum "Si O2"
_cell_formula_units_Z 16
_cell_length_a 5.384042
_cell_length_b 12.116309
_cell_length_c 25.392747
_cell_angle_alpha 32.567506
_cell_angle_beta 50.014692
_cell_angle_gamma 48.684429
_cell_volume 654.326400
_symmetry_space_group_name_H-M "P -1"
_symmetry_group_IT_number 2
_symmetry_cell_setting 'triclinic'
loop_
_space_group_symop_operation_xyz
x,y,z
-x,-y,-z
loop_
_atom_site_type_symbol
_atom_site_label
_atom_site_fract_x
_atom_site_fract_y
_atom_site_fract_z
Si Si1 0.629005 0.957033 0.832130
Si Si2 0.625300 0.736851 0.422322
Si Si3 0.148130 0.069188 0.588739
Si Si4 0.960789 0.863360 0.994843
Si Si5 0.877551 0.520218 0.947734
Si Si6 0.307774 0.406986 0.641228
Si Si7 0.390542 0.341254 0.358802
Si Si8 0.552092 0.196802 0.841451
O O1 0.447893 0.177395 0.739732
O O2 0.778469 0.040197 0.829531
O O3 0.849996 0.769798 0.840563
O O4 0.345167 0.861551 0.935193
O O5 0.795795 0.871571 0.382504
O O6 0.578577 0.534979 0.542536
O O7 0.810078 0.639612 0.382663
O O8 0.242393 0.866204 0.403401
O O9 0.335098 0.209318 0.470862
O O10 0.345409 0.825537 0.646367
O O11 0.748326 0.094235 0.908479
O O12 0.819623 0.825731 0.086065
O O13 0.911443 0.667111 0.043826
O O14 0.500000 0.500000 0.000000
O O15 0.000000 0.500000 0.000000
O O16 0.989808 0.565198 0.650245
O O17 0.488150 0.559798 0.265043
#
# Coordination Sequence:
#
# PCOD9009939 Si02
#       8
#     2   2   2   2   2   2   2   2
#     4  11  21  38  64  88 122 166 211 259 315 381
#     4  10  23  43  64  96 132 171 208 269 317 379
#     4  10  23  43  67  91 135 170 213 258 326 381
#     4  10  22  39  56  90 120 163 204 261 311 371
#     4  10  21  40  61  85 120 159 202 254 313 368
#     4  10  22  39  65  96 127 165 217 262 318 382
#     4  10  22  40  64  95 125 171 213 263 318 385
#     4  11  21  37  63  85 124 157 214 255 314 365
#
# _framework density 24.452627
#
# number of rings (size 3 to 8) (size 9 to 14) (size 15 to 20)
#    0.000    1.750    2.500    1.125    0.000   12.000 
#    0.000    2.500    0.000    0.000    0.000    0.000 
#    0.000    0.000    0.000    0.000    0.000    0.000 
#
# Total GULP energy -89359.376700 kJ/mol
# GULP energy per Si atom -5584.961044 kJ/mol
# Density = 2.439697 g / cm^3
# Si number density = 24.452627 Si / 1000 Ang^3
#
#
#
# Elastic Constant Matrix: (Units=GPa)
#
#
# Indices 1 2 3 4 5 6 
#
# 1 97.1812 34.5307 14.2341 -9.7546 -1.7063 6.5144
# 2 34.5307 154.2059 28.3363 -39.6459 2.4647 0.0001
# 3 14.2341 28.3363 101.5350 -27.4564 -11.4629 -8.6785
# 4 -9.7546 -39.6459 -27.4564 47.7318 -7.2038 -4.2219
# 5 -1.7063 2.4647 -11.4629 -7.2038 28.2253 -2.7576
# 6 6.5144 0.0001 -8.6785 -4.2219 -2.7576 38.0260
#
#
#
# Elastic Compliance Matrix: (Units=1/GPa)
#
#
# Indices 1 2 3 4 5 6 
#
# 1 0.011457 -0.002506 -0.001297 -0.000696 -0.000022 -0.002338
# 2 -0.002506 0.008858 0.000039 0.007141 0.001041 0.001306
# 3 -0.001297 0.000039 0.014007 0.009566 0.008547 0.005101
# 4 -0.000696 0.007141 0.009566 0.034800 0.012794 0.007094
# 5 -0.000022 0.001041 0.008547 0.012794 0.042706 0.006472
# 6 -0.002338 0.001306 0.005101 0.007094 0.006472 0.029119
#
#
# Mechanical properties :
#
#
# Convention : Reuss Voigt Hill
#
# Bulk Modulus (GPa) = 37.32091 56.34714 46.83403
# Shear Modulus (GPa) = 31.76502 41.18471 36.47486
#
# Velocity S-wave (km/s) = 3.60813 4.10843 3.86638
# Velocity P-wave (km/s) = 5.71435 6.75271 6.25511
#
# Compressibility (1/GPa) = 0.02679463
#
# Stress axis : x y z
#
# Youngs Moduli (GPa) = 87.28394 112.89386 71.39117
#
# Poissons Ratio (x) = 0.28288 0.09262
# Poissons Ratio (y) = 0.21871 -0.00281
# Poissons Ratio (z) = 0.11323 -0.00444
#
# Static dielectric constant tensor:
#      x y z
#    x 2.056280 -0.018220 -0.023420 
#    y -0.018220 2.020720 0.005480 
#    z -0.023420 0.005480 1.986910 
# 
# From -- ./inp_files/124596.got.cif
#   From: 2010.05.17/outbox.cif.g08.bks.cpg/sg2_63_cif.got.tgz:124596.got - 2010.06.03 11:33:40.
