data_PCOD9009753
_publ_section_title
;
Structure prediction by ZEFSAII (Michael W. Deem and Ramdas Pophale) SiO2 
 PCOD9009753
Probable space group: P -1
;
_chemical_formula_sum "Si O2"
_cell_formula_units_Z 16
_cell_length_a 12.705151
_cell_length_b 8.724130
_cell_length_c 15.578972
_cell_angle_alpha 115.399320
_cell_angle_beta 27.192144
_cell_angle_gamma 100.591117
_cell_volume 625.744631
_symmetry_space_group_name_H-M "P -1"
_symmetry_group_IT_number 2
_symmetry_cell_setting 'triclinic'
loop_
_space_group_symop_operation_xyz
x,y,z
-x,-y,-z
loop_
_atom_site_type_symbol
_atom_site_label
_atom_site_fract_x
_atom_site_fract_y
_atom_site_fract_z
Si Si1 0.746703 0.666031 0.970077
Si Si2 0.646139 0.555468 0.526220
Si Si3 0.299013 0.198775 0.147302
Si Si4 0.113493 0.907026 0.806518
Si Si5 0.016917 0.988607 0.710933
Si Si6 0.360073 0.395731 0.652181
Si Si7 0.618219 0.865504 0.280032
Si Si8 0.464946 0.607374 0.869623
O O1 0.619297 0.791130 0.007920
O O2 0.040402 0.517660 0.694984
O O3 0.773713 0.791861 0.059502
O O4 0.591373 0.562153 0.096932
O O5 0.321379 0.608387 0.743076
O O6 0.681639 0.638331 0.423256
O O7 0.548479 0.591682 0.706558
O O8 0.325343 0.364426 0.218562
O O9 0.034419 0.178780 0.332002
O O10 0.500000 0.000000 0.000000
O O11 0.313322 0.677995 0.585803
O O12 0.947891 0.989641 0.862110
O O13 0.345639 0.969961 0.657714
O O14 0.000000 0.000000 0.000000
O O15 0.319569 0.936611 0.484209
O O16 0.815840 0.195266 0.869298
O O17 0.273181 0.317663 0.777463
#
# Coordination Sequence:
#
# PCOD9009753 Si02
#       8
#     2   2   2   2   2   2   2   2
#     4  12  25  43  72 100 139 176 225 287 346 398
#     4  11  24  41  67  98 144 178 218 277 348 405
#     4  10  24  49  71  96 131 180 235 287 339 400
#     4  11  21  36  64  94 136 180 226 270 330 402
#     4  10  22  44  70  94 138 175 229 285 331 393
#     4  10  21  40  59 100 140 178 222 269 329 411
#     4  11  23  41  70 102 139 178 230 271 333 418
#     4  11  25  46  69 102 134 180 234 285 338 404
#
# _framework density 25.569537
#
# number of rings (size 3 to 8) (size 9 to 14) (size 15 to 20)
#    0.000    1.250    1.250    5.625    3.500    3.000 
#    2.250    1.250    0.000    0.000    0.000    0.000 
#    0.000    0.000    0.000    0.000    0.000    0.000 
#
# Total GULP energy -89120.344107 kJ/mol
# GULP energy per Si atom -5570.021507 kJ/mol
# Density = 2.551134 g / cm^3
# Si number density = 25.569537 Si / 1000 Ang^3
#
#
#
# Elastic Constant Matrix: (Units=GPa)
#
#
# Indices 1 2 3 4 5 6 
#
# 1 147.2226 41.4890 6.1155 9.8820 7.0795 3.4181
# 2 41.4890 79.5496 2.5365 22.0364 0.6730 -2.4832
# 3 6.1155 2.5365 72.2217 -2.9191 -0.7217 -2.1205
# 4 9.8820 22.0364 -2.9191 12.4278 -1.8822 2.6040
# 5 7.0795 0.6730 -0.7217 -1.8822 44.9928 -9.1715
# 6 3.4181 -2.4832 -2.1205 2.6040 -9.1715 70.3653
#
#
#
# Elastic Compliance Matrix: (Units=1/GPa)
#
#
# Indices 1 2 3 4 5 6 
#
# 1 0.008104 -0.004719 -0.000485 0.001783 -0.001303 -0.000811
# 2 -0.004719 0.028581 -0.002485 -0.048273 -0.001174 0.002796
# 3 -0.000485 -0.002485 0.014319 0.008232 0.000719 0.000157
# 4 0.001783 -0.048273 0.008232 0.168981 0.006219 -0.006985
# 5 -0.001303 -0.001174 0.000719 0.006219 0.023301 0.002851
# 6 -0.000811 0.002796 0.000157 -0.006985 0.002851 0.014984
#
#
# Mechanical properties :
#
#
# Convention : Reuss Voigt Hill
#
# Bulk Modulus (GPa) = 28.07004 44.36400 36.21702
# Shear Modulus (GPa) = 17.51154 42.14739 29.82946
#
# Velocity S-wave (km/s) = 2.61982 4.06438 3.41926
# Velocity P-wave (km/s) = 4.48921 6.27803 5.45741
#
# Compressibility (1/GPa) = 0.03562518
#
# Stress axis : x y z
#
# Youngs Moduli (GPa) = 123.38944 34.98828 69.83673
#
# Poissons Ratio (x) = 0.16513 0.03389
# Poissons Ratio (y) = 0.58233 0.17354
# Poissons Ratio (z) = 0.05988 0.08694
#
# Static dielectric constant tensor:
#      x y z
#    x 1.989610 0.004700 -0.101840 
#    y 0.004700 2.190110 -0.052840 
#    z -0.101840 -0.052840 2.362310 
# 
# From -- ./inp_files/494679.got.cif
#   From: 2010.05.17/outbox.cif.g08.bks.cpg/sg2_248_cif.got.tgz:494679.got - 2010.06.03 11:33:40.
